data_PCOD9028155
_publ_section_title
;
Structure prediction by ZEFSAII (Michael W. Deem and Ramdas Pophale) SiO2 
 PCOD9028155
Probable space group: P -1
;
_chemical_formula_sum "Si O2"
_cell_formula_units_Z 16
_cell_length_a 11.557032
_cell_length_b 7.988325
_cell_length_c 12.385150
_cell_angle_alpha 36.202285
_cell_angle_beta 97.023846
_cell_angle_gamma 105.123266
_cell_volume 644.098714
_symmetry_space_group_name_H-M "P -1"
_symmetry_group_IT_number 2
_symmetry_cell_setting 'triclinic'
loop_
_space_group_symop_operation_xyz
x,y,z
-x,-y,-z
loop_
_atom_site_type_symbol
_atom_site_label
_atom_site_fract_x
_atom_site_fract_y
_atom_site_fract_z
Si Si1 0.412502 0.586799 0.359203
Si Si2 0.184747 0.822811 0.996248
Si Si3 0.332261 0.119368 0.046954
Si Si4 0.819659 0.382185 0.414646
Si Si5 0.082871 0.226456 0.984885
Si Si6 0.090932 0.177606 0.261016
Si Si7 0.838513 0.802299 0.390860
Si Si8 0.555949 0.347764 0.332679
O O1 0.500000 0.500000 0.500000
O O2 0.274349 0.391219 0.456723
O O3 0.465017 0.507923 0.293963
O O4 0.407673 0.918101 0.210584
O O5 0.148568 0.472871 0.179195
O O6 0.062925 0.904453 0.984062
O O7 0.302579 0.981344 0.994993
O O8 0.204494 0.958336 0.809135
O O9 0.193535 0.075268 0.089595
O O10 0.399226 0.464107 0.868741
O O11 0.873450 0.517561 0.233899
O O12 0.875467 0.588853 0.416024
O O13 0.680422 0.389670 0.391970
O O14 0.831172 0.055865 0.600797
O O15 0.076719 0.295861 0.076329
O O16 0.955689 0.979029 0.377849
O O17 0.500000 0.000000 0.500000
#
# Coordination Sequence:
#
# PCOD9028155 Si02
#       8
#     2   2   2   2   2   2   2   2
#     4  12  25  46  72  99 139 183 239 286 346 409
#     4  11  23  44  66 105 143 175 225 287 347 421
#     4  11  24  45  73  98 133 191 227 284 355 412
#     4  11  23  44  68 100 140 180 234 287 345 421
#     4  10  22  41  71  98 142 182 222 277 352 412
#     4  11  26  40  69 107 143 178 231 287 348 414
#     4  11  22  43  68  99 137 184 229 284 344 412
#     4  11  26  47  69  98 135 180 240 290 340 413
#
# _framework density 24.840914999999999
#
# number of rings (size 3 to 8) (size 9 to 14) (size 15 to 20)
#    0.000    1.000    3.750    3.375    5.250    4.500 
#    0.000    0.625    0.000    0.000    0.000    0.000 
#    0.000    0.000    0.000    0.000    0.000    0.000 
#
# Total GULP energy -89407.192672 kJ/mol
# GULP energy per Si atom -5587.949542 kJ/mol
# Density = 2.478438 g / cm^3
# Si number density = 24.840915 Si / 1000 Ang^3
#
#
#
# Elastic Constant Matrix: (Units=GPa)
#
#
# Indices 1 2 3 4 5 6 
#
# 1 96.0472 19.3364 50.0932 0.0027 4.4990 -10.8780
# 2 19.3364 19.8475 35.7898 -13.8470 -1.5857 11.3306
# 3 50.0932 35.7898 142.8330 -27.7905 14.1226 2.7849
# 4 0.0027 -13.8470 -27.7905 46.6655 -1.7165 2.3956
# 5 4.4990 -1.5857 14.1226 -1.7165 49.8284 -1.5749
# 6 -10.8780 11.3306 2.7849 2.3956 -1.5749 22.3002
#
#
#
# Elastic Compliance Matrix: (Units=1/GPa)
#
#
# Indices 1 2 3 4 5 6 
#
# 1 0.078619 -0.302926 0.030647 -0.082501 -0.022080 0.195741
# 2 -0.302926 1.431164 -0.173537 0.370730 0.106863 -0.885537
# 3 0.030647 -0.173537 0.031801 -0.038369 -0.015395 0.102185
# 4 -0.082501 0.370730 -0.038369 0.121643 0.026885 -0.234986
# 5 -0.022080 0.106863 -0.015395 0.026885 0.028730 -0.064003
# 6 0.195741 -0.885537 0.102185 -0.234986 -0.064003 0.598222
#
#
# Mechanical properties :
#
#
# Convention : Reuss Voigt Hill
#
# Bulk Modulus (GPa) = 1.53858 52.12961 26.83409
# Shear Modulus (GPa) = 1.47125 33.99270 17.73198
#
# Velocity S-wave (km/s) = 0.77043 3.70322 2.67464
# Velocity P-wave (km/s) = 1.18833 6.27025 4.51266
#
# Compressibility (1/GPa) = 0.64994988
#
# Stress axis : x y z
#
# Youngs Moduli (GPa) = 12.71952 0.69873 31.44558
#
# Poissons Ratio (x) = 0.21166 -0.96370
# Poissons Ratio (y) = 3.85308 5.45698
# Poissons Ratio (z) = -0.38981 0.12126
#
# Static dielectric constant tensor:
#      x y z
#    x 1.964250 -0.082460 -0.006420 
#    y -0.082460 2.113740 0.000490 
#    z -0.006420 0.000490 2.021450 
# 
# From -- ./inp_files/514836.got.cif
#   From: 2010.05.17/outbox.cif.g08.bks.cpg/sg2_258_cif.got.tgz:514836.got - 2010.06.03 11:33:40.
