data_PCOD9028615
_publ_section_title
;
Structure prediction by ZEFSAII (Michael W. Deem and Ramdas Pophale) SiO2 
 PCOD9028615
Probable space group: P -1
;
_chemical_formula_sum "Si O2"
_cell_formula_units_Z 14
_cell_length_a 13.733520
_cell_length_b 6.785391
_cell_length_c 22.229442
_cell_angle_alpha 108.828259
_cell_angle_beta 160.580608
_cell_angle_gamma 80.401913
_cell_volume 586.222547
_symmetry_space_group_name_H-M "P -1"
_symmetry_group_IT_number 2
_symmetry_cell_setting 'triclinic'
loop_
_space_group_symop_operation_xyz
x,y,z
-x,-y,-z
loop_
_atom_site_type_symbol
_atom_site_label
_atom_site_fract_x
_atom_site_fract_y
_atom_site_fract_z
Si Si1 0.475870 0.742595 0.586820
Si Si2 0.790254 0.397940 0.710189
Si Si3 0.746355 0.252292 0.799753
Si Si4 0.703112 0.710392 0.372228
Si Si5 0.767446 0.561310 0.214148
Si Si6 0.593774 0.262173 0.202374
Si Si7 0.461994 0.814854 0.125903
O O1 0.635761 0.565655 0.660888
O O2 0.387733 0.749586 0.465757
O O3 0.131135 0.631457 0.410179
O O4 0.710600 0.999128 0.772869
O O5 0.796441 0.261220 0.758980
O O6 0.151628 0.568561 0.916888
O O7 0.400894 0.245436 0.618714
O O8 0.000000 0.500000 0.000000
O O9 0.527721 0.439427 0.223321
O O10 0.572692 0.843104 0.262557
O O11 0.071542 0.748785 0.583596
O O12 0.653308 0.361538 0.179300
O O13 0.750625 0.781674 0.257315
O O14 0.500000 0.500000 0.000000
O O15 0.357025 0.997423 0.051883
#
# Coordination Sequence:
#
# PCOD9028615 Si02
#       7
#     2   2   2   2   2   2   2
#     4  11  26  46  68  95 141 180 226 286 335 410
#     4  11  25  46  66 102 136 182 227 275 346 406
#     4  12  25  43  70 100 134 180 226 280 340 406
#     4  10  22  42  64 101 136 172 231 272 349 397
#     4  11  23  44  67 100 134 179 234 276 337 409
#     4  10  23  40  68  99 137 174 223 287 340 403
#     4  11  22  41  70  98 136 178 223 283 338 405
#
# _framework density 23.881716000000001
#
# number of rings (size 3 to 8) (size 9 to 14) (size 15 to 20)
#    0.000    1.143    2.857    2.571    2.000    4.571 
#    5.143    0.000    0.000    0.000    0.000    0.000 
#    0.000    0.000    0.000    0.000    0.000    0.000 
#
# Total GULP energy -78198.516013 kJ/mol
# GULP energy per Si atom -5585.608287 kJ/mol
# Density = 2.382736 g / cm^3
# Si number density = 23.881716 Si / 1000 Ang^3
#
#
#
# Elastic Constant Matrix: (Units=GPa)
#
#
# Indices 1 2 3 4 5 6 
#
# 1 83.1953 46.2710 -4.8629 4.7290 9.1182 -6.1893
# 2 46.2710 118.0400 29.2372 16.3294 2.7546 13.6473
# 3 -4.8629 29.2372 61.4502 6.2790 -1.6211 -5.0486
# 4 4.7290 16.3294 6.2790 32.0730 -3.0173 4.4801
# 5 9.1182 2.7546 -1.6211 -3.0173 34.6847 -15.5962
# 6 -6.1893 13.6473 -5.0486 4.4801 -15.5962 40.5777
#
#
#
# Elastic Compliance Matrix: (Units=1/GPa)
#
#
# Indices 1 2 3 4 5 6 
#
# 1 0.018240 -0.009461 0.006465 -0.000120 -0.000849 0.006455
# 2 -0.009461 0.016028 -0.008769 -0.004148 -0.003523 -0.008821
# 3 0.006465 -0.008769 0.021887 -0.001584 0.003572 0.008206
# 4 -0.000120 -0.004148 -0.001584 0.034081 0.002527 -0.001612
# 5 -0.000849 -0.003523 0.003572 0.002527 0.036594 0.015286
# 6 0.006455 -0.008821 0.008206 -0.001612 0.015286 0.035669
#
#
# Mechanical properties :
#
#
# Convention : Reuss Voigt Hill
#
# Bulk Modulus (GPa) = 30.65019 44.88622 37.76820
# Shear Modulus (GPa) = 25.39292 34.26978 29.83135
#
# Velocity S-wave (km/s) = 3.26433 3.79222 3.53814
# Velocity P-wave (km/s) = 5.20287 6.16528 5.70441
#
# Compressibility (1/GPa) = 0.03262623
#
# Stress axis : x y z
#
# Youngs Moduli (GPa) = 54.82425 62.38988 45.68877
#
# Poissons Ratio (x) = 0.59029 -0.29539
# Poissons Ratio (y) = 0.51871 0.40062
# Poissons Ratio (z) = -0.35445 0.54707
#
# Static dielectric constant tensor:
#      x y z
#    x 1.928150 0.027520 0.007990 
#    y 0.027520 2.024010 0.091860 
#    z 0.007990 0.091860 1.992240 
# 
# From -- ./inp_files/349757.got.cif
#   From: 2010.05.17/outbox.cif.g08.bks.cpg/sg2_175_cif.got.tgz:349757.got - 2010.06.03 11:33:40.
