data_PCOD9028498
_publ_section_title
;
Structure prediction by ZEFSAII (Michael W. Deem and Ramdas Pophale) SiO2 
 PCOD9028498
Probable space group: P -1
;
_chemical_formula_sum "Si O2"
_cell_formula_units_Z 15
_cell_length_a 12.153767
_cell_length_b 13.222212
_cell_length_c 20.376556
_cell_angle_alpha 31.694838
_cell_angle_beta 152.693132
_cell_angle_gamma 131.469971
_cell_volume 727.011420
_symmetry_space_group_name_H-M "P -1"
_symmetry_group_IT_number 2
_symmetry_cell_setting 'triclinic'
loop_
_space_group_symop_operation_xyz
x,y,z
-x,-y,-z
loop_
_atom_site_type_symbol
_atom_site_label
_atom_site_fract_x
_atom_site_fract_y
_atom_site_fract_z
Si Si1 0.022172 0.890515 0.641853
Si Si2 0.452457 0.980941 0.339640
Si Si3 0.554609 0.679355 0.238258
Si Si4 0.330348 0.646494 0.271924
Si Si5 0.903276 0.935646 0.279655
Si Si6 0.562754 0.266345 0.402737
Si Si7 0.831638 0.573978 0.007043
Si Si8 0.000000 0.000000 0.000000
O O1 0.740162 0.906755 0.506043
O O2 0.190582 0.642477 0.866163
O O3 0.000000 0.000000 0.500000
O O4 0.110237 0.004939 0.683576
O O5 0.447707 0.887418 0.460525
O O6 0.273361 0.915924 0.232030
O O7 0.334899 0.233047 0.141402
O O8 0.518372 0.660910 0.306604
O O9 0.778789 0.764969 0.296487
O O10 0.604933 0.461084 0.350712
O O11 0.283734 0.854540 0.972018
O O12 0.500000 0.500000 0.500000
O O13 0.152587 0.867390 0.087957
O O14 0.125319 0.560748 0.177620
O O15 0.194705 0.851302 0.452163
O O16 0.294994 0.359083 0.168599
#
# Coordination Sequence:
#
# PCOD9028498 Si02
#       8
#     2   2   2   2   2   2   2   1
#     4  12  27  45  67  99 138 184 223 278 341 411
#     4  11  25  44  72 101 134 175 227 286 340 401
#     4  11  25  43  69 100 136 181 226 280 341 404
#     4  11  24  42  67 100 133 177 225 278 339 399
#     4  11  25  45  68  98 138 182 228 277 337 408
#     4  12  23  46  72 105 132 174 231 292 339 399
#     4  11  24  43  70 100 132 175 227 282 340 397
#     4  10  22  42  62  98 132 172 216 270 330 396
#
# _framework density 20.632413
#
# number of rings (size 3 to 8) (size 9 to 14) (size 15 to 20)
#    0.000    0.800    2.667    4.800    5.600    1.600 
#    0.000    0.000    0.000    0.000    0.000    0.000 
#    0.000    0.000    0.000    0.000    0.000    0.000 
#
# Total GULP energy -83631.344130 kJ/mol
# GULP energy per Si atom -5575.422942 kJ/mol
# Density = 2.058545 g / cm^3
# Si number density = 20.632413 Si / 1000 Ang^3
#
#
#
# Elastic Constant Matrix: (Units=GPa)
#
#
# Indices 1 2 3 4 5 6 
#
# 1 86.4478 44.9797 28.7435 -7.3477 -14.1344 -13.4746
# 2 44.9797 85.5841 51.2701 -9.1301 -12.9932 -5.3014
# 3 28.7435 51.2701 90.6550 9.4422 -10.9762 2.7725
# 4 -7.3477 -9.1301 9.4422 48.8046 -7.4953 -0.8610
# 5 -14.1344 -12.9932 -10.9762 -7.4953 31.2635 6.8379
# 6 -13.4746 -5.3014 2.7725 -0.8610 6.8379 22.8520
#
#
#
# Elastic Compliance Matrix: (Units=1/GPa)
#
#
# Indices 1 2 3 4 5 6 
#
# 1 0.017845 -0.007067 -0.001760 0.002354 0.003283 0.008203
# 2 -0.007067 0.023477 -0.011282 0.006107 0.003676 0.001778
# 3 -0.001760 -0.011282 0.018931 -0.005976 0.001156 -0.006523
# 4 0.002354 0.006107 -0.005976 0.024227 0.006785 0.002412
# 5 0.003283 0.003676 0.001156 0.006785 0.038945 -0.008749
# 6 0.008203 0.001778 -0.006523 0.002412 -0.008749 0.052509
#
#
# Mechanical properties :
#
#
# Convention : Reuss Voigt Hill
#
# Bulk Modulus (GPa) = 49.91072 56.96371 53.43721
# Shear Modulus (GPa) = 22.43856 29.76360 26.10108
#
# Velocity S-wave (km/s) = 3.30136 3.80223 3.56062
# Velocity P-wave (km/s) = 6.22695 6.85162 6.54674
#
# Compressibility (1/GPa) = 0.02003577
#
# Stress axis : x y z
#
# Youngs Moduli (GPa) = 56.03731 42.59536 52.82258
#
# Poissons Ratio (x) = 0.30101 0.09297
# Poissons Ratio (y) = 0.39600 0.59595
# Poissons Ratio (z) = 0.09863 0.48056
#
# Static dielectric constant tensor:
#      x y z
#    x 1.682900 -0.003510 0.026550 
#    y -0.003510 1.784590 0.020800 
#    z 0.026550 0.020800 1.807840 
# 
# From -- ./inp_files/568622.got.cif
#   From: 2010.05.17/outbox.cif.g08.bks.cpg/sg2_285_cif.got.tgz:568622.got - 2010.06.03 11:33:40.
