data_PCOD9028894
_publ_section_title
;
Structure prediction by ZEFSAII (Michael W. Deem and Ramdas Pophale) SiO2 
 PCOD9028894
Probable space group: P -1
;
_chemical_formula_sum "Si O2"
_cell_formula_units_Z 16
_cell_length_a 28.516566
_cell_length_b 9.832895
_cell_length_c 5.224737
_cell_angle_alpha 104.410220
_cell_angle_beta 53.703897
_cell_angle_gamma 138.785770
_cell_volume 722.787947
_symmetry_space_group_name_H-M "P -1"
_symmetry_group_IT_number 2
_symmetry_cell_setting 'triclinic'
loop_
_space_group_symop_operation_xyz
x,y,z
-x,-y,-z
loop_
_atom_site_type_symbol
_atom_site_label
_atom_site_fract_x
_atom_site_fract_y
_atom_site_fract_z
Si Si1 0.574823 0.060043 0.462011
Si Si2 0.704745 0.998434 0.463075
Si Si3 0.582429 0.753218 0.258440
Si Si4 0.152898 0.189963 0.600337
Si Si5 0.949240 0.502375 0.461554
Si Si6 0.980262 0.849074 0.707810
Si Si7 0.138620 0.876909 0.754343
Si Si8 0.688480 0.293077 0.714166
O O1 0.608654 0.163912 0.689668
O O2 0.500000 0.000000 0.500000
O O3 0.546086 0.844056 0.452799
O O4 0.660673 0.230668 0.072201
O O5 0.659807 0.880487 0.282681
O O6 0.793524 0.066891 0.238303
O O7 0.726017 0.205681 0.495777
O O8 0.630769 0.830587 0.857404
O O9 0.500000 0.500000 0.500000
O O10 0.245165 0.448733 0.382453
O O11 0.172378 0.093787 0.671608
O O12 0.084651 0.186783 0.909209
O O13 0.082998 0.991791 0.524492
O O14 0.000000 0.500000 0.500000
O O15 0.924056 0.606630 0.697581
O O16 0.867194 0.257720 0.500370
O O17 0.030592 0.691030 0.085059
O O18 0.000000 0.000000 0.500000
#
# Coordination Sequence:
#
# PCOD9028894 Si02
#       8
#     2   2   2   2   2   2   2   2
#     4  10  22  42  65  94 125 163 207 255 318 383
#     4  10  24  40  64  94 128 165 208 260 318 378
#     4  10  22  42  65  94 125 163 207 255 318 383
#     4  11  25  40  60  95 123 164 221 264 316 381
#     4  11  24  41  63  87 126 169 213 268 319 373
#     4  11  24  41  63  87 126 169 213 268 319 373
#     4  11  25  40  60  95 123 164 221 264 316 381
#     4  10  24  40  64  94 128 165 208 260 318 378
#
# _framework density 22.136507000000002
#
# number of rings (size 3 to 8) (size 9 to 14) (size 15 to 20)
#    0.000    1.500    2.500    0.750    7.000    3.000 
#    0.000    0.000    0.000    0.000    0.000    0.000 
#    0.000    0.000    0.000    0.000    0.000    0.000 
#
# Total GULP energy -89181.434214 kJ/mol
# GULP energy per Si atom -5573.839638 kJ/mol
# Density = 2.208612 g / cm^3
# Si number density = 22.136507 Si / 1000 Ang^3
#
#
#
# Elastic Constant Matrix: (Units=GPa)
#
#
# Indices 1 2 3 4 5 6 
#
# 1 126.1203 29.5767 -5.2342 -0.7995 -0.0168 -7.9711
# 2 29.5767 120.3204 27.4276 -19.4761 6.2566 -37.6127
# 3 -5.2342 27.4276 38.4799 -9.9482 16.5327 -6.1816
# 4 -0.7995 -19.4761 -9.9482 29.3436 -2.4638 14.3927
# 5 -0.0168 6.2566 16.5327 -2.4638 33.5703 -0.6983
# 6 -7.9711 -37.6127 -6.1816 14.3927 -0.6983 30.7190
#
#
#
# Elastic Compliance Matrix: (Units=1/GPa)
#
#
# Indices 1 2 3 4 5 6 
#
# 1 0.008811 -0.003308 0.003915 -0.000321 -0.001349 -0.000856
# 2 -0.003308 0.017100 -0.011125 -0.001396 0.002574 0.018553
# 3 0.003915 -0.011125 0.043822 0.010464 -0.018928 -0.009120
# 4 -0.000321 -0.001396 0.010464 0.047262 -0.001880 -0.021873
# 5 -0.001349 0.002574 -0.018928 -0.001880 0.038507 0.000748
# 6 -0.000856 0.018553 -0.009120 -0.021873 0.000748 0.063478
#
#
# Mechanical properties :
#
#
# Convention : Reuss Voigt Hill
#
# Bulk Modulus (GPa) = 20.53475 43.16230 31.84852
# Shear Modulus (GPa) = 19.51238 34.26996 26.89117
#
# Velocity S-wave (km/s) = 2.97216 3.93888 3.48916
# Velocity P-wave (km/s) = 4.59073 6.34247 5.53633
#
# Compressibility (1/GPa) = 0.04869793
#
# Stress axis : x y z
#
# Youngs Moduli (GPa) = 113.49697 58.47873 22.81965
#
# Poissons Ratio (x) = 0.19343 -0.08934
# Poissons Ratio (y) = 0.37542 0.25386
# Poissons Ratio (z) = -0.44434 0.65056
#
# Static dielectric constant tensor:
#      x y z
#    x 0.844440 1.269650 0.542910 
#    y 1.269650 0.367380 -0.548500 
#    z 0.542910 -0.548500 1.661550 
# 
# From -- ./inp_files/37312.got.cif
#   From: 2010.05.17/outbox.cif.g08.bks.cpg/sg2_19_cif.got.tgz:37312.got - 2010.06.03 11:33:40.
