data_PCOD9028890
_publ_section_title
;
Structure prediction by ZEFSAII (Michael W. Deem and Ramdas Pophale) SiO2 
 PCOD9028890
Probable space group: P -1
;
_chemical_formula_sum "Si O2"
_cell_formula_units_Z 14
_cell_length_a 10.405398
_cell_length_b 9.323046
_cell_length_c 5.453796
_cell_angle_alpha 100.495576
_cell_angle_beta 84.925564
_cell_angle_gamma 98.529696
_cell_volume 513.439056
_symmetry_space_group_name_H-M "P -1"
_symmetry_group_IT_number 2
_symmetry_cell_setting 'triclinic'
loop_
_space_group_symop_operation_xyz
x,y,z
-x,-y,-z
loop_
_atom_site_type_symbol
_atom_site_label
_atom_site_fract_x
_atom_site_fract_y
_atom_site_fract_z
Si Si1 0.786945 0.734292 0.202770
Si Si2 0.600317 0.174667 0.296164
Si Si3 0.304105 0.028567 0.391152
Si Si4 0.301382 0.493435 0.471582
Si Si5 0.948226 0.118002 0.731168
Si Si6 0.071111 0.552552 0.255752
Si Si7 0.463874 0.340329 0.074206
O O1 0.770277 0.574351 0.291673
O O2 0.926373 0.814928 0.102321
O O3 0.763442 0.833756 0.471186
O O4 0.660908 0.744010 0.063465
O O5 0.686199 0.071374 0.397047
O O6 0.646262 0.334632 0.460239
O O7 0.580119 0.240969 0.044960
O O8 0.452797 0.086808 0.314857
O O9 0.198829 0.950448 0.188155
O O10 0.205202 0.485185 0.251436
O O11 0.410863 0.392105 0.358731
O O12 0.918879 0.272161 0.671386
O O13 0.000000 0.000000 0.500000
O O14 0.000000 0.500000 0.500000
O O15 0.000000 0.500000 0.000000
O O16 0.500000 0.500000 0.000000
#
# Coordination Sequence:
#
# PCOD9028890 Si02
#       7
#     2   2   2   2   2   2   2
#     4  11  22  42  69  98 137 178 242 291 367 430
#     4  11  22  40  67  96 136 184 232 294 364 436
#     4  10  22  42  65  93 140 185 233 293 367 448
#     4  12  23  42  71  99 141 181 243 306 364 440
#     4  10  22  45  72 101 147 197 244 305 379 453
#     4  12  26  47  76 113 151 197 255 317 376 450
#     4  12  24  39  68 105 136 183 242 304 369 435
#
# _framework density 27.267109000000001
#
# number of rings (size 3 to 8) (size 9 to 14) (size 15 to 20)
#    0.000    0.857    5.714    2.143    0.000    0.571 
#    0.000    4.286    0.000    0.000    0.000    0.000 
#    0.000    0.000    0.000    0.000    0.000    0.000 
#
# Total GULP energy -78024.248453 kJ/mol
# GULP energy per Si atom -5573.160604 kJ/mol
# Density = 2.720505 g / cm^3
# Si number density = 27.267109 Si / 1000 Ang^3
#
#
#
# Elastic Constant Matrix: (Units=GPa)
#
#
# Indices 1 2 3 4 5 6 
#
# 1 105.9573 19.9184 36.8112 -5.1402 33.5814 21.0352
# 2 19.9184 146.6071 26.3115 -9.5702 1.0260 10.5600
# 3 36.8112 26.3115 98.9820 -9.0241 27.5853 18.2748
# 4 -5.1402 -9.5702 -9.0241 35.7313 -3.3825 16.6821
# 5 33.5814 1.0260 27.5853 -3.3825 53.1722 10.8811
# 6 21.0352 10.5600 18.2748 16.6821 10.8811 64.1486
#
#
#
# Elastic Compliance Matrix: (Units=1/GPa)
#
#
# Indices 1 2 3 4 5 6 
#
# 1 0.013060 -0.001027 -0.002089 0.001821 -0.006435 -0.002901
# 2 -0.001027 0.007484 -0.001660 0.002211 0.001771 -0.001298
# 3 -0.002089 -0.001660 0.013559 0.003637 -0.004831 -0.003030
# 4 0.001821 0.002211 0.003637 0.035229 0.001497 -0.011413
# 5 -0.006435 0.001771 -0.004831 0.001497 0.025758 -0.001564
# 6 -0.002901 -0.001298 -0.003030 -0.011413 -0.001564 0.020850
#
#
# Mechanical properties :
#
#
# Convention : Reuss Voigt Hill
#
# Bulk Modulus (GPa) = 40.73164 57.51429 49.12296
# Shear Modulus (GPa) = 37.40392 48.51077 42.95734
#
# Velocity S-wave (km/s) = 3.70775 4.22251 3.97347
# Velocity P-wave (km/s) = 5.77064 6.70160 6.25347
#
# Compressibility (1/GPa) = 0.02455094
#
# Stress axis : x y z
#
# Youngs Moduli (GPa) = 76.56789 133.62232 73.75434
#
# Poissons Ratio (x) = 0.13718 0.15409
# Poissons Ratio (y) = 0.07861 0.12243
# Poissons Ratio (z) = 0.15997 0.22181
#
# Static dielectric constant tensor:
#      x y z
#    x 2.009700 -0.187640 -0.081800 
#    y -0.187640 2.064820 0.076840 
#    z -0.081800 0.076840 2.339380 
# 
# From -- ./inp_files/60779.got.cif
#   From: 2010.05.17/outbox.cif.g08.bks.cpg/sg2_31_cif.got.tgz:60779.got - 2010.06.03 11:33:40.
