data_PCOD9028573
_publ_section_title
;
Structure prediction by ZEFSAII (Michael W. Deem and Ramdas Pophale) SiO2 
 PCOD9028573
Probable space group: P -1
;
_chemical_formula_sum "Si O2"
_cell_formula_units_Z 16
_cell_length_a 5.293947
_cell_length_b 9.613980
_cell_length_c 14.000146
_cell_angle_alpha 79.459947
_cell_angle_beta 79.492631
_cell_angle_gamma 111.661602
_cell_volume 626.235505
_symmetry_space_group_name_H-M "P -1"
_symmetry_group_IT_number 2
_symmetry_cell_setting 'triclinic'
loop_
_space_group_symop_operation_xyz
x,y,z
-x,-y,-z
loop_
_atom_site_type_symbol
_atom_site_label
_atom_site_fract_x
_atom_site_fract_y
_atom_site_fract_z
Si Si1 0.450528 0.435492 0.770826
Si Si2 0.004118 0.401577 0.374629
Si Si3 0.096520 0.838335 0.957464
Si Si4 0.910199 0.704559 0.358836
Si Si5 0.438680 0.168714 0.520375
Si Si6 0.385690 0.027179 0.344442
Si Si7 0.250918 0.668769 0.812258
Si Si8 0.527231 0.827704 0.086076
O O1 0.666776 0.557583 0.665555
O O2 0.199750 0.319234 0.738449
O O3 0.349915 0.531650 0.838904
O O4 0.579741 0.328353 0.825218
O O5 0.984357 0.558909 0.390899
O O6 0.776436 0.258695 0.466253
O O7 0.900350 0.368398 0.275652
O O8 0.078497 0.704886 0.902234
O O9 0.305969 0.013085 0.886024
O O10 0.271329 0.828213 0.040394
O O11 0.786864 0.826909 0.003644
O O12 0.670983 0.710909 0.444496
O O13 0.158151 0.872861 0.333765
O O14 0.388914 0.033236 0.618350
O O15 0.304499 0.094465 0.437929
O O16 0.487881 0.166476 0.245495
#
# Coordination Sequence:
#
# PCOD9028573 Si02
#       8
#     2   2   2   2   2   2   2   2
#     4  11  26  44  65 100 137 183 222 288 348 424
#     4  10  24  43  61  96 141 173 233 280 344 425
#     4  10  24  46  74 107 137 186 228 298 343 433
#     4  11  23  38  67  94 128 187 224 289 343 412
#     4  10  22  42  63  95 132 181 229 286 347 404
#     4  10  23  40  65  97 132 175 232 287 330 421
#     4  10  25  43  67 100 136 181 229 280 356 405
#     4  10  25  46  74 105 145 177 237 285 361 417
#
# _framework density 25.549493999999999
#
# number of rings (size 3 to 8) (size 9 to 14) (size 15 to 20)
#    0.000    1.750    0.000    1.500    8.750   11.000 
#    0.000    0.000    0.000    0.000    0.000    0.000 
#    0.000    0.000    0.000    0.000    0.000    0.000 
#
# Total GULP energy -89582.435796 kJ/mol
# GULP energy per Si atom -5598.902237 kJ/mol
# Density = 2.549134 g / cm^3
# Si number density = 25.549494 Si / 1000 Ang^3
#
#
#
# Elastic Constant Matrix: (Units=GPa)
#
#
# Indices 1 2 3 4 5 6 
#
# 1 61.8729 24.9780 9.8083 9.8684 -15.8701 0.3220
# 2 24.9780 165.3156 31.4390 20.4037 -12.0673 -4.0895
# 3 9.8083 31.4390 33.7852 -6.3978 -11.8592 -6.8618
# 4 9.8684 20.4037 -6.3978 47.0252 -13.0036 -11.7124
# 5 -15.8701 -12.0673 -11.8592 -13.0036 31.6832 3.0236
# 6 0.3220 -4.0895 -6.8618 -11.7124 3.0236 44.8811
#
#
#
# Elastic Compliance Matrix: (Units=1/GPa)
#
#
# Indices 1 2 3 4 5 6 
#
# 1 0.019491 -0.001837 -0.001882 -0.001795 0.007773 -0.001587
# 2 -0.001837 0.008861 -0.010893 -0.006659 -0.004136 -0.002304
# 3 -0.001882 -0.010893 0.055011 0.021964 0.023408 0.011586
# 4 -0.001795 -0.006659 0.021964 0.035231 0.018222 0.010731
# 5 0.007773 -0.004136 0.023408 0.018222 0.049687 0.004554
# 6 -0.001587 -0.002304 0.011586 0.010731 0.004554 0.026348
#
#
# Mechanical properties :
#
#
# Convention : Reuss Voigt Hill
#
# Bulk Modulus (GPa) = 18.47146 43.71382 31.09264
# Shear Modulus (GPa) = 20.66981 37.70112 29.18546
#
# Velocity S-wave (km/s) = 2.84740 3.84554 3.38348
# Velocity P-wave (km/s) = 4.24919 6.07158 5.24022
#
# Compressibility (1/GPa) = 0.05413756
#
# Stress axis : x y z
#
# Youngs Moduli (GPa) = 51.30679 112.85224 18.17820
#
# Poissons Ratio (x) = 0.20733 0.03422
# Poissons Ratio (y) = 0.09426 0.19801
# Poissons Ratio (z) = 0.09658 1.22929
#
# Static dielectric constant tensor:
#      x y z
#    x 2.069930 0.006480 -0.036330 
#    y 0.006480 1.982730 -0.033850 
#    z -0.036330 -0.033850 2.035550 
# 
# From -- ./inp_files/480419.got.cif
#   From: 2010.05.17/outbox.cif.g08.bks.cpg/sg2_241_cif.got.tgz:480419.got - 2010.06.03 11:33:40.
