data_PCOD9028816
_publ_section_title
;
Structure prediction by ZEFSAII (Michael W. Deem and Ramdas Pophale) SiO2 
 PCOD9028816
Probable space group: P -1
;
_chemical_formula_sum "Si O2"
_cell_formula_units_Z 14
_cell_length_a 13.850386
_cell_length_b 10.849792
_cell_length_c 7.610551
_cell_angle_alpha 108.962970
_cell_angle_beta 78.079815
_cell_angle_gamma 147.796985
_cell_volume 571.070429
_symmetry_space_group_name_H-M "P -1"
_symmetry_group_IT_number 2
_symmetry_cell_setting 'triclinic'
loop_
_space_group_symop_operation_xyz
x,y,z
-x,-y,-z
loop_
_atom_site_type_symbol
_atom_site_label
_atom_site_fract_x
_atom_site_fract_y
_atom_site_fract_z
Si Si1 0.293835 0.374694 0.564795
Si Si2 0.918883 0.104048 0.684377
Si Si3 0.404384 0.751229 0.530070
Si Si4 0.986776 0.323160 0.426586
Si Si5 0.551969 0.415153 0.015396
Si Si6 0.043830 0.199027 0.063035
Si Si7 0.662195 0.068173 0.251900
O O1 0.398519 0.593709 0.506464
O O2 0.396457 0.491893 0.763232
O O3 0.100584 0.230998 0.608637
O O4 0.245912 0.181031 0.414500
O O5 0.912745 0.217966 0.603280
O O6 0.958360 0.169024 0.905626
O O7 0.562790 0.943295 0.419931
O O8 0.205332 0.565518 0.441298
O O9 0.405170 0.859937 0.739183
O O10 0.877659 0.300728 0.330010
O O11 0.951447 0.150899 0.251248
O O12 0.735877 0.557731 0.925294
O O13 0.500000 0.500000 0.000000
O O14 0.406650 0.134100 0.923732
O O15 0.000000 0.000000 0.000000
#
# Coordination Sequence:
#
# PCOD9028816 Si02
#       7
#     2   2   2   2   2   2   2
#     4   9  18  37  60  85 126 164 197 259 311 354
#     4   9  19  35  62  93 121 159 213 249 304 386
#     4  10  22  42  65  85 124 172 203 253 308 363
#     4  11  21  42  65  90 125 166 205 258 313 362
#     4  11  22  38  60  95 126 155 209 261 306 377
#     4  11  20  35  63  87 127 169 192 252 321 360
#     4  11  23  40  63  94 121 160 218 249 302 380
#
# _framework density 24.515366
#
# number of rings (size 3 to 8) (size 9 to 14) (size 15 to 20)
#    0.000    1.714    1.429    5.571    0.000    0.571 
#    5.143    1.429    0.000    3.429    0.000    0.000 
#    0.000    0.000    0.000    0.000    0.000    0.000 
#
# Total GULP energy -78103.237350 kJ/mol
# GULP energy per Si atom -5578.802668 kJ/mol
# Density = 2.445957 g / cm^3
# Si number density = 24.515366 Si / 1000 Ang^3
#
#
#
# Elastic Constant Matrix: (Units=GPa)
#
#
# Indices 1 2 3 4 5 6 
#
# 1 80.8702 17.6401 26.3496 3.8498 7.7055 -0.4076
# 2 17.6401 84.2517 3.6900 4.6024 14.9841 -12.2612
# 3 26.3496 3.6900 75.2664 2.8308 26.5818 -0.9605
# 4 3.8498 4.6024 2.8308 29.5951 3.4044 0.8018
# 5 7.7055 14.9841 26.5818 3.4044 27.4545 -1.4288
# 6 -0.4076 -12.2612 -0.9605 0.8018 -1.4288 28.5667
#
#
#
# Elastic Compliance Matrix: (Units=1/GPa)
#
#
# Indices 1 2 3 4 5 6 
#
# 1 0.014949 -0.003729 -0.006515 -0.001191 0.004224 -0.001362
# 2 -0.003729 0.015456 0.004734 -0.001217 -0.011499 0.006199
# 3 -0.006515 0.004734 0.023700 0.000528 -0.023687 0.001536
# 4 -0.001191 -0.001217 0.000528 0.034576 -0.003888 -0.001686
# 5 0.004224 -0.011499 -0.023687 -0.003888 0.064810 -0.002321
# 6 -0.001362 0.006199 0.001536 -0.001686 -0.002321 0.037630
#
#
# Mechanical properties :
#
#
# Convention : Reuss Voigt Hill
#
# Bulk Modulus (GPa) = 23.21014 37.30530 30.25772
# Shear Modulus (GPa) = 23.09429 29.97051 26.53240
#
# Velocity S-wave (km/s) = 3.07259 3.50025 3.29337
# Velocity P-wave (km/s) = 4.69849 5.62012 5.17985
#
# Compressibility (1/GPa) = 0.04308462
#
# Stress axis : x y z
#
# Youngs Moduli (GPa) = 66.89417 64.69865 42.19352
#
# Poissons Ratio (x) = 0.24126 0.27489
# Poissons Ratio (y) = 0.24945 -0.19973
# Poissons Ratio (z) = 0.43582 -0.30626
#
# Static dielectric constant tensor:
#      x y z
#    x 2.148050 -0.102980 -0.071190 
#    y -0.102980 2.046100 0.082840 
#    z -0.071190 0.082840 2.040640 
# 
# From -- ./inp_files/308005.got.cif
#   From: 2010.05.17/outbox.cif.g08.bks.cpg/sg2_155_cif.got.tgz:308005.got - 2010.06.03 11:33:40.
