data_PCOD9028299
_publ_section_title
;
Structure prediction by ZEFSAII (Michael W. Deem and Ramdas Pophale) SiO2 
 PCOD9028299
Probable space group: P -1
;
_chemical_formula_sum "Si O2"
_cell_formula_units_Z 16
_cell_length_a 11.005543
_cell_length_b 8.448631
_cell_length_c 12.135676
_cell_angle_alpha 91.232707
_cell_angle_beta 50.954033
_cell_angle_gamma 119.432928
_cell_volume 690.583357
_symmetry_space_group_name_H-M "P -1"
_symmetry_group_IT_number 2
_symmetry_cell_setting 'triclinic'
loop_
_space_group_symop_operation_xyz
x,y,z
-x,-y,-z
loop_
_atom_site_type_symbol
_atom_site_label
_atom_site_fract_x
_atom_site_fract_y
_atom_site_fract_z
Si Si1 0.104597 0.208847 0.630603
Si Si2 0.974386 0.666279 0.785388
Si Si3 0.695251 0.994790 0.990870
Si Si4 0.920653 0.124893 0.062168
Si Si5 0.797037 0.487849 0.249201
Si Si6 0.945345 0.285683 0.505133
Si Si7 0.570180 0.283660 0.034952
Si Si8 0.608561 0.864748 0.640599
O O1 0.242078 0.402176 0.635076
O O2 0.232348 0.139482 0.517425
O O3 0.902818 0.070879 0.816545
O O4 0.027631 0.241360 0.561749
O O5 0.092771 0.854019 0.801043
O O6 0.077527 0.562962 0.754090
O O7 0.961782 0.696153 0.665615
O O8 0.748884 0.513932 0.950087
O O9 0.532622 0.782442 0.025575
O O10 0.718554 0.002751 0.107869
O O11 0.652926 0.153647 0.992998
O O12 0.063641 0.344976 0.923356
O O13 0.000000 0.000000 0.000000
O O14 0.603913 0.286655 0.301237
O O15 0.000000 0.500000 0.500000
O O16 0.714249 0.098932 0.609816
O O17 0.423001 0.219681 0.218905
#
# Coordination Sequence:
#
# PCOD9028299 Si02
#       8
#     2   2   2   2   2   2   2   2
#     4  11  23  47  70 101 143 188 220 300 354 418
#     4  12  24  46  73  99 144 185 234 291 350 414
#     4  10  22  41  74  97 135 181 235 271 354 414
#     4  11  24  42  69 103 143 180 228 298 346 408
#     4  11  23  48  72  98 140 194 235 276 356 433
#     4  12  26  47  68 106 144 185 236 293 350 417
#     4  11  21  43  73 102 124 191 236 277 336 431
#     4  12  26  42  76 102 140 187 241 280 359 421
#
# _framework density 23.168817000000001
#
# number of rings (size 3 to 8) (size 9 to 14) (size 15 to 20)
#    0.000    0.750    6.250    1.875    5.250    0.500 
#    2.250    1.250    0.000    0.000    0.000    0.000 
#    0.000    0.000    0.000    0.000    0.000    0.000 
#
# Total GULP energy -89362.884694 kJ/mol
# GULP energy per Si atom -5585.180293 kJ/mol
# Density = 2.311608 g / cm^3
# Si number density = 23.168817 Si / 1000 Ang^3
#
#
#
# Elastic Constant Matrix: (Units=GPa)
#
#
# Indices 1 2 3 4 5 6 
#
# 1 75.9622 35.6148 6.4096 2.1701 12.0700 34.6615
# 2 35.6148 93.9319 12.8831 15.5002 3.4831 38.2357
# 3 6.4096 12.8831 67.8312 22.3456 14.4012 2.9737
# 4 2.1701 15.5002 22.3456 36.8248 8.5013 7.6239
# 5 12.0700 3.4831 14.4012 8.5013 34.4870 12.7493
# 6 34.6615 38.2357 2.9737 7.6239 12.7493 47.5982
#
#
#
# Elastic Compliance Matrix: (Units=1/GPa)
#
#
# Indices 1 2 3 4 5 6 
#
# 1 0.020786 -0.003216 -0.001656 0.004335 -0.002739 -0.012411
# 2 -0.003216 0.017960 -0.002293 -0.004749 0.006186 -0.012838
# 3 -0.001656 -0.002293 0.020071 -0.010625 -0.006930 0.005352
# 4 0.004335 -0.004749 -0.010625 0.037088 -0.004479 -0.003419
# 5 -0.002739 0.006186 -0.006930 -0.004479 0.037740 -0.011933
# 6 -0.012411 -0.012838 0.005352 -0.003419 -0.011933 0.043769
#
#
# Mechanical properties :
#
#
# Convention : Reuss Voigt Hill
#
# Bulk Modulus (GPa) = 22.47851 38.61558 30.54705
# Shear Modulus (GPa) = 24.20429 35.96986 30.08707
#
# Velocity S-wave (km/s) = 3.23568 3.94447 3.60752
# Velocity P-wave (km/s) = 4.86648 6.11950 5.52860
#
# Compressibility (1/GPa) = 0.04448694
#
# Stress axis : x y z
#
# Youngs Moduli (GPa) = 48.10836 55.67870 49.82239
#
# Poissons Ratio (x) = 0.17907 0.08250
# Poissons Ratio (y) = 0.15473 0.11426
# Poissons Ratio (z) = 0.07966 0.12769
#
# Static dielectric constant tensor:
#      x y z
#    x 1.871880 -0.045190 -0.010690 
#    y -0.045190 1.937470 -0.012300 
#    z -0.010690 -0.012300 1.879710 
# 
# From -- ./inp_files/419429.got.cif
#   From: 2010.05.17/outbox.cif.g08.bks.cpg/sg2_210_cif.got.tgz:419429.got - 2010.06.03 11:33:40.
