data_PCOD9028984
_publ_section_title
;
Structure prediction by ZEFSAII (Michael W. Deem and Ramdas Pophale) SiO2 
 PCOD9028984
Probable space group: P -1
;
_chemical_formula_sum "Si O2"
_cell_formula_units_Z 12
_cell_length_a 12.144577
_cell_length_b 11.795818
_cell_length_c 7.878503
_cell_angle_alpha 150.655901
_cell_angle_beta 98.796758
_cell_angle_gamma 80.396046
_cell_volume 545.274829
_symmetry_space_group_name_H-M "P -1"
_symmetry_group_IT_number 2
_symmetry_cell_setting 'triclinic'
loop_
_space_group_symop_operation_xyz
x,y,z
-x,-y,-z
loop_
_atom_site_type_symbol
_atom_site_label
_atom_site_fract_x
_atom_site_fract_y
_atom_site_fract_z
Si Si1 0.762584 0.610594 0.303891
Si Si2 0.039954 0.235079 0.613410
Si Si3 0.848214 0.913758 0.204126
Si Si4 0.688004 0.306818 0.590908
Si Si5 0.741673 0.478926 0.476407
Si Si6 0.551255 0.755801 0.626536
O O1 0.873745 0.744639 0.492862
O O2 0.771197 0.419957 0.210235
O O3 0.652693 0.771187 0.537589
O O4 0.742778 0.492121 0.965068
O O5 0.108339 0.128165 0.650539
O O6 0.937913 0.074881 0.351070
O O7 0.000000 0.500000 0.000000
O O8 0.729653 0.060264 0.356769
O O9 0.827997 0.669023 0.795407
O O10 0.732183 0.311715 0.414288
O O11 0.555162 0.356488 0.623771
O O12 0.616907 0.604799 0.589701
O O13 0.500000 0.000000 0.000000
#
# Coordination Sequence:
#
# PCOD9028984 Si02
#       6
#     2   2   2   2   2   2
#     4  10  23  40  67  96 125 175 214 253 333 371
#     4  11  22  44  67  95 129 166 220 269 311 380
#     4  11  22  40  72  90 130 173 207 271 324 364
#     4  12  20  45  65  94 137 165 208 271 313 385
#     4  10  23  41  63  98 130 165 214 260 319 378
#     4  10  22  42  65  98 133 165 214 261 318 387
#
# _framework density 22.007251
#
# number of rings (size 3 to 8) (size 9 to 14) (size 15 to 20)
#    1.000    0.333    5.000    1.000    0.000    0.667 
#    6.000    5.000    0.000    0.000    0.000    0.000 
#    0.000    0.000    0.000    0.000    0.000    0.000 
#
# Total GULP energy -66909.641566 kJ/mol
# GULP energy per Si atom -5575.803464 kJ/mol
# Density = 2.195716 g / cm^3
# Si number density = 22.007251 Si / 1000 Ang^3
#
#
#
# Elastic Constant Matrix: (Units=GPa)
#
#
# Indices 1 2 3 4 5 6 
#
# 1 113.6525 32.6408 11.1587 -2.0085 7.3887 12.5755
# 2 32.6408 98.6560 -1.2647 -1.2365 -17.1556 -11.6307
# 3 11.1587 -1.2647 29.4807 -0.9326 12.4755 0.7180
# 4 -2.0085 -1.2365 -0.9326 24.0305 -5.9707 0.9213
# 5 7.3887 -17.1556 12.4755 -5.9707 16.7071 -6.0921
# 6 12.5755 -11.6307 0.7180 0.9213 -6.0921 41.6223
#
#
#
# Elastic Compliance Matrix: (Units=1/GPa)
#
#
# Indices 1 2 3 4 5 6 
#
# 1 0.014498 -0.011267 0.006513 -0.005935 -0.029266 -0.011793
# 2 -0.011267 0.026104 -0.019132 0.013290 0.057823 0.019198
# 3 0.006513 -0.019132 0.067426 -0.018676 -0.087140 -0.020818
# 4 -0.005935 0.013290 -0.018676 0.054039 0.054107 0.012552
# 5 -0.029266 0.057823 -0.087140 0.054107 0.238538 0.060219
# 6 -0.011793 0.019198 -0.020818 0.012552 0.060219 0.041848
#
#
# Mechanical properties :
#
#
# Convention : Reuss Voigt Hill
#
# Bulk Modulus (GPa) = 16.59588 36.31764 26.45676
# Shear Modulus (GPa) = 9.79797 29.75558 19.77677
#
# Velocity S-wave (km/s) = 2.11230 3.68105 3.00100
# Velocity P-wave (km/s) = 3.67513 5.88263 4.90468
#
# Compressibility (1/GPa) = 0.06025592
#
# Stress axis : x y z
#
# Youngs Moduli (GPa) = 68.97625 38.30892 14.83100
#
# Poissons Ratio (x) = 0.43162 -0.09660
# Poissons Ratio (y) = 0.77715 0.28375
# Poissons Ratio (z) = -0.44925 0.73293
#
# Static dielectric constant tensor:
#      x y z
#    x 1.844880 0.006050 0.017110 
#    y 0.006050 1.816250 0.005800 
#    z 0.017110 0.005800 1.835860 
# 
# From -- ./inp_files/33226.got.cif
#   From: 2010.05.17/outbox.cif.g08.bks.cpg/sg2_17_cif.got.tgz:33226.got - 2010.06.03 11:33:40.
