data_PCOD9028347
_publ_section_title
;
Structure prediction by ZEFSAII (Michael W. Deem and Ramdas Pophale) SiO2 
 PCOD9028347
Probable space group: P -1
;
_chemical_formula_sum "Si O2"
_cell_formula_units_Z 14
_cell_length_a 15.315475
_cell_length_b 5.315862
_cell_length_c 16.017764
_cell_angle_alpha 83.677110
_cell_angle_beta 25.788234
_cell_angle_gamma 88.447081
_cell_volume 556.000244
_symmetry_space_group_name_H-M "P -1"
_symmetry_group_IT_number 2
_symmetry_cell_setting 'triclinic'
loop_
_space_group_symop_operation_xyz
x,y,z
-x,-y,-z
loop_
_atom_site_type_symbol
_atom_site_label
_atom_site_fract_x
_atom_site_fract_y
_atom_site_fract_z
Si Si1 0.908422 0.827788 0.208827
Si Si2 0.712822 0.427506 0.623433
Si Si3 0.692228 0.094075 0.241307
Si Si4 0.931992 0.984196 0.374558
Si Si5 0.627904 0.821893 0.947378
Si Si6 0.091705 0.298755 0.426721
Si Si7 0.557126 0.453709 0.574137
O O1 0.801674 0.003974 0.232217
O O2 0.910505 0.924588 0.298458
O O3 0.772484 0.546419 0.339844
O O4 0.132448 0.827952 0.981201
O O5 0.594179 0.507347 0.638183
O O6 0.882348 0.401815 0.565134
O O7 0.831980 0.226311 0.476234
O O8 0.513264 0.323584 0.855321
O O9 0.419806 0.664394 0.656312
O O10 0.544102 0.837640 0.346328
O O11 0.829266 0.747027 0.534507
O O12 0.170598 0.017582 0.189127
O O13 0.725574 0.655590 0.800571
O O14 0.500000 0.000000 0.000000
O O15 0.000000 0.000000 0.500000
#
# Coordination Sequence:
#
# PCOD9028347 Si02
#       7
#     2   2   2   2   2   2   2
#     4  10  23  45  67 107 138 190 227 297 352 420
#     4   9  23  41  62  97 133 174 224 282 343 407
#     4  11  25  43  77  99 147 181 242 280 362 426
#     4   9  22  42  61  95 136 168 227 282 342 406
#     4  12  23  39  70  95 128 182 231 284 347 411
#     4  10  22  42  59  88 133 172 221 279 342 409
#     4  11  24  47  68 108 140 187 230 297 348 426
#
# _framework density 25.179846000000001
#
# number of rings (size 3 to 8) (size 9 to 14) (size 15 to 20)
#    0.857    0.857    0.000    3.429    0.000    6.857 
#    5.143    1.429    0.000    0.000    0.000    0.000 
#    0.000    0.000    0.000    0.000    0.000    0.000 
#
# Total GULP energy -78352.279677 kJ/mol
# GULP energy per Si atom -5596.591405 kJ/mol
# Density = 2.512254 g / cm^3
# Si number density = 25.179846 Si / 1000 Ang^3
#
#
#
# Elastic Constant Matrix: (Units=GPa)
#
#
# Indices 1 2 3 4 5 6 
#
# 1 175.7784 30.4552 50.2236 -7.5570 14.8532 23.2754
# 2 30.4552 122.3697 42.4942 -2.4309 -7.1035 17.2753
# 3 50.2236 42.4942 229.7802 -22.6027 7.2819 14.8097
# 4 -7.5570 -2.4309 -22.6027 39.7593 -1.0978 1.6179
# 5 14.8532 -7.1035 7.2819 -1.0978 49.8440 -1.5188
# 6 23.2754 17.2753 14.8097 1.6179 -1.5188 47.6425
#
#
#
# Elastic Compliance Matrix: (Units=1/GPa)
#
#
# Indices 1 2 3 4 5 6 
#
# 1 0.006709 -0.001064 -0.000961 0.000716 -0.002077 -0.002684
# 2 -0.001064 0.009366 -0.001433 -0.000299 0.001782 -0.002364
# 3 -0.000961 -0.001433 0.005157 0.002673 -0.000635 -0.000725
# 4 0.000716 -0.000299 0.002673 0.026867 -0.000115 -0.001989
# 5 -0.002077 0.001782 -0.000635 -0.000115 0.021063 0.001241
# 6 -0.002684 -0.002364 -0.000725 -0.001989 0.001241 0.023491
#
#
# Mechanical properties :
#
#
# Convention : Reuss Voigt Hill
#
# Bulk Modulus (GPa) = 69.84600 86.03048 77.93824
# Shear Modulus (GPa) = 47.92059 54.43286 51.17673
#
# Velocity S-wave (km/s) = 4.36722 4.65452 4.51316
# Velocity P-wave (km/s) = 7.29584 7.94523 7.62745
#
# Compressibility (1/GPa) = 0.01431721
#
# Stress axis : x y z
#
# Youngs Moduli (GPa) = 149.04508 106.77392 193.92001
#
# Poissons Ratio (x) = 0.11357 0.18627
# Poissons Ratio (y) = 0.15853 0.27790
# Poissons Ratio (z) = 0.14316 0.15301
#
# Static dielectric constant tensor:
#      x y z
#    x 2.104440 -0.004450 -0.018910 
#    y -0.004450 1.945750 -0.058900 
#    z -0.018910 -0.058900 1.946270 
# 
# From -- ./inp_files/526429.got.cif
#   From: 2010.05.17/outbox.cif.g08.bks.cpg/sg2_264_cif.got.tgz:526429.got - 2010.06.03 11:33:40.
