data_PCOD9028144
_publ_section_title
;
Structure prediction by ZEFSAII (Michael W. Deem and Ramdas Pophale) SiO2 
 PCOD9028144
Probable space group: P -1
;
_chemical_formula_sum "Si O2"
_cell_formula_units_Z 16
_cell_length_a 15.626236
_cell_length_b 5.580868
_cell_length_c 9.259055
_cell_angle_alpha 78.668470
_cell_angle_beta 100.315566
_cell_angle_gamma 63.002690
_cell_volume 671.367769
_symmetry_space_group_name_H-M "P -1"
_symmetry_group_IT_number 2
_symmetry_cell_setting 'triclinic'
loop_
_space_group_symop_operation_xyz
x,y,z
-x,-y,-z
loop_
_atom_site_type_symbol
_atom_site_label
_atom_site_fract_x
_atom_site_fract_y
_atom_site_fract_z
Si Si1 0.240187 0.947174 0.079993
Si Si2 0.356336 0.137901 0.237558
Si Si3 0.362906 0.794260 0.552817
Si Si4 0.538336 0.574666 0.858611
Si Si5 0.763556 0.369581 0.630981
Si Si6 0.157293 0.311511 0.531336
Si Si7 0.984891 0.346179 0.300083
Si Si8 0.956044 0.926039 0.134363
O O1 0.352145 0.695878 0.106005
O O2 0.199171 0.908994 0.228100
O O3 0.266668 0.188641 0.095437
O O4 0.162813 0.959851 0.939310
O O5 0.442376 0.159275 0.174470
O O6 0.306230 0.391130 0.305880
O O7 0.387400 0.881104 0.392223
O O8 0.459661 0.636940 0.699527
O O9 0.308026 0.620417 0.518507
O O10 0.273436 0.066619 0.577819
O O11 0.500000 0.500000 0.000000
O O12 0.846677 0.435009 0.593666
O O13 0.112182 0.451776 0.653771
O O14 0.082963 0.214445 0.451218
O O15 0.969405 0.112453 0.241653
O O16 0.996600 0.586060 0.187874
O O17 0.000000 0.000000 0.000000
#
# Coordination Sequence:
#
# PCOD9028144 Si02
#       8
#     2   2   2   2   2   2   2   2
#     4  10  24  42  67  98 140 185 234 298 350 446
#     4   9  21  42  65  94 136 183 241 289 355 426
#     4  10  22  41  71  97 133 187 237 291 359 435
#     4  11  25  41  65 102 140 184 233 297 369 434
#     4   9  20  39  70  94 133 175 243 287 355 421
#     4  10  24  43  69 101 136 182 237 305 353 426
#     4  11  28  44  73 105 143 187 243 304 363 431
#     4  12  28  47  74 105 147 194 241 292 371 432
#
# _framework density 23.831944
#
# number of rings (size 3 to 8) (size 9 to 14) (size 15 to 20)
#    0.000    1.750    0.000    1.500   14.000    8.000 
#    0.000    0.000    0.000    0.000    0.000    0.000 
#    0.000    0.000    0.000    0.000    0.000    0.000 
#
# Total GULP energy -89268.856256 kJ/mol
# GULP energy per Si atom -5579.303516 kJ/mol
# Density = 2.377770 g / cm^3
# Si number density = 23.831944 Si / 1000 Ang^3
#
#
#
# Elastic Constant Matrix: (Units=GPa)
#
#
# Indices 1 2 3 4 5 6 
#
# 1 138.0300 34.5380 63.3739 1.2325 16.0951 9.9178
# 2 34.5380 79.0080 36.2536 7.9019 25.4720 -2.5350
# 3 63.3739 36.2536 74.9085 8.3727 5.8378 10.8536
# 4 1.2325 7.9019 8.3727 27.7082 7.8750 7.1597
# 5 16.0951 25.4720 5.8378 7.8750 64.6876 7.6248
# 6 9.9178 -2.5350 10.8536 7.1597 7.6248 41.9623
#
#
#
# Elastic Compliance Matrix: (Units=1/GPa)
#
#
# Indices 1 2 3 4 5 6 
#
# 1 0.012422 -0.000136 -0.010589 0.003477 -0.002463 -0.000351
# 2 -0.000136 0.019767 -0.009425 -0.002097 -0.007274 0.005343
# 3 -0.010589 -0.009425 0.027834 -0.005338 0.005107 -0.005283
# 4 0.003477 -0.002097 -0.005338 0.040740 -0.003831 -0.005823
# 5 -0.002463 -0.007274 0.005107 -0.003831 0.019419 -0.004053
# 6 -0.000351 0.005343 -0.005283 -0.005823 -0.004053 0.027333
#
#
# Mechanical properties :
#
#
# Convention : Reuss Voigt Hill
#
# Bulk Modulus (GPa) = 50.70192 62.25304 56.47748
# Shear Modulus (GPa) = 25.72149 37.39037 31.55593
#
# Velocity S-wave (km/s) = 3.28881 3.96525 3.64277
# Velocity P-wave (km/s) = 5.97852 6.86605 6.43760
#
# Compressibility (1/GPa) = 0.01972312
#
# Stress axis : x y z
#
# Youngs Moduli (GPa) = 80.50151 50.58869 35.92765
#
# Poissons Ratio (x) = 0.00688 0.38045
# Poissons Ratio (y) = 0.01095 0.33861
# Poissons Ratio (z) = 0.85245 0.47678
#
# Static dielectric constant tensor:
#      x y z
#    x 1.940920 0.073630 0.003170 
#    y 0.073630 2.087420 -0.067060 
#    z 0.003170 -0.067060 1.990870 
# 
# From -- ./inp_files/288663.got.cif
#   From: 2010.05.17/outbox.cif.g08.bks.cpg/sg2_145_cif.got.tgz:288663.got - 2010.06.03 11:33:40.
