data_PCOD9028438
_publ_section_title
;
Structure prediction by ZEFSAII (Michael W. Deem and Ramdas Pophale) SiO2 
 PCOD9028438
Probable space group: P -1
;
_chemical_formula_sum "Si O2"
_cell_formula_units_Z 16
_cell_length_a 25.999569
_cell_length_b 8.768219
_cell_length_c 6.933175
_cell_angle_alpha 105.534585
_cell_angle_beta 123.200655
_cell_angle_gamma 37.022056
_cell_volume 749.991775
_symmetry_space_group_name_H-M "P -1"
_symmetry_group_IT_number 2
_symmetry_cell_setting 'triclinic'
loop_
_space_group_symop_operation_xyz
x,y,z
-x,-y,-z
loop_
_atom_site_type_symbol
_atom_site_label
_atom_site_fract_x
_atom_site_fract_y
_atom_site_fract_z
Si Si1 0.528892 0.352238 0.313109
Si Si2 0.785263 0.246158 0.519891
Si Si3 0.227360 0.315864 0.932427
Si Si4 0.874149 0.330912 0.519020
Si Si5 0.069079 0.124467 0.985708
Si Si6 0.338455 0.797719 0.793631
Si Si7 0.320365 0.236926 0.478860
Si Si8 0.940721 0.573721 0.207888
O O1 0.500000 0.500000 0.500000
O O2 0.611683 0.286372 0.342619
O O3 0.582976 0.070972 0.367041
O O4 0.427275 0.553210 0.038753
O O5 0.864258 0.168672 0.508138
O O6 0.756143 0.128473 0.376013
O O7 0.681560 0.572322 0.413143
O O8 0.835287 0.156497 0.804252
O O9 0.161875 0.560989 0.734962
O O10 0.148678 0.362588 0.896931
O O11 0.300879 0.047455 0.868795
O O12 0.295877 0.261456 0.213089
O O13 0.784420 0.596725 0.561385
O O14 0.983863 0.181094 0.744676
O O15 0.099365 0.187118 0.905594
O O16 0.015374 0.332394 0.123506
O O17 0.000000 0.500000 0.500000
#
# Coordination Sequence:
#
# PCOD9028438 Si02
#       8
#     2   2   2   2   2   2   2   2
#     4  11  23  44  72  95 121 164 213 265 329 387
#     4  10  24  43  63  94 136 170 207 264 323 370
#     4  12  21  41  66  92 129 173 218 258 319 375
#     4  10  22  42  62  87 140 172 207 255 318 375
#     4  11  22  39  61  92 133 176 217 261 306 370
#     4  11  24  41  69  99 122 159 219 272 310 389
#     4  10  23  43  63  91 130 170 203 262 330 381
#     4  11  22  34  60  95 124 170 224 267 300 359
#
# _framework density 21.333569000000001
#
# number of rings (size 3 to 8) (size 9 to 14) (size 15 to 20)
#    0.750    0.500    5.000    1.125    3.500    0.500 
#    6.750    1.875    0.000    0.000    0.000    0.000 
#    0.000    0.000    0.000    0.000    0.000    0.000 
#
# Total GULP energy -89389.815681 kJ/mol
# GULP energy per Si atom -5586.863480 kJ/mol
# Density = 2.128501 g / cm^3
# Si number density = 21.333569 Si / 1000 Ang^3
#
#
#
# Elastic Constant Matrix: (Units=GPa)
#
#
# Indices 1 2 3 4 5 6 
#
# 1 80.1520 -5.6696 33.8066 -0.5758 -23.0675 6.0917
# 2 -5.6696 69.9900 12.8243 -8.1128 -15.8414 1.5387
# 3 33.8066 12.8243 78.2483 -8.0232 -23.2448 9.5720
# 4 -0.5758 -8.1128 -8.0232 39.5783 1.8766 -7.9897
# 5 -23.0675 -15.8414 -23.2448 1.8766 34.4700 2.7572
# 6 6.0917 1.5387 9.5720 -7.9897 2.7572 21.6718
#
#
#
# Elastic Compliance Matrix: (Units=1/GPa)
#
#
# Indices 1 2 3 4 5 6 
#
# 1 0.018791 0.005133 -0.004782 -0.001352 0.012230 -0.005589
# 2 0.005133 0.017718 -0.001374 0.002400 0.010726 -0.002574
# 3 -0.004782 -0.001374 0.018973 0.001513 0.009487 -0.007587
# 4 -0.001352 0.002400 0.001513 0.028128 -0.001117 0.010053
# 5 0.012230 0.010726 0.009487 -0.001117 0.049794 -0.015136
# 6 -0.005589 -0.002574 -0.007587 0.010053 -0.015136 0.056880
#
#
# Mechanical properties :
#
#
# Convention : Reuss Voigt Hill
#
# Bulk Modulus (GPa) = 18.71432 34.47920 26.59676
# Shear Modulus (GPa) = 23.79362 31.63929 27.71646
#
# Velocity S-wave (km/s) = 3.34325 3.85525 3.60834
# Velocity P-wave (km/s) = 4.86769 6.00119 5.46391
#
# Compressibility (1/GPa) = 0.05343503
#
# Stress axis : x y z
#
# Youngs Moduli (GPa) = 53.21717 56.44066 52.70783
#
# Poissons Ratio (x) = -0.28969 0.25202
# Poissons Ratio (y) = -0.27314 0.07243
# Poissons Ratio (z) = 0.25446 0.07756
#
# Static dielectric constant tensor:
#      x y z
#    x 1.756630 -0.001890 -0.017080 
#    y -0.001890 1.826700 -0.007970 
#    z -0.017080 -0.007970 1.739840 
# 
# From -- ./inp_files/84770.got.cif
#   From: 2010.05.17/outbox.cif.g08.bks.cpg/sg2_43_cif.got.tgz:84770.got - 2010.06.03 11:33:40.
