data_PCOD9028706
_publ_section_title
;
Structure prediction by ZEFSAII (Michael W. Deem and Ramdas Pophale) SiO2 
 PCOD9028706
Probable space group: P -1
;
_chemical_formula_sum "Si O2"
_cell_formula_units_Z 15
_cell_length_a 9.683272
_cell_length_b 18.502500
_cell_length_c 15.099870
_cell_angle_alpha 19.151590
_cell_angle_beta 130.081587
_cell_angle_gamma 131.491616
_cell_volume 663.025274
_symmetry_space_group_name_H-M "P -1"
_symmetry_group_IT_number 2
_symmetry_cell_setting 'triclinic'
loop_
_space_group_symop_operation_xyz
x,y,z
-x,-y,-z
loop_
_atom_site_type_symbol
_atom_site_label
_atom_site_fract_x
_atom_site_fract_y
_atom_site_fract_z
Si Si1 0.885745 0.076748 0.154930
Si Si2 0.000000 0.000000 0.000000
Si Si3 0.416733 0.110543 0.464389
Si Si4 0.563753 0.708196 0.535861
Si Si5 0.791837 0.375041 0.075348
Si Si6 0.180528 0.897665 0.367476
Si Si7 0.173840 0.695239 0.313334
Si Si8 0.816604 0.570740 0.051715
O O1 0.996342 0.239280 0.087920
O O2 0.706709 0.906273 0.314668
O O3 0.837929 0.240347 0.868754
O O4 0.033633 0.943090 0.327412
O O5 0.131298 0.027133 0.112134
O O6 0.159377 0.917565 0.104096
O O7 0.450366 0.210786 0.461832
O O8 0.603381 0.038562 0.593904
O O9 0.345765 0.293233 0.162309
O O10 0.255709 0.888298 0.657588
O O11 0.367795 0.642616 0.482404
O O12 0.657366 0.494215 0.825930
O O13 0.769687 0.435183 0.098779
O O14 0.000000 0.500000 0.000000
O O15 0.154771 0.631483 0.638841
O O16 0.000000 0.500000 0.500000
#
# Coordination Sequence:
#
# PCOD9028706 Si02
#       8
#     2   1   2   2   2   2   2   2
#     4  11  25  41  68  98 141 174 220 281 337 398
#     4  10  22  42  64  94 134 172 218 280 326 396
#     4  11  24  41  69  96 135 178 227 277 336 401
#     4  11  24  43  68 102 135 178 226 273 341 406
#     4  11  24  42  67  96 137 179 223 276 341 402
#     4  11  23  41  65  99 134 176 226 280 338 399
#     4  11  24  43  71  98 134 178 227 279 335 398
#     4  11  23  41  64  97 137 175 226 276 338 398
#
# _framework density 22.623573
#
# number of rings (size 3 to 8) (size 9 to 14) (size 15 to 20)
#    0.000    1.067    1.333    4.800    3.733    5.333 
#    0.000    0.000    0.000    7.200    0.000    0.000 
#    0.000    0.000    0.000    0.000    0.000    0.000 
#
# Total GULP energy -83576.377001 kJ/mol
# GULP energy per Si atom -5571.758467 kJ/mol
# Density = 2.257208 g / cm^3
# Si number density = 22.623573 Si / 1000 Ang^3
#
#
#
# Elastic Constant Matrix: (Units=GPa)
#
#
# Indices 1 2 3 4 5 6 
#
# 1 70.6529 25.0952 12.0148 3.6148 -3.4495 21.6623
# 2 25.0952 85.5125 43.2298 8.5936 -2.7719 27.1342
# 3 12.0148 43.2298 93.9611 4.9836 6.8012 18.3994
# 4 3.6148 8.5936 4.9836 37.9139 16.4870 1.6341
# 5 -3.4495 -2.7719 6.8012 16.4870 36.5794 1.4754
# 6 21.6623 27.1342 18.3994 1.6341 1.4754 41.0733
#
#
#
# Elastic Compliance Matrix: (Units=1/GPa)
#
#
# Indices 1 2 3 4 5 6 
#
# 1 0.017621 -0.002637 0.000392 -0.001915 0.002565 -0.007743
# 2 -0.002637 0.019305 -0.007044 -0.005083 0.005145 -0.008190
# 3 0.000392 -0.007044 0.014407 0.001363 -0.003712 -0.001928
# 4 -0.001915 -0.005083 0.001363 0.034591 -0.016530 0.002975
# 5 0.002565 0.005145 -0.003712 -0.016530 0.036261 -0.003734
# 6 -0.007743 -0.008190 -0.001928 0.002975 -0.003734 0.034721
#
#
# Mechanical properties :
#
#
# Convention : Reuss Voigt Hill
#
# Bulk Modulus (GPa) = 30.52843 45.64513 38.08678
# Shear Modulus (GPa) = 26.82375 34.43243 30.62809
#
# Velocity S-wave (km/s) = 3.44707 3.90548 3.68341
# Velocity P-wave (km/s) = 5.41908 6.36842 5.91283
#
# Compressibility (1/GPa) = 0.03275635
#
# Stress axis : x y z
#
# Youngs Moduli (GPa) = 56.75106 51.79886 69.40905
#
# Poissons Ratio (x) = 0.13659 -0.02722
# Poissons Ratio (y) = 0.14964 0.48891
# Poissons Ratio (z) = -0.02226 0.36487
#
# Static dielectric constant tensor:
#      x y z
#    x 1.850440 -0.007590 -0.023900 
#    y -0.007590 1.826090 0.018010 
#    z -0.023900 0.018010 1.942710 
# 
# From -- ./inp_files/78510.got.cif
#   From: 2010.05.17/outbox.cif.g08.bks.cpg/sg2_40_cif.got.tgz:78510.got - 2010.06.03 11:33:40.
