data_PCOD9028310
_publ_section_title
;
Structure prediction by ZEFSAII (Michael W. Deem and Ramdas Pophale) SiO2 
 PCOD9028310
Probable space group: P -1
;
_chemical_formula_sum "Si O2"
_cell_formula_units_Z 16
_cell_length_a 10.553164
_cell_length_b 8.432692
_cell_length_c 11.370196
_cell_angle_alpha 129.636336
_cell_angle_beta 77.165092
_cell_angle_gamma 123.387948
_cell_volume 637.425902
_symmetry_space_group_name_H-M "P -1"
_symmetry_group_IT_number 2
_symmetry_cell_setting 'triclinic'
loop_
_space_group_symop_operation_xyz
x,y,z
-x,-y,-z
loop_
_atom_site_type_symbol
_atom_site_label
_atom_site_fract_x
_atom_site_fract_y
_atom_site_fract_z
Si Si1 0.025558 0.659100 0.826750
Si Si2 0.170881 0.696511 0.595043
Si Si3 0.909623 0.245911 0.827148
Si Si4 0.446603 0.024186 0.155285
Si Si5 0.818916 0.815670 0.200778
Si Si6 0.549265 0.518921 0.287764
Si Si7 0.483433 0.871685 0.565438
Si Si8 0.786997 0.778822 0.907561
O O1 0.161531 0.686393 0.732699
O O2 0.928847 0.379647 0.761517
O O3 0.900591 0.694935 0.803384
O O4 0.123179 0.927894 0.998897
O O5 0.303207 0.661452 0.509817
O O6 0.000000 0.500000 0.500000
O O7 0.198860 0.955391 0.671643
O O8 0.735850 0.099125 0.841892
O O9 0.016451 0.135779 0.766900
O O10 0.000000 0.500000 0.000000
O O11 0.529067 0.314820 0.283531
O O12 0.490602 0.964488 0.245831
O O13 0.500000 0.000000 0.000000
O O14 0.685053 0.597192 0.203135
O O15 0.789307 0.752465 0.037611
O O16 0.580773 0.749929 0.466709
O O17 0.385228 0.382552 0.185165
O O18 0.500000 0.000000 0.500000
#
# Coordination Sequence:
#
# PCOD9028310 Si02
#       8
#     2   2   2   2   2   2   2   2
#     4  10  23  41  70 108 148 191 260 308 375 445
#     4  11  26  46  76 104 147 202 257 310 379 452
#     4  12  25  45  72 109 154 192 250 319 379 444
#     4  12  32  50  80 114 154 203 252 314 383 452
#     4  11  25  43  73 114 147 198 262 308 376 461
#     4  12  26  47  75 106 156 197 249 313 388 447
#     4  12  29  53  77 110 156 201 257 313 379 457
#     4  10  22  41  75 109 149 196 254 316 377 445
#
# _framework density 25.100954999999999
#
# number of rings (size 3 to 8) (size 9 to 14) (size 15 to 20)
#    0.000    0.750    2.500    3.000   15.750    0.000 
#    0.000    1.250    0.000    0.000    0.000    0.000 
#    0.000    0.000    0.000    0.000    0.000    0.000 
#
# Total GULP energy -89258.339622 kJ/mol
# GULP energy per Si atom -5578.646226 kJ/mol
# Density = 2.504382 g / cm^3
# Si number density = 25.100955 Si / 1000 Ang^3
#
#
#
# Elastic Constant Matrix: (Units=GPa)
#
#
# Indices 1 2 3 4 5 6 
#
# 1 122.3548 43.2475 22.5434 -17.6712 5.7843 20.6302
# 2 43.2475 151.6735 24.7269 -25.8866 -9.3409 17.2132
# 3 22.5434 24.7269 81.9740 -26.2715 1.0553 4.6427
# 4 -17.6712 -25.8866 -26.2715 32.2440 5.1467 -8.2072
# 5 5.7843 -9.3409 1.0553 5.1467 37.8873 0.0791
# 6 20.6302 17.2132 4.6427 -8.2072 0.0791 53.1857
#
#
#
# Elastic Compliance Matrix: (Units=1/GPa)
#
#
# Indices 1 2 3 4 5 6 
#
# 1 0.010063 -0.002076 -0.001115 0.002623 -0.002368 -0.002726
# 2 -0.002076 0.008273 -0.000407 0.004607 0.001745 -0.001128
# 3 -0.001115 -0.000407 0.016918 0.013503 -0.002238 0.001174
# 4 0.002623 0.004607 0.013503 0.049156 -0.006326 0.003907
# 5 -0.002368 0.001745 -0.002238 -0.006326 0.028108 -0.000469
# 6 -0.002726 -0.001128 0.001174 0.003907 -0.000469 0.020726
#
#
# Mechanical properties :
#
#
# Convention : Reuss Voigt Hill
#
# Bulk Modulus (GPa) = 35.64090 59.67087 47.65589
# Shear Modulus (GPa) = 33.37936 42.36237 37.87087
#
# Velocity S-wave (km/s) = 3.65060 4.11259 3.88847
# Velocity P-wave (km/s) = 5.65677 6.80993 6.25996
#
# Compressibility (1/GPa) = 0.02805766
#
# Stress axis : x y z
#
# Youngs Moduli (GPa) = 99.37713 120.87213 59.10812
#
# Poissons Ratio (x) = 0.25095 0.06593
# Poissons Ratio (y) = 0.20632 0.02403
# Poissons Ratio (z) = 0.11085 0.04915
#
# Static dielectric constant tensor:
#      x y z
#    x 2.047610 -0.043220 0.119200 
#    y -0.043220 2.045480 -0.265830 
#    z 0.119200 -0.265830 2.434560 
# 
# From -- ./inp_files/419998.got.cif
#   From: 2010.05.17/outbox.cif.g08.bks.cpg/sg2_210_cif.got.tgz:419998.got - 2010.06.03 11:33:40.
