data_PCOD9028195
_publ_section_title
;
Structure prediction by ZEFSAII (Michael W. Deem and Ramdas Pophale) SiO2 
 PCOD9028195
Probable space group: P -1
;
_chemical_formula_sum "Si O2"
_cell_formula_units_Z 14
_cell_length_a 25.135579
_cell_length_b 5.164936
_cell_length_c 23.039653
_cell_angle_alpha 104.195613
_cell_angle_beta 169.216269
_cell_angle_gamma 75.889147
_cell_volume 542.482184
_symmetry_space_group_name_H-M "P -1"
_symmetry_group_IT_number 2
_symmetry_cell_setting 'triclinic'
loop_
_space_group_symop_operation_xyz
x,y,z
-x,-y,-z
loop_
_atom_site_type_symbol
_atom_site_label
_atom_site_fract_x
_atom_site_fract_y
_atom_site_fract_z
Si Si1 0.145777 0.777894 0.684474
Si Si2 0.632779 0.594951 0.254930
Si Si3 0.190584 0.241355 0.835930
Si Si4 0.747636 0.228438 0.621509
Si Si5 0.892440 0.837278 0.650516
Si Si6 0.391897 0.212314 0.348934
Si Si7 0.541088 0.470435 0.762183
O O1 0.000000 0.500000 0.500000
O O2 0.140071 0.934466 0.748852
O O3 0.483913 0.711192 0.044090
O O4 0.000000 0.000000 0.500000
O O5 0.738548 0.834355 0.423316
O O6 0.901481 0.404272 0.523657
O O7 0.411992 0.397862 0.040278
O O8 0.294153 0.292245 0.015437
O O9 0.537247 0.124663 0.439359
O O10 0.571396 0.478918 0.420010
O O11 0.818606 0.067693 0.629508
O O12 0.053489 0.247359 0.980359
O O13 0.738038 0.589985 0.503036
O O14 0.224107 0.767139 0.996141
O O15 0.500000 0.500000 0.500000
O O16 0.500000 0.000000 0.500000
#
# Coordination Sequence:
#
# PCOD9028195 Si02
#       7
#     2   2   2   2   2   2   2
#     4  12  25  46  72 102 141 194 248 290 352 432
#     4  10  23  45  69 104 144 183 234 301 362 422
#     4  10  23  45  69 104 144 183 234 301 362 422
#     4  12  25  44  76 102 145 186 244 294 348 426
#     4  10  22  41  72 106 138 178 234 298 363 420
#     4  12  30  50  74 106 148 198 236 288 348 418
#     4  10  22  41  72 106 138 178 234 298 363 420
#
# _framework density 25.807297999999999
#
# number of rings (size 3 to 8) (size 9 to 14) (size 15 to 20)
#    0.000    1.143    1.429    3.429    6.000    2.286 
#    0.000    8.571    0.000    0.000    0.000    0.000 
#    0.000    0.000    0.000    0.000    0.000    0.000 
#
# Total GULP energy -78345.801643 kJ/mol
# GULP energy per Si atom -5596.128689 kJ/mol
# Density = 2.574856 g / cm^3
# Si number density = 25.807298 Si / 1000 Ang^3
#
#
#
# Elastic Constant Matrix: (Units=GPa)
#
#
# Indices 1 2 3 4 5 6 
#
# 1 85.7705 17.1380 37.5522 -13.9136 -2.8451 7.5684
# 2 17.1380 147.7352 41.6469 2.4213 -18.0955 -8.9935
# 3 37.5522 41.6469 188.7121 -24.2839 -17.2209 20.4149
# 4 -13.9136 2.4213 -24.2839 37.3933 0.3027 -11.0848
# 5 -2.8451 -18.0955 -17.2209 0.3027 57.1905 -12.6133
# 6 7.5684 -8.9935 20.4149 -11.0848 -12.6133 46.7119
#
#
#
# Elastic Compliance Matrix: (Units=1/GPa)
#
#
# Indices 1 2 3 4 5 6 
#
# 1 0.013362 -0.001187 -0.001889 0.003573 -0.000487 -0.000851
# 2 -0.001187 0.007908 -0.001748 -0.001259 0.002556 0.002870
# 3 -0.001889 -0.001748 0.006774 0.003217 0.000940 -0.001974
# 4 0.003573 -0.001259 0.003217 0.031966 0.001872 0.005864
# 5 -0.000487 0.002556 0.000940 0.001872 0.019859 0.005967
# 6 -0.000851 0.002870 -0.001974 0.005864 0.005967 0.025964
#
#
# Mechanical properties :
#
#
# Convention : Reuss Voigt Hill
#
# Bulk Modulus (GPa) = 54.36489 68.32133 61.34311
# Shear Modulus (GPa) = 41.11351 49.98452 45.54901
#
# Velocity S-wave (km/s) = 3.99569 4.40573 4.20571
# Velocity P-wave (km/s) = 6.51144 7.23959 6.88515
#
# Compressibility (1/GPa) = 0.01839423
#
# Stress axis : x y z
#
# Youngs Moduli (GPa) = 74.83825 126.45548 147.62081
#
# Poissons Ratio (x) = 0.15016 0.27891
# Poissons Ratio (y) = 0.08887 0.25806
# Poissons Ratio (z) = 0.14140 0.22106
#
# Static dielectric constant tensor:
#      x y z
#    x 2.090250 -0.016920 -0.022310 
#    y -0.016920 2.060640 -0.003420 
#    z -0.022310 -0.003420 2.000180 
# 
# From -- ./inp_files/614307.got.cif
#   From: 2010.05.17/outbox.cif.g08.bks.cpg/sg2_308_cif.got.tgz:614307.got - 2010.06.03 11:33:40.
