data_PCOD9028134
_publ_section_title
;
Structure prediction by ZEFSAII (Michael W. Deem and Ramdas Pophale) SiO2 
 PCOD9028134
Probable space group: P -1
;
_chemical_formula_sum "Si O2"
_cell_formula_units_Z 14
_cell_length_a 16.405389
_cell_length_b 15.645290
_cell_length_c 10.675164
_cell_angle_alpha 48.967450
_cell_angle_beta 60.522945
_cell_angle_gamma 23.534975
_cell_volume 768.522199
_symmetry_space_group_name_H-M "P -1"
_symmetry_group_IT_number 2
_symmetry_cell_setting 'triclinic'
loop_
_space_group_symop_operation_xyz
x,y,z
-x,-y,-z
loop_
_atom_site_type_symbol
_atom_site_label
_atom_site_fract_x
_atom_site_fract_y
_atom_site_fract_z
Si Si1 0.357020 0.355829 0.473037
Si Si2 0.362347 0.069531 0.126443
Si Si3 0.016359 0.050746 0.808402
Si Si4 0.157283 0.674884 0.969308
Si Si5 0.373008 0.853116 0.762313
Si Si6 0.983089 0.365354 0.707788
Si Si7 0.051955 0.560465 0.060876
O O1 0.535346 0.195732 0.388385
O O2 0.207111 0.422212 0.456443
O O3 0.194372 0.639136 0.349066
O O4 0.474428 0.186460 0.671482
O O5 0.223712 0.295991 0.112050
O O6 0.184523 0.197281 0.055170
O O7 0.500000 0.000000 0.000000
O O8 0.049782 0.915203 0.810773
O O9 0.226462 0.903475 0.796127
O O10 0.000000 0.000000 0.000000
O O11 0.412957 0.408490 0.065311
O O12 0.049271 0.725793 0.120578
O O13 0.121942 0.616395 0.949105
O O14 0.215724 0.111487 0.708284
O O15 0.956092 0.464469 0.760866
#
# Coordination Sequence:
#
# PCOD9028134 Si02
#       7
#     2   2   2   2   2   2   2
#     4  10  22  36  57  93 115 150 198 233 287 349
#     4  11  25  44  63  75 112 161 200 246 296 331
#     4  11  17  32  55  94 128 146 183 228 285 356
#     4   9  18  32  55  88 117 150 186 223 281 347
#     4  10  17  31  61  86 125 153 175 231 293 338
#     4   8  18  34  56  88 117 138 188 236 276 344
#     4   9  22  41  59  85 112 150 203 240 282 352
#
# _framework density 18.216781000000001
#
# number of rings (size 3 to 8) (size 9 to 14) (size 15 to 20)
#    0.857    1.429    4.286    0.429    2.000    5.143 
#    0.000    2.143    0.000    1.714    0.000    0.000 
#    0.000    0.000    0.000    0.000    0.000    0.000 
#
# Total GULP energy -77951.454645 kJ/mol
# GULP energy per Si atom -5567.961046 kJ/mol
# Density = 1.817532 g / cm^3
# Si number density = 18.216781 Si / 1000 Ang^3
#
#
#
# Elastic Constant Matrix: (Units=GPa)
#
#
# Indices 1 2 3 4 5 6 
#
# 1 43.2509 -9.5647 14.2121 -7.4846 -25.7868 -34.1211
# 2 -9.5647 78.4218 24.3019 -2.0899 -21.2139 -45.1563
# 3 14.2121 24.3019 82.9915 -16.0840 -4.9164 -31.8784
# 4 -7.4846 -2.0899 -16.0840 16.0235 -3.0369 4.5480
# 5 -25.7868 -21.2139 -4.9164 -3.0369 -0.1812 -21.7226
# 6 -34.1211 -45.1563 -31.8784 4.5480 -21.7226 -13.7058
#
#
#
# Elastic Compliance Matrix: (Units=1/GPa)
#
#
# Indices 1 2 3 4 5 6 
#
# 1 0.015297 -0.003702 -0.005772 0.005228 0.002058 -0.013985
# 2 -0.003702 0.010011 -0.005111 -0.005855 -0.006606 -0.003351
# 3 -0.005772 -0.005111 0.018633 0.011929 -0.008962 0.006033
# 4 0.005228 -0.005855 0.011929 0.082777 0.013165 -0.014871
# 5 0.002058 -0.006606 -0.008962 0.013165 0.053087 -0.042281
# 6 -0.013985 -0.003351 0.006033 -0.014871 -0.042281 0.020941
#
#
# Mechanical properties :
#
#
# Convention : Reuss Voigt Hill
#
# Bulk Modulus (GPa) = 67.70341 29.17364 48.43852
# Shear Modulus (GPa) = 21.29112 12.14162 16.71637
#
# Velocity S-wave (km/s) = 3.42243 2.58448 3.03254
# Velocity P-wave (km/s) = 7.27073 4.99555 6.23775
#
# Compressibility (1/GPa) = 0.01477030
#
# Stress axis : x y z
#
# Youngs Moduli (GPa) = 65.37124 99.89020 53.66861
#
# Poissons Ratio (x) = 0.36984 0.30979
# Poissons Ratio (y) = 0.24203 0.27428
# Poissons Ratio (z) = 0.37734 0.51050
#
# Static dielectric constant tensor:
#      x y z
#    x 1.680540 0.023290 -0.011770 
#    y 0.023290 1.631020 0.000040 
#    z -0.011770 0.000040 1.614320 
# 
# From -- ./inp_files/466307.got.cif
#   From: 2010.05.17/outbox.cif.g08.bks.cpg/sg2_234_cif.got.tgz:466307.got - 2010.06.03 11:33:40.
