data_PCOD9028075
_publ_section_title
;
Structure prediction by ZEFSAII (Michael W. Deem and Ramdas Pophale) SiO2 
 PCOD9028075
Probable space group: P -1
;
_chemical_formula_sum "Si O2"
_cell_formula_units_Z 14
_cell_length_a 11.789067
_cell_length_b 12.500217
_cell_length_c 9.124476
_cell_angle_alpha 49.672283
_cell_angle_beta 121.839024
_cell_angle_gamma 144.431219
_cell_volume 596.272798
_symmetry_space_group_name_H-M "P -1"
_symmetry_group_IT_number 2
_symmetry_cell_setting 'triclinic'
loop_
_space_group_symop_operation_xyz
x,y,z
-x,-y,-z
loop_
_atom_site_type_symbol
_atom_site_label
_atom_site_fract_x
_atom_site_fract_y
_atom_site_fract_z
Si Si1 0.806673 0.949019 0.402239
Si Si2 0.394165 0.975168 0.298685
Si Si3 0.058537 0.398688 0.194225
Si Si4 0.315696 0.399113 0.845811
Si Si5 0.292076 0.152043 0.238030
Si Si6 0.137840 0.524221 0.461751
Si Si7 0.503894 0.703684 0.146237
O O1 0.728941 0.885083 0.571897
O O2 0.638982 0.799235 0.299725
O O3 0.000000 0.000000 0.500000
O O4 0.899175 0.168793 0.234897
O O5 0.312905 0.772240 0.347322
O O6 0.500000 0.000000 0.500000
O O7 0.250264 0.980732 0.269728
O O8 0.484112 0.143950 0.080909
O O9 0.044259 0.414054 0.342958
O O10 0.277136 0.515668 0.201235
O O11 0.000000 0.500000 0.000000
O O12 0.482932 0.626212 0.829005
O O13 0.195684 0.420255 0.658611
O O14 0.414831 0.364635 0.832666
O O15 0.193874 0.215061 0.044635
O O16 0.000000 0.500000 0.500000
#
# Coordination Sequence:
#
# PCOD9028075 Si02
#       7
#     2   2   2   2   2   2   2
#     4  12  26  47  74 106 145 189 239 298 363 428
#     4  11  24  44  71 103 138 190 236 295 363 424
#     4  12  29  47  72 108 147 190 239 303 364 426
#     4  10  22  44  71 100 139 189 237 294 357 423
#     4  10  22  41  71 101 137 184 238 290 353 429
#     4  12  26  43  69 106 145 184 241 298 358 428
#     4  11  27  48  75 106 145 189 246 295 363 435
#
# _framework density 23.479185999999999
#
# number of rings (size 3 to 8) (size 9 to 14) (size 15 to 20)
#    0.000    0.857    1.429    4.286    4.000    5.143 
#    0.000    3.571    0.000    0.000    0.000    0.000 
#    0.000    0.000    0.000    0.000    0.000    0.000 
#
# Total GULP energy -78190.762892 kJ/mol
# GULP energy per Si atom -5585.054492 kJ/mol
# Density = 2.342575 g / cm^3
# Si number density = 23.479186 Si / 1000 Ang^3
#
#
#
# Elastic Constant Matrix: (Units=GPa)
#
#
# Indices 1 2 3 4 5 6 
#
# 1 92.4517 16.0109 40.8207 0.6860 0.9922 -1.8610
# 2 16.0109 79.8518 11.5227 5.1751 0.8057 0.3321
# 3 40.8207 11.5227 134.3250 -0.1640 19.3896 3.7486
# 4 0.6860 5.1751 -0.1640 41.7057 -9.6610 0.1766
# 5 0.9922 0.8057 19.3896 -9.6610 48.8148 -3.6067
# 6 -1.8610 0.3321 3.7486 0.1766 -3.6067 20.2218
#
#
#
# Elastic Compliance Matrix: (Units=1/GPa)
#
#
# Indices 1 2 3 4 5 6 
#
# 1 0.012998 -0.002070 -0.004071 0.000396 0.001633 0.002273
# 2 -0.002070 0.013115 -0.000435 -0.001677 -0.000361 -0.000375
# 3 -0.004071 -0.000435 0.009373 -0.000754 -0.003990 -0.002810
# 4 0.000396 -0.001677 -0.000754 0.025428 0.005422 0.000949
# 5 0.001633 -0.000361 -0.003990 0.005422 0.023488 0.005038
# 6 0.002273 -0.000375 -0.002810 0.000949 0.005038 0.051078
#
#
# Mechanical properties :
#
#
# Convention : Reuss Voigt Hill
#
# Bulk Modulus (GPa) = 44.77882 49.25968 47.01925
# Shear Modulus (GPa) = 32.03536 38.03339 35.03437
#
# Velocity S-wave (km/s) = 3.69781 4.02914 3.86702
# Velocity P-wave (km/s) = 6.11104 6.53230 6.32518
#
# Compressibility (1/GPa) = 0.02233198
#
# Stress axis : x y z
#
# Youngs Moduli (GPa) = 76.93608 76.24843 106.69415
#
# Poissons Ratio (x) = 0.15786 0.43436
# Poissons Ratio (y) = 0.15928 0.04645
# Poissons Ratio (z) = 0.31321 0.03319
#
# Static dielectric constant tensor:
#      x y z
#    x 1.893250 0.079500 0.011460 
#    y 0.079500 1.915760 -0.056810 
#    z 0.011460 -0.056810 1.825370 
# 
# From -- ./inp_files/261776.got.cif
#   From: 2010.05.17/outbox.cif.g08.bks.cpg/sg2_131_cif.got.tgz:261776.got - 2010.06.03 11:33:40.
