data_PCOD9028678
_publ_section_title
;
Structure prediction by ZEFSAII (Michael W. Deem and Ramdas Pophale) SiO2 
 PCOD9028678
Probable space group: P -1
;
_chemical_formula_sum "Si O2"
_cell_formula_units_Z 14
_cell_length_a 7.992262
_cell_length_b 8.642456
_cell_length_c 18.924426
_cell_angle_alpha 103.921715
_cell_angle_beta 142.025070
_cell_angle_gamma 104.381559
_cell_volume 530.687335
_symmetry_space_group_name_H-M "P -1"
_symmetry_group_IT_number 2
_symmetry_cell_setting 'triclinic'
loop_
_space_group_symop_operation_xyz
x,y,z
-x,-y,-z
loop_
_atom_site_type_symbol
_atom_site_label
_atom_site_fract_x
_atom_site_fract_y
_atom_site_fract_z
Si Si1 0.778044 0.616559 0.675193
Si Si2 0.659477 0.451166 0.340472
Si Si3 0.500685 0.560924 0.166186
Si Si4 0.589051 0.213244 0.583569
Si Si5 0.224544 0.047917 0.787008
Si Si6 0.262587 0.964219 0.132266
Si Si7 0.443498 0.135005 0.680157
O O1 0.500000 0.500000 0.500000
O O2 0.561962 0.542628 0.671119
O O3 0.914999 0.489341 0.702014
O O4 0.057242 0.892475 0.785408
O O5 0.780919 0.594677 0.323706
O O6 0.000000 0.500000 0.500000
O O7 0.330753 0.180263 0.174278
O O8 0.630608 0.708131 0.153600
O O9 0.372097 0.656386 0.182546
O O10 0.153924 0.286548 0.008138
O O11 0.670879 0.221330 0.693043
O O12 0.500000 0.000000 0.500000
O O13 0.159473 0.112130 0.411978
O O14 0.560357 0.064888 0.876342
O O15 0.558856 0.033594 0.301162
O O16 0.000000 0.000000 0.500000
#
# Coordination Sequence:
#
# PCOD9028678 Si02
#       7
#     2   2   2   2   2   2   2
#     4  10  23  41  60 101 137 164 212 290 330 377
#     4  12  24  42  73 102 127 171 226 275 325 400
#     4  11  23  43  68  93 135 178 220 269 333 396
#     4  11  22  36  64 100 132 166 221 280 330 378
#     4  10  22  42  64  92 138 170 214 270 335 378
#     4  11  24  40  69  95 135 174 223 268 333 396
#     4  11  19  39  67  97 122 172 229 269 318 388
#
# _framework density 26.380880000000001
#
# number of rings (size 3 to 8) (size 9 to 14) (size 15 to 20)
#    0.000    1.143    4.286    4.714    4.000    1.143 
#    0.000    1.429    3.143    0.000    0.000    0.000 
#    0.000    0.000    0.000    0.000    0.000    0.000 
#
# Total GULP energy -77996.124205 kJ/mol
# GULP energy per Si atom -5571.151729 kJ/mol
# Density = 2.632084 g / cm^3
# Si number density = 26.380880 Si / 1000 Ang^3
#
#
#
# Elastic Constant Matrix: (Units=GPa)
#
#
# Indices 1 2 3 4 5 6 
#
# 1 78.9973 42.8626 2.3040 3.8940 -0.5596 2.6814
# 2 42.8626 206.8948 16.8336 37.7687 -3.7423 15.2774
# 3 2.3040 16.8336 71.5718 26.5230 1.9952 -11.7965
# 4 3.8940 37.7687 26.5230 44.4670 -3.1629 -5.1027
# 5 -0.5596 -3.7423 1.9952 -3.1629 23.5594 5.9454
# 6 2.6814 15.2774 -11.7965 -5.1027 5.9454 31.5821
#
#
#
# Elastic Compliance Matrix: (Units=1/GPa)
#
#
# Indices 1 2 3 4 5 6 
#
# 1 0.014361 -0.003325 -0.000234 0.001770 -0.000082 0.000603
# 2 -0.003325 0.006964 -0.000061 -0.005990 0.001320 -0.004325
# 3 -0.000234 -0.000061 0.019257 -0.011021 -0.004728 0.006352
# 4 0.001770 -0.005990 -0.011021 0.034668 0.003790 0.003518
# 5 -0.000082 0.001320 -0.004728 0.003790 0.046209 -0.010484
# 6 0.000603 -0.004325 0.006352 0.003518 -0.010484 0.038619
#
#
# Mechanical properties :
#
#
# Convention : Reuss Voigt Hill
#
# Bulk Modulus (GPa) = 29.99311 53.49602 41.74457
# Shear Modulus (GPa) = 28.02170 39.61927 33.82049
#
# Velocity S-wave (km/s) = 3.26267 3.87953 3.58440
# Velocity P-wave (km/s) = 5.05839 6.35532 5.74358
#
# Compressibility (1/GPa) = 0.03334099
#
# Stress axis : x y z
#
# Youngs Moduli (GPa) = 69.63075 143.59639 51.92981
#
# Poissons Ratio (x) = 0.47751 0.01218
# Poissons Ratio (y) = 0.23155 0.00316
# Poissons Ratio (z) = 0.01633 0.00873
#
# Static dielectric constant tensor:
#      x y z
#    x 2.169040 -0.062560 0.080030 
#    y -0.062560 2.270730 0.054850 
#    z 0.080030 0.054850 2.221950 
# 
# From -- ./inp_files/587439.got.cif
#   From: 2010.05.17/outbox.cif.g08.bks.cpg/sg2_294_cif.got.tgz:587439.got - 2010.06.03 11:33:40.
