data_PCOD9028875
_publ_section_title
;
Structure prediction by ZEFSAII (Michael W. Deem and Ramdas Pophale) SiO2 
 PCOD9028875
Probable space group: P -1
;
_chemical_formula_sum "Si O2"
_cell_formula_units_Z 14
_cell_length_a 12.249162
_cell_length_b 8.587949
_cell_length_c 19.234055
_cell_angle_alpha 44.199708
_cell_angle_beta 36.288115
_cell_angle_gamma 69.859950
_cell_volume 688.234546
_symmetry_space_group_name_H-M "P -1"
_symmetry_group_IT_number 2
_symmetry_cell_setting 'triclinic'
loop_
_space_group_symop_operation_xyz
x,y,z
-x,-y,-z
loop_
_atom_site_type_symbol
_atom_site_label
_atom_site_fract_x
_atom_site_fract_y
_atom_site_fract_z
Si Si1 0.853076 0.121620 0.524239
Si Si2 0.764077 0.336306 0.132747
Si Si3 0.107153 0.129545 0.166990
Si Si4 0.164397 0.749099 0.161036
Si Si5 0.027082 0.754733 0.072398
Si Si6 0.712930 0.123506 0.436987
Si Si7 0.590301 0.797188 0.887465
O O1 0.772244 0.091520 0.496260
O O2 0.001908 0.436830 0.364284
O O3 0.657069 0.976116 0.727262
O O4 0.000000 0.000000 0.500000
O O5 0.551455 0.104684 0.359394
O O6 0.738154 0.568986 0.041655
O O7 0.000000 0.500000 0.000000
O O8 0.804873 0.210294 0.085085
O O9 0.205483 0.119115 0.193501
O O10 0.866651 0.075820 0.323458
O O11 0.112262 0.927957 0.176408
O O12 0.120314 0.770181 0.096004
O O13 0.411866 0.816410 0.016426
O O14 0.806951 0.442144 0.278017
O O15 0.000000 0.000000 0.000000
O O16 0.500000 0.500000 0.000000
#
# Coordination Sequence:
#
# PCOD9028875 Si02
#       7
#     2   2   2   2   2   2   2
#     4  11  20  38  63  90 123 167 208 252 317 387
#     4  11  24  43  67  91 124 168 217 269 320 377
#     4  11  24  39  60  94 129 167 212 262 320 385
#     4  11  24  39  60  95 129 163 213 262 317 381
#     4  10  22  43  66  93 126 164 215 264 319 384
#     4  10  22  42  65  93 126 169 211 259 324 384
#     4  12  21  38  63  88 128 170 208 259 313 380
#
# _framework density 20.341902999999999
#
# number of rings (size 3 to 8) (size 9 to 14) (size 15 to 20)
#    0.000    1.143    2.857    4.714    0.000    4.571 
#    0.000    4.286    0.000    0.000    0.000    0.000 
#    0.000    0.000    0.000    0.000    0.000    0.000 
#
# Total GULP energy -78244.433051 kJ/mol
# GULP energy per Si atom -5588.888075 kJ/mol
# Density = 2.029560 g / cm^3
# Si number density = 20.341903 Si / 1000 Ang^3
#
#
#
# Elastic Constant Matrix: (Units=GPa)
#
#
# Indices 1 2 3 4 5 6 
#
# 1 60.3686 35.7141 29.8608 1.4422 2.8029 0.8611
# 2 35.7141 182.8106 70.2730 -5.4091 4.0710 5.9566
# 3 29.8608 70.2730 155.5472 9.4290 7.6604 -4.3996
# 4 1.4422 -5.4091 9.4290 17.2229 -2.4879 13.2114
# 5 2.8029 4.0710 7.6604 -2.4879 34.9027 -1.4360
# 6 0.8611 5.9566 -4.3996 13.2114 -1.4360 34.9898
#
#
#
# Elastic Compliance Matrix: (Units=1/GPa)
#
#
# Indices 1 2 3 4 5 6 
#
# 1 0.019520 -0.003002 -0.002232 -0.001772 -0.000838 0.000385
# 2 -0.003002 0.007871 -0.003668 0.008612 0.000538 -0.004957
# 3 -0.002232 -0.003668 0.009446 -0.010974 -0.002004 0.005928
# 4 -0.001772 0.008612 -0.010974 0.098336 0.006924 -0.039648
# 5 -0.000838 0.000538 -0.002004 0.006924 0.029518 -0.001726
# 6 0.000385 -0.004957 0.005928 -0.039648 -0.001726 0.045059
#
#
# Mechanical properties :
#
#
# Convention : Reuss Voigt Hill
#
# Bulk Modulus (GPa) = 52.53817 74.49137 63.51477
# Shear Modulus (GPa) = 21.37666 34.94831 28.16249
#
# Velocity S-wave (km/s) = 3.24523 4.14943 3.72487
# Velocity P-wave (km/s) = 6.31867 7.72374 7.05627
#
# Compressibility (1/GPa) = 0.01903378
#
# Stress axis : x y z
#
# Youngs Moduli (GPa) = 51.22823 127.04677 105.86197
#
# Poissons Ratio (x) = 0.38140 0.23624
# Poissons Ratio (y) = 0.15379 0.38835
# Poissons Ratio (z) = 0.11432 0.46606
#
# Static dielectric constant tensor:
#      x y z
#    x 1.736120 -0.005370 0.003990 
#    y -0.005370 1.687260 -0.000490 
#    z 0.003990 -0.000490 1.725320 
# 
# From -- ./inp_files/138597.got.cif
#   From: 2010.05.17/outbox.cif.g08.bks.cpg/sg2_70_cif.got.tgz:138597.got - 2010.06.03 11:33:40.
