data_PCOD9028421
_publ_section_title
;
Structure prediction by ZEFSAII (Michael W. Deem and Ramdas Pophale) SiO2 
 PCOD9028421
Probable space group: P -1
;
_chemical_formula_sum "Si O2"
_cell_formula_units_Z 16
_cell_length_a 8.158049
_cell_length_b 10.141849
_cell_length_c 14.524674
_cell_angle_alpha 79.803231
_cell_angle_beta 41.950682
_cell_angle_gamma 81.751328
_cell_volume 790.534928
_symmetry_space_group_name_H-M "P -1"
_symmetry_group_IT_number 2
_symmetry_cell_setting 'triclinic'
loop_
_space_group_symop_operation_xyz
x,y,z
-x,-y,-z
loop_
_atom_site_type_symbol
_atom_site_label
_atom_site_fract_x
_atom_site_fract_y
_atom_site_fract_z
Si Si1 0.727456 0.541014 0.196225
Si Si2 0.722783 0.403057 0.391238
Si Si3 0.869888 0.892870 0.855980
Si Si4 0.118349 0.721711 0.935346
Si Si5 0.837968 0.380512 0.546411
Si Si6 0.331663 0.888696 0.543807
Si Si7 0.770279 0.087360 0.622608
Si Si8 0.433093 0.905649 0.915958
O O1 0.847368 0.477250 0.246163
O O2 0.750472 0.419274 0.129360
O O3 0.445117 0.578204 0.324872
O O4 0.872602 0.672553 0.093737
O O5 0.500000 0.500000 0.500000
O O6 0.882191 0.371845 0.418667
O O7 0.615895 0.261110 0.423148
O O8 0.632717 0.834698 0.909378
O O9 0.021015 0.801399 0.876360
O O10 0.059850 0.924740 0.690818
O O11 0.759904 0.015855 0.946992
O O12 0.290000 0.811101 0.916839
O O13 0.868455 0.232377 0.595107
O O14 0.000000 0.500000 0.500000
O O15 0.369799 0.883896 0.418868
O O16 0.500000 0.000000 0.500000
O O17 0.592372 0.012408 0.776770
O O18 0.000000 0.000000 0.500000
#
# Coordination Sequence:
#
# PCOD9028421 Si02
#       8
#     2   2   2   2   2   2   2   2
#     4  10  22  42  61  96 123 169 227 257 323 410
#     4   9  20  39  60  89 129 160 213 264 311 396
#     4  11  23  43  64  98 135 164 226 275 324 406
#     4  11  23  42  70  88 132 174 215 276 328 387
#     4  10  23  40  64  94 132 172 207 273 331 383
#     4  11  22  38  66  97 126 173 214 271 332 385
#     4  11  23  40  63  95 133 163 223 272 322 398
#     4  11  25  43  67  96 133 178 214 281 339 385
#
# _framework density 20.239462
#
# number of rings (size 3 to 8) (size 9 to 14) (size 15 to 20)
#    0.000    1.500    2.500    1.875    1.750    4.000 
#    6.750    1.250    0.000    0.000    0.000    0.000 
#    0.000    0.000    0.000    0.000    0.000    0.000 
#
# Total GULP energy -89211.028026 kJ/mol
# GULP energy per Si atom -5575.689252 kJ/mol
# Density = 2.019340 g / cm^3
# Si number density = 20.239462 Si / 1000 Ang^3
#
#
#
# Elastic Constant Matrix: (Units=GPa)
#
#
# Indices 1 2 3 4 5 6 
#
# 1 86.1794 42.7749 19.4764 -14.3125 -1.8506 18.0306
# 2 42.7749 114.4866 36.5697 -8.6747 -17.1732 21.3165
# 3 19.4764 36.5697 86.9802 1.9098 -2.9215 14.2624
# 4 -14.3125 -8.6747 1.9098 31.9098 -3.6014 -9.8553
# 5 -1.8506 -17.1732 -2.9215 -3.6014 29.5205 2.6958
# 6 18.0306 21.3165 14.2624 -9.8553 2.6958 27.8924
#
#
#
# Elastic Compliance Matrix: (Units=1/GPa)
#
#
# Indices 1 2 3 4 5 6 
#
# 1 0.015731 -0.004481 -0.001005 0.004389 -0.000764 -0.004606
# 2 -0.004481 0.014076 -0.003596 0.000963 0.008261 -0.006481
# 3 -0.001005 -0.003596 0.014140 -0.003953 -0.000767 -0.005155
# 4 0.004389 0.000963 -0.003953 0.037782 0.004011 0.011410
# 5 -0.000764 0.008261 -0.000767 0.004011 0.039763 -0.007853
# 6 -0.004606 -0.006481 -0.005155 0.011410 -0.007853 0.051209
#
#
# Mechanical properties :
#
#
# Convention : Reuss Voigt Hill
#
# Bulk Modulus (GPa) = 38.78459 53.92090 46.35275
# Shear Modulus (GPa) = 25.06764 30.45290 27.76027
#
# Velocity S-wave (km/s) = 3.52313 3.88316 3.70752
# Velocity P-wave (km/s) = 5.97949 6.84139 6.42491
#
# Compressibility (1/GPa) = 0.02578344
#
# Stress axis : x y z
#
# Youngs Moduli (GPa) = 63.56808 71.04225 70.72058
#
# Poissons Ratio (x) = 0.31833 0.07110
# Poissons Ratio (y) = 0.28484 0.25430
# Poissons Ratio (z) = 0.06391 0.25546
#
# Static dielectric constant tensor:
#      x y z
#    x 1.749160 -0.018090 0.045810 
#    y -0.018090 1.728450 0.014950 
#    z 0.045810 0.014950 1.743100 
# 
# From -- ./inp_files/272368.got.cif
#   From: 2010.05.17/outbox.cif.g08.bks.cpg/sg2_137_cif.got.tgz:272368.got - 2010.06.03 11:33:40.
