data_PCOD9028554
_publ_section_title
;
Structure prediction by ZEFSAII (Michael W. Deem and Ramdas Pophale) SiO2 
 PCOD9028554
Probable space group: P -1
;
_chemical_formula_sum "Si O2"
_cell_formula_units_Z 16
_cell_length_a 11.160772
_cell_length_b 9.482626
_cell_length_c 8.962728
_cell_angle_alpha 85.096939
_cell_angle_beta 42.685722
_cell_angle_gamma 93.109312
_cell_volume 631.049590
_symmetry_space_group_name_H-M "P -1"
_symmetry_group_IT_number 2
_symmetry_cell_setting 'triclinic'
loop_
_space_group_symop_operation_xyz
x,y,z
-x,-y,-z
loop_
_atom_site_type_symbol
_atom_site_label
_atom_site_fract_x
_atom_site_fract_y
_atom_site_fract_z
Si Si1 0.186474 0.823343 0.634835
Si Si2 0.246025 0.359291 0.488684
Si Si3 0.669942 0.051013 0.231392
Si Si4 0.787354 0.474560 0.217683
Si Si5 0.836820 0.914475 0.563568
Si Si6 0.199967 0.653505 0.389506
Si Si7 0.435530 0.124288 0.943828
Si Si8 0.354494 0.650780 0.930584
O O1 0.164074 0.899491 0.809953
O O2 0.264318 0.683992 0.644180
O O3 0.077760 0.734145 0.602917
O O4 0.248949 0.970878 0.468158
O O5 0.267735 0.401969 0.639038
O O6 0.127278 0.206879 0.573604
O O7 0.165443 0.489946 0.483838
O O8 0.440002 0.365417 0.235568
O O9 0.640428 0.193181 0.159621
O O10 0.500000 0.000000 0.500000
O O11 0.657961 0.934054 0.120728
O O12 0.712247 0.467179 0.121844
O O13 0.000000 0.500000 0.000000
O O14 0.711214 0.835048 0.814514
O O15 0.000000 0.000000 0.500000
O O16 0.397536 0.747588 0.242430
O O17 0.226175 0.650652 0.189283
O O18 0.500000 0.000000 0.000000
#
# Coordination Sequence:
#
# PCOD9028554 Si02
#       8
#     2   2   2   2   2   2   2   2
#     4  10  22  42  63  93 128 172 219 257 319 395
#     4  11  24  43  64  96 133 162 216 279 317 378
#     4  11  19  33  63  95 124 165 214 265 308 372
#     4  10  25  45  65  91 133 175 213 255 328 402
#     4  12  26  44  65  97 133 168 214 275 330 374
#     4  11  21  39  68  96 127 167 224 263 317 381
#     4  12  20  39  67  95 129 172 221 263 312 392
#     4  11  21  38  66  95 125 167 215 270 317 367
#
# _framework density 25.354586000000001
#
# number of rings (size 3 to 8) (size 9 to 14) (size 15 to 20)
#    0.000    1.000    5.000    1.500    0.000    4.000 
#    2.250    3.750    0.000    0.000    0.000    0.000 
#    0.000    0.000    0.000    0.000    0.000    0.000 
#
# Total GULP energy -89097.112085 kJ/mol
# GULP energy per Si atom -5568.569505 kJ/mol
# Density = 2.529688 g / cm^3
# Si number density = 25.354586 Si / 1000 Ang^3
#
#
#
# Elastic Constant Matrix: (Units=GPa)
#
#
# Indices 1 2 3 4 5 6 
#
# 1 96.2217 53.3559 50.6205 23.2468 19.7925 37.9023
# 2 53.3559 151.7732 41.9633 19.8586 27.6178 43.1203
# 3 50.6205 41.9633 74.7983 14.5302 31.3506 25.6820
# 4 23.2468 19.8586 14.5302 37.3824 13.4120 16.1833
# 5 19.7925 27.6178 31.3506 13.4120 50.5122 9.1509
# 6 37.9023 43.1203 25.6820 16.1833 9.1509 45.4679
#
#
#
# Elastic Compliance Matrix: (Units=1/GPa)
#
#
# Indices 1 2 3 4 5 6 
#
# 1 0.020873 -0.001815 -0.009956 -0.005097 0.001909 -0.008625
# 2 -0.001815 0.009932 -0.000704 0.000254 -0.003086 -0.006978
# 3 -0.009956 -0.000704 0.026643 0.002516 -0.012095 -0.004543
# 4 -0.005097 0.000254 0.002516 0.035143 -0.007511 -0.008410
# 5 0.001909 -0.003086 -0.012095 -0.007511 0.029343 0.004934
# 6 -0.008625 -0.006978 -0.004543 -0.008410 0.004934 0.040367
#
#
# Mechanical properties :
#
#
# Convention : Reuss Voigt Hill
#
# Bulk Modulus (GPa) = 30.77183 68.29695 49.53439
# Shear Modulus (GPa) = 25.24168 38.46274 31.85221
#
# Velocity S-wave (km/s) = 3.15865 3.89909 3.54824
# Velocity P-wave (km/s) = 5.04636 6.87500 6.03040
#
# Compressibility (1/GPa) = 0.03249725
#
# Stress axis : x y z
#
# Youngs Moduli (GPa) = 47.90808 100.68104 37.53373
#
# Poissons Ratio (x) = 0.18276 0.37370
# Poissons Ratio (y) = 0.08696 0.02642
# Poissons Ratio (z) = 0.47700 0.07086
#
# Static dielectric constant tensor:
#      x y z
#    x 2.258740 0.050370 -0.015600 
#    y 0.050370 2.025940 0.036660 
#    z -0.015600 0.036660 2.147220 
# 
# From -- ./inp_files/243881.got.cif
#   From: 2010.05.17/outbox.cif.g08.bks.cpg/sg2_122_cif.got.tgz:243881.got - 2010.06.03 11:33:40.
