data_PCOD9028442
_publ_section_title
;
Structure prediction by ZEFSAII (Michael W. Deem and Ramdas Pophale) SiO2 
 PCOD9028442
Probable space group: P -1
;
_chemical_formula_sum "Si O2"
_cell_formula_units_Z 16
_cell_length_a 15.749811
_cell_length_b 12.146638
_cell_length_c 8.613067
_cell_angle_alpha 87.181701
_cell_angle_beta 53.833517
_cell_angle_gamma 45.048892
_cell_volume 720.457593
_symmetry_space_group_name_H-M "P -1"
_symmetry_group_IT_number 2
_symmetry_cell_setting 'triclinic'
loop_
_space_group_symop_operation_xyz
x,y,z
-x,-y,-z
loop_
_atom_site_type_symbol
_atom_site_label
_atom_site_fract_x
_atom_site_fract_y
_atom_site_fract_z
Si Si1 0.876863 0.175285 0.745209
Si Si2 0.623675 0.573848 0.823065
Si Si3 0.033630 0.590092 0.391829
Si Si4 0.948072 0.666414 0.108063
Si Si5 0.274959 0.517311 0.641764
Si Si6 0.750946 0.016647 0.653748
Si Si7 0.398427 0.882410 0.520154
Si Si8 0.223483 0.801403 0.817931
O O1 0.712014 0.387480 0.819510
O O2 0.777527 0.204937 0.994782
O O3 0.000000 0.000000 0.500000
O O4 0.057454 0.091772 0.616329
O O5 0.761223 0.544981 0.758108
O O6 0.667309 0.533706 0.596331
O O7 0.396651 0.789263 0.089605
O O8 0.000000 0.500000 0.500000
O O9 0.006732 0.618126 0.231559
O O10 0.859222 0.820013 0.631306
O O11 0.058576 0.666349 0.896004
O O12 0.000000 0.500000 0.000000
O O13 0.725443 0.902213 0.312670
O O14 0.392160 0.317995 0.619154
O O15 0.303958 0.615124 0.672860
O O16 0.614967 0.103318 0.651690
O O17 0.311726 0.838612 0.664415
O O18 0.000000 0.000000 0.000000
#
# Coordination Sequence:
#
# PCOD9028442 Si02
#       8
#     2   2   2   2   2   2   2   2
#     4  11  24  40  62  90 129 167 209 259 314 375
#     4  11  25  40  62  95 131 166 210 261 316 380
#     4  10  22  44  68  92 126 166 207 265 326 375
#     4  11  24  44  71  95 126 167 218 271 319 382
#     4  12  25  41  66  98 130 169 218 262 317 386
#     4  10  22  42  62  90 125 168 208 257 317 373
#     4  11  24  42  68  92 130 171 216 264 321 378
#     4  12  21  43  67  93 131 175 212 264 320 381
#
# _framework density 22.208107999999999
#
# number of rings (size 3 to 8) (size 9 to 14) (size 15 to 20)
#    0.000    1.000    2.500    4.875    1.750    3.500 
#    0.000    0.000    0.000    0.000    0.000    0.000 
#    0.000    0.000    0.000    0.000    0.000    0.000 
#
# Total GULP energy -89353.369445 kJ/mol
# GULP energy per Si atom -5584.585590 kJ/mol
# Density = 2.215756 g / cm^3
# Si number density = 22.208108 Si / 1000 Ang^3
#
#
#
# Elastic Constant Matrix: (Units=GPa)
#
#
# Indices 1 2 3 4 5 6 
#
# 1 66.4911 16.6776 18.6424 13.3891 14.9634 7.1866
# 2 16.6776 94.4744 40.5091 19.3746 5.4914 8.6165
# 3 18.6424 40.5091 103.5395 17.0716 15.3579 2.5136
# 4 13.3891 19.3746 17.0716 39.0695 2.1998 1.0682
# 5 14.9634 5.4914 15.3579 2.1998 31.7692 3.4318
# 6 7.1866 8.6165 2.5136 1.0682 3.4318 43.8132
#
#
#
# Elastic Compliance Matrix: (Units=1/GPa)
#
#
# Indices 1 2 3 4 5 6 
#
# 1 0.018489 -0.001277 -0.000867 -0.004846 -0.007514 -0.002025
# 2 -0.001277 0.013806 -0.004530 -0.004423 0.000950 -0.002212
# 3 -0.000867 -0.004530 0.012746 -0.002773 -0.004860 0.000750
# 4 -0.004846 -0.004423 -0.002773 0.030514 0.002176 0.000909
# 5 -0.007514 0.000950 -0.004860 0.002176 0.037228 -0.001645
# 6 -0.002025 -0.002212 0.000750 0.000909 -0.001645 0.023655
#
#
# Mechanical properties :
#
#
# Convention : Reuss Voigt Hill
#
# Bulk Modulus (GPa) = 31.55126 46.24035 38.89581
# Shear Modulus (GPa) = 31.18199 35.50877 33.34538
#
# Velocity S-wave (km/s) = 3.75117 4.00298 3.87912
# Velocity P-wave (km/s) = 5.74453 6.49859 6.13316
#
# Compressibility (1/GPa) = 0.03169445
#
# Stress axis : x y z
#
# Youngs Moduli (GPa) = 54.08755 72.43193 78.45456
#
# Poissons Ratio (x) = 0.09250 0.06799
# Poissons Ratio (y) = 0.06907 0.35537
# Poissons Ratio (z) = 0.04687 0.32809
#
# Static dielectric constant tensor:
#      x y z
#    x 1.923320 0.032470 0.013370 
#    y 0.032470 1.790230 0.017500 
#    z 0.013370 0.017500 1.865400 
# 
# From -- ./inp_files/272792.got.cif
#   From: 2010.05.17/outbox.cif.g08.bks.cpg/sg2_137_cif.got.tgz:272792.got - 2010.06.03 11:33:40.
