data_PCOD9028970
_publ_section_title
;
Structure prediction by ZEFSAII (Michael W. Deem and Ramdas Pophale) SiO2 
 PCOD9028970
Probable space group: P -1
;
_chemical_formula_sum "Si O2"
_cell_formula_units_Z 15
_cell_length_a 17.708904
_cell_length_b 7.831376
_cell_length_c 7.221452
_cell_angle_alpha 78.326352
_cell_angle_beta 51.771508
_cell_angle_gamma 51.394004
_cell_volume 586.602233
_symmetry_space_group_name_H-M "P -1"
_symmetry_group_IT_number 2
_symmetry_cell_setting 'triclinic'
loop_
_space_group_symop_operation_xyz
x,y,z
-x,-y,-z
loop_
_atom_site_type_symbol
_atom_site_label
_atom_site_fract_x
_atom_site_fract_y
_atom_site_fract_z
Si Si1 0.752205 0.568954 0.379835
Si Si2 0.500000 0.000000 0.000000
Si Si3 0.468033 0.241696 0.609166
Si Si4 0.336743 0.880753 0.198282
Si Si5 0.048466 0.579998 0.150639
Si Si6 0.838185 0.594021 0.619186
Si Si7 0.174047 0.902276 0.734566
Si Si8 0.330254 0.748779 0.854654
O O1 0.626767 0.714808 0.416017
O O2 0.744864 0.627246 0.595691
O O3 0.817406 0.303715 0.309048
O O4 0.853174 0.576600 0.125831
O O5 0.537519 0.156873 0.971553
O O6 0.478650 0.099126 0.796009
O O7 0.402875 0.494188 0.729011
O O8 0.596535 0.161469 0.338517
O O9 0.230905 0.151852 0.260410
O O10 0.295433 0.848125 0.462679
O O11 0.329219 0.751629 0.075890
O O12 0.126904 0.551575 0.218749
O O13 0.967370 0.506343 0.347832
O O14 0.948067 0.846942 0.193943
O O15 0.197272 0.893456 0.919230
#
# Coordination Sequence:
#
# PCOD9028970 Si02
#       8
#     2   1   2   2   2   2   2   2
#     4  11  23  42  70  97 134 178 224 279 337 401
#     4  12  24  40  66 100 134 170 224 272 336 390
#     4  10  24  45  69 101 134 177 225 277 335 406
#     4  11  25  40  65  95 134 178 221 278 332 395
#     4  10  22  42  65  97 135 176 218 280 342 394
#     4  10  24  42  64 101 136 168 227 278 339 401
#     4  10  23  43  67 100 131 176 232 272 333 407
#     4  10  23  48  68  94 139 181 223 271 338 403
#
# _framework density 25.570989999999998
#
# number of rings (size 3 to 8) (size 9 to 14) (size 15 to 20)
#    0.000    1.600    1.333    1.600    1.867   12.267 
#    0.000    0.000    0.000    0.000    0.000    0.000 
#    0.000    0.000    0.000    0.000    0.000    0.000 
#
# Total GULP energy -83792.907082 kJ/mol
# GULP energy per Si atom -5586.193805 kJ/mol
# Density = 2.551279 g / cm^3
# Si number density = 25.570990 Si / 1000 Ang^3
#
#
#
# Elastic Constant Matrix: (Units=GPa)
#
#
# Indices 1 2 3 4 5 6 
#
# 1 110.5207 31.9108 24.4898 -8.6827 36.1703 -18.1031
# 2 31.9108 74.9578 13.3369 -10.7560 10.6586 -8.6909
# 3 24.4898 13.3369 67.2187 -13.1682 8.5689 -8.2049
# 4 -8.6827 -10.7560 -13.1682 30.0965 4.6266 9.4197
# 5 36.1703 10.6586 8.5689 4.6266 54.5914 -12.0404
# 6 -18.1031 -8.6909 -8.2049 9.4197 -12.0404 37.7905
#
#
#
# Elastic Compliance Matrix: (Units=1/GPa)
#
#
# Indices 1 2 3 4 5 6 
#
# 1 0.013728 -0.003755 -0.002632 0.001941 -0.007622 0.002229
# 2 -0.003755 0.015839 -0.000805 0.004223 -0.000753 0.000376
# 3 -0.002632 -0.000805 0.017523 0.006755 -0.001369 0.000238
# 4 0.001941 0.004223 0.006755 0.042832 -0.009049 -0.010192
# 5 -0.007622 -0.000753 -0.001369 -0.009049 0.025906 0.006388
# 6 0.002229 0.000376 0.000238 -0.010192 0.006388 0.032243
#
#
# Mechanical properties :
#
#
# Convention : Reuss Voigt Hill
#
# Bulk Modulus (GPa) = 30.57735 43.57467 37.07601
# Shear Modulus (GPa) = 28.84212 36.69299 32.76755
#
# Velocity S-wave (km/s) = 3.36210 3.79218 3.58360
# Velocity P-wave (km/s) = 5.20148 6.02095 5.62615
#
# Compressibility (1/GPa) = 0.03270394
#
# Stress axis : x y z
#
# Youngs Moduli (GPa) = 72.84620 63.13364 57.06894
#
# Poissons Ratio (x) = 0.23707 0.15023
# Poissons Ratio (y) = 0.27354 0.04596
# Poissons Ratio (z) = 0.19176 0.05085
#
# Static dielectric constant tensor:
#      x y z
#    x 2.099800 -0.088530 -0.119720 
#    y -0.088530 1.993710 0.040600 
#    z -0.119720 0.040600 2.103760 
# 
# From -- ./inp_files/94344.got.cif
#   From: 2010.05.17/outbox.cif.g08.bks.cpg/sg2_48_cif.got.tgz:94344.got - 2010.06.03 11:33:40.
