data_PCOD9028077
_publ_section_title
;
Structure prediction by ZEFSAII (Michael W. Deem and Ramdas Pophale) SiO2 
 PCOD9028077
Probable space group: P -1
;
_chemical_formula_sum "Si O2"
_cell_formula_units_Z 16
_cell_length_a 19.494719
_cell_length_b 11.658719
_cell_length_c 8.356683
_cell_angle_alpha 107.656536
_cell_angle_beta 110.220373
_cell_angle_gamma 23.196500
_cell_volume 701.483186
_symmetry_space_group_name_H-M "P -1"
_symmetry_group_IT_number 2
_symmetry_cell_setting 'triclinic'
loop_
_space_group_symop_operation_xyz
x,y,z
-x,-y,-z
loop_
_atom_site_type_symbol
_atom_site_label
_atom_site_fract_x
_atom_site_fract_y
_atom_site_fract_z
Si Si1 0.387361 0.055380 0.862511
Si Si2 0.146177 0.930147 0.250908
Si Si3 0.642166 0.378619 0.378897
Si Si4 0.112880 0.830471 0.681837
Si Si5 0.353385 0.942734 0.205010
Si Si6 0.999679 0.582774 0.698870
Si Si7 0.574765 0.831538 0.332198
Si Si8 0.479268 0.393147 0.119652
O O1 0.369734 0.135204 0.705947
O O2 0.185032 0.313471 0.832942
O O3 0.506088 0.761605 0.861227
O O4 0.500000 0.000000 0.000000
O O5 0.269919 0.738377 0.427682
O O6 0.272104 0.734861 0.115268
O O7 0.051015 0.202406 0.292423
O O8 0.011684 0.020663 0.208863
O O9 0.777371 0.212476 0.274700
O O10 0.474233 0.717567 0.357007
O O11 0.580980 0.335383 0.286398
O O12 0.259174 0.505623 0.658032
O O13 0.000000 0.000000 0.500000
O O14 0.416116 0.980380 0.211415
O O15 0.154427 0.233292 0.228193
O O16 0.423422 0.754630 0.035924
O O17 0.000000 0.500000 0.500000
O O18 0.500000 0.000000 0.500000
#
# Coordination Sequence:
#
# PCOD9028077 Si02
#       8
#     2   2   2   2   2   2   2   2
#     4  12  27  50  67 103 150 193 234 290 373 432
#     4  11  23  43  72 108 136 188 248 294 356 429
#     4  10  22  41  71 101 139 182 239 298 355 416
#     4   9  21  41  65 104 134 170 240 297 347 412
#     4  11  25  45  68 105 138 187 240 299 368 420
#     4  12  26  46  77 107 144 187 250 303 353 439
#     4  11  23  44  72  97 142 190 240 292 359 431
#     4  12  25  45  70  98 148 191 232 295 366 437
#
# _framework density 22.808816
#
# number of rings (size 3 to 8) (size 9 to 14) (size 15 to 20)
#    0.000    1.000    3.750    2.250    7.000    0.500 
#    2.250    3.125    0.000    0.000    0.000    0.000 
#    0.000    0.000    0.000    0.000    0.000    0.000 
#
# Total GULP energy -89239.628675 kJ/mol
# GULP energy per Si atom -5577.476792 kJ/mol
# Density = 2.275690 g / cm^3
# Si number density = 22.808816 Si / 1000 Ang^3
#
#
#
# Elastic Constant Matrix: (Units=GPa)
#
#
# Indices 1 2 3 4 5 6 
#
# 1 134.0573 23.5451 18.8724 20.7319 9.8513 -18.9359
# 2 23.5451 82.3796 38.6962 9.2587 3.3777 -24.0469
# 3 18.8724 38.6962 59.2317 12.2049 -0.6220 -24.0317
# 4 20.7319 9.2587 12.2049 31.9145 -7.2989 -7.4396
# 5 9.8513 3.3777 -0.6220 -7.2989 37.2890 -0.5404
# 6 -18.9359 -24.0469 -24.0317 -7.4396 -0.5404 55.3827
#
#
#
# Elastic Compliance Matrix: (Units=1/GPa)
#
#
# Indices 1 2 3 4 5 6 
#
# 1 0.009098 -0.001187 -0.000282 -0.005856 -0.003423 0.001653
# 2 -0.001187 0.018293 -0.010317 -0.000235 -0.001518 0.003014
# 3 -0.000282 -0.010317 0.027588 -0.005727 0.000445 0.006630
# 4 -0.005856 -0.000235 -0.005727 0.039708 0.009257 0.000835
# 5 -0.003423 -0.001518 0.000445 0.009257 0.029677 -0.000103
# 6 0.001653 0.003014 0.006630 0.000835 -0.000103 0.022918
#
#
# Mechanical properties :
#
#
# Convention : Reuss Voigt Hill
#
# Bulk Modulus (GPa) = 31.84133 48.65510 40.24821
# Shear Modulus (GPa) = 27.57509 37.88757 32.73133
#
# Velocity S-wave (km/s) = 3.48079 4.08007 3.79229
# Velocity P-wave (km/s) = 5.49044 6.60106 6.07120
#
# Compressibility (1/GPa) = 0.03140573
#
# Stress axis : x y z
#
# Youngs Moduli (GPa) = 109.91085 54.66610 36.24805
#
# Poissons Ratio (x) = 0.06488 0.01023
# Poissons Ratio (y) = 0.13045 0.37399
# Poissons Ratio (z) = 0.03102 0.56402
#
# Static dielectric constant tensor:
#      x y z
#    x 1.827140 -0.038810 -0.050800 
#    y -0.038810 1.882120 -0.049680 
#    z -0.050800 -0.049680 1.880720 
# 
# From -- ./inp_files/274560.got.cif
#   From: 2010.05.17/outbox.cif.g08.bks.cpg/sg2_138_cif.got.tgz:274560.got - 2010.06.03 11:33:40.
