data_PCOD9028097
_publ_section_title
;
Structure prediction by ZEFSAII (Michael W. Deem and Ramdas Pophale) SiO2 
 PCOD9028097
Probable space group: P -1
;
_chemical_formula_sum "Si O2"
_cell_formula_units_Z 12
_cell_length_a 13.398304
_cell_length_b 5.518447
_cell_length_c 11.624149
_cell_angle_alpha 120.074585
_cell_angle_beta 40.252515
_cell_angle_gamma 123.794838
_cell_volume 456.792585
_symmetry_space_group_name_H-M "P -1"
_symmetry_group_IT_number 2
_symmetry_cell_setting 'triclinic'
loop_
_space_group_symop_operation_xyz
x,y,z
-x,-y,-z
loop_
_atom_site_type_symbol
_atom_site_label
_atom_site_fract_x
_atom_site_fract_y
_atom_site_fract_z
Si Si1 0.111561 0.287238 0.843385
Si Si2 0.805336 0.531724 0.620898
Si Si3 0.647196 0.792225 0.211481
Si Si4 0.883349 0.686236 0.828775
Si Si5 0.281223 0.607340 0.568206
Si Si6 0.682392 0.080704 0.814813
O O1 0.249801 0.360750 0.835498
O O2 0.205889 0.331764 0.650003
O O3 0.998945 0.949698 0.863746
O O4 0.000000 0.500000 0.000000
O O5 0.925386 0.695911 0.657691
O O6 0.839747 0.415673 0.438604
O O7 0.695154 0.246732 0.719776
O O8 0.733517 0.789236 0.705928
O O9 0.457748 0.652809 0.369749
O O10 0.694778 0.119190 0.301007
O O11 0.711124 0.765109 0.020800
O O12 0.816030 0.336214 0.829756
O O13 0.500000 0.000000 0.000000
#
# Coordination Sequence:
#
# PCOD9028097 Si02
#       6
#     2   2   2   2   2   2
#     4  12  26  46  74 107 152 202 250 308 380 456
#     4  10  25  44  71 114 143 197 244 316 380 436
#     4  11  25  46  72 107 146 198 255 309 374 448
#     4  10  25  43  76 106 146 197 255 306 375 456
#     4  11  26  46  73 106 153 192 254 318 373 447
#     4  10  22  41  71 106 151 188 248 299 376 449
#
# _framework density 26.270126999999999
#
# number of rings (size 3 to 8) (size 9 to 14) (size 15 to 20)
#    1.000    0.333    1.667    2.500    7.000    0.667 
#    3.000    1.667    0.000    0.000    0.000    0.000 
#    0.000    0.000    0.000    0.000    0.000    0.000 
#
# Total GULP energy -67032.537774 kJ/mol
# GULP energy per Si atom -5586.044814 kJ/mol
# Density = 2.621033 g / cm^3
# Si number density = 26.270127 Si / 1000 Ang^3
#
#
#
# Elastic Constant Matrix: (Units=GPa)
#
#
# Indices 1 2 3 4 5 6 
#
# 1 102.7822 46.1914 7.4907 6.3488 17.3297 8.9102
# 2 46.1914 140.6345 29.9525 5.4813 2.4523 6.4303
# 3 7.4907 29.9525 97.1051 24.0174 19.9586 8.3633
# 4 6.3488 5.4813 24.0174 52.5572 -7.9240 1.0462
# 5 17.3297 2.4523 19.9586 -7.9240 52.3459 -0.3610
# 6 8.9102 6.4303 8.3633 1.0462 -0.3610 44.3073
#
#
#
# Elastic Compliance Matrix: (Units=1/GPa)
#
#
# Indices 1 2 3 4 5 6 
#
# 1 0.012843 -0.004417 0.002429 -0.002974 -0.005438 -0.002374
# 2 -0.004417 0.009175 -0.003407 0.001516 0.002562 0.000185
# 3 0.002429 -0.003407 0.014869 -0.007813 -0.007515 -0.002678
# 4 -0.002974 0.001516 -0.007813 0.023905 0.007520 0.001349
# 5 -0.005438 0.002562 -0.007515 0.007520 0.024803 0.002165
# 6 -0.002374 0.000185 -0.002678 0.001349 0.002165 0.023512
#
#
# Mechanical properties :
#
#
# Convention : Reuss Voigt Hill
#
# Bulk Modulus (GPa) = 38.31557 56.42121 47.36839
# Shear Modulus (GPa) = 38.88193 46.96789 42.92491
#
# Velocity S-wave (km/s) = 3.85136 4.23292 4.04664
# Velocity P-wave (km/s) = 5.86465 6.73900 6.31697
#
# Compressibility (1/GPa) = 0.02609905
#
# Stress axis : x y z
#
# Youngs Moduli (GPa) = 77.86056 108.99660 67.25330
#
# Poissons Ratio (x) = 0.48139 -0.16337
# Poissons Ratio (y) = 0.34387 0.22911
# Poissons Ratio (z) = -0.18914 0.37132
#
# Static dielectric constant tensor:
#      x y z
#    x 2.087020 -0.007000 -0.002330 
#    y -0.007000 1.981700 -0.008060 
#    z -0.002330 -0.008060 2.219220 
# 
# From -- ./inp_files/511292.got.cif
#   From: 2010.05.17/outbox.cif.g08.bks.cpg/sg2_256_cif.got.tgz:511292.got - 2010.06.03 11:33:40.
