data_PCOD9028358
_publ_section_title
;
Structure prediction by ZEFSAII (Michael W. Deem and Ramdas Pophale) SiO2 
 PCOD9028358
Probable space group: P -1
;
_chemical_formula_sum "Si O2"
_cell_formula_units_Z 14
_cell_length_a 26.179715
_cell_length_b 5.985378
_cell_length_c 16.018039
_cell_angle_alpha 124.812172
_cell_angle_beta 164.032046
_cell_angle_gamma 59.142990
_cell_volume 559.677154
_symmetry_space_group_name_H-M "P -1"
_symmetry_group_IT_number 2
_symmetry_cell_setting 'triclinic'
loop_
_space_group_symop_operation_xyz
x,y,z
-x,-y,-z
loop_
_atom_site_type_symbol
_atom_site_label
_atom_site_fract_x
_atom_site_fract_y
_atom_site_fract_z
Si Si1 0.617688 0.921309 0.746398
Si Si2 0.358893 0.577274 0.657393
Si Si3 0.089071 0.224211 0.388518
Si Si4 0.265442 0.625851 0.227849
Si Si5 0.125697 0.818558 0.219703
Si Si6 0.307200 0.973238 0.796958
Si Si7 0.338367 0.765920 0.966536
O O1 0.467801 0.769224 0.545235
O O2 0.743702 0.698712 0.869870
O O3 0.500000 0.000000 0.500000
O O4 0.707607 0.179417 0.998720
O O5 0.163670 0.576957 0.301189
O O6 0.335788 0.682590 0.737487
O O7 0.450233 0.303874 0.729733
O O8 0.520191 0.804929 0.918276
O O9 0.198273 0.512947 0.652656
O O10 0.184779 0.071735 0.432034
O O11 0.114671 0.034095 0.467254
O O12 0.886381 0.257648 0.043958
O O13 0.232523 0.691836 0.285933
O O14 0.000000 0.000000 0.000000
O O15 0.310927 0.998239 0.906667
#
# Coordination Sequence:
#
# PCOD9028358 Si02
#       7
#     2   2   2   2   2   2   2
#     4  11  25  41  60  83 112 159 204 235 277 340
#     4   9  17  31  52  83 120 149 184 232 285 346
#     4   9  21  38  61  92 118 144 187 242 296 345
#     4  10  22  42  60  81 120 159 191 234 287 342
#     4   9  17  35  61  85 116 153 184 229 293 347
#     4   9  18  32  53  84 118 149 181 233 296 341
#     4  11  21  35  59  87 113 148 196 241 285 337
#
# _framework density 25.014422
#
# number of rings (size 3 to 8) (size 9 to 14) (size 15 to 20)
#    0.000    2.286    0.000    3.000    0.000    6.286 
#    0.000    1.429    0.000   12.000    0.000    0.000 
#    0.000    0.000    0.000    0.000    0.000    0.000 
#
# Total GULP energy -78010.203603 kJ/mol
# GULP energy per Si atom -5572.157400 kJ/mol
# Density = 2.495749 g / cm^3
# Si number density = 25.014422 Si / 1000 Ang^3
#
#
#
# Elastic Constant Matrix: (Units=GPa)
#
#
# Indices 1 2 3 4 5 6 
#
# 1 168.8701 91.2063 43.4125 55.4064 -25.0334 -14.2594
# 2 91.2063 179.9559 53.7931 77.8380 16.2345 -4.1265
# 3 43.4125 53.7931 108.1093 34.6283 -9.9475 -2.9490
# 4 55.4064 77.8380 34.6283 136.2963 34.4268 4.4371
# 5 -25.0334 16.2345 -9.9475 34.4268 56.1412 2.4670
# 6 -14.2594 -4.1265 -2.9490 4.4371 2.4670 42.1161
#
#
#
# Elastic Compliance Matrix: (Units=1/GPa)
#
#
# Indices 1 2 3 4 5 6 
#
# 1 0.011513 -0.004677 0.000044 -0.004418 0.009055 0.003378
# 2 -0.004677 0.010032 -0.002867 -0.002016 -0.004243 -0.000340
# 3 0.000044 -0.002867 0.011910 -0.002563 0.004506 0.000574
# 4 -0.004418 -0.002016 -0.002563 0.013559 -0.010036 -0.002713
# 5 0.009055 -0.004243 0.004506 -0.010036 0.029930 0.002270
# 6 0.003378 -0.000340 0.000574 -0.002713 0.002270 0.025047
#
#
# Mechanical properties :
#
#
# Convention : Reuss Voigt Hill
#
# Bulk Modulus (GPa) = 54.18636 92.63989 73.41313
# Shear Modulus (GPa) = 40.60327 64.81230 52.70778
#
# Velocity S-wave (km/s) = 4.03326 5.09571 4.59529
# Velocity P-wave (km/s) = 6.58777 8.46975 7.58733
#
# Compressibility (1/GPa) = 0.01845483
#
# Stress axis : x y z
#
# Youngs Moduli (GPa) = 86.85580 99.68483 83.96225
#
# Poissons Ratio (x) = 0.46624 -0.00371
# Poissons Ratio (y) = 0.40623 0.24074
# Poissons Ratio (z) = -0.00384 0.28582
#
# Static dielectric constant tensor:
#      x y z
#    x 1.970960 0.119950 0.070100 
#    y 0.119950 2.193120 0.124090 
#    z 0.070100 0.124090 2.168920 
# 
# From -- ./inp_files/108945.got.cif
#   From: 2010.05.17/outbox.cif.g08.bks.cpg/sg2_55_cif.got.tgz:108945.got - 2010.06.03 11:33:40.
