data_PCOD9028179
_publ_section_title
;
Structure prediction by ZEFSAII (Michael W. Deem and Ramdas Pophale) SiO2 
 PCOD9028179
Probable space group: P -1
;
_chemical_formula_sum "Si O2"
_cell_formula_units_Z 16
_cell_length_a 8.666514
_cell_length_b 14.486468
_cell_length_c 5.563300
_cell_angle_alpha 80.993798
_cell_angle_beta 103.177072
_cell_angle_gamma 103.839519
_cell_volume 656.468366
_symmetry_space_group_name_H-M "P -1"
_symmetry_group_IT_number 2
_symmetry_cell_setting 'triclinic'
loop_
_space_group_symop_operation_xyz
x,y,z
-x,-y,-z
loop_
_atom_site_type_symbol
_atom_site_label
_atom_site_fract_x
_atom_site_fract_y
_atom_site_fract_z
Si Si1 0.727724 0.632585 0.563290
Si Si2 0.805352 0.992308 0.436025
Si Si3 0.636543 0.460204 0.921112
Si Si4 0.380741 0.760233 0.915727
Si Si5 0.962897 0.271014 0.054958
Si Si6 0.546599 0.800443 0.451808
Si Si7 0.928476 0.566969 0.272933
Si Si8 0.134113 0.934570 0.073122
O O1 0.596788 0.697669 0.493870
O O2 0.814779 0.627562 0.343297
O O3 0.869378 0.684889 0.772961
O O4 0.660272 0.522460 0.659777
O O5 0.707304 0.883854 0.458628
O O6 0.773334 0.045104 0.649358
O O7 0.000000 0.000000 0.500000
O O8 0.766134 0.035864 0.149568
O O9 0.593869 0.347273 0.987075
O O10 0.812943 0.496861 0.083941
O O11 0.500000 0.500000 0.000000
O O12 0.189260 0.751871 0.813361
O O13 0.470807 0.803482 0.688706
O O14 0.437785 0.809933 0.173417
O O15 0.959433 0.174560 0.947361
O O16 0.933929 0.355037 0.835485
O O17 0.000000 0.500000 0.500000
O O18 0.000000 0.000000 0.000000
#
# Coordination Sequence:
#
# PCOD9028179 Si02
#       8
#     2   2   2   2   2   2   2   2
#     4  11  24  41  73 100 141 192 256 289 345 427
#     4  10  22  43  71 101 135 171 231 297 351 412
#     4  11  23  43  63 102 142 193 237 294 352 413
#     4  12  28  46  69 105 153 188 236 295 368 428
#     4  11  27  44  71 107 144 191 240 297 362 421
#     4  12  27  46  74 108 141 189 239 298 358 436
#     4  11  25  41  70 102 146 188 247 293 350 426
#     4  10  22  41  72 101 134 177 231 297 350 414
#
# _framework density 24.372843
#
# number of rings (size 3 to 8) (size 9 to 14) (size 15 to 20)
#    0.000    1.000    1.250    4.500   12.250    3.000 
#    0.000    3.750    0.000    0.000    0.000    0.000 
#    0.000    0.000    0.000    0.000    0.000    0.000 
#
# Total GULP energy -89531.406823 kJ/mol
# GULP energy per Si atom -5595.712926 kJ/mol
# Density = 2.431737 g / cm^3
# Si number density = 24.372843 Si / 1000 Ang^3
#
#
#
# Elastic Constant Matrix: (Units=GPa)
#
#
# Indices 1 2 3 4 5 6 
#
# 1 59.8575 1.4915 24.3031 -13.8329 -5.4730 3.7299
# 2 1.4915 124.3520 42.4728 -8.5925 -1.3708 9.7962
# 3 24.3031 42.4728 157.1790 0.1291 -15.7097 9.5356
# 4 -13.8329 -8.5925 0.1291 37.9139 4.1919 -8.4188
# 5 -5.4730 -1.3708 -15.7097 4.1919 47.4758 -2.9154
# 6 3.7299 9.7962 9.5356 -8.4188 -2.9154 35.2496
#
#
#
# Elastic Compliance Matrix: (Units=1/GPa)
#
#
# Indices 1 2 3 4 5 6 
#
# 1 0.019846 0.001440 -0.003427 0.007581 0.000543 0.000282
# 2 0.001440 0.009220 -0.002703 0.002380 -0.000763 -0.001478
# 3 -0.003427 -0.002703 0.007939 -0.002460 0.002283 -0.001433
# 4 0.007581 0.002380 -0.002460 0.031383 -0.002243 0.006512
# 5 0.000543 -0.000763 0.002283 -0.002243 0.022108 0.000830
# 6 0.000282 -0.001478 -0.001433 0.006512 0.000830 0.030762
#
#
# Mechanical properties :
#
#
# Convention : Reuss Voigt Hill
#
# Bulk Modulus (GPa) = 36.19693 53.10260 44.64977
# Shear Modulus (GPa) = 35.75348 42.33593 39.04471
#
# Velocity S-wave (km/s) = 3.83422 4.17227 4.00681
# Velocity P-wave (km/s) = 5.87241 6.71158 6.30597
#
# Compressibility (1/GPa) = 0.02762665
#
# Stress axis : x y z
#
# Youngs Moduli (GPa) = 50.38817 108.45974 125.95274
#
# Poissons Ratio (x) = -0.15618 0.43161
# Poissons Ratio (y) = -0.07256 0.34040
# Poissons Ratio (z) = 0.17267 0.29312
#
# Static dielectric constant tensor:
#      x y z
#    x 1.926150 -0.020750 -0.010810 
#    y -0.020750 1.922730 0.000760 
#    z -0.010810 0.000760 1.989120 
# 
# From -- ./inp_files/38125.got.cif
#   From: 2010.05.17/outbox.cif.g08.bks.cpg/sg2_20_cif.got.tgz:38125.got - 2010.06.03 11:33:40.
