data_PCOD9028780
_publ_section_title
;
Structure prediction by ZEFSAII (Michael W. Deem and Ramdas Pophale) SiO2 
 PCOD9028780
Probable space group: P -1
;
_chemical_formula_sum "Si O2"
_cell_formula_units_Z 16
_cell_length_a 16.227592
_cell_length_b 8.228224
_cell_length_c 8.525065
_cell_angle_alpha 67.648743
_cell_angle_beta 144.746616
_cell_angle_gamma 100.724738
_cell_volume 590.915215
_symmetry_space_group_name_H-M "P -1"
_symmetry_group_IT_number 2
_symmetry_cell_setting 'triclinic'
loop_
_space_group_symop_operation_xyz
x,y,z
-x,-y,-z
loop_
_atom_site_type_symbol
_atom_site_label
_atom_site_fract_x
_atom_site_fract_y
_atom_site_fract_z
Si Si1 0.957959 0.510136 0.196904
Si Si2 0.448818 0.621465 0.076141
Si Si3 0.522136 0.904556 0.300785
Si Si4 0.755570 0.065337 0.482249
Si Si5 0.551361 0.770889 0.722477
Si Si6 0.980581 0.194425 0.571302
Si Si7 0.800354 0.117777 0.871115
Si Si8 0.205418 0.484962 0.354862
O O1 0.922991 0.333435 0.290188
O O2 0.976292 0.663562 0.290944
O O3 0.113627 0.444168 0.373811
O O4 0.843495 0.594716 0.852361
O O5 0.437481 0.762555 0.150977
O O6 0.395644 0.440830 0.091716
O O7 0.621571 0.567218 0.331986
O O8 0.351756 0.733171 0.748412
O O9 0.606320 0.821293 0.621094
O O10 0.636127 0.944553 0.332853
O O11 0.429802 0.097313 0.154311
O O12 0.865458 0.091536 0.508402
O O13 0.830452 0.024391 0.781246
O O14 0.374554 0.817335 0.401690
O O15 0.120224 0.027139 0.825480
O O16 0.850196 0.302266 0.851760
#
# Coordination Sequence:
#
# PCOD9028780 Si02
#       8
#     2   2   2   2   2   2   2   2
#     4  10  24  44  67 105 131 177 240 278 347 413
#     4  11  24  43  71 100 144 179 226 292 347 422
#     4  10  22  42  64  99 134 182 227 278 353 411
#     4  11  24  41  65 102 137 187 230 277 351 418
#     4   9  22  42  67 101 133 179 233 284 348 416
#     4  11  24  45  70  97 136 186 231 285 341 417
#     4  10  22  42  67  94 137 183 224 288 345 401
#     4  10  23  43  71 103 135 178 226 289 353 408
#
# _framework density 27.076644000000002
#
# number of rings (size 3 to 8) (size 9 to 14) (size 15 to 20)
#    0.000    1.750    1.250    1.125    3.500   10.000 
#    9.000    0.000    0.000    0.000    0.000    0.000 
#    0.000    0.000    0.000    0.000    0.000    0.000 
#
# Total GULP energy -89578.957261 kJ/mol
# GULP energy per Si atom -5598.684829 kJ/mol
# Density = 2.701502 g / cm^3
# Si number density = 27.076644 Si / 1000 Ang^3
#
#
#
# Elastic Constant Matrix: (Units=GPa)
#
#
# Indices 1 2 3 4 5 6 
#
# 1 111.0308 35.6257 16.0786 -9.0834 -1.2573 20.0092
# 2 35.6257 162.2597 10.1832 -23.2682 -18.1576 -9.8144
# 3 16.0786 10.1832 90.1372 -25.7366 8.1588 3.3050
# 4 -9.0834 -23.2682 -25.7366 44.0869 5.3821 -11.9049
# 5 -1.2573 -18.1576 8.1588 5.3821 33.7974 -1.0556
# 6 20.0092 -9.8144 3.3050 -11.9049 -1.0556 40.7227
#
#
#
# Elastic Compliance Matrix: (Units=1/GPa)
#
#
# Indices 1 2 3 4 5 6 
#
# 1 0.011364 -0.003186 -0.002010 -0.002290 -0.000654 -0.006875
# 2 -0.003186 0.008238 0.000541 0.004936 0.003549 0.005042
# 3 -0.002010 0.000541 0.014464 0.009601 -0.004723 0.002628
# 4 -0.002290 0.004936 0.009601 0.034081 -0.004823 0.011374
# 5 -0.000654 0.003549 -0.004723 -0.004823 0.033410 0.001016
# 6 -0.006875 0.005042 0.002628 0.011374 0.001016 0.032288
#
#
# Mechanical properties :
#
#
# Convention : Reuss Voigt Hill
#
# Bulk Modulus (GPa) = 40.39412 54.13362 47.26387
# Shear Modulus (GPa) = 33.02333 43.82407 38.42370
#
# Velocity S-wave (km/s) = 3.49610 4.02745 3.77114
# Velocity P-wave (km/s) = 5.58997 6.45471 6.03784
#
# Compressibility (1/GPa) = 0.02475608
#
# Stress axis : x y z
#
# Youngs Moduli (GPa) = 87.99572 121.38151 69.13632
#
# Poissons Ratio (x) = 0.38678 0.13895
# Poissons Ratio (y) = 0.28039 -0.03739
# Poissons Ratio (z) = 0.17685 -0.06565
#
# Static dielectric constant tensor:
#      x y z
#    x 2.155290 -0.000350 0.011810 
#    y -0.000350 2.155630 0.032600 
#    z 0.011810 0.032600 2.104010 
# 
# From -- ./inp_files/328630.got.cif
#   From: 2010.05.17/outbox.cif.g08.bks.cpg/sg2_165_cif.got.tgz:328630.got - 2010.06.03 11:33:40.
