data_PCOD9028437
_publ_section_title
;
Structure prediction by ZEFSAII (Michael W. Deem and Ramdas Pophale) SiO2 
 PCOD9028437
Probable space group: P -1
;
_chemical_formula_sum "Si O2"
_cell_formula_units_Z 16
_cell_length_a 15.186799
_cell_length_b 10.328446
_cell_length_c 8.666393
_cell_angle_alpha 136.384462
_cell_angle_beta 131.223814
_cell_angle_gamma 47.373653
_cell_volume 650.729524
_symmetry_space_group_name_H-M "P -1"
_symmetry_group_IT_number 2
_symmetry_cell_setting 'triclinic'
loop_
_space_group_symop_operation_xyz
x,y,z
-x,-y,-z
loop_
_atom_site_type_symbol
_atom_site_label
_atom_site_fract_x
_atom_site_fract_y
_atom_site_fract_z
Si Si1 0.578757 0.406972 0.756400
Si Si2 0.837177 0.855064 0.231496
Si Si3 0.892969 0.297294 0.528514
Si Si4 0.634500 0.838043 0.452920
Si Si5 0.887531 0.742028 0.837220
Si Si6 0.165482 0.585139 0.083393
Si Si7 0.411329 0.948727 0.734451
Si Si8 0.346421 0.621962 0.849560
O O1 0.702713 0.425497 0.843852
O O2 0.532666 0.269870 0.472301
O O3 0.455467 0.601649 0.833231
O O4 0.626603 0.304642 0.890848
O O5 0.964660 0.864023 0.454984
O O6 0.713864 0.032390 0.302364
O O7 0.851709 0.831034 0.044458
O O8 0.828277 0.644447 0.094741
O O9 0.898487 0.509144 0.661229
O O10 0.851124 0.336412 0.691853
O O11 0.790561 0.257406 0.272705
O O12 0.765389 0.846823 0.678170
O O13 0.643728 0.610311 0.307531
O O14 0.500000 0.000000 0.500000
O O15 0.628087 0.888394 0.308692
O O16 0.033564 0.716563 0.953873
O O17 0.500000 0.000000 0.000000
#
# Coordination Sequence:
#
# PCOD9028437 Si02
#       8
#     2   2   2   2   2   2   2   2
#     4  11  24  41  57  89 129 158 198 254 309 353
#     4   9  18  38  63  93 119 157 206 243 293 357
#     4   8  17  36  66  90 118 159 201 246 290 360
#     4  11  20  39  64  86 118 165 208 242 297 353
#     4   8  17  35  65  92 121 157 202 248 290 363
#     4   9  18  37  64  95 121 155 201 250 303 350
#     4  12  26  41  60  90 122 158 206 254 301 365
#     4  10  22  42  62  87 124 159 205 247 298 362
#
# _framework density 24.587789000000001
#
# number of rings (size 3 to 8) (size 9 to 14) (size 15 to 20)
#    0.000    2.250    1.250    3.000    3.500    1.500 
#    4.500    8.750    0.000    0.000    0.000    0.000 
#    0.000    0.000    0.000    0.000    0.000    0.000 
#
# Total GULP energy -89523.034786 kJ/mol
# GULP energy per Si atom -5595.189674 kJ/mol
# Density = 2.453183 g / cm^3
# Si number density = 24.587789 Si / 1000 Ang^3
#
#
#
# Elastic Constant Matrix: (Units=GPa)
#
#
# Indices 1 2 3 4 5 6 
#
# 1 116.3847 22.6480 39.6375 -20.0197 15.7629 -12.0776
# 2 22.6480 81.8374 40.6561 -16.1100 9.5745 4.3461
# 3 39.6375 40.6561 142.3098 -46.6310 9.7471 -9.2330
# 4 -20.0197 -16.1100 -46.6310 55.2539 -5.9220 13.0315
# 5 15.7629 9.5745 9.7471 -5.9220 34.6485 6.5108
# 6 -12.0776 4.3461 -9.2330 13.0315 6.5108 16.7193
#
#
#
# Elastic Compliance Matrix: (Units=1/GPa)
#
#
# Indices 1 2 3 4 5 6 
#
# 1 0.011514 -0.002448 -0.001800 -0.001511 -0.006507 0.011672
# 2 -0.002448 0.015781 -0.003439 0.003299 0.000246 -0.010437
# 3 -0.001800 -0.003439 0.011018 0.007740 0.000064 -0.000379
# 4 -0.001511 0.003299 0.007740 0.031933 0.007873 -0.025631
# 5 -0.006507 0.000246 0.000064 0.007873 0.037896 -0.025623
# 6 0.011672 -0.010437 -0.000379 -0.025631 -0.025623 0.100702
#
#
# Mechanical properties :
#
#
# Convention : Reuss Voigt Hill
#
# Bulk Modulus (GPa) = 43.59614 60.71278 52.15446
# Shear Modulus (GPa) = 21.56428 37.16369 29.36399
#
# Velocity S-wave (km/s) = 2.96469 3.89198 3.45954
# Velocity P-wave (km/s) = 5.43033 6.70392 6.10045
#
# Compressibility (1/GPa) = 0.02293781
#
# Stress axis : x y z
#
# Youngs Moduli (GPa) = 86.84944 63.36916 90.76114
#
# Poissons Ratio (x) = 0.15515 0.16335
# Poissons Ratio (y) = 0.21264 0.31215
# Poissons Ratio (z) = 0.15631 0.21794
#
# Static dielectric constant tensor:
#      x y z
#    x 1.945830 0.018270 0.036390 
#    y 0.018270 1.998700 0.039210 
#    z 0.036390 0.039210 1.980060 
# 
# From -- ./inp_files/308615.got.cif
#   From: 2010.05.17/outbox.cif.g08.bks.cpg/sg2_155_cif.got.tgz:308615.got - 2010.06.03 11:33:40.
