data_PCOD9028371
_publ_section_title
;
Structure prediction by ZEFSAII (Michael W. Deem and Ramdas Pophale) SiO2 
 PCOD9028371
Probable space group: P -1
;
_chemical_formula_sum "Si O2"
_cell_formula_units_Z 13
_cell_length_a 6.916319
_cell_length_b 9.461076
_cell_length_c 13.755382
_cell_angle_alpha 88.198466
_cell_angle_beta 79.515888
_cell_angle_gamma 46.755700
_cell_volume 639.233960
_symmetry_space_group_name_H-M "P -1"
_symmetry_group_IT_number 2
_symmetry_cell_setting 'triclinic'
loop_
_space_group_symop_operation_xyz
x,y,z
-x,-y,-z
loop_
_atom_site_type_symbol
_atom_site_label
_atom_site_fract_x
_atom_site_fract_y
_atom_site_fract_z
Si Si1 0.500000 0.500000 0.500000
Si Si2 0.901198 0.537661 0.396386
Si Si3 0.941260 0.074857 0.394520
Si Si4 0.120187 0.166771 0.729784
Si Si5 0.726959 0.861257 0.739330
Si Si6 0.763925 0.952798 0.941769
Si Si7 0.758202 0.289504 0.938376
O O1 0.639889 0.566335 0.427150
O O2 0.672529 0.304517 0.418884
O O3 0.860702 0.709294 0.346804
O O4 0.000000 0.500000 0.500000
O O5 0.131540 0.344646 0.316219
O O6 0.186773 0.051461 0.338233
O O7 0.914965 0.954052 0.330428
O O8 0.000000 0.000000 0.500000
O O9 0.876623 0.295316 0.827323
O O10 0.402445 0.010857 0.765816
O O11 0.841330 0.843486 0.834743
O O12 0.701549 0.150673 0.929621
O O13 0.996036 0.179033 0.999464
O O14 0.500000 0.000000 0.000000
O O15 0.500000 0.500000 0.000000
#
# Coordination Sequence:
#
# PCOD9028371 Si02
#       7
#     1   2   2   2   2   2   2
#     4  10  22  42  60  90 128 172 212 268 324 384
#     4  11  25  42  64  99 135 178 222 274 330 401
#     4  11  23  42  64  95 134 174 223 276 330 402
#     4  12  24  43  70 100 134 180 228 278 345 404
#     4  11  24  43  69  97 133 181 224 277 343 409
#     4  11  24  48  70  99 137 178 225 289 351 406
#     4  11  27  46  71 104 137 175 232 293 341 412
#
# _framework density 20.336843999999999
#
# number of rings (size 3 to 8) (size 9 to 14) (size 15 to 20)
#    0.000    0.923    3.077    3.692    2.154    3.692 
#   11.077    0.000    0.000    0.000    0.000    0.000 
#    0.000    0.000    0.000    0.000    0.000    0.000 
#
# Total GULP energy -72407.001578 kJ/mol
# GULP energy per Si atom -5569.769352 kJ/mol
# Density = 2.029056 g / cm^3
# Si number density = 20.336844 Si / 1000 Ang^3
#
#
#
# Elastic Constant Matrix: (Units=GPa)
#
#
# Indices 1 2 3 4 5 6 
#
# 1 64.1310 29.9036 20.1319 20.4805 -0.8672 5.4931
# 2 29.9036 78.9291 27.9926 26.8164 3.4923 13.8275
# 3 20.1319 27.9926 124.3534 28.4751 7.2582 -3.4776
# 4 20.4805 26.8164 28.4751 36.8012 -0.3536 5.6471
# 5 -0.8672 3.4923 7.2582 -0.3536 50.6185 4.0820
# 6 5.4931 13.8275 -3.4776 5.6471 4.0820 18.0275
#
#
#
# Elastic Compliance Matrix: (Units=1/GPa)
#
#
# Indices 1 2 3 4 5 6 
#
# 1 0.020481 -0.005081 -0.000584 -0.007178 0.000766 -0.000381
# 2 -0.005081 0.020306 -0.002098 -0.008556 -0.000305 -0.011682
# 3 -0.000584 -0.002098 0.010596 -0.007375 -0.001967 0.006587
# 4 -0.007178 -0.008556 -0.007375 0.044216 0.002404 -0.007068
# 5 0.000766 -0.000305 -0.001967 0.002404 0.020555 -0.005786
# 6 -0.000381 -0.011682 0.006587 -0.007068 -0.005786 0.069342
#
#
# Mechanical properties :
#
#
# Convention : Reuss Voigt Hill
#
# Bulk Modulus (GPa) = 27.88835 47.05219 37.47027
# Shear Modulus (GPa) = 23.47706 33.71515 28.59610
#
# Velocity S-wave (km/s) = 3.40135 4.07607 3.75390
# Velocity P-wave (km/s) = 5.40079 6.73343 6.10359
#
# Compressibility (1/GPa) = 0.03585727
#
# Stress axis : x y z
#
# Youngs Moduli (GPa) = 48.82619 49.24758 94.37410
#
# Poissons Ratio (x) = 0.25022 0.05508
# Poissons Ratio (y) = 0.24808 0.19801
# Poissons Ratio (z) = 0.02850 0.10333
#
# Static dielectric constant tensor:
#      x y z
#    x 1.699490 0.009170 0.064780 
#    y 0.009170 1.666950 -0.074290 
#    z 0.064780 -0.074290 1.501510 
# 
# From -- ./inp_files/32255.got.cif
#   From: 2010.05.17/outbox.cif.g08.bks.cpg/sg2_17_cif.got.tgz:32255.got - 2010.06.03 11:33:40.
