data_PCOD9028709
_publ_section_title
;
Structure prediction by ZEFSAII (Michael W. Deem and Ramdas Pophale) SiO2 
 PCOD9028709
Probable space group: P -1
;
_chemical_formula_sum "Si O2"
_cell_formula_units_Z 14
_cell_length_a 10.251156
_cell_length_b 11.447490
_cell_length_c 7.296013
_cell_angle_alpha 39.782909
_cell_angle_beta 98.126394
_cell_angle_gamma 99.282041
_cell_volume 540.478566
_symmetry_space_group_name_H-M "P -1"
_symmetry_group_IT_number 2
_symmetry_cell_setting 'triclinic'
loop_
_space_group_symop_operation_xyz
x,y,z
-x,-y,-z
loop_
_atom_site_type_symbol
_atom_site_label
_atom_site_fract_x
_atom_site_fract_y
_atom_site_fract_z
Si Si1 0.371622 0.452778 0.152368
Si Si2 0.312247 0.371230 0.636212
Si Si3 0.958553 0.838093 0.325901
Si Si4 0.486041 0.054936 0.142389
Si Si5 0.889841 0.489488 0.333404
Si Si6 0.694104 0.163988 0.354644
Si Si7 0.840703 0.841930 0.678141
O O1 0.392796 0.442258 0.387375
O O2 0.295043 0.267488 0.289535
O O3 0.500000 0.500000 0.000000
O O4 0.277139 0.618178 0.906190
O O5 0.178055 0.265586 0.654156
O O6 0.254138 0.514420 0.592606
O O7 0.394466 0.224057 0.928997
O O8 0.920759 0.904583 0.438367
O O9 0.068970 0.692607 0.536685
O O10 0.000000 0.000000 0.000000
O O11 0.411185 0.890289 0.440771
O O12 0.620098 0.116804 0.202180
O O13 0.500000 0.000000 0.000000
O O14 0.000000 0.500000 0.500000
O O15 0.905089 0.680698 0.995034
O O16 0.801740 0.017723 0.567296
#
# Coordination Sequence:
#
# PCOD9028709 Si02
#       7
#     2   2   2   2   2   2   2
#     4  11  24  42  67 104 139 185 231 270 343 421
#     4  10  22  42  64  94 141 172 220 284 338 401
#     4  10  23  42  71 100 123 174 235 284 351 410
#     4  11  21  41  67  99 141 184 226 283 335 411
#     4  10  22  44  67  93 134 178 227 289 350 398
#     4  11  24  41  69 100 140 183 233 273 345 424
#     4  11  23  47  69  98 144 178 222 300 345 403
#
# _framework density 25.90297
#
# number of rings (size 3 to 8) (size 9 to 14) (size 15 to 20)
#    0.000    1.429    1.429    4.714    2.000    1.714 
#    2.571    2.857    0.000    0.000    0.000    0.000 
#    0.000    0.000    0.000    0.000    0.000    0.000 
#
# Total GULP energy -78499.025294 kJ/mol
# GULP energy per Si atom -5607.073235 kJ/mol
# Density = 2.584401 g / cm^3
# Si number density = 25.902970 Si / 1000 Ang^3
#
#
#
# Elastic Constant Matrix: (Units=GPa)
#
#
# Indices 1 2 3 4 5 6 
#
# 1 93.2739 31.2330 41.6846 -4.0123 6.5193 -18.1748
# 2 31.2330 125.9893 45.0247 -6.9629 -9.7916 -18.1898
# 3 41.6846 45.0247 164.0037 1.8979 17.2017 -25.4899
# 4 -4.0123 -6.9629 1.8979 62.4187 -15.0489 2.5547
# 5 6.5193 -9.7916 17.2017 -15.0489 52.4627 1.2939
# 6 -18.1748 -18.1898 -25.4899 2.5547 1.2939 42.1348
#
#
#
# Elastic Compliance Matrix: (Units=1/GPa)
#
#
# Indices 1 2 3 4 5 6 
#
# 1 0.013146 -0.002104 -0.002071 0.000196 -0.001378 0.003540
# 2 -0.002104 0.009881 -0.002269 0.001762 0.003311 0.001777
# 3 -0.002071 -0.002269 0.008121 -0.001576 -0.003361 0.003238
# 4 0.000196 0.001762 -0.001576 0.017769 0.005952 -0.001368
# 5 -0.001378 0.003311 -0.003361 0.005952 0.022715 -0.002257
# 6 0.003540 0.001777 0.003238 -0.001368 -0.002257 0.028139
#
#
# Mechanical properties :
#
#
# Convention : Reuss Voigt Hill
#
# Bulk Modulus (GPa) = 54.76903 68.79462 61.78183
# Shear Modulus (GPa) = 42.10673 49.09154 45.59913
#
# Velocity S-wave (km/s) = 4.03619 4.35812 4.20024
# Velocity P-wave (km/s) = 6.55065 7.20698 6.88664
#
# Compressibility (1/GPa) = 0.01825849
#
# Stress axis : x y z
#
# Youngs Moduli (GPa) = 76.07052 101.20438 123.13752
#
# Poissons Ratio (x) = 0.21292 0.25505
# Poissons Ratio (y) = 0.16004 0.27946
# Poissons Ratio (z) = 0.15756 0.22968
#
# Static dielectric constant tensor:
#      x y z
#    x 2.071900 0.030970 0.008870 
#    y 0.030970 2.100680 0.016120 
#    z 0.008870 0.016120 1.958040 
# 
# From -- ./inp_files/266326.got.cif
#   From: 2010.05.17/outbox.cif.g08.bks.cpg/sg2_134_cif.got.tgz:266326.got - 2010.06.03 11:33:40.
