data_PCOD9028430
_publ_section_title
;
Structure prediction by ZEFSAII (Michael W. Deem and Ramdas Pophale) SiO2 
 PCOD9028430
Probable space group: P -1
;
_chemical_formula_sum "Si O2"
_cell_formula_units_Z 15
_cell_length_a 5.107230
_cell_length_b 11.220551
_cell_length_c 12.363178
_cell_angle_alpha 87.004756
_cell_angle_beta 117.573647
_cell_angle_gamma 86.950173
_cell_volume 624.752083
_symmetry_space_group_name_H-M "P -1"
_symmetry_group_IT_number 2
_symmetry_cell_setting 'triclinic'
loop_
_space_group_symop_operation_xyz
x,y,z
-x,-y,-z
loop_
_atom_site_type_symbol
_atom_site_label
_atom_site_fract_x
_atom_site_fract_y
_atom_site_fract_z
Si Si1 0.813464 0.316245 0.242237
Si Si2 0.833924 0.119189 0.913399
Si Si3 0.000000 0.000000 0.500000
Si Si4 0.597948 0.748436 0.006912
Si Si5 0.339563 0.312918 0.485176
Si Si6 0.666196 0.072558 0.637861
Si Si7 0.055369 0.482703 0.885636
Si Si8 0.479076 0.492548 0.662440
O O1 0.583657 0.240714 0.141328
O O2 0.962406 0.381430 0.168936
O O3 0.665741 0.432492 0.270582
O O4 0.051126 0.262339 0.377707
O O5 0.746077 0.091472 0.776250
O O6 0.566472 0.170820 0.936476
O O7 0.076426 0.214799 0.953823
O O8 0.000000 0.000000 0.000000
O O9 0.365578 0.004141 0.582365
O O10 0.939243 0.019391 0.619241
O O11 0.652292 0.609756 0.062669
O O12 0.569729 0.203456 0.562312
O O13 0.283563 0.394456 0.577483
O O14 0.461521 0.405915 0.419560
O O15 0.791574 0.431879 0.767544
O O16 0.000000 0.500000 0.000000
#
# Coordination Sequence:
#
# PCOD9028430 Si02
#       8
#     2   2   1   2   2   2   2   2
#     4  11  24  39  66 103 144 182 236 285 338 435
#     4  12  29  51  73 107 141 183 243 308 363 421
#     4  10  26  48  76 108 132 182 242 306 348 414
#     4  12  26  44  76 102 141 196 233 288 365 422
#     4  10  24  40  66  99 141 190 227 288 352 423
#     4  11  25  50  77 105 141 184 240 292 367 427
#     4  11  22  40  64 103 144 183 235 286 342 433
#     4  10  22  42  62 101 147 180 235 284 345 419
#
# _framework density 24.009525
#
# number of rings (size 3 to 8) (size 9 to 14) (size 15 to 20)
#    0.000    1.067    1.333    3.600    7.467    3.200 
#    0.000    0.000    0.000    0.000    0.000    0.000 
#    0.000    0.000    0.000    0.000    0.000    0.000 
#
# Total GULP energy -83644.583201 kJ/mol
# GULP energy per Si atom -5576.305547 kJ/mol
# Density = 2.395488 g / cm^3
# Si number density = 24.009525 Si / 1000 Ang^3
#
#
#
# Elastic Constant Matrix: (Units=GPa)
#
#
# Indices 1 2 3 4 5 6 
#
# 1 80.8439 3.0849 14.5673 3.5057 -12.2792 -19.2639
# 2 3.0849 77.0107 26.4849 -11.2618 -5.5849 -20.2725
# 3 14.5673 26.4849 164.9698 4.9978 1.5183 -6.3870
# 4 3.5057 -11.2618 4.9978 38.9984 -12.2382 5.4802
# 5 -12.2792 -5.5849 1.5183 -12.2382 36.1775 13.9459
# 6 -19.2639 -20.2725 -6.3870 5.4802 13.9459 31.1894
#
#
#
# Elastic Compliance Matrix: (Units=1/GPa)
#
#
# Indices 1 2 3 4 5 6 
#
# 1 0.015257 0.002449 -0.001286 -0.001699 0.000938 0.010631
# 2 0.002449 0.017385 -0.002682 0.003694 0.000484 0.011398
# 3 -0.001286 -0.002682 0.006688 -0.002102 -0.001854 0.000030
# 4 -0.001699 0.003694 -0.002102 0.033999 0.016349 -0.012363
# 5 0.000938 0.000484 -0.001854 0.016349 0.041748 -0.021026
# 6 0.010631 0.011398 0.000030 -0.012363 -0.021026 0.057617
#
#
# Mechanical properties :
#
#
# Convention : Reuss Voigt Hill
#
# Bulk Modulus (GPa) = 27.55429 45.67760 36.61595
# Shear Modulus (GPa) = 26.61989 39.85223 33.23606
#
# Velocity S-wave (km/s) = 3.33336 4.07855 3.72464
# Velocity P-wave (km/s) = 5.12995 6.42226 5.81214
#
# Compressibility (1/GPa) = 0.03629199
#
# Stress axis : x y z
#
# Youngs Moduli (GPa) = 65.54291 57.51952 149.52517
#
# Poissons Ratio (x) = -0.14088 0.19229
# Poissons Ratio (y) = -0.16053 0.40109
# Poissons Ratio (z) = 0.08429 0.15429
#
# Static dielectric constant tensor:
#      x y z
#    x 1.982000 0.073260 0.030950 
#    y 0.073260 1.980870 0.027990 
#    z 0.030950 0.027990 1.975050 
# 
# From -- ./inp_files/364868.got.cif
#   From: 2010.05.17/outbox.cif.g08.bks.cpg/sg2_183_cif.got.tgz:364868.got - 2010.06.03 11:33:40.
