data_PCOD9028173
_publ_section_title
;
Structure prediction by ZEFSAII (Michael W. Deem and Ramdas Pophale) SiO2 
 PCOD9028173
Probable space group: P -1
;
_chemical_formula_sum "Si O2"
_cell_formula_units_Z 16
_cell_length_a 12.449211
_cell_length_b 8.562525
_cell_length_c 9.218674
_cell_angle_alpha 90.477259
_cell_angle_beta 78.530720
_cell_angle_gamma 131.333376
_cell_volume 712.968144
_symmetry_space_group_name_H-M "P -1"
_symmetry_group_IT_number 2
_symmetry_cell_setting 'triclinic'
loop_
_space_group_symop_operation_xyz
x,y,z
-x,-y,-z
loop_
_atom_site_type_symbol
_atom_site_label
_atom_site_fract_x
_atom_site_fract_y
_atom_site_fract_z
Si Si1 0.639835 0.683867 0.864015
Si Si2 0.111285 0.910247 0.564356
Si Si3 0.062764 0.193599 0.094229
Si Si4 0.560500 0.366556 0.693269
Si Si5 0.166176 0.324187 0.556495
Si Si6 0.649192 0.063272 0.394491
Si Si7 0.772778 0.455407 0.166271
Si Si8 0.511550 0.192815 0.018415
O O1 0.792161 0.748244 0.869372
O O2 0.580184 0.568812 0.723609
O O3 0.641883 0.869116 0.899354
O O4 0.500000 0.500000 0.000000
O O5 0.234080 0.893811 0.523021
O O6 0.040808 0.853580 0.744879
O O7 0.984031 0.762323 0.478481
O O8 0.169654 0.142115 0.527486
O O9 0.108434 0.391136 0.990514
O O10 0.000000 0.000000 0.000000
O O11 0.696958 0.459350 0.555204
O O12 0.411646 0.152014 0.669842
O O13 0.575987 0.307968 0.847459
O O14 0.183699 0.380451 0.719851
O O15 0.736880 0.259822 0.260083
O O16 0.500000 0.000000 0.500000
O O17 0.620254 0.338763 0.121443
O O18 0.500000 0.000000 0.000000
#
# Coordination Sequence:
#
# PCOD9028173 Si02
#       8
#     2   2   2   2   2   2   2   2
#     4  10  22  41  72 100 138 186 241 295 352 410
#     4  11  27  48  72 100 149 192 242 297 359 430
#     4  12  24  44  72 107 141 188 247 301 349 429
#     4  11  22  44  70 102 141 184 245 294 354 427
#     4  11  24  47  71 104 137 193 243 290 359 425
#     4  12  28  47  70 109 148 188 237 299 369 431
#     4  12  24  44  73 106 142 186 236 289 369 422
#     4  11  23  41  69 106 146 178 232 301 361 422
#
# _framework density 22.441396000000001
#
# number of rings (size 3 to 8) (size 9 to 14) (size 15 to 20)
#    0.000    0.750    7.500    0.000    5.250    2.500 
#    0.000    1.250    0.000    0.000    0.000    0.000 
#    0.000    0.000    0.000    0.000    0.000    0.000 
#
# Total GULP energy -89223.304469 kJ/mol
# GULP energy per Si atom -5576.456529 kJ/mol
# Density = 2.239032 g / cm^3
# Si number density = 22.441396 Si / 1000 Ang^3
#
#
#
# Elastic Constant Matrix: (Units=GPa)
#
#
# Indices 1 2 3 4 5 6 
#
# 1 93.5408 12.6196 11.1629 -15.4889 -2.6635 -5.0921
# 2 12.6196 91.1577 18.5125 -11.2105 -2.2674 1.6752
# 3 11.1629 18.5125 78.2048 -7.6453 -0.5997 2.4127
# 4 -15.4889 -11.2105 -7.6453 40.2920 -2.2443 5.4894
# 5 -2.6635 -2.2674 -0.5997 -2.2443 27.4128 2.3442
# 6 -5.0921 1.6752 2.4127 5.4894 2.3442 22.6298
#
#
#
# Elastic Compliance Matrix: (Units=1/GPa)
#
#
# Indices 1 2 3 4 5 6 
#
# 1 0.011719 -0.000922 -0.001122 0.003862 0.001203 0.001763
# 2 -0.000922 0.011987 -0.002369 0.002825 0.001223 -0.001654
# 3 -0.001122 -0.002369 0.013750 0.001810 0.000316 -0.002015
# 4 0.003862 0.002825 0.001810 0.028563 0.003571 -0.006832
# 5 0.001203 0.001223 0.000316 0.003571 0.037389 -0.004593
# 6 0.001763 -0.001654 -0.002015 -0.006832 -0.004593 0.047057
#
#
# Mechanical properties :
#
#
# Convention : Reuss Voigt Hill
#
# Bulk Modulus (GPa) = 34.93041 38.61037 36.77039
# Shear Modulus (GPa) = 29.61503 32.77414 31.19459
#
# Velocity S-wave (km/s) = 3.63665 3.82571 3.73238
# Velocity P-wave (km/s) = 5.76478 6.06276 5.91564
#
# Compressibility (1/GPa) = 0.02862835
#
# Stress axis : x y z
#
# Youngs Moduli (GPa) = 85.33467 83.42370 72.72958
#
# Poissons Ratio (x) = 0.07691 0.08161
# Poissons Ratio (y) = 0.07867 0.17233
# Poissons Ratio (z) = 0.09575 0.19766
#
# Static dielectric constant tensor:
#      x y z
#    x 1.887120 -0.103480 -0.017310 
#    y -0.103480 1.960770 -0.002310 
#    z -0.017310 -0.002310 1.889280 
# 
# From -- ./inp_files/243990.got.cif
#   From: 2010.05.17/outbox.cif.g08.bks.cpg/sg2_122_cif.got.tgz:243990.got - 2010.06.03 11:33:40.
