data_PCOD9028876
_publ_section_title
;
Structure prediction by ZEFSAII (Michael W. Deem and Ramdas Pophale) SiO2 
 PCOD9028876
Probable space group: P -1
;
_chemical_formula_sum "Si O2"
_cell_formula_units_Z 16
_cell_length_a 20.373051
_cell_length_b 25.437602
_cell_length_c 6.709256
_cell_angle_alpha 96.996236
_cell_angle_beta 80.638304
_cell_angle_gamma 167.355783
_cell_volume 739.917126
_symmetry_space_group_name_H-M "P -1"
_symmetry_group_IT_number 2
_symmetry_cell_setting 'triclinic'
loop_
_space_group_symop_operation_xyz
x,y,z
-x,-y,-z
loop_
_atom_site_type_symbol
_atom_site_label
_atom_site_fract_x
_atom_site_fract_y
_atom_site_fract_z
Si Si1 0.833137 0.492098 0.775520
Si Si2 0.715833 0.076401 0.116695
Si Si3 0.892734 0.701899 0.751363
Si Si4 0.663943 0.807930 0.238594
Si Si5 0.937637 0.400875 0.621727
Si Si6 0.072146 0.924024 0.424543
Si Si7 0.176228 0.253273 0.938215
Si Si8 0.533333 0.202368 0.134897
O O1 0.561095 0.317262 0.748680
O O2 0.039081 0.686542 0.912234
O O3 0.027012 0.621310 0.554668
O O4 0.686651 0.332067 0.904571
O O5 0.858305 0.150251 0.257906
O O6 0.392129 0.849504 0.231523
O O7 0.681307 0.014678 0.905826
O O8 0.557969 0.414931 0.769077
O O9 0.922004 0.764199 0.952446
O O10 0.956568 0.788732 0.570657
O O11 0.815151 0.938789 0.436944
O O12 0.933942 0.023193 0.042318
O O13 0.000000 0.500000 0.500000
O O14 0.204036 0.605356 0.748161
O O15 0.350115 0.111717 0.255818
O O16 0.829768 0.753023 0.298887
O O17 0.500000 0.500000 0.000000
#
# Coordination Sequence:
#
# PCOD9028876 Si02
#       8
#     2   2   2   2   2   2   2   2
#     4  11  23  41  61  88 123 164 207 252 307 359
#     4  11  23  41  60  91 126 160 208 259 299 361
#     4  10  23  42  65  93 127 165 205 250 309 368
#     4  10  22  42  65  93 127 162 204 253 306 371
#     4  12  24  40  61  86 127 164 205 258 306 349
#     4  11  21  40  67  90 124 164 208 247 311 370
#     4  11  24  43  67  94 126 160 202 257 310 369
#     4  12  22  41  62  89 120 166 208 253 304 362
#
# _framework density 21.624043
#
# number of rings (size 3 to 8) (size 9 to 14) (size 15 to 20)
#    0.000    1.000    5.000    2.250    0.000    5.000 
#    2.250    1.250    0.000    0.000    0.000    0.000 
#    0.000    0.000    0.000    0.000    0.000    0.000 
#
# Total GULP energy -89449.213245 kJ/mol
# GULP energy per Si atom -5590.575828 kJ/mol
# Density = 2.157483 g / cm^3
# Si number density = 21.624043 Si / 1000 Ang^3
#
#
#
# Elastic Constant Matrix: (Units=GPa)
#
#
# Indices 1 2 3 4 5 6 
#
# 1 16.3757 18.8225 2.2751 6.3301 0.7453 -8.1142
# 2 18.8225 102.0695 22.1395 24.1910 11.3818 -17.4674
# 3 2.2751 22.1395 82.0934 24.7717 3.6222 -11.8716
# 4 6.3301 24.1910 24.7717 36.0729 6.5135 -6.2386
# 5 0.7453 11.3818 3.6222 6.5135 20.6394 11.0663
# 6 -8.1142 -17.4674 -11.8716 -6.2386 11.0663 38.9720
#
#
#
# Elastic Compliance Matrix: (Units=1/GPa)
#
#
# Indices 1 2 3 4 5 6 
#
# 1 0.083952 -0.012504 0.005194 -0.007448 -0.001503 0.012692
# 2 -0.012504 0.015571 -0.001144 -0.004669 -0.009696 0.006033
# 3 0.005194 -0.001144 0.016104 -0.010209 -0.001440 0.004249
# 4 -0.007448 -0.004669 -0.010209 0.041416 -0.009872 0.002680
# 5 -0.001503 -0.009696 -0.001440 -0.009872 0.071720 -0.027043
# 6 0.012692 0.006033 0.004249 0.002680 -0.027043 0.040408
#
#
# Mechanical properties :
#
#
# Convention : Reuss Voigt Hill
#
# Bulk Modulus (GPa) = 10.12948 31.89031 21.00989
# Shear Modulus (GPa) = 15.67470 29.62365 22.64917
#
# Velocity S-wave (km/s) = 2.69527 3.70529 3.23988
# Velocity P-wave (km/s) = 3.79216 5.75197 4.87163
#
# Compressibility (1/GPa) = 0.09872179
#
# Stress axis : x y z
#
# Youngs Moduli (GPa) = 11.91153 64.22064 62.09565
#
# Poissons Ratio (x) = 0.80299 -0.32255
# Poissons Ratio (y) = 0.14894 0.07103
# Poissons Ratio (z) = -0.06187 0.07346
#
# Static dielectric constant tensor:
#      x y z
#    x 1.811430 0.024440 -0.017930 
#    y 0.024440 1.784480 0.005230 
#    z -0.017930 0.005230 1.778370 
# 
# From -- ./inp_files/44870.got.cif
#   From: 2010.05.17/outbox.cif.g08.bks.cpg/sg2_23_cif.got.tgz:44870.got - 2010.06.03 11:33:40.
