data_PCOD9028707
_publ_section_title
;
Structure prediction by ZEFSAII (Michael W. Deem and Ramdas Pophale) SiO2 
 PCOD9028707
Probable space group: P -1
;
_chemical_formula_sum "Si O2"
_cell_formula_units_Z 14
_cell_length_a 8.802746
_cell_length_b 18.269887
_cell_length_c 11.121247
_cell_angle_alpha 29.960191
_cell_angle_beta 54.330902
_cell_angle_gamma 42.267183
_cell_volume 591.731572
_symmetry_space_group_name_H-M "P -1"
_symmetry_group_IT_number 2
_symmetry_cell_setting 'triclinic'
loop_
_space_group_symop_operation_xyz
x,y,z
-x,-y,-z
loop_
_atom_site_type_symbol
_atom_site_label
_atom_site_fract_x
_atom_site_fract_y
_atom_site_fract_z
Si Si1 0.683719 0.320798 0.899082
Si Si2 0.936833 0.799275 0.777858
Si Si3 0.718480 0.115233 0.603980
Si Si4 0.753617 0.640508 0.971665
Si Si5 0.222957 0.454344 0.289606
Si Si6 0.843817 0.409136 0.472878
Si Si7 0.948562 0.072312 0.783736
O O1 0.447074 0.358315 0.000612
O O2 0.765849 0.418955 0.800633
O O3 0.689265 0.391061 0.663681
O O4 0.853103 0.105559 0.123866
O O5 0.093379 0.850754 0.572032
O O6 0.114715 0.592238 0.031665
O O7 0.803949 0.926285 0.772954
O O8 0.754433 0.813607 0.748243
O O9 0.477093 0.272184 0.435114
O O10 0.727328 0.120896 0.737951
O O11 0.728837 0.588005 0.193589
O O12 0.000000 0.500000 0.000000
O O13 0.050631 0.395115 0.468394
O O14 0.934516 0.252853 0.552669
O O15 0.000000 0.000000 0.000000
#
# Coordination Sequence:
#
# PCOD9028707 Si02
#       7
#     2   2   2   2   2   2   2
#     4  11  22  41  66  91 138 176 218 280 329 395
#     4  10  23  41  63 101 136 172 224 276 335 413
#     4  11  22  42  67  95 139 178 218 275 348 389
#     4  11  23  41  66  96 133 172 233 270 335 399
#     4  11  22  40  69  98 132 172 227 274 334 396
#     4  10  23  41  64  96 132 175 225 272 338 399
#     4  10  22  42  64  94 135 175 229 273 325 401
#
# _framework density 23.659376000000002
#
# number of rings (size 3 to 8) (size 9 to 14) (size 15 to 20)
#    0.000    1.429    1.429    3.857    2.000    2.286 
#    0.000    4.286    0.000    0.000    0.000    0.000 
#    0.000    0.000    0.000    0.000    0.000    0.000 
#
# Total GULP energy -78051.585782 kJ/mol
# GULP energy per Si atom -5575.113270 kJ/mol
# Density = 2.360553 g / cm^3
# Si number density = 23.659376 Si / 1000 Ang^3
#
#
#
# Elastic Constant Matrix: (Units=GPa)
#
#
# Indices 1 2 3 4 5 6 
#
# 1 129.3130 57.1981 18.8268 -6.1629 -30.0157 16.8402
# 2 57.1981 86.5508 17.3879 -12.9320 -14.8672 2.9266
# 3 18.8268 17.3879 42.2239 -1.3777 4.1353 -9.8115
# 4 -6.1629 -12.9320 -1.3777 29.8967 4.4087 -6.9891
# 5 -30.0157 -14.8672 4.1353 4.4087 51.8345 -0.2806
# 6 16.8402 2.9266 -9.8115 -6.9891 -0.2806 29.3080
#
#
#
# Elastic Compliance Matrix: (Units=1/GPa)
#
#
# Indices 1 2 3 4 5 6 
#
# 1 0.015074 -0.007503 -0.007103 -0.004185 0.007439 -0.011217
# 2 -0.007503 0.018180 -0.003272 0.006789 0.000570 0.003025
# 3 -0.007103 -0.003272 0.032848 0.003581 -0.007889 0.016183
# 4 -0.004185 0.006789 0.003581 0.039138 -0.004024 0.012220
# 5 0.007439 0.000570 -0.007889 -0.004024 0.024693 -0.007695
# 6 -0.011217 0.003025 0.016183 0.012220 -0.007695 0.048521
#
#
# Mechanical properties :
#
#
# Convention : Reuss Voigt Hill
#
# Bulk Modulus (GPa) = 32.95450 49.43481 41.19465
# Shear Modulus (GPa) = 22.28903 33.18617 27.73760
#
# Velocity S-wave (km/s) = 3.07266 3.74928 3.42771
# Velocity P-wave (km/s) = 5.15241 6.29941 5.75456
#
# Compressibility (1/GPa) = 0.03034487
#
# Stress axis : x y z
#
# Youngs Moduli (GPa) = 66.33921 55.00612 30.44345
#
# Poissons Ratio (x) = 0.41271 0.21624
# Poissons Ratio (y) = 0.49775 0.09962
# Poissons Ratio (z) = 0.47120 0.18000
#
# Static dielectric constant tensor:
#      x y z
#    x 2.032980 0.029200 0.055310 
#    y 0.029200 1.913080 -0.002970 
#    z 0.055310 -0.002970 1.925810 
# 
# From -- ./inp_files/382449.got.cif
#   From: 2010.05.17/outbox.cif.g08.bks.cpg/sg2_192_cif.got.tgz:382449.got - 2010.06.03 11:33:40.
