data_PCOD9028431
_publ_section_title
;
Structure prediction by ZEFSAII (Michael W. Deem and Ramdas Pophale) SiO2 
 PCOD9028431
Probable space group: P -1
;
_chemical_formula_sum "Si O2"
_cell_formula_units_Z 15
_cell_length_a 12.607193
_cell_length_b 8.036322
_cell_length_c 7.830182
_cell_angle_alpha 126.061933
_cell_angle_beta 62.624166
_cell_angle_gamma 98.871841
_cell_volume 561.939939
_symmetry_space_group_name_H-M "P -1"
_symmetry_group_IT_number 2
_symmetry_cell_setting 'triclinic'
loop_
_space_group_symop_operation_xyz
x,y,z
-x,-y,-z
loop_
_atom_site_type_symbol
_atom_site_label
_atom_site_fract_x
_atom_site_fract_y
_atom_site_fract_z
Si Si1 0.000000 0.500000 0.500000
Si Si2 0.758738 0.986465 0.822065
Si Si3 0.531542 0.012291 0.247545
Si Si4 0.012361 0.960970 0.673220
Si Si5 0.621582 0.340895 0.926080
Si Si6 0.598287 0.360282 0.596582
Si Si7 0.902662 0.639875 0.033060
Si Si8 0.297743 0.359098 0.567525
O O1 0.045640 0.724706 0.561375
O O2 0.937219 0.590915 0.784359
O O3 0.726383 0.178340 0.832810
O O4 0.871912 0.021915 0.870688
O O5 0.785068 0.761320 0.570791
O O6 0.636892 0.987703 0.016574
O O7 0.590867 0.116510 0.425587
O O8 0.419181 0.190611 0.391301
O O9 0.477917 0.800835 0.150770
O O10 0.000000 0.000000 0.500000
O O11 0.091823 0.118654 0.786839
O O12 0.660630 0.416184 0.759562
O O13 0.538079 0.505896 0.207349
O O14 0.666986 0.443560 0.437111
O O15 0.773347 0.600214 0.177855
O O16 0.000000 0.500000 0.000000
#
# Coordination Sequence:
#
# PCOD9028431 Si02
#       8
#     1   2   2   2   2   2   2   2
#     4  12  28  58  86 112 152 216 270 328 406 472
#     4  11  22  46  72 101 153 196 244 321 383 455
#     4  11  22  41  67  97 146 198 237 306 389 452
#     4  12  26  53  80 118 155 207 269 327 396 474
#     4  10  22  42  62 102 148 192 251 310 370 463
#     4  11  22  39  66 103 143 196 256 299 379 475
#     4  12  27  52  83 117 158 205 267 333 398 471
#     4  11  22  44  71 106 146 199 249 316 387 460
#
# _framework density 26.693242000000001
#
# number of rings (size 3 to 8) (size 9 to 14) (size 15 to 20)
#    0.000    0.800    5.333    2.000    1.867    0.000 
#   12.000    0.000    0.000    0.000    0.000    0.000 
#    0.000    0.000    0.000    0.000    0.000    0.000 
#
# Total GULP energy -83794.595377 kJ/mol
# GULP energy per Si atom -5586.306358 kJ/mol
# Density = 2.663249 g / cm^3
# Si number density = 26.693242 Si / 1000 Ang^3
#
#
#
# Elastic Constant Matrix: (Units=GPa)
#
#
# Indices 1 2 3 4 5 6 
#
# 1 46.2267 12.4948 17.2337 -13.3961 -15.1380 15.8778
# 2 12.4948 141.9344 59.0639 5.4823 5.9557 13.1838
# 3 17.2337 59.0639 182.5479 -22.7476 23.0187 13.3607
# 4 -13.3961 5.4823 -22.7476 61.2124 8.5555 4.0753
# 5 -15.1380 5.9557 23.0187 8.5555 44.6816 2.2494
# 6 15.8778 13.1838 13.3607 4.0753 2.2494 25.9258
#
#
#
# Elastic Compliance Matrix: (Units=1/GPa)
#
#
# Indices 1 2 3 4 5 6 
#
# 1 0.037438 -0.000978 -0.002370 0.007026 0.013874 -0.023517
# 2 -0.000978 0.008554 -0.002830 -0.001962 0.000464 -0.002024
# 3 -0.002370 -0.002830 0.007762 0.003401 -0.005015 -0.001209
# 4 0.007026 -0.001962 0.003401 0.020207 -0.002576 -0.008011
# 5 0.013874 0.000464 -0.005015 -0.002576 0.030518 -0.008391
# 6 -0.023517 -0.002024 -0.001209 -0.008011 -0.008391 0.056614
#
#
# Mechanical properties :
#
#
# Convention : Reuss Voigt Hill
#
# Bulk Modulus (GPa) = 24.15714 60.92154 42.53934
# Shear Modulus (GPa) = 26.70242 45.15841 35.93041
#
# Velocity S-wave (km/s) = 3.16625 4.11756 3.67283
# Velocity P-wave (km/s) = 4.73671 6.74374 5.82728
#
# Compressibility (1/GPa) = 0.04139563
#
# Stress axis : x y z
#
# Youngs Moduli (GPa) = 26.71094 116.90945 128.83175
#
# Poissons Ratio (x) = 0.11439 0.30539
# Poissons Ratio (y) = 0.02613 0.36460
# Poissons Ratio (z) = 0.06332 0.33086
#
# Static dielectric constant tensor:
#      x y z
#    x 2.302050 -0.028820 0.180880 
#    y -0.028820 2.129410 -0.062490 
#    z 0.180880 -0.062490 2.223010 
# 
# From -- ./inp_files/296594.got.cif
#   From: 2010.05.17/outbox.cif.g08.bks.cpg/sg2_149_cif.got.tgz:296594.got - 2010.06.03 11:33:40.
