data_PCOD9028977
_publ_section_title
;
Structure prediction by ZEFSAII (Michael W. Deem and Ramdas Pophale) SiO2 
 PCOD9028977
Probable space group: P -1
;
_chemical_formula_sum "Si O2"
_cell_formula_units_Z 16
_cell_length_a 13.264621
_cell_length_b 9.449687
_cell_length_c 10.789485
_cell_angle_alpha 132.158686
_cell_angle_beta 53.273312
_cell_angle_gamma 135.843760
_cell_volume 680.392166
_symmetry_space_group_name_H-M "P -1"
_symmetry_group_IT_number 2
_symmetry_cell_setting 'triclinic'
loop_
_space_group_symop_operation_xyz
x,y,z
-x,-y,-z
loop_
_atom_site_type_symbol
_atom_site_label
_atom_site_fract_x
_atom_site_fract_y
_atom_site_fract_z
Si Si1 0.420058 0.460286 0.706211
Si Si2 0.293938 0.000047 0.626669
Si Si3 0.453980 0.875070 0.825883
Si Si4 0.965561 0.667599 0.691480
Si Si5 0.562247 0.230661 0.745451
Si Si6 0.148446 0.486047 0.038593
Si Si7 0.165852 0.813418 0.033837
Si Si8 0.702365 0.669181 0.790795
O O1 0.338941 0.190071 0.599916
O O2 0.471783 0.661072 0.686748
O O3 0.574881 0.534833 0.704353
O O4 0.294497 0.483536 0.889326
O O5 0.402868 0.119908 0.732405
O O6 0.332414 0.816052 0.446439
O O7 0.125085 0.893820 0.727072
O O8 0.542746 0.084643 0.792901
O O9 0.277987 0.754661 0.851821
O O10 0.500000 0.000000 0.000000
O O11 0.890463 0.568161 0.821005
O O12 0.863580 0.704188 0.694354
O O13 0.000000 0.500000 0.500000
O O14 0.629515 0.496358 0.858706
O O15 0.161876 0.717874 0.118472
O O16 0.999231 0.301249 0.965108
O O17 0.258540 0.079154 0.100444
#
# Coordination Sequence:
#
# PCOD9028977 Si02
#       8
#     2   2   2   2   2   2   2   2
#     4  10  23  41  65  97 127 165 214 265 320 376
#     4  10  22  44  62  92 128 165 220 258 319 377
#     4  11  22  39  64  97 132 164 210 262 318 380
#     4  12  25  42  65  92 131 173 213 258 318 377
#     4  10  23  40  67  90 129 172 206 268 315 376
#     4  10  24  43  66  93 134 168 205 270 319 374
#     4  10  22  42  65  98 127 165 214 261 323 375
#     4  11  23  39  66  97 126 164 216 263 314 380
#
# _framework density 23.515848999999999
#
# number of rings (size 3 to 8) (size 9 to 14) (size 15 to 20)
#    0.000    1.500    2.500    1.500    3.500    5.500 
#    0.000    0.625    2.750    0.000    0.000    0.000 
#    0.000    0.000    0.000    0.000    0.000    0.000 
#
# Total GULP energy -89221.662609 kJ/mol
# GULP energy per Si atom -5576.353913 kJ/mol
# Density = 2.346233 g / cm^3
# Si number density = 23.515849 Si / 1000 Ang^3
#
#
#
# Elastic Constant Matrix: (Units=GPa)
#
#
# Indices 1 2 3 4 5 6 
#
# 1 121.6371 37.6714 3.9515 -6.5218 -24.9317 22.1495
# 2 37.6714 173.7082 15.6695 11.4750 -0.4185 -20.4833
# 3 3.9515 15.6695 25.8227 5.5017 -14.8143 3.0416
# 4 -6.5218 11.4750 5.5017 37.4134 -7.0191 -11.0666
# 5 -24.9317 -0.4185 -14.8143 -7.0191 29.3758 0.0486
# 6 22.1495 -20.4833 3.0416 -11.0666 0.0486 49.8772
#
#
#
# Elastic Compliance Matrix: (Units=1/GPa)
#
#
# Indices 1 2 3 4 5 6 
#
# 1 0.015962 -0.006033 0.013780 0.003771 0.021328 -0.009591
# 2 -0.006033 0.008978 -0.011243 -0.002322 -0.011228 0.006548
# 3 0.013780 -0.011243 0.073032 -0.000357 0.048306 -0.015316
# 4 0.003771 -0.002322 -0.000357 0.031404 0.010484 0.004351
# 5 0.021328 -0.011228 0.048306 0.010484 0.078873 -0.014779
# 6 -0.009591 0.006548 -0.015316 0.004351 -0.014779 0.028911
#
#
# Mechanical properties :
#
#
# Convention : Reuss Voigt Hill
#
# Bulk Modulus (GPa) = 10.99135 48.41699 29.70417
# Shear Modulus (GPa) = 18.21637 40.92497 29.57067
#
# Velocity S-wave (km/s) = 2.78626 4.17623 3.54994
# Velocity P-wave (km/s) = 3.87752 6.62483 5.42787
#
# Compressibility (1/GPa) = 0.09098067
#
# Stress axis : x y z
#
# Youngs Moduli (GPa) = 62.64809 111.38638 13.69267
#
# Poissons Ratio (x) = 0.67203 -0.18869
# Poissons Ratio (y) = 0.37798 0.15394
# Poissons Ratio (z) = -0.86331 1.25226
#
# Static dielectric constant tensor:
#      x y z
#    x 1.921850 0.005160 0.008410 
#    y 0.005160 1.974590 -0.017630 
#    z 0.008410 -0.017630 1.951940 
# 
# From -- ./inp_files/419966.got.cif
#   From: 2010.05.17/outbox.cif.g08.bks.cpg/sg2_210_cif.got.tgz:419966.got - 2010.06.03 11:33:40.
