data_PCOD9028985
_publ_section_title
;
Structure prediction by ZEFSAII (Michael W. Deem and Ramdas Pophale) SiO2 
 PCOD9028985
Probable space group: P -1
;
_chemical_formula_sum "Si O2"
_cell_formula_units_Z 14
_cell_length_a 10.081538
_cell_length_b 10.093586
_cell_length_c 13.338544
_cell_angle_alpha 34.565913
_cell_angle_beta 131.662026
_cell_angle_gamma 123.764109
_cell_volume 575.196594
_symmetry_space_group_name_H-M "P -1"
_symmetry_group_IT_number 2
_symmetry_cell_setting 'triclinic'
loop_
_space_group_symop_operation_xyz
x,y,z
-x,-y,-z
loop_
_atom_site_type_symbol
_atom_site_label
_atom_site_fract_x
_atom_site_fract_y
_atom_site_fract_z
Si Si1 0.711439 0.344326 0.454122
Si Si2 0.546532 0.768775 0.423908
Si Si3 0.048598 0.904209 0.476936
Si Si4 0.395122 0.720598 0.773217
Si Si5 0.625059 0.198134 0.892743
Si Si6 0.819514 0.604970 0.801116
Si Si7 0.892695 0.829600 0.249923
O O1 0.597062 0.318949 0.511838
O O2 0.591674 0.252948 0.357331
O O3 0.771241 0.610298 0.293138
O O4 0.901628 0.217929 0.643042
O O5 0.478719 0.729594 0.303527
O O6 0.735602 0.649519 0.619377
O O7 0.561913 0.046276 0.286539
O O8 0.181670 0.694487 0.692037
O O9 0.892399 0.831912 0.369982
O O10 0.150665 0.118873 0.333787
O O11 0.000000 0.000000 0.500000
O O12 0.500000 0.500000 0.000000
O O13 0.680598 0.389725 0.886012
O O14 0.500000 0.000000 0.000000
O O15 0.806122 0.072658 0.025479
O O16 0.000000 0.500000 0.000000
#
# Coordination Sequence:
#
# PCOD9028985 Si02
#       7
#     2   2   2   2   2   2   2
#     4  10  22  43  67  95 138 179 236 283 344 420
#     4  11  25  42  69 100 137 182 234 292 346 413
#     4  10  23  40  66  99 138 181 230 285 347 419
#     4  10  22  42  65  98 134 183 231 281 350 413
#     4  12  26  43  68 101 143 183 234 285 354 419
#     4  11  24  43  66 101 139 181 229 280 355 416
#     4  10  22  42  66  95 137 183 222 291 349 409
#
# _framework density 24.339503000000001
#
# number of rings (size 3 to 8) (size 9 to 14) (size 15 to 20)
#    0.000    1.429    1.429    2.571    6.000    1.714 
#    2.571    0.000    0.000    0.000    0.000    0.000 
#    0.000    0.000    0.000    0.000    0.000    0.000 
#
# Total GULP energy -77988.079762 kJ/mol
# GULP energy per Si atom -5570.577126 kJ/mol
# Density = 2.428410 g / cm^3
# Si number density = 24.339503 Si / 1000 Ang^3
#
#
#
# Elastic Constant Matrix: (Units=GPa)
#
#
# Indices 1 2 3 4 5 6 
#
# 1 76.8531 15.9919 39.9170 11.9396 -2.8621 -6.9418
# 2 15.9919 143.3413 23.5940 7.5436 -1.6223 3.6298
# 3 39.9170 23.5940 181.8109 23.2060 38.9756 0.4943
# 4 11.9396 7.5436 23.2060 44.5458 -3.4416 -0.1303
# 5 -2.8621 -1.6223 38.9756 -3.4416 34.9920 -0.8755
# 6 -6.9418 3.6298 0.4943 -0.1303 -0.8755 36.8511
#
#
#
# Elastic Compliance Matrix: (Units=1/GPa)
#
#
# Indices 1 2 3 4 5 6 
#
# 1 0.016417 -0.001001 -0.004720 -0.001259 0.006515 0.003405
# 2 -0.001001 0.007300 -0.000944 -0.000382 0.001249 -0.000867
# 3 -0.004720 -0.000944 0.009777 -0.004584 -0.011802 -0.001224
# 4 -0.001259 -0.000382 -0.004584 0.025821 0.007528 0.000132
# 5 0.006515 0.001249 -0.011802 0.007528 0.043112 0.002313
# 6 0.003405 -0.000867 -0.001224 0.000132 0.002313 0.027935
#
#
# Mechanical properties :
#
#
# Convention : Reuss Voigt Hill
#
# Bulk Modulus (GPa) = 49.59200 62.33457 55.96328
# Shear Modulus (GPa) = 33.24169 44.77795 39.00982
#
# Velocity S-wave (km/s) = 3.69962 4.29385 4.00776
# Velocity P-wave (km/s) = 6.21843 7.08865 6.66775
#
# Compressibility (1/GPa) = 0.02016454
#
# Stress axis : x y z
#
# Youngs Moduli (GPa) = 60.91153 136.99343 102.27679
#
# Poissons Ratio (x) = 0.13713 0.48272
# Poissons Ratio (y) = 0.06097 0.09656
# Poissons Ratio (z) = 0.28749 0.12934
#
# Static dielectric constant tensor:
#      x y z
#    x 2.095090 0.019750 0.007620 
#    y 0.019750 2.040620 -0.101180 
#    z 0.007620 -0.101180 2.001700 
# 
# From -- ./inp_files/242242.got.cif
#   From: 2010.05.17/outbox.cif.g08.bks.cpg/sg2_122_cif.got.tgz:242242.got - 2010.06.03 11:33:40.
