data_PCOD9028022
_publ_section_title
;
Structure prediction by ZEFSAII (Michael W. Deem and Ramdas Pophale) SiO2 
 PCOD9028022
Probable space group: P -1
;
_chemical_formula_sum "Si O2"
_cell_formula_units_Z 16
_cell_length_a 16.050306
_cell_length_b 11.808138
_cell_length_c 18.894416
_cell_angle_alpha 145.216162
_cell_angle_beta 156.649862
_cell_angle_gamma 35.107449
_cell_volume 776.544879
_symmetry_space_group_name_H-M "P -1"
_symmetry_group_IT_number 2
_symmetry_cell_setting 'triclinic'
loop_
_space_group_symop_operation_xyz
x,y,z
-x,-y,-z
loop_
_atom_site_type_symbol
_atom_site_label
_atom_site_fract_x
_atom_site_fract_y
_atom_site_fract_z
Si Si1 0.701982 0.650492 0.540969
Si Si2 0.603552 0.860570 0.941964
Si Si3 0.141354 0.295138 0.465465
Si Si4 0.833045 0.218954 0.498866
Si Si5 0.542468 0.005422 0.707327
Si Si6 0.300857 0.681749 0.408008
Si Si7 0.846242 0.984684 0.061460
Si Si8 0.220832 0.595228 0.146227
O O1 0.807318 0.665056 0.555161
O O2 0.826932 0.430271 0.561369
O O3 0.690862 0.846186 0.683877
O O4 0.445512 0.653762 0.333053
O O5 0.405333 0.810021 0.718267
O O6 0.743461 0.639338 0.967468
O O7 0.500000 0.000000 0.000000
O O8 0.732777 0.952860 0.030946
O O9 0.000000 0.500000 0.500000
O O10 0.002818 0.128728 0.272145
O O11 0.373697 0.195601 0.634182
O O12 0.861251 0.252239 0.620370
O O13 0.000000 0.000000 0.500000
O O14 0.395304 0.869531 0.556628
O O15 0.675043 0.067066 0.906890
O O16 0.500000 0.500000 0.500000
O O17 0.210337 0.604133 0.228029
O O18 0.001743 0.765795 0.041034
#
# Coordination Sequence:
#
# PCOD9028022 Si02
#       8
#     2   2   2   2   2   2   2   2
#     4  10  23  46  68  99 134 183 233 277 336 409
#     4  11  25  39  61 104 145 172 220 283 345 417
#     4  12  29  47  71  96 141 188 228 281 345 405
#     4  11  24  38  70 101 139 176 220 283 355 403
#     4  11  23  45  72  98 132 173 239 285 322 416
#     4  11  17  40  68  99 129 173 222 280 336 404
#     4  12  25  44  73 100 131 187 232 279 346 400
#     4  10  22  41  70  97 137 179 225 281 348 406
#
# _framework density 20.604088999999998
#
# number of rings (size 3 to 8) (size 9 to 14) (size 15 to 20)
#    0.000    1.000    7.500    0.750    7.000    2.000 
#    0.000    0.000    0.000    0.000    0.000    0.000 
#    0.000    0.000    0.000    0.000    0.000    0.000 
#
# Total GULP energy -89425.804532 kJ/mol
# GULP energy per Si atom -5589.112783 kJ/mol
# Density = 2.055719 g / cm^3
# Si number density = 20.604089 Si / 1000 Ang^3
#
#
#
# Elastic Constant Matrix: (Units=GPa)
#
#
# Indices 1 2 3 4 5 6 
#
# 1 133.8824 46.6029 24.0599 9.7721 4.9872 -14.4237
# 2 46.6029 117.7463 6.6485 -5.4239 -3.3864 -25.6250
# 3 24.0599 6.6485 68.5103 -0.4139 -6.9723 -11.8123
# 4 9.7721 -5.4239 -0.4139 20.5640 2.0348 -3.4212
# 5 4.9872 -3.3864 -6.9723 2.0348 27.1448 2.9001
# 6 -14.4237 -25.6250 -11.8123 -3.4212 2.9001 31.7261
#
#
#
# Elastic Compliance Matrix: (Units=1/GPa)
#
#
# Indices 1 2 3 4 5 6 
#
# 1 0.010047 -0.004241 -0.003529 -0.005778 -0.002791 -0.000540
# 2 -0.004241 0.012483 0.002102 0.006805 0.001346 0.009548
# 3 -0.003529 0.002102 0.017210 0.003215 0.004402 0.006446
# 4 -0.005778 0.006805 0.003215 0.055185 -0.002495 0.010246
# 5 -0.002791 0.001346 0.004402 -0.002495 0.039093 -0.002385
# 6 -0.000540 0.009548 0.006446 0.010246 -0.002385 0.042709
#
#
# Mechanical properties :
#
#
# Convention : Reuss Voigt Hill
#
# Bulk Modulus (GPa) = 35.20494 52.75129 43.97812
# Shear Modulus (GPa) = 25.31247 32.07550 28.69398
#
# Velocity S-wave (km/s) = 3.50882 3.94985 3.73585
# Velocity P-wave (km/s) = 5.79131 6.81614 6.32451
#
# Compressibility (1/GPa) = 0.02840510
#
# Stress axis : x y z
#
# Youngs Moduli (GPa) = 99.52949 80.11006 58.10460
#
# Poissons Ratio (x) = 0.33976 0.20504
# Poissons Ratio (y) = 0.42213 -0.12216
# Poissons Ratio (z) = 0.35122 -0.16842
#
# Static dielectric constant tensor:
#      x y z
#    x 1.694500 0.014090 0.038680 
#    y 0.014090 1.748530 -0.054400 
#    z 0.038680 -0.054400 1.742600 
# 
# From -- ./inp_files/600138.got.cif
#   From: 2010.05.17/outbox.cif.g08.bks.cpg/sg2_301_cif.got.tgz:600138.got - 2010.06.03 11:33:40.
