data_PCOD9028497
_publ_section_title
;
Structure prediction by ZEFSAII (Michael W. Deem and Ramdas Pophale) SiO2 
 PCOD9028497
Probable space group: P -1
;
_chemical_formula_sum "Si O2"
_cell_formula_units_Z 15
_cell_length_a 8.078781
_cell_length_b 11.507272
_cell_length_c 16.125895
_cell_angle_alpha 42.876052
_cell_angle_beta 45.774812
_cell_angle_gamma 43.824421
_cell_volume 659.454651
_symmetry_space_group_name_H-M "P -1"
_symmetry_group_IT_number 2
_symmetry_cell_setting 'triclinic'
loop_
_space_group_symop_operation_xyz
x,y,z
-x,-y,-z
loop_
_atom_site_type_symbol
_atom_site_label
_atom_site_fract_x
_atom_site_fract_y
_atom_site_fract_z
Si Si1 0.239903 0.211823 0.123920
Si Si2 0.326377 0.494122 0.848453
Si Si3 0.421116 0.082370 0.307941
Si Si4 0.612578 0.161133 0.825084
Si Si5 0.765925 0.345380 0.522404
Si Si6 0.209086 0.451209 0.298896
Si Si7 0.000000 0.000000 0.500000
Si Si8 0.992669 0.880766 0.144326
O O1 0.261536 0.135687 0.249043
O O2 0.940074 0.323682 0.150550
O O3 0.386079 0.031981 0.107946
O O4 0.346437 0.369293 0.989697
O O5 0.350136 0.340244 0.849981
O O6 0.563516 0.543825 0.727647
O O7 0.356536 0.278513 0.274503
O O8 0.291871 0.960543 0.459074
O O9 0.713611 0.970850 0.237196
O O10 0.719791 0.234103 0.672585
O O11 0.808131 0.121289 0.853974
O O12 0.500000 0.500000 0.500000
O O13 0.977341 0.417962 0.435784
O O14 0.882996 0.201523 0.481466
O O15 0.072675 0.665299 0.200113
O O16 0.000000 0.000000 0.000000
#
# Coordination Sequence:
#
# PCOD9028497 Si02
#       8
#     2   2   2   2   2   2   1   2
#     4  11  23  41  66  96 133 177 223 274 336 400
#     4  10  24  41  61  97 135 170 222 277 332 402
#     4  11  22  40  66  93 131 174 221 273 331 404
#     4  11  24  43  68 100 129 179 226 275 338 397
#     4  11  24  43  70  97 136 174 227 283 332 403
#     4  10  24  43  64  99 131 180 218 274 344 392
#     4  10  22  42  62  98 126 172 220 270 338 394
#     4  11  25  44  67  99 137 175 221 282 339 402
#
# _framework density 22.746068000000001
#
# number of rings (size 3 to 8) (size 9 to 14) (size 15 to 20)
#    0.000    1.333    1.333    3.600    3.733    6.400 
#    2.400    2.000    0.000    0.000    0.000    0.000 
#    0.000    0.000    0.000    0.000    0.000    0.000 
#
# Total GULP energy -83555.060942 kJ/mol
# GULP energy per Si atom -5570.337396 kJ/mol
# Density = 2.269430 g / cm^3
# Si number density = 22.746068 Si / 1000 Ang^3
#
#
#
# Elastic Constant Matrix: (Units=GPa)
#
#
# Indices 1 2 3 4 5 6 
#
# 1 56.1572 27.4474 27.4608 -6.6570 -5.6511 -3.5432
# 2 27.4474 116.8642 22.0619 18.4519 -15.5150 -6.6081
# 3 27.4608 22.0619 55.7715 -3.1830 -29.6453 -18.0082
# 4 -6.6570 18.4519 -3.1830 35.0749 -4.5241 -9.5177
# 5 -5.6511 -15.5150 -29.6453 -4.5241 35.5260 6.8054
# 6 -3.5432 -6.6081 -18.0082 -9.5177 6.8054 37.6821
#
#
#
# Elastic Compliance Matrix: (Units=1/GPa)
#
#
# Indices 1 2 3 4 5 6 
#
# 1 0.029644 -0.005659 -0.021227 0.003527 -0.014078 -0.004916
# 2 -0.005659 0.011551 -0.001500 -0.007405 0.002236 -0.001498
# 3 -0.021227 -0.001500 0.060091 0.013832 0.043646 0.022069
# 4 0.003527 -0.007405 0.013832 0.039470 0.011296 0.013573
# 5 -0.014078 0.002236 0.043646 0.011296 0.062546 0.011484
# 6 -0.004916 -0.001498 0.022069 0.013573 0.011484 0.037714
#
#
# Mechanical properties :
#
#
# Convention : Reuss Voigt Hill
#
# Bulk Modulus (GPa) = 22.46512 42.52592 32.49552
# Shear Modulus (GPa) = 15.99351 31.77812 23.88582
#
# Velocity S-wave (km/s) = 2.65454 3.74181 3.24405
# Velocity P-wave (km/s) = 4.39242 6.11594 5.32438
#
# Compressibility (1/GPa) = 0.04451344
#
# Stress axis : x y z
#
# Youngs Moduli (GPa) = 33.73319 86.57547 16.64138
#
# Poissons Ratio (x) = 0.48994 0.35325
# Poissons Ratio (y) = 0.19090 0.02496
# Poissons Ratio (z) = 0.71606 0.12988
#
# Static dielectric constant tensor:
#      x y z
#    x 1.861980 -0.010050 0.013400 
#    y -0.010050 1.845180 0.023610 
#    z 0.013400 0.023610 1.841970 
# 
# From -- ./inp_files/255802.got.cif
#   From: 2010.05.17/outbox.cif.g08.bks.cpg/sg2_128_cif.got.tgz:255802.got - 2010.06.03 11:33:40.
