data_PCOD9028286
_publ_section_title
;
Structure prediction by ZEFSAII (Michael W. Deem and Ramdas Pophale) SiO2 
 PCOD9028286
Probable space group: P -1
;
_chemical_formula_sum "Si O2"
_cell_formula_units_Z 15
_cell_length_a 8.427741
_cell_length_b 15.705378
_cell_length_c 9.743142
_cell_angle_alpha 105.215682
_cell_angle_beta 115.662763
_cell_angle_gamma 29.573601
_cell_volume 554.467490
_symmetry_space_group_name_H-M "P -1"
_symmetry_group_IT_number 2
_symmetry_cell_setting 'triclinic'
loop_
_space_group_symop_operation_xyz
x,y,z
-x,-y,-z
loop_
_atom_site_type_symbol
_atom_site_label
_atom_site_fract_x
_atom_site_fract_y
_atom_site_fract_z
Si Si1 0.584430 0.027558 0.917590
Si Si2 0.799998 0.881966 0.448438
Si Si3 0.000000 0.000000 0.000000
Si Si4 0.728088 0.352326 0.902214
Si Si5 0.812295 0.631423 0.684171
Si Si6 0.808546 0.452998 0.451141
Si Si7 0.770044 0.519769 0.972714
Si Si8 0.184922 0.861499 0.724928
O O1 0.023298 0.824889 0.000693
O O2 0.500000 0.000000 0.000000
O O3 0.394383 0.059409 0.738001
O O4 0.605309 0.123309 0.941208
O O5 0.106824 0.675924 0.501728
O O6 0.968629 0.903994 0.545677
O O7 0.500000 0.000000 0.500000
O O8 0.056411 0.990834 0.185299
O O9 0.532418 0.403171 0.715540
O O10 0.925069 0.356394 0.924773
O O11 0.500000 0.500000 0.000000
O O12 0.783054 0.543615 0.586746
O O13 0.477000 0.794486 0.727514
O O14 0.867680 0.664891 0.583201
O O15 0.171541 0.492174 0.847549
O O16 0.403429 0.693638 0.827597
O O17 0.000000 0.500000 0.000000
#
# Coordination Sequence:
#
# PCOD9028286 Si02
#       8
#     2   2   1   2   2   2   2   2
#     4  12  32  50  77 117 161 209 260 324 403 476
#     4  12  26  50  73 111 159 201 255 322 398 467
#     4  12  28  50  76 110 156 208 262 318 398 470
#     4  12  23  47  75 107 148 199 258 314 383 467
#     4  10  25  42  73 113 149 192 267 323 387 456
#     4  11  25  45  78 111 148 200 258 326 385 467
#     4  10  22  41  74 104 144 192 258 314 380 448
#     4  11  25  48  72 111 152 207 256 327 391 473
#
# _framework density 27.052985
#
# number of rings (size 3 to 8) (size 9 to 14) (size 15 to 20)
#    0.000    0.800    4.000    1.600    7.467    2.667 
#    0.000    1.333    0.000    0.000    0.000    0.000 
#    0.000    0.000    0.000    0.000    0.000    0.000 
#
# Total GULP energy -83662.978026 kJ/mol
# GULP energy per Si atom -5577.531868 kJ/mol
# Density = 2.699141 g / cm^3
# Si number density = 27.052985 Si / 1000 Ang^3
#
#
#
# Elastic Constant Matrix: (Units=GPa)
#
#
# Indices 1 2 3 4 5 6 
#
# 1 81.0027 -3.4080 35.5298 21.9830 8.9448 -25.2039
# 2 -3.4080 55.4450 15.2219 -9.4049 -9.4497 11.1466
# 3 35.5298 15.2219 225.6079 -2.7015 22.4549 5.7943
# 4 21.9830 -9.4049 -2.7015 41.5212 -6.3288 -7.6653
# 5 8.9448 -9.4497 22.4549 -6.3288 58.5552 8.2478
# 6 -25.2039 11.1466 5.7943 -7.6653 8.2478 48.3941
#
#
#
# Elastic Compliance Matrix: (Units=1/GPa)
#
#
# Indices 1 2 3 4 5 6 
#
# 1 0.020176 -0.002720 -0.002891 -0.010276 -0.005031 0.010710
# 2 -0.002720 0.021540 -0.001385 0.005977 0.005953 -0.006280
# 3 -0.002891 -0.001385 0.005174 0.001076 -0.001454 -0.001388
# 4 -0.010276 0.005977 0.001076 0.031314 0.005915 -0.002905
# 5 -0.005031 0.005953 -0.001454 0.005915 0.020912 -0.006445
# 6 0.010710 -0.006280 -0.001388 -0.002905 -0.006445 0.028492
#
#
# Mechanical properties :
#
#
# Convention : Reuss Voigt Hill
#
# Bulk Modulus (GPa) = 30.39634 50.74924 40.57279
# Shear Modulus (GPa) = 32.77278 50.67488 41.72383
#
# Velocity S-wave (km/s) = 3.48434 4.33271 3.93147
# Velocity P-wave (km/s) = 5.23906 6.62041 5.96982
#
# Compressibility (1/GPa) = 0.03289870
#
# Stress axis : x y z
#
# Youngs Moduli (GPa) = 49.56451 46.42561 193.25565
#
# Poissons Ratio (x) = 0.12627 0.55874
# Poissons Ratio (y) = 0.13481 0.26759
# Poissons Ratio (z) = 0.14330 0.06428
#
# Static dielectric constant tensor:
#      x y z
#    x 2.211800 -0.090010 -0.180010 
#    y -0.090010 2.287960 0.036550 
#    z -0.180010 0.036550 2.045070 
# 
# From -- ./inp_files/218088.got.cif
#   From: 2010.05.17/outbox.cif.g08.bks.cpg/sg2_110_cif.got.tgz:218088.got - 2010.06.03 11:33:40.
