data_PCOD9028202
_publ_section_title
;
Structure prediction by ZEFSAII (Michael W. Deem and Ramdas Pophale) SiO2 
 PCOD9028202
Probable space group: P -1
;
_chemical_formula_sum "Si O2"
_cell_formula_units_Z 12
_cell_length_a 9.939416
_cell_length_b 5.171192
_cell_length_c 11.184223
_cell_angle_alpha 104.788933
_cell_angle_beta 86.317855
_cell_angle_gamma 70.498736
_cell_volume 516.835582
_symmetry_space_group_name_H-M "P -1"
_symmetry_group_IT_number 2
_symmetry_cell_setting 'triclinic'
loop_
_space_group_symop_operation_xyz
x,y,z
-x,-y,-z
loop_
_atom_site_type_symbol
_atom_site_label
_atom_site_fract_x
_atom_site_fract_y
_atom_site_fract_z
Si Si1 0.718976 0.345716 0.009197
Si Si2 0.588843 0.983518 0.129021
Si Si3 0.966931 0.320278 0.586730
Si Si4 0.798497 0.622689 0.246136
Si Si5 0.531416 0.683296 0.414068
Si Si6 0.320358 0.545252 0.243379
O O1 0.672030 0.099632 0.038946
O O2 0.749625 0.319259 0.863669
O O3 0.592607 0.664528 0.064080
O O4 0.830357 0.404804 0.104731
O O5 0.689431 0.922834 0.233030
O O6 0.433330 0.221516 0.183082
O O7 0.803476 0.444357 0.656370
O O8 0.000000 0.500000 0.500000
O O9 0.067830 0.339325 0.693214
O O10 0.000000 0.000000 0.500000
O O11 0.694476 0.548761 0.338059
O O12 0.500000 0.500000 0.500000
O O13 0.420714 0.699963 0.314603
O O14 0.500000 0.000000 0.500000
#
# Coordination Sequence:
#
# PCOD9028202 Si02
#       6
#     2   2   2   2   2   2
#     4  10  24  40  77 104 140 173 232 295 355 405
#     4  10  22  41  72 107 137 174 226 289 355 410
#     4  12  30  48  70  99 145 190 235 285 343 417
#     4  10  25  46  69  99 148 172 233 290 351 403
#     4  12  25  39  67  96 131 183 232 272 330 402
#     4  12  24  47  74 106 138 185 237 288 351 414
#
# _framework density 23.218214
#
# number of rings (size 3 to 8) (size 9 to 14) (size 15 to 20)
#    1.000    0.000    1.667    4.000    2.333    6.000 
#    0.000    0.833    0.000    0.000    0.000    0.000 
#    0.000    0.000    0.000    0.000    0.000    0.000 
#
# Total GULP energy -67111.308510 kJ/mol
# GULP energy per Si atom -5592.609043 kJ/mol
# Density = 2.316537 g / cm^3
# Si number density = 23.218214 Si / 1000 Ang^3
#
#
#
# Elastic Constant Matrix: (Units=GPa)
#
#
# Indices 1 2 3 4 5 6 
#
# 1 89.0997 -1.4974 15.4158 11.8000 18.1828 15.8602
# 2 -1.4974 130.5626 32.5338 -8.8530 1.0876 28.7542
# 3 15.4158 32.5338 102.4410 -0.3167 17.9807 18.9167
# 4 11.8000 -8.8530 -0.3167 36.3655 16.6191 7.0395
# 5 18.1828 1.0876 17.9807 16.6191 52.3238 -2.7322
# 6 15.8602 28.7542 18.9167 7.0395 -2.7322 26.3940
#
#
#
# Elastic Compliance Matrix: (Units=1/GPa)
#
#
# Indices 1 2 3 4 5 6 
#
# 1 0.014821 0.003314 0.000486 0.001771 -0.006681 -0.014029
# 2 0.003314 0.012147 -0.000324 0.007318 -0.004527 -0.017413
# 3 0.000486 -0.000324 0.013152 0.005284 -0.006960 -0.011495
# 4 0.001771 0.007318 0.005284 0.041546 -0.017120 -0.025677
# 5 -0.006681 -0.004527 -0.006960 -0.017120 0.030488 0.021657
# 6 -0.014029 -0.017413 -0.011495 -0.025677 0.021657 0.082616
#
#
# Mechanical properties :
#
#
# Convention : Reuss Voigt Hill
#
# Bulk Modulus (GPa) = 21.24381 46.11198 33.67790
# Shear Modulus (GPa) = 24.56908 41.39338 32.98123
#
# Velocity S-wave (km/s) = 3.25650 4.22690 3.77303
# Velocity P-wave (km/s) = 4.82796 6.61253 5.78942
#
# Compressibility (1/GPa) = 0.04707253
#
# Stress axis : x y z
#
# Youngs Moduli (GPa) = 67.47109 82.32741 76.03305
#
# Poissons Ratio (x) = -0.27286 -0.03694
# Poissons Ratio (y) = -0.22362 0.02462
# Poissons Ratio (z) = -0.03278 0.02666
#
# Static dielectric constant tensor:
#      x y z
#    x 1.868260 -0.011080 0.056520 
#    y -0.011080 1.862080 -0.006460 
#    z 0.056520 -0.006460 1.955920 
# 
# From -- ./inp_files/77955.got.cif
#   From: 2010.05.17/outbox.cif.g08.bks.cpg/sg2_39_cif.got.tgz:77955.got - 2010.06.03 11:33:40.
