data_PCOD9028715
_publ_section_title
;
Structure prediction by ZEFSAII (Michael W. Deem and Ramdas Pophale) SiO2 
 PCOD9028715
Probable space group: P -1
;
_chemical_formula_sum "Si O2"
_cell_formula_units_Z 14
_cell_length_a 11.138858
_cell_length_b 17.546929
_cell_length_c 12.175359
_cell_angle_alpha 136.590702
_cell_angle_beta 24.797544
_cell_angle_gamma 141.807219
_cell_volume 616.347293
_symmetry_space_group_name_H-M "P -1"
_symmetry_group_IT_number 2
_symmetry_cell_setting 'triclinic'
loop_
_space_group_symop_operation_xyz
x,y,z
-x,-y,-z
loop_
_atom_site_type_symbol
_atom_site_label
_atom_site_fract_x
_atom_site_fract_y
_atom_site_fract_z
Si Si1 0.173374 0.217155 0.282449
Si Si2 0.584866 0.881905 0.224959
Si Si3 0.572674 0.118173 0.410700
Si Si4 0.584312 0.293936 0.431744
Si Si5 0.467144 0.501565 0.659227
Si Si6 0.915251 0.259135 0.917331
Si Si7 0.907007 0.070303 0.556983
O O1 0.400139 0.359739 0.265974
O O2 0.801868 0.184953 0.538778
O O3 0.158195 0.140720 0.325794
O O4 0.293010 0.176793 0.032483
O O5 0.628550 0.869558 0.305838
O O6 0.715679 0.028636 0.246328
O O7 0.746345 0.252383 0.351297
O O8 0.379221 0.033195 0.380877
O O9 0.663168 0.435585 0.488780
O O10 0.204801 0.238243 0.711273
O O11 0.652149 0.242701 0.207515
O O12 0.500000 0.500000 0.500000
O O13 0.101558 0.404108 0.884397
O O14 0.832342 0.172923 0.789284
O O15 0.000000 0.000000 0.500000
#
# Coordination Sequence:
#
# PCOD9028715 Si02
#       7
#     2   2   2   2   2   2   2
#     4  11  24  43  67  94 131 166 223 254 325 376
#     4  10  26  43  67  95 121 182 211 271 305 381
#     4  10  23  44  67  91 136 161 226 259 323 373
#     4  10  23  39  63  91 129 169 201 263 313 379
#     4  10  22  42  64  95 132 166 206 265 318 388
#     4  10  23  38  60  97 128 164 204 249 331 374
#     4  11  21  39  64 100 129 168 203 266 324 387
#
# _framework density 22.714466000000002
#
# number of rings (size 3 to 8) (size 9 to 14) (size 15 to 20)
#    0.857    0.857    2.857    0.000    4.000   12.000 
#    0.000    1.429    0.000    0.000    0.000    0.000 
#    0.000    0.000    0.000    0.000    0.000    0.000 
#
# Total GULP energy -78088.915754 kJ/mol
# GULP energy per Si atom -5577.779697 kJ/mol
# Density = 2.266277 g / cm^3
# Si number density = 22.714466 Si / 1000 Ang^3
#
#
#
# Elastic Constant Matrix: (Units=GPa)
#
#
# Indices 1 2 3 4 5 6 
#
# 1 105.0317 51.7915 31.5292 -4.3728 29.9443 0.9822
# 2 51.7915 155.7371 42.7946 4.1424 23.6860 -3.7990
# 3 31.5292 42.7946 126.0822 10.1676 23.7664 12.7045
# 4 -4.3728 4.1424 10.1676 25.0013 3.1755 13.9802
# 5 29.9443 23.6860 23.7664 3.1755 38.4607 -1.4648
# 6 0.9822 -3.7990 12.7045 13.9802 -1.4648 32.6019
#
#
#
# Elastic Compliance Matrix: (Units=1/GPa)
#
#
# Indices 1 2 3 4 5 6 
#
# 1 0.014435 -0.003423 -0.000854 0.006755 -0.009306 -0.003816
# 2 -0.003423 0.008370 -0.001873 -0.002741 -0.000994 0.002939
# 3 -0.000854 -0.001873 0.010106 -0.001262 -0.004467 -0.003790
# 4 0.006755 -0.002741 -0.001262 0.057156 -0.008459 -0.024920
# 5 -0.009306 -0.000994 -0.004467 -0.008459 0.037592 0.007222
# 6 -0.003816 0.002939 -0.003790 -0.024920 0.007222 0.043618
#
#
# Mechanical properties :
#
#
# Convention : Reuss Voigt Hill
#
# Bulk Modulus (GPa) = 48.51605 71.00909 59.76257
# Shear Modulus (GPa) = 26.25387 36.59515 31.42451
#
# Velocity S-wave (km/s) = 3.40343 4.01820 3.72352
# Velocity P-wave (km/s) = 6.07041 7.27031 6.69728
#
# Compressibility (1/GPa) = 0.02061174
#
# Stress axis : x y z
#
# Youngs Moduli (GPa) = 69.27422 119.47646 98.94914
#
# Poissons Ratio (x) = 0.40901 0.08450
# Poissons Ratio (y) = 0.23715 0.18529
# Poissons Ratio (z) = 0.05916 0.22373
#
# Static dielectric constant tensor:
#      x y z
#    x 1.950900 -0.058310 -0.100880 
#    y -0.058310 1.863070 -0.001220 
#    z -0.100880 -0.001220 1.889960 
# 
# From -- ./inp_files/436848.got.cif
#   From: 2010.05.17/outbox.cif.g08.bks.cpg/sg2_219_cif.got.tgz:436848.got - 2010.06.03 11:33:40.
