data_PCOD9028995
_publ_section_title
;
Structure prediction by ZEFSAII (Michael W. Deem and Ramdas Pophale) SiO2 
 PCOD9028995
Probable space group: P -1
;
_chemical_formula_sum "Si O2"
_cell_formula_units_Z 16
_cell_length_a 12.712013
_cell_length_b 12.223751
_cell_length_c 8.720641
_cell_angle_alpha 127.240437
_cell_angle_beta 60.522172
_cell_angle_gamma 84.765810
_cell_volume 777.228602
_symmetry_space_group_name_H-M "P -1"
_symmetry_group_IT_number 2
_symmetry_cell_setting 'triclinic'
loop_
_space_group_symop_operation_xyz
x,y,z
-x,-y,-z
loop_
_atom_site_type_symbol
_atom_site_label
_atom_site_fract_x
_atom_site_fract_y
_atom_site_fract_z
Si Si1 0.532627 0.980812 0.208330
Si Si2 0.278873 0.500042 0.530166
Si Si3 0.701107 0.747844 0.169994
Si Si4 0.349345 0.518586 0.142737
Si Si5 0.849974 0.170608 0.910263
Si Si6 0.947060 0.202199 0.541176
Si Si7 0.019012 0.466249 0.640644
Si Si8 0.565017 0.181518 0.103507
O O1 0.388147 0.129029 0.522942
O O2 0.592615 0.060373 0.121220
O O3 0.649603 0.862259 0.151801
O O4 0.486872 0.880002 0.052837
O O5 0.319709 0.500835 0.325278
O O6 0.166005 0.445792 0.570950
O O7 0.427638 0.366422 0.396782
O O8 0.202154 0.681917 0.809056
O O9 0.651110 0.622654 0.072437
O O10 0.875639 0.627643 0.956135
O O11 0.212892 0.693573 0.329697
O O12 0.500000 0.500000 0.000000
O O13 0.927234 0.193828 0.730329
O O14 0.706637 0.179998 0.964539
O O15 0.957131 0.986496 0.744037
O O16 0.015917 0.306555 0.543619
O O17 0.000000 0.500000 0.500000
#
# Coordination Sequence:
#
# PCOD9028995 Si02
#       8
#     2   2   2   2   2   2   2   2
#     4  10  23  40  65 101 125 170 220 269 330 382
#     4  12  25  43  66 102 128 176 221 265 338 386
#     4  10  22  42  65  99 124 168 223 270 328 383
#     4  11  23  42  67  93 133 172 216 272 325 386
#     4  11  27  44  66  99 136 173 218 271 331 398
#     4  10  25  46  66  94 135 175 219 271 327 386
#     4  11  22  44  70  91 134 170 221 274 320 391
#     4  11  24  42  67  93 138 168 217 272 328 390
#
# _framework density 20.585963
#
# number of rings (size 3 to 8) (size 9 to 14) (size 15 to 20)
#    0.000    1.250    3.750    1.125   10.500    3.000 
#    2.250    0.000    0.000    0.000    0.000    0.000 
#    0.000    0.000    0.000    0.000    0.000    0.000 
#
# Total GULP energy -89511.864169 kJ/mol
# GULP energy per Si atom -5594.491511 kJ/mol
# Density = 2.053911 g / cm^3
# Si number density = 20.585963 Si / 1000 Ang^3
#
#
#
# Elastic Constant Matrix: (Units=GPa)
#
#
# Indices 1 2 3 4 5 6 
#
# 1 51.2137 35.4626 25.1003 7.4697 -19.3189 17.6956
# 2 35.4626 118.5031 47.0576 13.2894 -7.6127 14.5899
# 3 25.1003 47.0576 112.7242 24.1302 -2.6982 16.9217
# 4 7.4697 13.2894 24.1302 36.1185 -6.6534 -7.8150
# 5 -19.3189 -7.6127 -2.6982 -6.6534 29.2988 -1.5574
# 6 17.6956 14.5899 16.9217 -7.8150 -1.5574 25.6838
#
#
#
# Elastic Compliance Matrix: (Units=1/GPa)
#
#
# Indices 1 2 3 4 5 6 
#
# 1 0.044377 -0.007351 -0.000637 -0.007380 0.024194 -0.026758
# 2 -0.007351 0.011874 -0.003080 -0.001261 -0.002341 -0.000177
# 3 -0.000637 -0.003080 0.014218 -0.011112 -0.003005 -0.010743
# 4 -0.007380 -0.001261 -0.011112 0.043845 0.005163 0.026776
# 5 0.024194 -0.002341 -0.003005 0.005163 0.049906 -0.008762
# 6 -0.026758 -0.000177 -0.010743 0.026776 -0.008762 0.072165
#
#
# Mechanical properties :
#
#
# Convention : Reuss Voigt Hill
#
# Bulk Modulus (GPa) = 20.68934 55.29799 37.99367
# Shear Modulus (GPa) = 18.20622 29.87492 24.04057
#
# Velocity S-wave (km/s) = 2.97711 3.81363 3.42104
# Velocity P-wave (km/s) = 4.67864 6.80529 5.83959
#
# Compressibility (1/GPa) = 0.04833406
#
# Stress axis : x y z
#
# Youngs Moduli (GPa) = 22.53433 84.21685 70.33309
#
# Poissons Ratio (x) = 0.61905 0.04480
# Poissons Ratio (y) = 0.16564 0.21660
# Poissons Ratio (z) = 0.01435 0.25936
#
# Static dielectric constant tensor:
#      x y z
#    x 1.703050 -0.015030 -0.010220 
#    y -0.015030 1.730450 0.006720 
#    z -0.010220 0.006720 1.727850 
# 
# From -- ./inp_files/208956.got.cif
#   From: 2010.05.17/outbox.cif.g08.bks.cpg/sg2_105_cif.got.tgz:208956.got - 2010.06.03 11:33:40.
