data_PCOD9028734
_publ_section_title
;
Structure prediction by ZEFSAII (Michael W. Deem and Ramdas Pophale) SiO2 
 PCOD9028734
Probable space group: P -1
;
_chemical_formula_sum "Si O2"
_cell_formula_units_Z 12
_cell_length_a 6.105606
_cell_length_b 11.105941
_cell_length_c 8.164269
_cell_angle_alpha 68.381140
_cell_angle_beta 103.642369
_cell_angle_gamma 82.152155
_cell_volume 484.604905
_symmetry_space_group_name_H-M "P -1"
_symmetry_group_IT_number 2
_symmetry_cell_setting 'triclinic'
loop_
_space_group_symop_operation_xyz
x,y,z
-x,-y,-z
loop_
_atom_site_type_symbol
_atom_site_label
_atom_site_fract_x
_atom_site_fract_y
_atom_site_fract_z
Si Si1 0.603353 0.587988 0.161206
Si Si2 0.351877 0.245051 0.242828
Si Si3 0.610925 0.744132 0.397299
Si Si4 0.868256 0.386021 0.076610
Si Si5 0.766478 0.009588 0.356282
Si Si6 0.267759 0.936992 0.026865
O O1 0.693554 0.635331 0.322768
O O2 0.734762 0.440742 0.194295
O O3 0.626169 0.684664 0.962742
O O4 0.326297 0.605725 0.099540
O O5 0.400629 0.308440 0.394342
O O6 0.077138 0.256355 0.195064
O O7 0.528220 0.099812 0.346836
O O8 0.752085 0.859111 0.383996
O O9 0.367117 0.828212 0.236815
O O10 0.000000 0.500000 0.000000
O O11 0.772131 0.093645 0.151065
O O12 0.000000 0.000000 0.500000
O O13 0.500000 0.000000 0.000000
O O14 0.000000 0.000000 0.000000
#
# Coordination Sequence:
#
# PCOD9028734 Si02
#       6
#     2   2   2   2   2   2
#     4  10  22  46  70  99 131 176 233 286 354 417
#     4  11  23  42  68 100 137 182 227 284 347 412
#     4  11  24  41  67 103 138 185 233 280 353 423
#     4   9  22  46  72  95 133 174 225 296 354 414
#     4  11  24  43  65 101 146 183 231 283 346 425
#     4  10  22  42  64  96 141 188 236 285 343 421
#
# _framework density 24.762440999999999
#
# number of rings (size 3 to 8) (size 9 to 14) (size 15 to 20)
#    0.000    1.667    1.667    1.500    2.333    4.667 
#    9.000    7.500    0.000    0.000    0.000    0.000 
#    0.000    0.000    0.000    0.000    0.000    0.000 
#
# Total GULP energy -66803.748181 kJ/mol
# GULP energy per Si atom -5566.979015 kJ/mol
# Density = 2.470608 g / cm^3
# Si number density = 24.762441 Si / 1000 Ang^3
#
#
#
# Elastic Constant Matrix: (Units=GPa)
#
#
# Indices 1 2 3 4 5 6 
#
# 1 146.8541 68.2732 45.2801 0.1275 31.5036 -16.1595
# 2 68.2732 94.0032 18.8954 31.6716 18.4647 -9.8300
# 3 45.2801 18.8954 133.8746 25.6453 -3.5652 6.2203
# 4 0.1275 31.6716 25.6453 48.4009 -0.3622 9.7521
# 5 31.5036 18.4647 -3.5652 -0.3622 48.7094 -2.4806
# 6 -16.1595 -9.8300 6.2203 9.7521 -2.4806 45.8908
#
#
#
# Elastic Compliance Matrix: (Units=1/GPa)
#
#
# Indices 1 2 3 4 5 6 
#
# 1 0.016071 -0.013120 -0.005979 0.011484 -0.005727 0.000909
# 2 -0.013120 0.027199 0.004370 -0.021101 -0.001406 0.005022
# 3 -0.005979 0.004370 0.010571 -0.008285 0.002887 -0.000685
# 4 0.011484 -0.021101 -0.008285 0.040429 -0.000140 -0.007952
# 5 -0.005727 -0.001406 0.002887 -0.000140 0.024909 -0.001333
# 6 0.000909 0.005022 -0.000685 -0.007952 -0.001333 0.024897
#
#
# Mechanical properties :
#
#
# Convention : Reuss Voigt Hill
#
# Bulk Modulus (GPa) = 41.01048 71.06992 56.04020
# Shear Modulus (GPa) = 27.52367 44.75244 36.13805
#
# Velocity S-wave (km/s) = 3.33755 4.25581 3.82434
# Velocity P-wave (km/s) = 5.60801 7.27408 6.49469
#
# Compressibility (1/GPa) = 0.02438401
#
# Stress axis : x y z
#
# Youngs Moduli (GPa) = 62.22434 36.76589 94.59958
#
# Poissons Ratio (x) = 0.48236 0.56557
# Poissons Ratio (y) = 0.81637 -0.41339
# Poissons Ratio (z) = 0.37201 -0.16066
#
# Static dielectric constant tensor:
#      x y z
#    x 2.174810 0.042370 -0.070980 
#    y 0.042370 2.169090 -0.038790 
#    z -0.070980 -0.038790 1.988060 
# 
# From -- ./inp_files/130783.got.cif
#   From: 2010.05.17/outbox.cif.g08.bks.cpg/sg2_66_cif.got.tgz:130783.got - 2010.06.03 11:33:40.
