data_PCOD9028693
_publ_section_title
;
Structure prediction by ZEFSAII (Michael W. Deem and Ramdas Pophale) SiO2 
 PCOD9028693
Probable space group: P -1
;
_chemical_formula_sum "Si O2"
_cell_formula_units_Z 12
_cell_length_a 8.659084
_cell_length_b 5.082815
_cell_length_c 13.687428
_cell_angle_alpha 123.280991
_cell_angle_beta 77.979692
_cell_angle_gamma 87.467804
_cell_volume 483.234376
_symmetry_space_group_name_H-M "P -1"
_symmetry_group_IT_number 2
_symmetry_cell_setting 'triclinic'
loop_
_space_group_symop_operation_xyz
x,y,z
-x,-y,-z
loop_
_atom_site_type_symbol
_atom_site_label
_atom_site_fract_x
_atom_site_fract_y
_atom_site_fract_z
Si Si1 0.218195 0.959236 0.308564
Si Si2 0.657019 0.748952 0.395838
Si Si3 0.906984 0.860358 0.069027
Si Si4 0.640818 0.619949 0.948757
Si Si5 0.132470 0.812814 0.651154
Si Si6 0.413250 0.392550 0.264999
O O1 0.352867 0.161706 0.302893
O O2 0.038647 0.156372 0.373049
O O3 0.229954 0.699875 0.165282
O O4 0.277227 0.722293 0.342477
O O5 0.758405 0.540876 0.425732
O O6 0.578392 0.498436 0.291304
O O7 0.500000 0.000000 0.500000
O O8 0.770015 0.939393 0.359823
O O9 0.901836 0.073080 0.209407
O O10 0.730989 0.833074 0.047364
O O11 0.000000 0.500000 0.000000
O O12 0.000000 0.000000 0.000000
O O13 0.586560 0.747988 0.873361
O O14 0.500000 0.500000 0.000000
#
# Coordination Sequence:
#
# PCOD9028693 Si02
#       6
#     2   2   2   2   2   2
#     4  10  22  42  64  93 134 174 207 266 324 390
#     4  12  27  47  71  96 127 175 230 288 343 380
#     4  12  23  40  65 102 138 178 215 258 324 406
#     4  10  23  38  63  94 137 173 217 254 327 391
#     4  12  24  45  69  99 138 173 223 278 323 400
#     4  10  22  43  63  92 134 163 225 266 324 389
#
# _framework density 24.832673
#
# number of rings (size 3 to 8) (size 9 to 14) (size 15 to 20)
#    1.000    0.000    1.667    5.500    2.333    0.667 
#    0.000    5.000    0.000    0.000    0.000    0.000 
#    0.000    0.000    0.000    0.000    0.000    0.000 
#
# Total GULP energy -67231.975714 kJ/mol
# GULP energy per Si atom -5602.664643 kJ/mol
# Density = 2.477615 g / cm^3
# Si number density = 24.832673 Si / 1000 Ang^3
#
#
#
# Elastic Constant Matrix: (Units=GPa)
#
#
# Indices 1 2 3 4 5 6 
#
# 1 121.6106 12.4748 2.9907 2.4169 -9.2506 -5.6550
# 2 12.4748 114.4125 -0.8588 16.9084 -0.0153 16.3523
# 3 2.9907 -0.8588 86.4709 1.7139 -0.4690 -7.5915
# 4 2.4169 16.9084 1.7139 34.8124 -13.7585 -13.9508
# 5 -9.2506 -0.0153 -0.4690 -13.7585 33.5379 7.4339
# 6 -5.6550 16.3523 -7.5915 -13.9508 7.4339 51.3547
#
#
#
# Elastic Compliance Matrix: (Units=1/GPa)
#
#
# Indices 1 2 3 4 5 6 
#
# 1 0.008616 -0.001410 -0.000205 0.001776 0.002781 0.001447
# 2 -0.001410 0.010947 -0.000180 -0.008491 -0.002630 -0.005593
# 3 -0.000205 -0.000180 0.011728 0.000174 -0.000231 0.001849
# 4 0.001776 -0.008491 0.000174 0.043986 0.015741 0.012595
# 5 0.002781 -0.002630 -0.000231 0.015741 0.037032 0.000025
# 6 0.001447 -0.005593 0.001849 0.012595 0.000025 0.025104
#
#
# Mechanical properties :
#
#
# Convention : Reuss Voigt Hill
#
# Bulk Modulus (GPa) = 36.09939 39.07861 37.58900
# Shear Modulus (GPa) = 33.28115 44.46680 38.87398
#
# Velocity S-wave (km/s) = 3.66487 4.23621 3.96085
# Velocity P-wave (km/s) = 5.69886 6.30065 6.00729
#
# Compressibility (1/GPa) = 0.02770130
#
# Stress axis : x y z
#
# Youngs Moduli (GPa) = 116.06088 91.35282 85.26962
#
# Poissons Ratio (x) = 0.12880 0.01749
# Poissons Ratio (y) = 0.16363 0.01531
# Poissons Ratio (z) = 0.02380 0.01640
#
# Static dielectric constant tensor:
#      x y z
#    x 1.930100 -0.077180 -0.018630 
#    y -0.077180 1.872780 0.055670 
#    z -0.018630 0.055670 2.051060 
# 
# From -- ./inp_files/96761.got.cif
#   From: 2010.05.17/outbox.cif.g08.bks.cpg/sg2_49_cif.got.tgz:96761.got - 2010.06.03 11:33:40.
