data_PCOD9028787
_publ_section_title
;
Structure prediction by ZEFSAII (Michael W. Deem and Ramdas Pophale) SiO2 
 PCOD9028787
Probable space group: P -1
;
_chemical_formula_sum "Si O2"
_cell_formula_units_Z 16
_cell_length_a 6.291245
_cell_length_b 19.462226
_cell_length_c 8.608092
_cell_angle_alpha 102.523810
_cell_angle_beta 56.834806
_cell_angle_gamma 124.515361
_cell_volume 720.327569
_symmetry_space_group_name_H-M "P -1"
_symmetry_group_IT_number 2
_symmetry_cell_setting 'triclinic'
loop_
_space_group_symop_operation_xyz
x,y,z
-x,-y,-z
loop_
_atom_site_type_symbol
_atom_site_label
_atom_site_fract_x
_atom_site_fract_y
_atom_site_fract_z
Si Si1 0.165883 0.758197 0.577457
Si Si2 0.883758 0.410092 0.424539
Si Si3 0.302032 0.010653 0.811042
Si Si4 0.023602 0.580350 0.962492
Si Si5 0.338155 0.065783 0.465356
Si Si6 0.401080 0.277853 0.023862
Si Si7 0.730664 0.187914 0.787252
Si Si8 0.304876 0.336845 0.774575
O O1 0.079990 0.662400 0.552890
O O2 0.503350 0.832255 0.541652
O O3 0.150582 0.787119 0.424454
O O4 0.922216 0.754661 0.789485
O O5 0.011627 0.425559 0.209626
O O6 0.521189 0.362004 0.553974
O O7 0.000000 0.500000 0.500000
O O8 0.309382 0.037669 0.642436
O O9 0.582644 0.090635 0.824899
O O10 0.407209 0.945353 0.725039
O O11 0.000000 0.000000 0.000000
O O12 0.347461 0.660753 0.922085
O O13 0.000000 0.500000 0.000000
O O14 0.775975 0.594353 0.139886
O O15 0.000000 0.000000 0.500000
O O16 0.469937 0.207548 0.921319
O O17 0.449435 0.329509 0.871606
O O18 0.999005 0.247381 0.824912
#
# Coordination Sequence:
#
# PCOD9028787 Si02
#       8
#     2   2   2   2   2   2   2   2
#     4  11  23  43  65  94 133 170 215 266 320 386
#     4  12  26  42  68  95 126 174 216 262 325 381
#     4  10  22  42  65 100 133 169 220 271 322 392
#     4  11  26  43  65  93 127 168 214 274 325 376
#     4  10  24  42  66  97 134 175 215 269 330 388
#     4  11  22  42  64  94 128 169 214 262 323 383
#     4  10  23  40  67  96 131 171 212 266 321 382
#     4  11  24  42  66  94 127 169 215 261 322 389
#
# _framework density 22.212116999999999
#
# number of rings (size 3 to 8) (size 9 to 14) (size 15 to 20)
#    0.000    1.250    2.500    2.250    5.250    3.000 
#    2.250    0.000    0.000    0.000    0.000    0.000 
#    0.000    0.000    0.000    0.000    0.000    0.000 
#
# Total GULP energy -89325.808698 kJ/mol
# GULP energy per Si atom -5582.863044 kJ/mol
# Density = 2.216156 g / cm^3
# Si number density = 22.212117 Si / 1000 Ang^3
#
#
#
# Elastic Constant Matrix: (Units=GPa)
#
#
# Indices 1 2 3 4 5 6 
#
# 1 26.2254 0.5548 -14.3323 0.5968 -10.1618 6.0074
# 2 0.5548 101.9344 -8.7695 7.0574 -3.0062 -5.7239
# 3 -14.3323 -8.7695 81.1988 1.1126 -27.7410 -7.1813
# 4 0.5968 7.0574 1.1126 18.7495 0.0064 -2.1901
# 5 -10.1618 -3.0062 -27.7410 0.0064 29.6984 3.9028
# 6 6.0074 -5.7239 -7.1813 -2.1901 3.9028 23.1421
#
#
#
# Elastic Compliance Matrix: (Units=1/GPa)
#
#
# Indices 1 2 3 4 5 6 
#
# 1 0.094198 0.004434 0.040174 -0.009904 0.073389 -0.024203
# 2 0.004434 0.010721 0.004329 -0.004278 0.006470 0.001348
# 3 0.040174 0.004329 0.035980 -0.005873 0.048709 -0.006963
# 4 -0.009904 -0.004278 -0.005873 0.056401 -0.010207 0.006749
# 5 0.073389 0.006470 0.048709 -0.010207 0.107761 -0.021475
# 6 -0.024203 0.001348 -0.006963 0.006749 -0.021475 0.051927
#
#
# Mechanical properties :
#
#
# Convention : Reuss Voigt Hill
#
# Bulk Modulus (GPa) = 4.18808 18.25164 11.21986
# Shear Modulus (GPa) = 14.76212 29.77837 22.27024
#
# Velocity S-wave (km/s) = 2.58078 3.66544 3.16985
# Velocity P-wave (km/s) = 3.28179 5.11359 4.29645
#
# Compressibility (1/GPa) = 0.23877286
#
# Stress axis : x y z
#
# Youngs Moduli (GPa) = 10.61591 93.27304 27.79353
#
# Poissons Ratio (x) = -0.41361 -1.11657
# Poissons Ratio (y) = -0.04708 -0.12031
# Poissons Ratio (z) = -0.42648 -0.40376
#
# Static dielectric constant tensor:
#      x y z
#    x 1.833300 -0.028120 -0.021620 
#    y -0.028120 1.865430 -0.001570 
#    z -0.021620 -0.001570 1.797200 
# 
# From -- ./inp_files/46976.got.cif
#   From: 2010.05.17/outbox.cif.g08.bks.cpg/sg2_24_cif.got.tgz:46976.got - 2010.06.03 11:33:40.
