data_PCOD9028853
_publ_section_title
;
Structure prediction by ZEFSAII (Michael W. Deem and Ramdas Pophale) SiO2 
 PCOD9028853
Probable space group: P -1
;
_chemical_formula_sum "Si O2"
_cell_formula_units_Z 16
_cell_length_a 15.847181
_cell_length_b 7.962868
_cell_length_c 12.503749
_cell_angle_alpha 79.823917
_cell_angle_beta 45.346720
_cell_angle_gamma 47.634793
_cell_volume 684.319134
_symmetry_space_group_name_H-M "P -1"
_symmetry_group_IT_number 2
_symmetry_cell_setting 'triclinic'
loop_
_space_group_symop_operation_xyz
x,y,z
-x,-y,-z
loop_
_atom_site_type_symbol
_atom_site_label
_atom_site_fract_x
_atom_site_fract_y
_atom_site_fract_z
Si Si1 0.420572 0.771137 0.077581
Si Si2 0.966860 0.401708 0.136262
Si Si3 0.770627 0.517407 0.495738
Si Si4 0.791331 0.269836 0.205545
Si Si5 0.967409 0.734498 0.521077
Si Si6 0.632722 0.978937 0.116114
Si Si7 0.895740 0.016136 0.341674
Si Si8 0.689393 0.525598 0.063862
O O1 0.531359 0.697315 0.094213
O O2 0.198601 0.022329 0.277435
O O3 0.500000 0.500000 0.000000
O O4 0.438306 0.881645 0.952272
O O5 0.872132 0.541179 0.322721
O O6 0.829431 0.410594 0.210449
O O7 0.187129 0.107220 0.001226
O O8 0.000000 0.500000 0.000000
O O9 0.835736 0.261912 0.420849
O O10 0.843700 0.427876 0.563320
O O11 0.544103 0.804653 0.669974
O O12 0.765531 0.158718 0.333896
O O13 0.650344 0.453002 0.211078
O O14 0.000000 0.000000 0.000000
O O15 0.000000 0.500000 0.500000
O O16 0.902659 0.878181 0.448188
O O17 0.704897 0.703299 0.069934
O O18 0.112804 0.760750 0.132829
#
# Coordination Sequence:
#
# PCOD9028853 Si02
#       8
#     2   2   2   2   2   2   2   2
#     4  12  25  40  67 101 131 175 230 279 336 403
#     4  11  23  44  70  98 136 178 223 276 335 404
#     4  11  24  43  67  99 135 176 224 276 339 398
#     4   9  21  40  68  91 131 183 216 267 342 400
#     4  12  23  40  66  98 134 173 226 284 333 393
#     4  12  24  43  70 102 133 175 228 279 338 399
#     4  10  22  42  65  91 133 177 220 273 339 397
#     4  11  22  43  67  94 135 179 223 277 341 397
#
# _framework density 23.380904000000001
#
# number of rings (size 3 to 8) (size 9 to 14) (size 15 to 20)
#    0.000    1.000    2.500    4.500    3.500    0.500 
#    0.000    0.625    0.000    0.000    0.000    0.000 
#    0.000    0.000    0.000    0.000    0.000    0.000 
#
# Total GULP energy -89300.319365 kJ/mol
# GULP energy per Si atom -5581.269960 kJ/mol
# Density = 2.332769 g / cm^3
# Si number density = 23.380904 Si / 1000 Ang^3
#
#
#
# Elastic Constant Matrix: (Units=GPa)
#
#
# Indices 1 2 3 4 5 6 
#
# 1 23.9565 70.0029 26.9884 27.1734 12.2273 4.1515
# 2 70.0029 68.6244 13.3837 -76.4838 28.9344 -57.3509
# 3 26.9884 13.3837 125.7418 -18.1567 -4.3670 -23.6206
# 4 27.1734 -76.4838 -18.1567 30.9696 -5.7054 -2.0152
# 5 12.2273 28.9344 -4.3670 -5.7054 27.4389 4.2449
# 6 4.1515 -57.3509 -23.6206 -2.0152 4.2449 24.2286
#
#
#
# Elastic Compliance Matrix: (Units=1/GPa)
#
#
# Indices 1 2 3 4 5 6 
#
# 1 0.020548 0.009736 -0.001793 0.002221 -0.022639 0.021929
# 2 0.009736 0.002117 -0.003430 -0.006865 -0.008691 0.000951
# 3 -0.001793 -0.003430 0.008722 -0.000757 0.005703 -0.000370
# 4 0.002221 -0.006865 -0.000757 0.013938 0.011856 -0.018286
# 5 -0.022639 -0.008691 0.005703 0.011856 0.062330 -0.021067
# 6 0.021929 0.000951 -0.000370 -0.018286 -0.021067 0.041575
#
#
# Mechanical properties :
#
#
# Convention : Reuss Voigt Hill
#
# Bulk Modulus (GPa) = 24.74382 48.78587 36.76485
# Shear Modulus (GPa) = 32.53655 23.72393 28.13024
#
# Velocity S-wave (km/s) = 3.73444 3.18885 3.47238
# Velocity P-wave (km/s) = 5.40376 5.87106 5.64225
#
# Compressibility (1/GPa) = 0.04041413
#
# Stress axis : x y z
#
# Youngs Moduli (GPa) = 48.66699 472.41439 114.65342
#
# Poissons Ratio (x) = -4.59951 0.20555
# Poissons Ratio (y) = -0.47383 0.39321
# Poissons Ratio (z) = 0.08725 1.62018
#
# Static dielectric constant tensor:
#      x y z
#    x 1.941670 -0.020120 -0.002960 
#    y -0.020120 1.955020 -0.083610 
#    z -0.002960 -0.083610 1.908630 
# 
# From -- ./inp_files/283290.got.cif
#   From: 2010.05.17/outbox.cif.g08.bks.cpg/sg2_142_cif.got.tgz:283290.got - 2010.06.03 11:33:40.
