data_PCOD9028109
_publ_section_title
;
Structure prediction by ZEFSAII (Michael W. Deem and Ramdas Pophale) SiO2 
 PCOD9028109
Probable space group: P -1
;
_chemical_formula_sum "Si O2"
_cell_formula_units_Z 16
_cell_length_a 8.798125
_cell_length_b 9.993092
_cell_length_c 12.822773
_cell_angle_alpha 38.598970
_cell_angle_beta 67.426584
_cell_angle_gamma 73.778950
_cell_volume 649.034694
_symmetry_space_group_name_H-M "P -1"
_symmetry_group_IT_number 2
_symmetry_cell_setting 'triclinic'
loop_
_space_group_symop_operation_xyz
x,y,z
-x,-y,-z
loop_
_atom_site_type_symbol
_atom_site_label
_atom_site_fract_x
_atom_site_fract_y
_atom_site_fract_z
Si Si1 0.666008 0.660905 0.602339
Si Si2 0.517542 0.065673 0.681657
Si Si3 0.945730 0.994989 0.846947
Si Si4 0.684895 0.354767 0.953599
Si Si5 0.059518 0.318904 0.793246
Si Si6 0.153706 0.664685 0.871537
Si Si7 0.817202 0.003545 0.502832
Si Si8 0.267730 0.657169 0.410971
O O1 0.563995 0.831053 0.461278
O O2 0.590642 0.509156 0.806205
O O3 0.723230 0.498551 0.596369
O O4 0.403776 0.878529 0.875414
O O5 0.685947 0.973181 0.648670
O O6 0.562764 0.254796 0.636239
O O7 0.822337 0.132298 0.731176
O O8 0.044928 0.160259 0.795289
O O9 0.073075 0.869858 0.821431
O O10 0.860221 0.813746 0.053856
O O11 0.870742 0.351188 0.858724
O O12 0.791980 0.809335 0.546094
O O13 0.718105 0.419589 0.025910
O O14 0.158964 0.530183 0.603386
O O15 0.214630 0.767799 0.684463
O O16 0.000000 0.500000 0.000000
O O17 0.000000 0.000000 0.500000
#
# Coordination Sequence:
#
# PCOD9028109 Si02
#       8
#     2   2   2   2   2   2   2   2
#     4  12  27  50  78 108 156 203 248 312 385 452
#     4  12  30  50  71 113 160 199 246 313 385 452
#     4  10  22  41  71 109 145 188 249 317 361 431
#     4  11  26  47  74 106 155 198 244 309 387 440
#     4  10  23  41  74 110 146 193 254 307 372 437
#     4  11  24  44  73 112 150 191 258 314 367 445
#     4  12  27  51  81 110 149 198 261 315 372 454
#     4  12  26  44  79 111 150 204 258 303 375 456
#
# _framework density 24.651994999999999
#
# number of rings (size 3 to 8) (size 9 to 14) (size 15 to 20)
#    0.000    0.750    2.500    3.375   10.500    2.000 
#    2.250    0.000    0.000    0.000    0.000    0.000 
#    0.000    0.000    0.000    0.000    0.000    0.000 
#
# Total GULP energy -89602.209673 kJ/mol
# GULP energy per Si atom -5600.138105 kJ/mol
# Density = 2.459589 g / cm^3
# Si number density = 24.651995 Si / 1000 Ang^3
#
#
#
# Elastic Constant Matrix: (Units=GPa)
#
#
# Indices 1 2 3 4 5 6 
#
# 1 87.1686 41.3128 74.1668 3.1435 -8.8836 15.0519
# 2 41.3128 95.6213 29.0172 8.2401 -13.7340 19.8449
# 3 74.1668 29.0172 222.4986 1.7642 -7.8088 23.0307
# 4 3.1435 8.2401 1.7642 22.5248 0.2950 2.3036
# 5 -8.8836 -13.7340 -7.8088 0.2950 45.4968 0.4079
# 6 15.0519 19.8449 23.0307 2.3036 0.4079 30.8105
#
#
#
# Elastic Compliance Matrix: (Units=1/GPa)
#
#
# Indices 1 2 3 4 5 6 
#
# 1 0.019477 -0.006345 -0.005493 0.000158 0.000956 -0.001347
# 2 -0.006345 0.015264 0.001035 -0.004086 0.003638 -0.007248
# 3 -0.005493 0.001035 0.006498 0.000166 0.000380 -0.002858
# 4 0.000158 -0.004086 0.000166 0.045975 -0.001463 -0.000988
# 5 0.000956 0.003638 0.000380 -0.001463 0.023369 -0.003294
# 6 -0.001347 -0.007248 -0.002858 -0.000988 -0.003294 0.040036
#
#
# Mechanical properties :
#
#
# Convention : Reuss Voigt Hill
#
# Bulk Modulus (GPa) = 50.93581 77.14247 64.03914
# Shear Modulus (GPa) = 27.96863 37.15253 32.56058
#
# Velocity S-wave (km/s) = 3.37194 3.88632 3.63824
# Velocity P-wave (km/s) = 5.98889 7.17625 6.60929
#
# Compressibility (1/GPa) = 0.01963255
#
# Stress axis : x y z
#
# Youngs Moduli (GPa) = 51.34146 65.51328 153.88368
#
# Poissons Ratio (x) = 0.41568 0.84534
# Poissons Ratio (y) = 0.32576 -0.15921
# Poissons Ratio (z) = 0.28204 -0.06778
#
# Static dielectric constant tensor:
#      x y z
#    x 1.991060 -0.013040 0.038250 
#    y -0.013040 1.979840 0.021100 
#    z 0.038250 0.021100 2.000770 
# 
# From -- ./inp_files/416086.got.cif
#   From: 2010.05.17/outbox.cif.g08.bks.cpg/sg2_209_cif.got.tgz:416086.got - 2010.06.03 11:33:40.
