data_PCOD9028283
_publ_section_title
;
Structure prediction by ZEFSAII (Michael W. Deem and Ramdas Pophale) SiO2 
 PCOD9028283
Probable space group: P -1
;
_chemical_formula_sum "Si O2"
_cell_formula_units_Z 14
_cell_length_a 9.001271
_cell_length_b 8.669369
_cell_length_c 26.378445
_cell_angle_alpha 29.679195
_cell_angle_beta 48.304371
_cell_angle_gamma 68.925510
_cell_volume 614.177392
_symmetry_space_group_name_H-M "P -1"
_symmetry_group_IT_number 2
_symmetry_cell_setting 'triclinic'
loop_
_space_group_symop_operation_xyz
x,y,z
-x,-y,-z
loop_
_atom_site_type_symbol
_atom_site_label
_atom_site_fract_x
_atom_site_fract_y
_atom_site_fract_z
Si Si1 0.636157 0.895894 0.787020
Si Si2 0.021370 0.892175 0.894727
Si Si3 0.392548 0.101768 0.608850
Si Si4 0.528636 0.679515 0.104320
Si Si5 0.283551 0.190149 0.391106
Si Si6 0.417041 0.454003 0.398659
Si Si7 0.881439 0.754450 0.859979
O O1 0.607100 0.664484 0.808710
O O2 0.821901 0.918093 0.779085
O O3 0.692190 0.298642 0.642812
O O4 0.373258 0.641794 0.950356
O O5 0.969375 0.006903 0.819270
O O6 0.289161 0.225583 0.757452
O O7 0.000000 0.500000 0.000000
O O8 0.807680 0.815307 0.001154
O O9 0.500000 0.500000 0.500000
O O10 0.356905 0.169701 0.539394
O O11 0.592758 0.018601 0.594691
O O12 0.119845 0.770491 0.786419
O O13 0.425916 0.568275 0.215890
O O14 0.500000 0.000000 0.000000
O O15 0.334170 0.255018 0.420366
O O16 0.000000 0.000000 0.500000
#
# Coordination Sequence:
#
# PCOD9028283 Si02
#       7
#     2   2   2   2   2   2   2
#     4  10  24  44  72 108 136 182 234 292 350 414
#     4  11  21  44  73 105 139 174 238 292 348 415
#     4  12  26  47  75 101 139 192 234 285 354 420
#     4  11  26  43  74 104 141 183 233 291 350 410
#     4  12  32  49  65 105 150 185 235 293 349 416
#     4  12  26  44  75 100 144 189 231 287 351 415
#     4  10  22  41  74 102 142 172 242 284 348 414
#
# _framework density 22.794716999999999
#
# number of rings (size 3 to 8) (size 9 to 14) (size 15 to 20)
#    0.000    0.857    4.286    2.143   12.000    2.286 
#    0.000    0.000    0.000    0.000    0.000    0.000 
#    0.000    0.000    0.000    0.000    0.000    0.000 
#
# Total GULP energy -78314.095260 kJ/mol
# GULP energy per Si atom -5593.863947 kJ/mol
# Density = 2.274283 g / cm^3
# Si number density = 22.794717 Si / 1000 Ang^3
#
#
#
# Elastic Constant Matrix: (Units=GPa)
#
#
# Indices 1 2 3 4 5 6 
#
# 1 137.1216 27.0058 32.2080 18.1664 -5.4295 0.2579
# 2 27.0058 69.5544 16.5002 10.5274 -10.6062 -12.7072
# 3 32.2080 16.5002 52.7130 30.3892 -3.1804 -10.1338
# 4 18.1664 10.5274 30.3892 38.9825 -4.4409 4.8077
# 5 -5.4295 -10.6062 -3.1804 -4.4409 49.9313 4.3859
# 6 0.2579 -12.7072 -10.1338 4.8077 4.3859 54.9941
#
#
#
# Elastic Compliance Matrix: (Units=1/GPa)
#
#
# Indices 1 2 3 4 5 6 
#
# 1 0.009006 -0.002609 -0.005736 0.001244 0.000332 -0.001837
# 2 -0.002609 0.017209 -0.001557 -0.002361 0.002738 0.003690
# 3 -0.005736 -0.001557 0.043604 -0.032446 -0.002002 0.010698
# 4 0.001244 -0.002361 -0.032446 0.052782 0.003263 -0.011405
# 5 0.000332 0.002738 -0.002002 0.003263 0.020957 -0.001694
# 6 -0.001837 0.003690 0.010698 -0.011405 -0.001694 0.022148
#
#
# Mechanical properties :
#
#
# Convention : Reuss Voigt Hill
#
# Bulk Modulus (GPa) = 19.99455 45.64634 32.82044
# Shear Modulus (GPa) = 24.73026 41.02658 32.87842
#
# Velocity S-wave (km/s) = 3.29737 4.24704 3.80198
# Velocity P-wave (km/s) = 4.82571 6.64216 5.80542
#
# Compressibility (1/GPa) = 0.05001363
#
# Stress axis : x y z
#
# Youngs Moduli (GPa) = 111.03915 58.11046 22.93379
#
# Poissons Ratio (x) = 0.15163 0.13155
# Poissons Ratio (y) = 0.28973 0.03570
# Poissons Ratio (z) = 0.63694 0.09047
#
# Static dielectric constant tensor:
#      x y z
#    x 1.867790 -0.013310 0.015540 
#    y -0.013310 1.845120 0.013900 
#    z 0.015540 0.013900 1.897480 
# 
# From -- ./inp_files/616587.got.cif
#   From: 2010.05.17/outbox.cif.g08.bks.cpg/sg2_309_cif.got.tgz:616587.got - 2010.06.03 11:33:40.
