data_PCOD9028842
_publ_section_title
;
Structure prediction by ZEFSAII (Michael W. Deem and Ramdas Pophale) SiO2 
 PCOD9028842
Probable space group: P -1
;
_chemical_formula_sum "Si O2"
_cell_formula_units_Z 16
_cell_length_a 23.201257
_cell_length_b 11.385316
_cell_length_c 5.226230
_cell_angle_alpha 115.743015
_cell_angle_beta 60.132042
_cell_angle_gamma 149.692173
_cell_volume 604.110813
_symmetry_space_group_name_H-M "P -1"
_symmetry_group_IT_number 2
_symmetry_cell_setting 'triclinic'
loop_
_space_group_symop_operation_xyz
x,y,z
-x,-y,-z
loop_
_atom_site_type_symbol
_atom_site_label
_atom_site_fract_x
_atom_site_fract_y
_atom_site_fract_z
Si Si1 0.551532 0.180079 0.277575
Si Si2 0.818039 0.270585 0.781853
Si Si3 0.004878 0.883022 0.197259
Si Si4 0.754574 0.630062 0.931614
Si Si5 0.760996 0.416322 0.328591
Si Si6 0.409875 0.424788 0.930746
Si Si7 0.977141 0.341899 0.707935
Si Si8 0.605948 0.859287 0.522610
O O1 0.625712 0.221021 0.360408
O O2 0.455658 0.134372 0.516852
O O3 0.659481 0.442558 0.177207
O O4 0.500000 0.000000 0.000000
O O5 0.853977 0.183012 0.696439
O O6 0.925794 0.498396 0.582916
O O7 0.702121 0.087806 0.694799
O O8 0.790229 0.312112 0.132341
O O9 0.022538 0.786870 0.248986
O O10 0.875148 0.658330 0.144352
O O11 0.126236 0.104766 0.986589
O O12 0.000000 0.000000 0.500000
O O13 0.775215 0.522165 0.653912
O O14 0.686925 0.616957 0.864759
O O15 0.502236 0.636703 0.725255
O O16 0.340559 0.184562 0.755615
O O17 0.500000 0.500000 0.000000
O O18 0.000000 0.500000 0.000000
#
# Coordination Sequence:
#
# PCOD9028842 Si02
#       8
#     2   2   2   2   2   2   2   2
#     4  11  23  43  65  97 138 173 226 281 335 408
#     4  11  25  42  70  98 133 180 222 282 347 396
#     4  10  24  45  66 100 136 177 229 280 340 409
#     4  10  25  43  64  99 135 175 229 281 339 404
#     4  11  23  43  67  99 131 180 223 275 347 398
#     4  10  22  42  65  90 133 175 221 274 341 395
#     4  11  25  45  67  99 137 173 231 276 336 413
#     4  10  23  41  62  98 128 172 227 271 332 409
#
# _framework density 26.485209000000001
#
# number of rings (size 3 to 8) (size 9 to 14) (size 15 to 20)
#    0.000    1.500    2.500    0.750    7.000    1.000 
#    9.000    0.000    0.000    0.000    0.000    0.000 
#    0.000    0.000    0.000    0.000    0.000    0.000 
#
# Total GULP energy -89418.012695 kJ/mol
# GULP energy per Si atom -5588.625793 kJ/mol
# Density = 2.642493 g / cm^3
# Si number density = 26.485209 Si / 1000 Ang^3
#
#
#
# Elastic Constant Matrix: (Units=GPa)
#
#
# Indices 1 2 3 4 5 6 
#
# 1 159.0149 37.2234 19.5824 -4.9555 -24.0565 -16.5595
# 2 37.2234 116.5218 0.2800 -14.3644 -9.8533 9.4662
# 3 19.5824 0.2800 79.3334 -1.2087 -29.0046 -9.1418
# 4 -4.9555 -14.3644 -1.2087 31.5610 -3.7352 4.5316
# 5 -24.0565 -9.8533 -29.0046 -3.7352 41.8279 1.1192
# 6 -16.5595 9.4662 -9.1418 4.5316 1.1192 54.1709
#
#
#
# Elastic Compliance Matrix: (Units=1/GPa)
#
#
# Indices 1 2 3 4 5 6 
#
# 1 0.007699 -0.002341 -0.000253 0.000188 0.003648 0.002629
# 2 -0.002341 0.010392 0.001195 0.005102 0.002461 -0.002808
# 3 -0.000253 0.001195 0.017493 0.002325 0.012414 0.002215
# 4 0.000188 0.005102 0.002325 0.035363 0.006175 -0.003528
# 5 0.003648 0.002461 0.012414 0.006175 0.035704 0.001526
# 6 0.002629 -0.002808 0.002215 -0.003528 0.001526 0.020392
#
#
# Mechanical properties :
#
#
# Convention : Reuss Voigt Hill
#
# Bulk Modulus (GPa) = 30.49952 52.11575 41.30764
# Shear Modulus (GPa) = 35.51915 45.36424 40.44170
#
# Velocity S-wave (km/s) = 3.66607 4.14311 3.91187
# Velocity P-wave (km/s) = 5.42778 6.52741 6.00283
#
# Compressibility (1/GPa) = 0.03278740
#
# Stress axis : x y z
#
# Youngs Moduli (GPa) = 129.88178 96.22541 57.16694
#
# Poissons Ratio (x) = 0.22525 0.01445
# Poissons Ratio (y) = 0.30404 -0.06833
# Poissons Ratio (z) = 0.03283 -0.11501
#
# Static dielectric constant tensor:
#      x y z
#    x 2.174050 0.015570 0.036120 
#    y 0.015570 2.151390 -0.030200 
#    z 0.036120 -0.030200 2.121100 
# 
# From -- ./inp_files/113215.got.cif
#   From: 2010.05.17/outbox.cif.g08.bks.cpg/sg2_57_cif.got.tgz:113215.got - 2010.06.03 11:33:40.
