data_PCOD9028492
_publ_section_title
;
Structure prediction by ZEFSAII (Michael W. Deem and Ramdas Pophale) SiO2 
 PCOD9028492
Probable space group: P -1
;
_chemical_formula_sum "Si O2"
_cell_formula_units_Z 12
_cell_length_a 6.855646
_cell_length_b 6.054414
_cell_length_c 13.617833
_cell_angle_alpha 102.443646
_cell_angle_beta 89.776522
_cell_angle_gamma 109.839506
_cell_volume 517.719037
_symmetry_space_group_name_H-M "P -1"
_symmetry_group_IT_number 2
_symmetry_cell_setting 'triclinic'
loop_
_space_group_symop_operation_xyz
x,y,z
-x,-y,-z
loop_
_atom_site_type_symbol
_atom_site_label
_atom_site_fract_x
_atom_site_fract_y
_atom_site_fract_z
Si Si1 0.346857 0.641469 0.040412
Si Si2 0.280346 0.658845 0.399806
Si Si3 0.942759 0.850664 0.709925
Si Si4 0.412690 0.959185 0.248642
Si Si5 0.048561 0.786527 0.920973
Si Si6 0.718122 0.963068 0.406382
O O1 0.456177 0.852509 0.137452
O O2 0.145453 0.453034 0.075593
O O3 0.500000 0.500000 0.000000
O O4 0.252094 0.745514 0.960380
O O5 0.130883 0.387352 0.380512
O O6 0.274333 0.733211 0.293799
O O7 0.227678 0.849241 0.487185
O O8 0.531618 0.723411 0.419226
O O9 0.054992 0.832699 0.809333
O O10 0.090747 0.056828 0.657642
O O11 0.730279 0.882287 0.748285
O O12 0.603707 0.070800 0.333007
O O13 0.000000 0.000000 0.000000
#
# Coordination Sequence:
#
# PCOD9028492 Si02
#       6
#     2   2   2   2   2   2
#     4  11  25  43  66  90 130 173 211 270 328 376
#     4   9  21  46  58  97 136 157 219 267 304 398
#     4  12  22  41  69  92 131 172 207 268 330 373
#     4  10  22  42  62  97 126 163 224 259 314 401
#     4  11  24  41  63  97 127 163 222 267 315 397
#     4   9  22  42  64  94 131 167 213 260 324 383
#
# _framework density 23.178595999999999
#
# number of rings (size 3 to 8) (size 9 to 14) (size 15 to 20)
#    1.000    0.667    3.333    0.500    2.333    3.333 
#    3.000    0.000    0.000    0.000    0.000    0.000 
#    0.000    0.000    0.000    0.000    0.000    0.000 
#
# Total GULP energy -66946.423721 kJ/mol
# GULP energy per Si atom -5578.868643 kJ/mol
# Density = 2.312584 g / cm^3
# Si number density = 23.178596 Si / 1000 Ang^3
#
#
#
# Elastic Constant Matrix: (Units=GPa)
#
#
# Indices 1 2 3 4 5 6 
#
# 1 99.4666 12.2516 61.2193 -6.4874 0.6861 -20.9086
# 2 12.2516 32.3926 16.6487 3.2839 4.8397 8.8929
# 3 61.2193 16.6487 127.7709 18.3124 6.1231 -3.5416
# 4 -6.4874 3.2839 18.3124 25.0049 2.5902 -5.9768
# 5 0.6861 4.8397 6.1231 2.5902 35.4791 -9.9565
# 6 -20.9086 8.8929 -3.5416 -5.9768 -9.9565 39.5811
#
#
#
# Elastic Compliance Matrix: (Units=1/GPa)
#
#
# Indices 1 2 3 4 5 6 
#
# 1 0.025519 -0.011471 -0.013714 0.022193 0.007446 0.020055
# 2 -0.011471 0.042803 0.001827 -0.013675 -0.010616 -0.020249
# 3 -0.013714 0.001827 0.016661 -0.017932 -0.004347 -0.009965
# 4 0.022193 -0.013675 -0.017932 0.065920 0.006686 0.024827
# 5 0.007446 -0.010616 -0.004347 0.006686 0.034107 0.015518
# 6 0.020055 -0.020249 -0.009965 0.024827 0.015518 0.047169
#
#
# Mechanical properties :
#
#
# Convention : Reuss Voigt Hill
#
# Bulk Modulus (GPa) = 26.13325 48.87437 37.50381
# Shear Modulus (GPa) = 17.14375 31.31372 24.22873
#
# Velocity S-wave (km/s) = 2.72258 3.67955 3.23663
# Velocity P-wave (km/s) = 4.60244 6.25970 5.49392
#
# Compressibility (1/GPa) = 0.03826542
#
# Stress axis : x y z
#
# Youngs Moduli (GPa) = 39.18650 23.36302 60.01905
#
# Poissons Ratio (x) = 0.26801 0.82310
# Poissons Ratio (y) = 0.44953 -0.10963
# Poissons Ratio (z) = 0.53740 -0.04268
#
# Static dielectric constant tensor:
#      x y z
#    x 1.936130 0.005010 0.013880 
#    y 0.005010 1.912100 -0.011110 
#    z 0.013880 -0.011110 1.813190 
# 
# From -- ./inp_files/316432.got.cif
#   From: 2010.05.17/outbox.cif.g08.bks.cpg/sg2_159_cif.got.tgz:316432.got - 2010.06.03 11:33:40.
