data_PCOD9028942
_publ_section_title
;
Structure prediction by ZEFSAII (Michael W. Deem and Ramdas Pophale) SiO2 
 PCOD9028942
Probable space group: P -1
;
_chemical_formula_sum "Si O2"
_cell_formula_units_Z 8
_cell_length_a 9.658574
_cell_length_b 13.483709
_cell_length_c 6.832038
_cell_angle_alpha 46.038544
_cell_angle_beta 128.337098
_cell_angle_gamma 148.058015
_cell_volume 337.698685
_symmetry_space_group_name_H-M "P -1"
_symmetry_group_IT_number 2
_symmetry_cell_setting 'triclinic'
loop_
_space_group_symop_operation_xyz
x,y,z
-x,-y,-z
loop_
_atom_site_type_symbol
_atom_site_label
_atom_site_fract_x
_atom_site_fract_y
_atom_site_fract_z
Si Si1 0.462334 0.891973 0.812316
Si Si2 0.869534 0.280362 0.909772
Si Si3 0.343332 0.557142 0.659349
Si Si4 0.292702 0.222871 0.990804
O O1 0.518027 0.766428 0.982844
O O2 0.500000 0.000000 0.500000
O O3 0.683744 0.069040 0.916197
O O4 0.185920 0.765940 0.845793
O O5 0.762672 0.371747 0.642205
O O6 0.150001 0.427314 0.855502
O O7 0.622235 0.745518 0.749181
O O8 0.326317 0.405126 0.735573
O O9 0.000000 0.000000 0.000000
#
# Coordination Sequence:
#
# PCOD9028942 Si02
#       4
#     2   2   2   2
#     4  11  22  42  66  93 128 171 208 258 320 372
#     4  10  22  42  67  94 126 164 216 262 307 379
#     4  10  22  42  65  96 127 162 215 262 309 379
#     4  11  22  40  65  93 133 165 206 261 319 375
#
# _framework density 23.689758999999999
#
# number of rings (size 3 to 8) (size 9 to 14) (size 15 to 20)
#    0.000    1.500    5.000    0.000    0.000    2.000 
#    0.000    7.500    0.000    0.000    0.000    0.000 
#    0.000    0.000    0.000    0.000    0.000    0.000 
#
# Total GULP energy -44735.645078 kJ/mol
# GULP energy per Si atom -5591.955635 kJ/mol
# Density = 2.363584 g / cm^3
# Si number density = 23.689759 Si / 1000 Ang^3
#
#
#
# Elastic Constant Matrix: (Units=GPa)
#
#
# Indices 1 2 3 4 5 6 
#
# 1 129.4992 41.3911 49.7280 -14.8650 5.1223 -47.3191
# 2 41.3911 135.2104 6.4199 1.7081 1.7651 -26.7503
# 3 49.7280 6.4199 67.4917 -6.9559 -17.2942 -9.7552
# 4 -14.8650 1.7081 -6.9559 20.8144 -1.5608 9.9431
# 5 5.1223 1.7651 -17.2942 -1.5608 45.9093 -15.0736
# 6 -47.3191 -26.7503 -9.7552 9.9431 -15.0736 49.6692
#
#
#
# Elastic Compliance Matrix: (Units=1/GPa)
#
#
# Indices 1 2 3 4 5 6 
#
# 1 0.017688 -0.002515 -0.011256 0.003178 -0.002061 0.012025
# 2 -0.002515 0.008905 0.001644 -0.003760 0.001745 0.004005
# 3 -0.011256 0.001644 0.025454 0.002140 0.010135 -0.002191
# 4 0.003178 -0.003760 0.002140 0.056075 -0.000795 -0.010043
# 5 -0.002061 0.001745 0.010135 -0.000795 0.028995 0.009925
# 6 0.012025 0.004005 -0.002191 -0.010043 0.009925 0.038338
#
#
# Mechanical properties :
#
#
# Convention : Reuss Voigt Hill
#
# Bulk Modulus (GPa) = 35.97804 58.58656 47.28230
# Shear Modulus (GPa) = 23.92650 38.92274 31.42462
#
# Velocity S-wave (km/s) = 3.18149 4.05782 3.64607
# Velocity P-wave (km/s) = 5.35873 6.83659 6.14227
#
# Compressibility (1/GPa) = 0.02779473
#
# Stress axis : x y z
#
# Youngs Moduli (GPa) = 56.53449 112.29989 39.28585
#
# Poissons Ratio (x) = 0.28239 0.44220
# Poissons Ratio (y) = 0.14216 -0.06460
# Poissons Ratio (z) = 0.63636 -0.18466
#
# Static dielectric constant tensor:
#      x y z
#    x 1.905150 0.031840 -0.008710 
#    y 0.031840 1.953820 0.013800 
#    z -0.008710 0.013800 1.920900 
# 
# From -- ./inp_files/15347.got.cif
#   From: 2010.05.17/outbox.cif.g08.bks.cpg/sg2_8_cif.got.tgz:15347.got - 2010.06.03 11:33:40.
