data_PCOD9028622
_publ_section_title
;
Structure prediction by ZEFSAII (Michael W. Deem and Ramdas Pophale) SiO2 
 PCOD9028622
Probable space group: P -1
;
_chemical_formula_sum "Si O2"
_cell_formula_units_Z 16
_cell_length_a 12.341349
_cell_length_b 15.717519
_cell_length_c 9.019264
_cell_angle_alpha 50.542163
_cell_angle_beta 76.206975
_cell_angle_gamma 119.710095
_cell_volume 662.667873
_symmetry_space_group_name_H-M "P -1"
_symmetry_group_IT_number 2
_symmetry_cell_setting 'triclinic'
loop_
_space_group_symop_operation_xyz
x,y,z
-x,-y,-z
loop_
_atom_site_type_symbol
_atom_site_label
_atom_site_fract_x
_atom_site_fract_y
_atom_site_fract_z
Si Si1 0.235479 0.559826 0.738394
Si Si2 0.128515 0.410619 0.271752
Si Si3 0.594060 0.550685 0.754688
Si Si4 0.270063 0.106133 0.826474
Si Si5 0.713858 0.737531 0.085012
Si Si6 0.516742 0.895021 0.687245
Si Si7 0.681826 0.123065 0.685981
Si Si8 0.936197 0.154684 0.102839
O O1 0.488309 0.743375 0.421343
O O2 0.220474 0.678210 0.626612
O O3 0.163153 0.440586 0.048118
O O4 0.084505 0.385013 0.848897
O O5 0.223710 0.384952 0.346643
O O6 0.875387 0.220710 0.591569
O O7 0.281529 0.638509 0.029934
O O8 0.697614 0.747679 0.429141
O O9 0.392867 0.332778 0.961884
O O10 0.500000 0.500000 0.000000
O O11 0.219092 0.101004 0.016545
O O12 0.114770 0.906832 0.985334
O O13 0.500000 0.500000 0.500000
O O14 0.915884 0.823747 0.917979
O O15 0.500000 0.000000 0.500000
O O16 0.584731 0.972435 0.748149
O O17 0.700697 0.976177 0.455824
O O18 0.500000 0.000000 0.000000
#
# Coordination Sequence:
#
# PCOD9028622 Si02
#       8
#     2   2   2   2   2   2   2   2
#     4  12  22  46  78 105 146 193 250 298 360 445
#     4  12  24  48  76 106 147 195 242 307 357 441
#     4  11  21  43  68 104 150 187 243 295 353 429
#     4  11  23  44  69 110 149 190 240 297 369 429
#     4  10  22  42  64 103 153 190 233 295 361 424
#     4  12  24  46  76 106 137 195 255 295 363 442
#     4  12  29  50  73 111 146 185 248 317 374 426
#     4  12  21  41  77 106 138 202 247 283 361 447
#
# _framework density 24.144825000000001
#
# number of rings (size 3 to 8) (size 9 to 14) (size 15 to 20)
#    0.000    0.500    7.500    1.500    0.000    1.500 
#   13.500    1.875    0.000    0.000    0.000    0.000 
#    0.000    0.000    0.000    0.000    0.000    0.000 
#
# Total GULP energy -89713.321932 kJ/mol
# GULP energy per Si atom -5607.082621 kJ/mol
# Density = 2.408987 g / cm^3
# Si number density = 24.144825 Si / 1000 Ang^3
#
#
#
# Elastic Constant Matrix: (Units=GPa)
#
#
# Indices 1 2 3 4 5 6 
#
# 1 109.1705 40.7241 28.8925 7.9740 -27.3831 9.4707
# 2 40.7241 248.3596 58.8566 -8.2908 -17.1796 12.2183
# 3 28.8925 58.8566 85.2959 5.6876 -32.6492 5.5974
# 4 7.9740 -8.2908 5.6876 47.1817 -6.0705 -4.3147
# 5 -27.3831 -17.1796 -32.6492 -6.0705 48.9700 -5.7166
# 6 9.4707 12.2183 5.5974 -4.3147 -5.7166 39.4717
#
#
#
# Elastic Compliance Matrix: (Units=1/GPa)
#
#
# Indices 1 2 3 4 5 6 
#
# 1 0.011366 -0.001290 -0.000854 -0.001560 0.004947 -0.001661
# 2 -0.001290 0.005084 -0.003589 0.001309 -0.001261 -0.000795
# 3 -0.000854 -0.003589 0.018596 -0.001373 0.010497 0.000049
# 4 -0.001560 0.001309 -0.001373 0.022344 0.001776 0.002863
# 5 0.004947 -0.001261 0.010497 0.001776 0.030230 0.002287
# 6 -0.001661 -0.000795 0.000049 0.002863 0.002287 0.026616
#
#
# Mechanical properties :
#
#
# Convention : Reuss Voigt Hill
#
# Bulk Modulus (GPa) = 42.40631 77.75249 60.07940
# Shear Modulus (GPa) = 37.43583 48.08152 42.75868
#
# Velocity S-wave (km/s) = 3.94187 4.46733 4.21280
# Velocity P-wave (km/s) = 6.19026 7.67345 6.97141
#
# Compressibility (1/GPa) = 0.02358139
#
# Stress axis : x y z
#
# Youngs Moduli (GPa) = 87.98349 196.69561 53.77469
#
# Poissons Ratio (x) = 0.25365 0.04590
# Poissons Ratio (y) = 0.11346 0.19300
# Poissons Ratio (z) = 0.07510 0.70596
#
# Static dielectric constant tensor:
#      x y z
#    x 1.927100 0.000680 0.038770 
#    y 0.000680 1.890340 0.011030 
#    z 0.038770 0.011030 1.941410 
# 
# From -- ./inp_files/272141.got.cif
#   From: 2010.05.17/outbox.cif.g08.bks.cpg/sg2_137_cif.got.tgz:272141.got - 2010.06.03 11:33:40.
