data_PCOD9028351
_publ_section_title
;
Structure prediction by ZEFSAII (Michael W. Deem and Ramdas Pophale) SiO2 
 PCOD9028351
Probable space group: P -1
;
_chemical_formula_sum "Si O2"
_cell_formula_units_Z 15
_cell_length_a 8.273964
_cell_length_b 13.311793
_cell_length_c 9.336920
_cell_angle_alpha 112.651301
_cell_angle_beta 100.497447
_cell_angle_gamma 39.588354
_cell_volume 593.209685
_symmetry_space_group_name_H-M "P -1"
_symmetry_group_IT_number 2
_symmetry_cell_setting 'triclinic'
loop_
_space_group_symop_operation_xyz
x,y,z
-x,-y,-z
loop_
_atom_site_type_symbol
_atom_site_label
_atom_site_fract_x
_atom_site_fract_y
_atom_site_fract_z
Si Si1 0.159752 0.815744 0.980647
Si Si2 0.886409 0.528417 0.246482
Si Si3 0.421675 0.087058 0.876995
Si Si4 0.001856 0.142137 0.715073
Si Si5 0.048197 0.251292 0.291248
Si Si6 0.285406 0.412785 0.061451
Si Si7 0.500000 0.500000 0.500000
Si Si8 0.606217 0.245807 0.521951
O O1 0.022349 0.781140 0.879076
O O2 0.457588 0.655053 0.898650
O O3 0.141304 0.831312 0.155071
O O4 0.000000 0.000000 0.000000
O O5 0.050410 0.373036 0.299654
O O6 0.809320 0.510446 0.072244
O O7 0.620738 0.681505 0.372298
O O8 0.065945 0.531088 0.212062
O O9 0.665926 0.936357 0.729426
O O10 0.175582 0.152996 0.803281
O O11 0.373732 0.240219 0.970496
O O12 0.500000 0.000000 0.000000
O O13 0.764836 0.266034 0.633251
O O14 0.203905 0.949047 0.587302
O O15 0.807056 0.350640 0.408356
O O16 0.510674 0.359181 0.431260
#
# Coordination Sequence:
#
# PCOD9028351 Si02
#       8
#     2   2   2   2   2   2   1   2
#     4  12  21  37  70  98 123 172 224 270 312 386
#     4  10  22  42  59  92 135 166 202 274 325 387
#     4  12  22  42  67  96 129 167 218 270 319 379
#     4  11  23  42  70  94 128 176 220 268 318 388
#     4  11  23  43  66  92 133 169 218 266 325 388
#     4  11  22  39  63  95 131 161 219 263 324 383
#     4  10  24  46  64  94 132 172 214 270 328 390
#     4  10  23  46  67  93 133 173 221 265 326 392
#
# _framework density 25.286166999999999
#
# number of rings (size 3 to 8) (size 9 to 14) (size 15 to 20)
#    0.000    1.067    5.333    0.800    0.000    0.533 
#   12.000    2.667    0.000    0.000    0.000    0.000 
#    0.000    0.000    0.000    0.000    0.000    0.000 
#
# Total GULP energy -83610.709975 kJ/mol
# GULP energy per Si atom -5574.047332 kJ/mol
# Density = 2.522861 g / cm^3
# Si number density = 25.286167 Si / 1000 Ang^3
#
#
#
# Elastic Constant Matrix: (Units=GPa)
#
#
# Indices 1 2 3 4 5 6 
#
# 1 106.9966 28.8928 31.0218 13.2255 -24.6790 -28.4570
# 2 28.8928 63.0538 18.7299 24.9866 -14.0818 -5.7485
# 3 31.0218 18.7299 81.1100 9.0018 -32.3460 -9.7320
# 4 13.2255 24.9866 9.0018 40.7408 -13.0330 -6.2928
# 5 -24.6790 -14.0818 -32.3460 -13.0330 61.3129 6.5808
# 6 -28.4570 -5.7485 -9.7320 -6.2928 6.5808 54.3730
#
#
#
# Elastic Compliance Matrix: (Units=1/GPa)
#
#
# Indices 1 2 3 4 5 6 
#
# 1 0.013335 -0.004583 -0.002393 0.000739 0.002583 0.005839
# 2 -0.004583 0.023558 -0.002622 -0.012769 -0.000337 -0.001814
# 3 -0.002393 -0.002622 0.016779 0.001173 0.007460 0.000706
# 4 0.000739 -0.012769 0.001173 0.033843 0.004902 0.002570
# 5 0.002583 -0.000337 0.007460 0.004902 0.022192 0.000533
# 6 0.005839 -0.001814 0.000706 0.002570 0.000533 0.021615
#
#
# Mechanical properties :
#
#
# Convention : Reuss Voigt Hill
#
# Bulk Modulus (GPa) = 29.00645 45.38327 37.19486
# Shear Modulus (GPa) = 30.86217 42.78643 36.82430
#
# Velocity S-wave (km/s) = 3.49738 4.11796 3.82029
# Velocity P-wave (km/s) = 5.27305 6.37158 5.84816
#
# Compressibility (1/GPa) = 0.03447510
#
# Stress axis : x y z
#
# Youngs Moduli (GPa) = 74.99116 42.44874 59.59711
#
# Poissons Ratio (x) = 0.19455 0.14263
# Poissons Ratio (y) = 0.34370 0.15626
# Poissons Ratio (z) = 0.17948 0.11130
#
# Static dielectric constant tensor:
#      x y z
#    x 2.048400 0.007150 0.085870 
#    y 0.007150 2.051560 -0.031620 
#    z 0.085870 -0.031620 2.082880 
# 
# From -- ./inp_files/203195.got.cif
#   From: 2010.05.17/outbox.cif.g08.bks.cpg/sg2_102_cif.got.tgz:203195.got - 2010.06.03 11:33:40.
