data_PCOD9028592
_publ_section_title
;
Structure prediction by ZEFSAII (Michael W. Deem and Ramdas Pophale) SiO2 
 PCOD9028592
Probable space group: P -1
;
_chemical_formula_sum "Si O2"
_cell_formula_units_Z 16
_cell_length_a 12.815731
_cell_length_b 9.034310
_cell_length_c 9.463805
_cell_angle_alpha 83.655405
_cell_angle_beta 44.774560
_cell_angle_gamma 87.697489
_cell_volume 765.870608
_symmetry_space_group_name_H-M "P -1"
_symmetry_group_IT_number 2
_symmetry_cell_setting 'triclinic'
loop_
_space_group_symop_operation_xyz
x,y,z
-x,-y,-z
loop_
_atom_site_type_symbol
_atom_site_label
_atom_site_fract_x
_atom_site_fract_y
_atom_site_fract_z
Si Si1 0.343726 0.419594 0.616463
Si Si2 0.342647 0.572006 0.116382
Si Si3 0.830992 0.559977 0.941415
Si Si4 0.420231 0.900480 0.966104
Si Si5 0.830126 0.899760 0.810658
Si Si6 0.138957 0.434279 0.560961
Si Si7 0.399204 0.098286 0.488357
Si Si8 0.868355 0.918732 0.437756
O O1 0.500000 0.500000 0.500000
O O2 0.277245 0.472017 0.527628
O O3 0.366534 0.244895 0.592039
O O4 0.215121 0.442428 0.851446
O O5 0.293516 0.545225 0.005735
O O6 0.204446 0.495546 0.343754
O O7 0.500000 0.500000 0.000000
O O8 0.357168 0.747509 0.112741
O O9 0.815477 0.727755 0.883021
O O10 0.992553 0.507522 0.750510
O O11 0.519064 0.857152 0.742752
O O12 0.500000 0.000000 0.000000
O O13 0.295533 0.002557 0.014460
O O14 0.815262 0.916309 0.652892
O O15 0.984893 0.974517 0.707553
O O16 0.107668 0.255261 0.601501
O O17 0.245555 0.027405 0.576928
O O18 0.500000 0.000000 0.500000
#
# Coordination Sequence:
#
# PCOD9028592 Si02
#       8
#     2   2   2   2   2   2   2   2
#     4  11  25  46  65  94 135 176 221 274 330 398
#     4  12  24  41  66  98 133 171 222 277 329 392
#     4  12  24  42  68  99 129 176 226 269 333 396
#     4  12  24  41  66  99 131 173 223 274 335 394
#     4  11  23  39  67  98 135 165 223 269 331 393
#     4  11  24  43  67  97 134 176 219 275 334 392
#     4  11  24  45  67  93 134 175 220 273 334 399
#     4  10  22  42  63  97 133 173 210 276 329 391
#
# _framework density 20.891259000000002
#
# number of rings (size 3 to 8) (size 9 to 14) (size 15 to 20)
#    0.000    0.750    2.500    6.000    3.500    2.000 
#    0.000    6.875    0.000    0.000    0.000    0.000 
#    0.000    0.000    0.000    0.000    0.000    0.000 
#
# Total GULP energy -89414.491969 kJ/mol
# GULP energy per Si atom -5588.405748 kJ/mol
# Density = 2.084371 g / cm^3
# Si number density = 20.891259 Si / 1000 Ang^3
#
#
#
# Elastic Constant Matrix: (Units=GPa)
#
#
# Indices 1 2 3 4 5 6 
#
# 1 119.2643 34.0915 1.3091 5.5104 -5.9155 9.9146
# 2 34.0915 95.6755 5.1163 4.5130 -11.4116 9.9577
# 3 1.3091 5.1163 70.6070 20.2119 -5.6123 1.9867
# 4 5.5104 4.5130 20.2119 32.1645 -4.5350 -5.0600
# 5 -5.9155 -11.4116 -5.6123 -4.5350 35.6318 5.7120
# 6 9.9146 9.9577 1.9867 -5.0600 5.7120 35.2555
#
#
#
# Elastic Compliance Matrix: (Units=1/GPa)
#
#
# Indices 1 2 3 4 5 6 
#
# 1 0.009559 -0.003014 0.000720 -0.001906 0.000860 -0.002290
# 2 -0.003014 0.012405 -0.000109 -0.001152 0.003860 -0.003441
# 3 0.000720 -0.000109 0.017670 -0.011432 0.001912 -0.003118
# 4 -0.001906 -0.001152 -0.011432 0.040076 0.001490 0.007016
# 5 0.000860 0.003860 0.001912 0.001490 0.030935 -0.006238
# 6 -0.002290 -0.003441 -0.003118 0.007016 -0.006238 0.032174
#
#
# Mechanical properties :
#
#
# Convention : Reuss Voigt Hill
#
# Bulk Modulus (GPa) = 28.71386 40.73119 34.72253
# Shear Modulus (GPa) = 31.40015 36.94566 34.17291
#
# Velocity S-wave (km/s) = 3.88110 4.20989 4.04883
# Velocity P-wave (km/s) = 5.81878 6.57038 6.20597
#
# Compressibility (1/GPa) = 0.03482638
#
# Stress axis : x y z
#
# Youngs Moduli (GPa) = 104.60813 80.61502 56.59352
#
# Poissons Ratio (x) = 0.24297 -0.04072
# Poissons Ratio (y) = 0.31528 0.00620
# Poissons Ratio (z) = -0.07527 0.00882
#
# Static dielectric constant tensor:
#      x y z
#    x 1.742070 -0.015850 0.006300 
#    y -0.015850 1.704410 0.027140 
#    z 0.006300 0.027140 1.730010 
# 
# From -- ./inp_files/158712.got.cif
#   From: 2010.05.17/outbox.cif.g08.bks.cpg/sg2_80_cif.got.tgz:158712.got - 2010.06.03 11:33:40.
