data_PCOD9028289
_publ_section_title
;
Structure prediction by ZEFSAII (Michael W. Deem and Ramdas Pophale) SiO2 
 PCOD9028289
Probable space group: P -1
;
_chemical_formula_sum "Si O2"
_cell_formula_units_Z 16
_cell_length_a 20.435785
_cell_length_b 11.557098
_cell_length_c 9.217628
_cell_angle_alpha 131.146536
_cell_angle_beta 138.820338
_cell_angle_gamma 28.316937
_cell_volume 679.851864
_symmetry_space_group_name_H-M "P -1"
_symmetry_group_IT_number 2
_symmetry_cell_setting 'triclinic'
loop_
_space_group_symop_operation_xyz
x,y,z
-x,-y,-z
loop_
_atom_site_type_symbol
_atom_site_label
_atom_site_fract_x
_atom_site_fract_y
_atom_site_fract_z
Si Si1 0.835927 0.276214 0.349863
Si Si2 0.931714 0.042587 0.764893
Si Si3 0.354396 0.564024 0.550349
Si Si4 0.852901 0.782536 0.441420
Si Si5 0.499040 0.363287 0.003468
Si Si6 0.858636 0.565914 0.757547
Si Si7 0.657440 0.877136 0.929396
Si Si8 0.379285 0.998703 0.513699
O O1 0.950218 0.050123 0.244941
O O2 0.766683 0.284994 0.389354
O O3 0.909897 0.347479 0.585787
O O4 0.676114 0.493165 0.170175
O O5 0.912010 0.882087 0.585021
O O6 0.759053 0.321225 0.680636
O O7 0.000000 0.000000 0.000000
O O8 0.442265 0.622768 0.742364
O O9 0.493959 0.274212 0.562650
O O10 0.759824 0.807117 0.178224
O O11 0.000000 0.500000 0.500000
O O12 0.732231 0.943127 0.505607
O O13 0.616883 0.082161 0.943193
O O14 0.500000 0.500000 0.000000
O O15 0.737880 0.790544 0.628422
O O16 0.757786 0.650478 0.802337
O O17 0.000000 0.500000 0.000000
O O18 0.490981 0.993065 0.770742
#
# Coordination Sequence:
#
# PCOD9028289 Si02
#       8
#     2   2   2   2   2   2   2   2
#     4  11  23  47  73 105 141 184 239 300 362 429
#     4  12  29  48  70 103 148 196 237 295 368 436
#     4  11  25  48  73 106 139 188 246 301 362 424
#     4  12  29  50  70 105 151 196 243 295 368 438
#     4  10  22  41  74 105 141 177 233 304 360 421
#     4  12  24  42  75 109 141 184 243 304 361 423
#     4  12  23  47  74 107 142 191 246 297 364 428
#     4  12  26  46  75 107 145 191 246 300 359 434
#
# _framework density 23.534538999999999
#
# number of rings (size 3 to 8) (size 9 to 14) (size 15 to 20)
#    0.000    0.500    3.750    4.875    3.500    2.500 
#    0.000    0.000    0.000    0.000    0.000    0.000 
#    0.000    0.000    0.000    0.000    0.000    0.000 
#
# Total GULP energy -89417.104260 kJ/mol
# GULP energy per Si atom -5588.569016 kJ/mol
# Density = 2.348097 g / cm^3
# Si number density = 23.534539 Si / 1000 Ang^3
#
#
#
# Elastic Constant Matrix: (Units=GPa)
#
#
# Indices 1 2 3 4 5 6 
#
# 1 63.4311 14.6469 23.6662 -5.4741 4.1579 -12.2764
# 2 14.6469 90.9064 34.8794 -20.3543 -6.5525 4.1533
# 3 23.6662 34.8794 171.2161 -30.8781 -1.4963 -8.0665
# 4 -5.4741 -20.3543 -30.8781 45.8410 4.3154 0.2259
# 5 4.1579 -6.5525 -1.4963 4.3154 34.8816 1.2999
# 6 -12.2764 4.1533 -8.0665 0.2259 1.2999 31.9300
#
#
#
# Elastic Compliance Matrix: (Units=1/GPa)
#
#
# Indices 1 2 3 4 5 6 
#
# 1 0.018674 -0.002912 -0.001659 0.000078 -0.003125 0.007266
# 2 -0.002912 0.013403 -0.001702 0.004248 0.002394 -0.003420
# 3 -0.001659 -0.001702 0.007184 0.003912 -0.000349 0.001385
# 4 0.000078 0.004248 0.003912 0.026564 -0.002344 0.000373
# 5 -0.003125 0.002394 -0.000349 -0.002344 0.029870 -0.002800
# 6 0.007266 -0.003420 0.001385 0.000373 -0.002800 0.035018
#
#
# Mechanical properties :
#
#
# Convention : Reuss Voigt Hill
#
# Bulk Modulus (GPa) = 37.43158 52.43759 44.93458
# Shear Modulus (GPa) = 32.85930 39.35460 36.10695
#
# Velocity S-wave (km/s) = 3.74065 4.09370 3.92115
# Velocity P-wave (km/s) = 5.88185 6.68386 6.29564
#
# Compressibility (1/GPa) = 0.02671541
#
# Stress axis : x y z
#
# Youngs Moduli (GPa) = 53.54933 74.61278 139.19451
#
# Poissons Ratio (x) = 0.21728 0.23092
# Poissons Ratio (y) = 0.15594 0.23688
# Poissons Ratio (z) = 0.08884 0.12698
#
# Static dielectric constant tensor:
#      x y z
#    x 1.929590 0.037860 0.017190 
#    y 0.037860 1.925220 0.000540 
#    z 0.017190 0.000540 1.949710 
# 
# From -- ./inp_files/346402.got.cif
#   From: 2010.05.17/outbox.cif.g08.bks.cpg/sg2_174_cif.got.tgz:346402.got - 2010.06.03 11:33:40.
