data_PCOD9028456
_publ_section_title
;
Structure prediction by ZEFSAII (Michael W. Deem and Ramdas Pophale) SiO2 
 PCOD9028456
Probable space group: P -1
;
_chemical_formula_sum "Si O2"
_cell_formula_units_Z 12
_cell_length_a 10.073749
_cell_length_b 9.696982
_cell_length_c 15.172542
_cell_angle_alpha 98.794578
_cell_angle_beta 132.350044
_cell_angle_gamma 44.616753
_cell_volume 597.926245
_symmetry_space_group_name_H-M "P -1"
_symmetry_group_IT_number 2
_symmetry_cell_setting 'triclinic'
loop_
_space_group_symop_operation_xyz
x,y,z
-x,-y,-z
loop_
_atom_site_type_symbol
_atom_site_label
_atom_site_fract_x
_atom_site_fract_y
_atom_site_fract_z
Si Si1 0.178540 0.219023 0.268443
Si Si2 0.858343 0.447886 0.646257
Si Si3 0.124339 0.860343 0.297492
Si Si4 0.134116 0.716360 0.702784
Si Si5 0.158147 0.817056 0.971356
Si Si6 0.133042 0.264425 0.565650
O O1 0.110041 0.425892 0.276800
O O2 0.141543 0.170804 0.344049
O O3 0.949797 0.271417 0.109074
O O4 0.520081 0.983676 0.348270
O O5 0.499686 0.663689 0.461901
O O6 0.896151 0.290336 0.710563
O O7 0.111076 0.273413 0.661459
O O8 0.913491 0.087561 0.294347
O O9 0.968668 0.011425 0.151403
O O10 0.099906 0.692533 0.584832
O O11 0.460817 0.443477 0.864463
O O12 0.000000 0.000000 0.000000
O O13 0.000000 0.500000 0.500000
#
# Coordination Sequence:
#
# PCOD9028456 Si02
#       6
#     2   2   2   2   2   2
#     4  11  22  40  64  93 124 160 213 257 304 365
#     4  11  23  40  64  97 128 162 204 263 317 356
#     4  10  22  42  62  92 133 161 203 264 313 365
#     4  11  21  41  65  90 125 167 208 256 310 366
#     4  11  24  42  66  92 123 170 213 251 310 377
#     4  12  21  36  68  96 120 160 217 257 298 374
#
# _framework density 20.069364
#
# number of rings (size 3 to 8) (size 9 to 14) (size 15 to 20)
#    0.000    1.000    3.333    6.500    0.000    0.667 
#    3.000    4.167    0.000    0.000    0.000    0.000 
#    0.000    0.000    0.000    0.000    0.000    0.000 
#
# Total GULP energy -66959.162734 kJ/mol
# GULP energy per Si atom -5579.930228 kJ/mol
# Density = 2.002369 g / cm^3
# Si number density = 20.069364 Si / 1000 Ang^3
#
#
#
# Elastic Constant Matrix: (Units=GPa)
#
#
# Indices 1 2 3 4 5 6 
#
# 1 63.5960 64.3389 33.2969 -1.9148 9.9770 9.4383
# 2 64.3389 185.1116 33.4296 12.1345 1.2077 -1.0525
# 3 33.2969 33.4296 63.8920 -12.6026 4.4480 -17.3092
# 4 -1.9148 12.1345 -12.6026 36.8180 -0.0791 -3.7114
# 5 9.9770 1.2077 4.4480 -0.0791 12.8773 -2.8331
# 6 9.4383 -1.0525 -17.3092 -3.7114 -2.8331 38.3788
#
#
#
# Elastic Compliance Matrix: (Units=1/GPa)
#
#
# Indices 1 2 3 4 5 6 
#
# 1 0.053155 -0.013171 -0.027074 -0.005152 -0.036980 -0.028872
# 2 -0.013171 0.009802 0.001799 -0.002799 0.009695 0.004764
# 3 -0.027074 0.001799 0.037569 0.013505 0.013625 0.025963
# 4 -0.005152 -0.002799 0.013505 0.033519 0.002145 0.010681
# 5 -0.036980 0.009695 0.013625 0.002145 0.105882 0.023529
# 6 -0.028872 0.004764 0.025963 0.010681 0.023529 0.047767
#
#
# Mechanical properties :
#
#
# Convention : Reuss Voigt Hill
#
# Bulk Modulus (GPa) = 42.31098 63.85893 53.08495
# Shear Modulus (GPa) = 13.42413 29.71709 21.57061
#
# Velocity S-wave (km/s) = 2.58909 3.85219 3.28198
# Velocity P-wave (km/s) = 5.48325 7.18846 6.39296
#
# Compressibility (1/GPa) = 0.02363453
#
# Stress axis : x y z
#
# Youngs Moduli (GPa) = 18.81277 102.01548 26.61803
#
# Poissons Ratio (x) = 1.34365 0.72065
# Poissons Ratio (y) = 0.24778 -0.04788
# Poissons Ratio (z) = 0.50933 -0.18351
#
# Static dielectric constant tensor:
#      x y z
#    x 1.712880 0.027420 0.082410 
#    y 0.027420 1.548110 -0.079370 
#    z 0.082410 -0.079370 1.695020 
# 
# From -- ./inp_files/157032.got.cif
#   From: 2010.05.17/outbox.cif.g08.bks.cpg/sg2_79_cif.got.tgz:157032.got - 2010.06.03 11:33:40.
