data_PCOD9028625
_publ_section_title
;
Structure prediction by ZEFSAII (Michael W. Deem and Ramdas Pophale) SiO2 
 PCOD9028625
Probable space group: P -1
;
_chemical_formula_sum "Si O2"
_cell_formula_units_Z 16
_cell_length_a 11.925978
_cell_length_b 27.310387
_cell_length_c 6.144354
_cell_angle_alpha 134.481430
_cell_angle_beta 57.523265
_cell_angle_gamma 151.643849
_cell_volume 659.153665
_symmetry_space_group_name_H-M "P -1"
_symmetry_group_IT_number 2
_symmetry_cell_setting 'triclinic'
loop_
_space_group_symop_operation_xyz
x,y,z
-x,-y,-z
loop_
_atom_site_type_symbol
_atom_site_label
_atom_site_fract_x
_atom_site_fract_y
_atom_site_fract_z
Si Si1 0.571892 0.886549 0.349223
Si Si2 0.455022 0.281181 0.133754
Si Si3 0.010831 0.134459 0.432794
Si Si4 0.181712 0.389802 0.677706
Si Si5 0.983071 0.527022 0.356466
Si Si6 0.733086 0.225566 0.312954
Si Si7 0.800200 0.174867 0.691353
Si Si8 0.346978 0.330788 0.050681
O O1 0.526051 0.878954 0.628107
O O2 0.406505 0.873786 0.373669
O O3 0.835242 0.006668 0.343619
O O4 0.474416 0.767169 0.056328
O O5 0.703568 0.431740 0.361384
O O6 0.363314 0.263610 0.936523
O O7 0.233260 0.200440 0.272608
O O8 0.846360 0.115760 0.405984
O O9 0.139260 0.237577 0.799641
O O10 0.284363 0.362270 0.391226
O O11 0.397310 0.537190 0.909493
O O12 0.958179 0.316540 0.529918
O O13 0.055383 0.322091 0.828027
O O14 0.000000 0.500000 0.500000
O O15 0.191555 0.674709 0.590825
O O16 0.000000 0.500000 0.000000
O O17 0.734431 0.159177 0.958874
#
# Coordination Sequence:
#
# PCOD9028625 Si02
#       8
#     2   2   2   2   2   2   2   2
#     4  11  27  48  68 100 148 192 256 302 368 454
#     4  12  26  45  71 107 146 193 243 316 376 448
#     4  12  27  45  72 104 141 200 246 306 377 453
#     4  10  22  42  64 105 140 178 232 310 371 458
#     4  12  27  47  75 112 156 200 255 312 394 468
#     4  11  23  42  73 101 137 191 244 308 373 444
#     4  11  24  45  73 103 138 190 250 311 379 443
#     4  11  24  41  68 100 148 179 239 300 390 449
#
# _framework density 24.273551000000001
#
# number of rings (size 3 to 8) (size 9 to 14) (size 15 to 20)
#    0.000    0.750    5.000    1.500    5.250    3.500 
#    0.000    0.000    0.000    0.000    0.000    0.000 
#    0.000    0.000    0.000    0.000    0.000    0.000 
#
# Total GULP energy -89323.040190 kJ/mol
# GULP energy per Si atom -5582.690012 kJ/mol
# Density = 2.421830 g / cm^3
# Si number density = 24.273551 Si / 1000 Ang^3
#
#
#
# Elastic Constant Matrix: (Units=GPa)
#
#
# Indices 1 2 3 4 5 6 
#
# 1 96.3332 14.5618 12.2879 -7.5925 2.4961 -9.5517
# 2 14.5618 174.8473 16.1350 -17.3922 -2.8303 -6.6489
# 3 12.2879 16.1350 49.2378 -9.5638 -5.2172 1.2586
# 4 -7.5925 -17.3922 -9.5638 32.1856 7.4869 -4.3266
# 5 2.4961 -2.8303 -5.2172 7.4869 21.1819 -2.8384
# 6 -9.5517 -6.6489 1.2586 -4.3266 -2.8384 27.9136
#
#
#
# Elastic Compliance Matrix: (Units=1/GPa)
#
#
# Indices 1 2 3 4 5 6 
#
# 1 0.011462 -0.000310 -0.002563 0.002914 -0.002496 0.004162
# 2 -0.000310 0.006266 -0.001436 0.003228 -0.000364 0.001914
# 3 -0.002563 -0.001436 0.022707 0.004270 0.004037 -0.001171
# 4 0.002914 0.003228 0.004270 0.038309 -0.011552 0.006337
# 5 -0.002496 -0.000364 0.004037 -0.011552 0.052863 0.002462
# 6 0.004162 0.001914 -0.001171 0.006337 0.002462 0.038990
#
#
# Mechanical properties :
#
#
# Convention : Reuss Voigt Hill
#
# Bulk Modulus (GPa) = 31.43260 45.15418 38.29339
# Shear Modulus (GPa) = 26.34053 34.75179 30.54616
#
# Velocity S-wave (km/s) = 3.29774 3.78785 3.55126
# Velocity P-wave (km/s) = 5.24190 6.14598 5.71185
#
# Compressibility (1/GPa) = 0.03181410
#
# Stress axis : x y z
#
# Youngs Moduli (GPa) = 87.24840 159.60061 44.03908
#
# Poissons Ratio (x) = 0.04952 0.11289
# Poissons Ratio (y) = 0.02707 0.06326
# Poissons Ratio (z) = 0.22366 0.22925
#
# Static dielectric constant tensor:
#      x y z
#    x 2.015710 -0.046910 0.003360 
#    y -0.046910 1.935020 -0.044320 
#    z 0.003360 -0.044320 1.976980 
# 
# From -- ./inp_files/85139.got.cif
#   From: 2010.05.17/outbox.cif.g08.bks.cpg/sg2_43_cif.got.tgz:85139.got - 2010.06.03 11:33:40.
