data_PCOD9028763
_publ_section_title
;
Structure prediction by ZEFSAII (Michael W. Deem and Ramdas Pophale) SiO2 
 PCOD9028763
Probable space group: P -1
;
_chemical_formula_sum "Si O2"
_cell_formula_units_Z 15
_cell_length_a 22.130390
_cell_length_b 6.874233
_cell_length_c 13.295327
_cell_angle_alpha 54.570468
_cell_angle_beta 157.367924
_cell_angle_gamma 119.468666
_cell_volume 628.178236
_symmetry_space_group_name_H-M "P -1"
_symmetry_group_IT_number 2
_symmetry_cell_setting 'triclinic'
loop_
_space_group_symop_operation_xyz
x,y,z
-x,-y,-z
loop_
_atom_site_type_symbol
_atom_site_label
_atom_site_fract_x
_atom_site_fract_y
_atom_site_fract_z
Si Si1 0.500000 0.500000 0.000000
Si Si2 0.685670 0.923975 0.782353
Si Si3 0.766331 0.053914 0.084396
Si Si4 0.614444 0.414567 0.861895
Si Si5 0.215252 0.781044 0.613773
Si Si6 0.366075 0.658710 0.556003
Si Si7 0.031050 0.378429 0.390540
Si Si8 0.895883 0.653432 0.711341
O O1 0.645512 0.310334 0.224486
O O2 0.510191 0.326752 0.169425
O O3 0.500000 0.000000 0.500000
O O4 0.721650 0.087003 0.694483
O O5 0.695405 0.638054 0.876140
O O6 0.775326 0.991989 0.999695
O O7 0.604640 0.216144 0.820553
O O8 0.893462 0.229788 0.258611
O O9 0.811759 0.808703 0.287506
O O10 0.711260 0.283470 0.143887
O O11 0.449664 0.528336 0.625374
O O12 0.068300 0.628940 0.417484
O O13 0.152485 0.064762 0.425675
O O14 0.263746 0.469823 0.505618
O O15 0.014566 0.393724 0.241628
O O16 0.000000 0.500000 0.000000
#
# Coordination Sequence:
#
# PCOD9028763 Si02
#       8
#     1   2   2   2   2   2   2   2
#     4  10  22  44  72  98 134 176 236 274 332 406
#     4  10  22  42  64  98 135 167 215 286 338 393
#     4  11  23  41  68  99 134 175 225 283 336 413
#     4  10  22  42  71 101 128 175 230 288 343 390
#     4  11  23  44  71 102 133 184 227 288 338 398
#     4  10  23  43  67  99 135 177 222 286 335 399
#     4  11  24  42  67  97 135 181 230 273 343 408
#     4  12  26  45  65 100 145 181 229 274 340 417
#
# _framework density 23.878571999999998
#
# number of rings (size 3 to 8) (size 9 to 14) (size 15 to 20)
#    0.000    1.333    4.000    0.800    0.000    8.533 
#    4.800    0.000    0.000    0.000    0.000    0.000 
#    0.000    0.000    0.000    0.000    0.000    0.000 
#
# Total GULP energy -83577.099504 kJ/mol
# GULP energy per Si atom -5571.806634 kJ/mol
# Density = 2.382422 g / cm^3
# Si number density = 23.878572 Si / 1000 Ang^3
#
#
#
# Elastic Constant Matrix: (Units=GPa)
#
#
# Indices 1 2 3 4 5 6 
#
# 1 48.7876 2.8412 -12.6594 -13.5120 -16.0808 -8.2070
# 2 2.8412 123.1540 26.8777 -32.4696 -6.6259 7.2331
# 3 -12.6594 26.8777 64.8264 -29.7210 -22.3315 -3.0379
# 4 -13.5120 -32.4696 -29.7210 44.6464 16.1522 1.4745
# 5 -16.0808 -6.6259 -22.3315 16.1522 40.3516 1.7452
# 6 -8.2070 7.2331 -3.0379 1.4745 1.7452 26.9585
#
#
#
# Elastic Compliance Matrix: (Units=1/GPa)
#
#
# Indices 1 2 3 4 5 6 
#
# 1 0.043998 -0.000749 0.027853 0.022444 0.023236 0.014002
# 2 -0.000749 0.010544 -0.002393 0.006865 -0.002486 -0.003541
# 3 0.027853 -0.002393 0.042339 0.026115 0.023211 0.010961
# 4 0.022444 0.006865 0.026115 0.049826 0.004367 0.004926
# 5 0.023236 -0.002486 0.023211 0.004367 0.044418 0.007242
# 6 0.014002 -0.003541 0.010961 0.004926 0.007242 0.042804
#
#
# Mechanical properties :
#
#
# Convention : Reuss Voigt Hill
#
# Bulk Modulus (GPa) = 6.83509 30.09856 18.46683
# Shear Modulus (GPa) = 21.43408 37.03854 29.23631
#
# Velocity S-wave (km/s) = 2.99929 3.94270 3.50290
# Velocity P-wave (km/s) = 3.85526 5.77570 4.91028
#
# Compressibility (1/GPa) = 0.14630378
#
# Stress axis : x y z
#
# Youngs Moduli (GPa) = 22.72835 94.84509 23.61865
#
# Poissons Ratio (x) = 0.07100 -0.65784
# Poissons Ratio (y) = 0.01702 0.05651
# Poissons Ratio (z) = -0.63305 0.22693
#
# Static dielectric constant tensor:
#      x y z
#    x 1.918480 -0.028990 -0.008960 
#    y -0.028990 1.809330 -0.120050 
#    z -0.008960 -0.120050 1.878030 
# 
# From -- ./inp_files/71904.got.cif
#   From: 2010.05.17/outbox.cif.g08.bks.cpg/sg2_36_cif.got.tgz:71904.got - 2010.06.03 11:33:40.
