data_PCOD9028713
_publ_section_title
;
Structure prediction by ZEFSAII (Michael W. Deem and Ramdas Pophale) SiO2 
 PCOD9028713
Probable space group: P -1
;
_chemical_formula_sum "Si O2"
_cell_formula_units_Z 16
_cell_length_a 6.624399
_cell_length_b 10.304381
_cell_length_c 11.388183
_cell_angle_alpha 63.173483
_cell_angle_beta 79.017975
_cell_angle_gamma 87.128715
_cell_volume 680.424140
_symmetry_space_group_name_H-M "P -1"
_symmetry_group_IT_number 2
_symmetry_cell_setting 'triclinic'
loop_
_space_group_symop_operation_xyz
x,y,z
-x,-y,-z
loop_
_atom_site_type_symbol
_atom_site_label
_atom_site_fract_x
_atom_site_fract_y
_atom_site_fract_z
Si Si1 0.626430 0.920546 0.862926
Si Si2 0.140170 0.629474 0.780462
Si Si3 0.906281 0.692459 0.022294
Si Si4 0.731288 0.951884 0.283844
Si Si5 0.518740 0.300755 0.457981
Si Si6 0.778393 0.435461 0.587679
Si Si7 0.953202 0.887836 0.651624
Si Si8 0.894799 0.178882 0.835729
O O1 0.742210 0.916310 0.726430
O O2 0.404176 0.970571 0.830516
O O3 0.735329 0.046823 0.877889
O O4 0.696998 0.768851 0.973763
O O5 0.141671 0.455893 0.840380
O O6 0.357713 0.693540 0.680760
O O7 0.977570 0.719841 0.685579
O O8 0.050829 0.654210 0.911436
O O9 0.033927 0.801994 0.047148
O O10 0.593882 0.850898 0.429277
O O11 0.896287 0.849079 0.247785
O O12 0.869256 0.070076 0.290770
O O13 0.679052 0.343327 0.527662
O O14 0.362515 0.430774 0.423041
O O15 0.798950 0.324855 0.738178
O O16 0.000000 0.500000 0.500000
O O17 0.000000 0.000000 0.500000
#
# Coordination Sequence:
#
# PCOD9028713 Si02
#       8
#     2   2   2   2   2   2   2   2
#     4  10  22  42  64  95 129 176 224 276 326 389
#     4  10  23  43  65  94 130 179 223 266 327 401
#     4  10  23  44  66  90 135 184 228 271 323 388
#     4  11  23  40  67 103 130 168 221 278 336 398
#     4  11  23  39  67 100 133 167 217 269 340 406
#     4  11  22  38  63 101 136 166 207 274 343 395
#     4  10  23  41  67  97 137 171 213 274 342 397
#     4  11  22  40  68  98 132 173 221 276 339 388
#
# _framework density 23.514747
#
# number of rings (size 3 to 8) (size 9 to 14) (size 15 to 20)
#    0.000    1.500    2.500    1.875    3.500    3.500 
#    0.000    8.750    0.000    0.000    0.000    0.000 
#    0.000    0.000    0.000    0.000    0.000    0.000 
#
# Total GULP energy -89489.124937 kJ/mol
# GULP energy per Si atom -5593.070309 kJ/mol
# Density = 2.346123 g / cm^3
# Si number density = 23.514747 Si / 1000 Ang^3
#
#
#
# Elastic Constant Matrix: (Units=GPa)
#
#
# Indices 1 2 3 4 5 6 
#
# 1 87.4645 7.0597 21.0157 -2.8937 6.6436 -8.2978
# 2 7.0597 51.0760 23.4616 -18.2949 4.0208 -13.0276
# 3 21.0157 23.4616 100.1400 -23.0956 2.9134 -10.8546
# 4 -2.8937 -18.2949 -23.0956 34.0641 -2.9598 -0.5707
# 5 6.6436 4.0208 2.9134 -2.9598 45.7500 -8.0338
# 6 -8.2978 -13.0276 -10.8546 -0.5707 -8.0338 23.0211
#
#
#
# Elastic Compliance Matrix: (Units=1/GPa)
#
#
# Indices 1 2 3 4 5 6 
#
# 1 0.012350 -0.000002 -0.002387 -0.000623 -0.001172 0.002901
# 2 -0.000002 0.030156 -0.001678 0.015474 0.001473 0.017171
# 3 -0.002387 -0.001678 0.013249 0.008055 0.001050 0.005004
# 4 -0.000623 0.015474 0.008055 0.043635 0.003617 0.014674
# 5 -0.001172 0.001473 0.001050 0.003617 0.023693 0.009264
# 6 0.002901 0.017171 0.005004 0.014674 0.009264 0.060157
#
#
# Mechanical properties :
#
#
# Convention : Reuss Voigt Hill
#
# Bulk Modulus (GPa) = 20.99798 37.97272 29.48535
# Shear Modulus (GPa) = 24.12573 33.04327 28.58450
#
# Velocity S-wave (km/s) = 3.20657 3.75269 3.49033
# Velocity P-wave (km/s) = 4.76010 5.91273 5.36745
#
# Compressibility (1/GPa) = 0.04762363
#
# Stress axis : x y z
#
# Youngs Moduli (GPa) = 80.96876 33.16093 75.47518
#
# Poissons Ratio (x) = 0.00006 0.18014
# Poissons Ratio (y) = 0.00015 0.12661
# Poissons Ratio (z) = 0.19325 0.05563
#
# Static dielectric constant tensor:
#      x y z
#    x 1.890350 -0.020810 -0.004720 
#    y -0.020810 1.925350 0.004520 
#    z -0.004720 0.004520 1.953710 
# 
# From -- ./inp_files/363841.got.cif
#   From: 2010.05.17/outbox.cif.g08.bks.cpg/sg2_182_cif.got.tgz:363841.got - 2010.06.03 11:33:40.
