data_PCOD9028038
_publ_section_title
;
Structure prediction by ZEFSAII (Michael W. Deem and Ramdas Pophale) SiO2 
 PCOD9028038
Probable space group: P -1
;
_chemical_formula_sum "Si O2"
_cell_formula_units_Z 16
_cell_length_a 18.013202
_cell_length_b 4.831176
_cell_length_c 12.698338
_cell_angle_alpha 103.094127
_cell_angle_beta 45.649814
_cell_angle_gamma 119.979376
_cell_volume 670.913310
_symmetry_space_group_name_H-M "P -1"
_symmetry_group_IT_number 2
_symmetry_cell_setting 'triclinic'
loop_
_space_group_symop_operation_xyz
x,y,z
-x,-y,-z
loop_
_atom_site_type_symbol
_atom_site_label
_atom_site_fract_x
_atom_site_fract_y
_atom_site_fract_z
Si Si1 0.121370 0.969314 0.038829
Si Si2 0.226470 0.727940 0.770885
Si Si3 0.193636 0.799972 0.161976
Si Si4 0.785942 0.441264 0.486575
Si Si5 0.112479 0.021869 0.714300
Si Si6 0.870258 0.713180 0.641355
Si Si7 0.656733 0.348425 0.141014
Si Si8 0.433254 0.022080 0.461579
O O1 0.113608 0.782274 0.138327
O O2 0.252582 0.279286 0.940536
O O3 0.022829 0.078601 0.137849
O O4 0.120156 0.786993 0.917119
O O5 0.185071 0.366611 0.736539
O O6 0.289477 0.736900 0.818505
O O7 0.325530 0.033464 0.630671
O O8 0.205512 0.108608 0.239553
O O9 0.127960 0.484201 0.274282
O O10 0.316855 0.829923 0.997630
O O11 0.854110 0.819636 0.421198
O O12 0.804020 0.446483 0.592955
O O13 0.850705 0.257903 0.349653
O O14 0.651751 0.280149 0.557954
O O15 0.000000 0.000000 0.500000
O O16 0.528458 0.272808 0.306442
O O17 0.500000 0.000000 0.500000
#
# Coordination Sequence:
#
# PCOD9028038 Si02
#       8
#     2   2   2   2   2   2   2   2
#     4  11  23  39  68 102 140 187 231 280 356 420
#     4   9  22  40  63 103 135 185 231 283 348 415
#     4  11  24  44  65 105 136 180 234 281 351 415
#     4  11  26  46  69 105 135 187 235 287 352 413
#     4  11  25  42  65 100 150 176 225 291 350 424
#     4  12  25  43  74 100 142 184 231 291 351 418
#     4  10  22  41  70  98 138 185 236 284 345 416
#     4   9  21  49  71 101 138 186 238 292 337 412
#
# _framework density 23.848089000000002
#
# number of rings (size 3 to 8) (size 9 to 14) (size 15 to 20)
#    0.000    1.500    1.250    2.250    8.750    1.000 
#   13.500    1.250    0.000    0.000    0.000    0.000 
#    0.000    0.000    0.000    0.000    0.000    0.000 
#
# Total GULP energy -89156.372726 kJ/mol
# GULP energy per Si atom -5572.273295 kJ/mol
# Density = 2.379381 g / cm^3
# Si number density = 23.848089 Si / 1000 Ang^3
#
#
#
# Elastic Constant Matrix: (Units=GPa)
#
#
# Indices 1 2 3 4 5 6 
#
# 1 70.4171 36.2998 65.8478 -5.5415 -10.4332 -1.5540
# 2 36.2998 105.5272 65.7191 6.5224 -13.5389 -5.5967
# 3 65.8478 65.7191 93.4724 -4.0501 33.3289 21.9229
# 4 -5.5415 6.5224 -4.0501 50.9162 2.4526 6.3860
# 5 -10.4332 -13.5389 33.3289 2.4526 11.6540 -1.8663
# 6 -1.5540 -5.5967 21.9229 6.3860 -1.8663 43.3171
#
#
#
# Elastic Compliance Matrix: (Units=1/GPa)
#
#
# Indices 1 2 3 4 5 6 
#
# 1 0.012711 -0.009900 0.004837 0.004364 -0.015609 -0.004587
# 2 -0.009900 0.009332 0.003870 -0.001369 -0.009009 -0.001294
# 3 0.004837 0.003870 -0.003998 -0.001798 0.021259 0.003878
# 4 0.004364 -0.001369 -0.001798 0.020256 0.002879 -0.001973
# 5 -0.015609 -0.009009 0.021259 0.002879 -0.002118 -0.012999
# 6 -0.004587 -0.001294 0.003878 -0.001973 -0.012999 0.020522
#
#
# Mechanical properties :
#
#
# Convention : Reuss Voigt Hill
#
# Bulk Modulus (GPa) = 63.86328 67.23890 65.55109
# Shear Modulus (GPa) = 77.74678 27.94746 52.84712
#
# Velocity S-wave (km/s) = 5.71591 3.42701 4.71254
# Velocity P-wave (km/s) = 8.39044 6.62684 7.56024
#
# Compressibility (1/GPa) = 0.01565845
#
# Stress axis : x y z
#
# Youngs Moduli (GPa) = 78.67316 107.15955 -250.14055
#
# Poissons Ratio (x) = 1.06093 1.21000
# Poissons Ratio (y) = 0.77890 0.96803
# Poissons Ratio (z) = -0.38056 -0.41470
#
# Static dielectric constant tensor:
#      x y z
#    x 1.985100 0.017490 0.031980 
#    y 0.017490 1.954500 0.040420 
#    z 0.031980 0.040420 2.025330 
# 
# From -- ./inp_files/100974.got.cif
#   From: 2010.05.17/outbox.cif.g08.bks.cpg/sg2_51_cif.got.tgz:100974.got - 2010.06.03 11:33:40.
