data_PCOD9028541
_publ_section_title
;
Structure prediction by ZEFSAII (Michael W. Deem and Ramdas Pophale) SiO2 
 PCOD9028541
Probable space group: P -1
;
_chemical_formula_sum "Si O2"
_cell_formula_units_Z 14
_cell_length_a 21.590332
_cell_length_b 6.980435
_cell_length_c 10.330888
_cell_angle_alpha 86.915577
_cell_angle_beta 38.865995
_cell_angle_gamma 57.162199
_cell_volume 587.226454
_symmetry_space_group_name_H-M "P -1"
_symmetry_group_IT_number 2
_symmetry_cell_setting 'triclinic'
loop_
_space_group_symop_operation_xyz
x,y,z
-x,-y,-z
loop_
_atom_site_type_symbol
_atom_site_label
_atom_site_fract_x
_atom_site_fract_y
_atom_site_fract_z
Si Si1 0.669392 0.052135 0.977840
Si Si2 0.733402 0.740102 0.155543
Si Si3 0.458220 0.656011 0.424960
Si Si4 0.841814 0.424520 0.377379
Si Si5 0.887690 0.761461 0.389016
Si Si6 0.617373 0.486170 0.755493
Si Si7 0.198547 0.735299 0.823528
O O1 0.613770 0.357023 0.096013
O O2 0.506555 0.235346 0.161092
O O3 0.702693 0.879483 0.059259
O O4 0.817316 0.825649 0.644559
O O5 0.919367 0.503219 0.903424
O O6 0.721073 0.530280 0.192273
O O7 0.608977 0.030059 0.449877
O O8 0.500000 0.500000 0.500000
O O9 0.306866 0.755794 0.622967
O O10 0.843575 0.649356 0.375182
O O11 0.692937 0.559912 0.694870
O O12 0.820459 0.367135 0.270494
O O13 0.020599 0.080394 0.145463
O O14 0.787904 0.098602 0.486483
O O15 0.500000 0.500000 0.000000
#
# Coordination Sequence:
#
# PCOD9028541 Si02
#       7
#     2   2   2   2   2   2   2
#     4  10  23  42  63  95 134 161 215 270 319 388
#     4  11  23  42  70  93 128 176 213 263 330 377
#     4  10  22  42  63  91 133 164 212 266 322 380
#     4  11  23  40  66  97 128 164 224 269 309 387
#     4  11  23  42  70  93 128 176 213 263 330 377
#     4  10  22  42  63  91 133 164 212 266 322 380
#     4  11  23  40  66  97 128 164 224 269 309 387
#
# _framework density 23.840886999999999
#
# number of rings (size 3 to 8) (size 9 to 14) (size 15 to 20)
#    0.000    1.429    4.286    0.429    2.000    5.143 
#    0.000    6.429    0.000    0.000    0.000    0.000 
#    0.000    0.000    0.000    0.000    0.000    0.000 
#
# Total GULP energy -78102.050474 kJ/mol
# GULP energy per Si atom -5578.717891 kJ/mol
# Density = 2.378662 g / cm^3
# Si number density = 23.840887 Si / 1000 Ang^3
#
#
#
# Elastic Constant Matrix: (Units=GPa)
#
#
# Indices 1 2 3 4 5 6 
#
# 1 66.7302 22.4436 4.2407 0.1021 -11.4286 -12.5323
# 2 22.4436 109.2654 6.8302 9.0261 -11.6727 -13.6128
# 3 4.2407 6.8302 73.9551 6.1777 -9.7469 1.6935
# 4 0.1021 9.0261 6.1777 36.7500 0.5110 -3.4453
# 5 -11.4286 -11.6727 -9.7469 0.5110 40.8749 -2.1966
# 6 -12.5323 -13.6128 1.6935 -3.4453 -2.1966 37.2844
#
#
#
# Elastic Compliance Matrix: (Units=1/GPa)
#
#
# Indices 1 2 3 4 5 6 
#
# 1 0.017626 -0.002548 -0.000412 0.001089 0.004377 0.005371
# 2 -0.002548 0.010506 -0.000388 -0.002267 0.002381 0.002928
# 3 -0.000412 -0.000388 0.014220 -0.002428 0.003143 -0.000965
# 4 0.001089 -0.002267 -0.002428 0.028396 -0.001158 0.002204
# 5 0.004377 0.002381 0.003143 -0.001158 0.027332 0.003701
# 6 0.005371 0.002928 -0.000965 0.002204 0.003701 0.030161
#
#
# Mechanical properties :
#
#
# Convention : Reuss Voigt Hill
#
# Bulk Modulus (GPa) = 28.04618 35.21998 31.63308
# Shear Modulus (GPa) = 34.05488 37.41093 35.73290
#
# Velocity S-wave (km/s) = 3.78355 3.96560 3.87564
# Velocity P-wave (km/s) = 5.55666 5.98105 5.77276
#
# Compressibility (1/GPa) = 0.03565548
#
# Stress axis : x y z
#
# Youngs Moduli (GPa) = 56.73569 95.18392 70.32142
#
# Poissons Ratio (x) = 0.24250 0.02900
# Poissons Ratio (y) = 0.14455 0.02729
# Poissons Ratio (z) = 0.02340 0.03694
#
# Static dielectric constant tensor:
#      x y z
#    x 2.014380 -0.022240 0.099970 
#    y -0.022240 1.910540 -0.055820 
#    z 0.099970 -0.055820 2.020440 
# 
# From -- ./inp_files/68621.got.cif
#   From: 2010.05.17/outbox.cif.g08.bks.cpg/sg2_35_cif.got.tgz:68621.got - 2010.06.03 11:33:40.
