data_PCOD9028692
_publ_section_title
;
Structure prediction by ZEFSAII (Michael W. Deem and Ramdas Pophale) SiO2 
 PCOD9028692
Probable space group: P -1
;
_chemical_formula_sum "Si O2"
_cell_formula_units_Z 16
_cell_length_a 22.896545
_cell_length_b 12.013307
_cell_length_c 6.375776
_cell_angle_alpha 57.924626
_cell_angle_beta 56.192748
_cell_angle_gamma 32.100803
_cell_volume 767.265539
_symmetry_space_group_name_H-M "P -1"
_symmetry_group_IT_number 2
_symmetry_cell_setting 'triclinic'
loop_
_space_group_symop_operation_xyz
x,y,z
-x,-y,-z
loop_
_atom_site_type_symbol
_atom_site_label
_atom_site_fract_x
_atom_site_fract_y
_atom_site_fract_z
Si Si1 0.182588 0.268365 0.848146
Si Si2 0.239913 0.464020 0.593532
Si Si3 0.573072 0.180668 0.186227
Si Si4 0.573086 0.434705 0.220597
Si Si5 0.987086 0.618791 0.219493
Si Si6 0.554964 0.820909 0.238710
Si Si7 0.924545 0.226372 0.025145
Si Si8 0.708192 0.454629 0.984882
O O1 0.204627 0.386157 0.612537
O O2 0.126690 0.252198 0.808137
O O3 0.301682 0.039424 0.918927
O O4 0.090852 0.429642 0.048852
O O5 0.337647 0.278698 0.748725
O O6 0.136104 0.682695 0.712131
O O7 0.295360 0.484729 0.303053
O O8 0.584141 0.289667 0.205371
O O9 0.524581 0.131401 0.475259
O O10 0.493619 0.353402 0.987825
O O11 0.500000 0.500000 0.500000
O O12 0.696888 0.314318 0.140141
O O13 0.000000 0.500000 0.500000
O O14 0.005627 0.740135 0.140854
O O15 0.608833 0.633066 0.168050
O O16 0.500000 0.000000 0.000000
O O17 0.815847 0.370210 0.950079
O O18 0.000000 0.000000 0.000000
#
# Coordination Sequence:
#
# PCOD9028692 Si02
#       8
#     2   2   2   2   2   2   2   2
#     4  10  23  40  67  93 124 170 214 264 328 376
#     4  10  22  42  64  93 134 167 214 270 321 386
#     4  11  24  40  61  98 127 170 219 259 320 392
#     4  11  24  42  63  90 137 172 210 262 319 392
#     4  10  22  45  64  92 131 162 215 274 322 382
#     4  11  23  37  63  98 130 166 214 261 321 390
#     4  10  24  42  66  96 123 167 223 270 329 385
#     4  11  22  41  65  91 130 172 208 266 326 380
#
# _framework density 20.853276999999999
#
# number of rings (size 3 to 8) (size 9 to 14) (size 15 to 20)
#    0.000    1.500    2.500    1.500    3.500    4.500 
#    2.250    0.000    0.000    0.000    0.000    0.000 
#    0.000    0.000    0.000    0.000    0.000    0.000 
#
# Total GULP energy -89134.389050 kJ/mol
# GULP energy per Si atom -5570.899316 kJ/mol
# Density = 2.080581 g / cm^3
# Si number density = 20.853277 Si / 1000 Ang^3
#
#
#
# Elastic Constant Matrix: (Units=GPa)
#
#
# Indices 1 2 3 4 5 6 
#
# 1 163.2768 35.7562 37.6160 2.1836 -18.7568 21.4581
# 2 35.7562 78.0414 13.6213 2.4970 -4.4427 3.5443
# 3 37.6160 13.6213 96.7093 -4.1416 -21.1244 2.1373
# 4 2.1836 2.4970 -4.1416 9.9165 2.1549 -3.3260
# 5 -18.7568 -4.4427 -21.1244 2.1549 29.7308 4.7511
# 6 21.4581 3.5443 2.1373 -3.3260 4.7511 19.6803
#
#
#
# Elastic Compliance Matrix: (Units=1/GPa)
#
#
# Indices 1 2 3 4 5 6 
#
# 1 0.009856 -0.002917 -0.001933 -0.008181 0.007096 -0.013106
# 2 -0.002917 0.014425 -0.001100 -0.003325 -0.000258 0.000203
# 3 -0.001933 -0.001100 0.013112 0.004447 0.007644 -0.000211
# 4 -0.008181 -0.003325 0.004447 0.120107 -0.016529 0.033324
# 5 0.007096 -0.000258 0.007644 -0.016529 0.048376 -0.022992
# 6 -0.013106 0.000203 -0.000211 0.033324 -0.022992 0.076271
#
#
# Mechanical properties :
#
#
# Convention : Reuss Voigt Hill
#
# Bulk Modulus (GPa) = 39.22987 56.89049 48.06018
# Shear Modulus (GPa) = 16.52639 28.60112 22.56375
#
# Velocity S-wave (km/s) = 2.81821 3.70745 3.29298
# Velocity P-wave (km/s) = 5.42613 6.75777 6.12823
#
# Compressibility (1/GPa) = 0.02549078
#
# Stress axis : x y z
#
# Youngs Moduli (GPa) = 101.46242 69.32480 76.26610
#
# Poissons Ratio (x) = 0.20224 0.14745
# Poissons Ratio (y) = 0.29599 0.08391
# Poissons Ratio (z) = 0.19617 0.07628
#
# Static dielectric constant tensor:
#      x y z
#    x 2.065820 -0.040450 0.187450 
#    y -0.040450 1.785330 -0.033780 
#    z 0.187450 -0.033780 1.935290 
# 
# From -- ./inp_files/123561.got.cif
#   From: 2010.05.17/outbox.cif.g08.bks.cpg/sg2_62_cif.got.tgz:123561.got - 2010.06.03 11:33:40.
