data_PCOD9028303
_publ_section_title
;
Structure prediction by ZEFSAII (Michael W. Deem and Ramdas Pophale) SiO2 
 PCOD9028303
Probable space group: P -1
;
_chemical_formula_sum "Si O2"
_cell_formula_units_Z 16
_cell_length_a 11.087229
_cell_length_b 11.954428
_cell_length_c 18.053786
_cell_angle_alpha 150.814509
_cell_angle_beta 132.041715
_cell_angle_gamma 38.726231
_cell_volume 729.473975
_symmetry_space_group_name_H-M "P -1"
_symmetry_group_IT_number 2
_symmetry_cell_setting 'triclinic'
loop_
_space_group_symop_operation_xyz
x,y,z
-x,-y,-z
loop_
_atom_site_type_symbol
_atom_site_label
_atom_site_fract_x
_atom_site_fract_y
_atom_site_fract_z
Si Si1 0.596116 0.258414 0.819490
Si Si2 0.386487 0.821352 0.973720
Si Si3 0.781727 0.275995 0.562620
Si Si4 0.235141 0.456304 0.876204
Si Si5 0.108269 0.328018 0.236387
Si Si6 0.311864 0.026003 0.762897
Si Si7 0.589940 0.352609 0.283342
Si Si8 0.796936 0.680729 0.559404
O O1 0.470596 0.526448 0.873542
O O2 0.458166 0.264239 0.830935
O O3 0.681528 0.980955 0.650856
O O4 0.762586 0.292335 0.942750
O O5 0.387211 0.788252 0.867349
O O6 0.522577 0.928885 0.115732
O O7 0.189098 0.051349 0.062959
O O8 0.810390 0.492432 0.656704
O O9 0.636221 0.449231 0.670521
O O10 0.661703 0.180582 0.410491
O O11 0.000000 0.000000 0.500000
O O12 0.174071 0.317560 0.833431
O O13 0.114781 0.504330 0.780925
O O14 0.160984 0.280764 0.316104
O O15 0.285842 0.886196 0.743043
O O16 0.677868 0.538863 0.423876
O O17 0.000000 0.500000 0.500000
#
# Coordination Sequence:
#
# PCOD9028303 Si02
#       8
#     2   2   2   2   2   2   2   2
#     4  10  24  46  66  99 141 187 234 286 353 409
#     4  11  26  45  73 101 139 194 235 294 349 416
#     4  12  24  42  72 108 141 183 231 290 360 426
#     4  10  22  41  75 101 137 182 240 288 341 420
#     4  12  24  43  74 104 136 187 242 285 355 423
#     4  11  21  45  69 102 138 183 226 287 354 413
#     4  12  26  46  72 103 147 183 238 292 357 419
#     4  12  29  47  71 104 144 188 237 291 353 425
#
# _framework density 21.933612
#
# number of rings (size 3 to 8) (size 9 to 14) (size 15 to 20)
#    0.000    0.750    3.750    4.500    3.500    2.500 
#    0.000    1.250    0.000    0.000    0.000    0.000 
#    0.000    0.000    0.000    0.000    0.000    0.000 
#
# Total GULP energy -89290.010261 kJ/mol
# GULP energy per Si atom -5580.625641 kJ/mol
# Density = 2.188369 g / cm^3
# Si number density = 21.933612 Si / 1000 Ang^3
#
#
#
# Elastic Constant Matrix: (Units=GPa)
#
#
# Indices 1 2 3 4 5 6 
#
# 1 80.4186 19.1607 53.0343 15.2363 -2.9446 -2.5392
# 2 19.1607 66.8509 49.2639 4.6781 -1.3939 4.0908
# 3 53.0343 49.2639 120.4224 12.0642 1.2679 7.3722
# 4 15.2363 4.6781 12.0642 47.8948 10.9609 5.0946
# 5 -2.9446 -1.3939 1.2679 10.9609 46.7168 -4.1965
# 6 -2.5392 4.0908 7.3722 5.0946 -4.1965 23.4630
#
#
#
# Elastic Compliance Matrix: (Units=1/GPa)
#
#
# Indices 1 2 3 4 5 6 
#
# 1 0.019392 0.001011 -0.008836 -0.005504 0.003367 0.006496
# 2 0.001011 0.021520 -0.009200 -0.000274 0.000973 -0.000518
# 3 -0.008836 -0.009200 0.016222 0.000567 -0.001845 -0.004902
# 4 -0.005504 -0.000274 0.000567 0.024867 -0.006865 -0.007354
# 5 0.003367 0.000973 -0.001845 -0.006865 0.023895 0.006539
# 6 0.006496 -0.000518 -0.004902 -0.007354 0.006539 0.047720
#
#
# Mechanical properties :
#
#
# Convention : Reuss Voigt Hill
#
# Bulk Modulus (GPa) = 43.31953 56.73442 50.02697
# Shear Modulus (GPa) = 25.59381 33.36379 29.47880
#
# Velocity S-wave (km/s) = 3.41966 3.90439 3.67004
# Velocity P-wave (km/s) = 5.94855 6.80061 6.38880
#
# Compressibility (1/GPa) = 0.02308428
#
# Stress axis : x y z
#
# Youngs Moduli (GPa) = 51.56733 46.46920 61.64605
#
# Poissons Ratio (x) = -0.04697 0.54468
# Poissons Ratio (y) = -0.05213 0.56713
# Poissons Ratio (z) = 0.45563 0.42751
#
# Static dielectric constant tensor:
#      x y z
#    x 1.200850 0.192020 0.236400 
#    y 0.192020 1.789100 -0.052740 
#    z 0.236400 -0.052740 1.700660 
# 
# From -- ./inp_files/569006.got.cif
#   From: 2010.05.17/outbox.cif.g08.bks.cpg/sg2_285_cif.got.tgz:569006.got - 2010.06.03 11:33:40.
