data_PCOD9028373
_publ_section_title
;
Structure prediction by ZEFSAII (Michael W. Deem and Ramdas Pophale) SiO2 
 PCOD9028373
Probable space group: P -1
;
_chemical_formula_sum "Si O2"
_cell_formula_units_Z 15
_cell_length_a 21.237868
_cell_length_b 5.594076
_cell_length_c 15.404286
_cell_angle_alpha 79.312720
_cell_angle_beta 161.687236
_cell_angle_gamma 104.323074
_cell_volume 549.770819
_symmetry_space_group_name_H-M "P -1"
_symmetry_group_IT_number 2
_symmetry_cell_setting 'triclinic'
loop_
_space_group_symop_operation_xyz
x,y,z
-x,-y,-z
loop_
_atom_site_type_symbol
_atom_site_label
_atom_site_fract_x
_atom_site_fract_y
_atom_site_fract_z
Si Si1 0.113208 0.855953 0.778497
Si Si2 0.772384 0.039980 0.704217
Si Si3 0.775274 0.505471 0.562104
Si Si4 0.500000 0.500000 0.500000
Si Si5 0.192357 0.866238 0.070818
Si Si6 0.330338 0.660444 0.748725
Si Si7 0.441381 0.588818 0.225714
Si Si8 0.269093 0.991947 0.786824
O O1 0.871426 0.841778 0.455246
O O2 0.207633 0.996605 0.806032
O O3 0.191642 0.974574 0.966096
O O4 0.208823 0.613324 0.913119
O O5 0.801134 0.314854 0.684411
O O6 0.710473 0.970863 0.729444
O O7 0.592828 0.861198 0.427372
O O8 0.000000 0.000000 0.000000
O O9 0.802103 0.419383 0.505431
O O10 0.540976 0.522152 0.271691
O O11 0.952553 0.755305 0.787539
O O12 0.300924 0.634567 0.223979
O O13 0.482282 0.443667 0.374475
O O14 0.221537 0.732490 0.687805
O O15 0.500000 0.500000 0.000000
O O16 0.486186 0.918305 0.904030
#
# Coordination Sequence:
#
# PCOD9028373 Si02
#       8
#     2   2   2   1   2   2   2   2
#     4  10  23  42  69  92 133 170 204 274 328 379
#     4  12  24  40  69  95 131 178 218 267 316 378
#     4  12  24  43  68  98 126 173 225 268 315 386
#     4  10  22  42  60  90 138 174 204 270 310 384
#     4  11  23  43  65  97 133 175 219 262 323 384
#     4  11  24  43  74  95 124 171 217 269 325 386
#     4  11  23  44  64  94 134 169 220 263 318 387
#     4  10  23  48  65  98 131 161 219 271 326 392
#
# _framework density 27.284096000000002
#
# number of rings (size 3 to 8) (size 9 to 14) (size 15 to 20)
#    0.000    1.067    2.667    3.600    1.867    4.267 
#    4.800   14.667    0.000    0.000    0.000    0.000 
#    0.000    0.000    0.000    0.000    0.000    0.000 
#
# Total GULP energy -83683.991055 kJ/mol
# GULP energy per Si atom -5578.932737 kJ/mol
# Density = 2.722200 g / cm^3
# Si number density = 27.284096 Si / 1000 Ang^3
#
#
#
# Elastic Constant Matrix: (Units=GPa)
#
#
# Indices 1 2 3 4 5 6 
#
# 1 167.7614 27.1007 37.5418 -6.1998 -12.9703 -2.1868
# 2 27.1007 17.1519 25.4550 -0.4708 -6.7309 -4.5779
# 3 37.5418 25.4550 127.4485 -13.3966 -2.7790 -7.2476
# 4 -6.1998 -0.4708 -13.3966 49.2298 2.4108 -5.1987
# 5 -12.9703 -6.7309 -2.7790 2.4108 53.9318 -8.5072
# 6 -2.1868 -4.5779 -7.2476 -5.1987 -8.5072 33.4867
#
#
#
# Elastic Compliance Matrix: (Units=1/GPa)
#
#
# Indices 1 2 3 4 5 6 
#
# 1 0.008095 -0.013561 0.000354 0.000867 0.000060 -0.001099
# 2 -0.013561 0.115656 -0.018585 -0.004865 0.012536 0.013333
# 3 0.000354 -0.018585 0.011751 0.003158 -0.001759 0.000069
# 4 0.000867 -0.004865 0.003158 0.021612 -0.000689 0.003255
# 5 0.000060 0.012536 -0.001759 -0.000689 0.021101 0.006591
# 6 -0.001099 0.013333 0.000069 0.003255 0.006591 0.033808
#
#
# Mechanical properties :
#
#
# Convention : Reuss Voigt Hill
#
# Bulk Modulus (GPa) = 13.90466 54.72852 34.31659
# Shear Modulus (GPa) = 16.68997 42.14730 29.41864
#
# Velocity S-wave (km/s) = 2.47596 3.93460 3.28721
# Velocity P-wave (km/s) = 3.64433 6.38309 5.19735
#
# Compressibility (1/GPa) = 0.07191832
#
# Stress axis : x y z
#
# Youngs Moduli (GPa) = 123.53729 8.64630 85.09574
#
# Poissons Ratio (x) = 0.11726 -0.03014
# Poissons Ratio (y) = 1.67533 1.58150
# Poissons Ratio (z) = -0.04375 0.16069
#
# Static dielectric constant tensor:
#      x y z
#    x 2.172160 0.046650 0.068430 
#    y 0.046650 2.688310 0.089230 
#    z 0.068430 0.089230 2.048840 
# 
# From -- ./inp_files/27059.got.cif
#   From: 2010.05.17/outbox.cif.g08.bks.cpg/sg2_14_cif.got.tgz:27059.got - 2010.06.03 11:33:40.
