data_PCOD9028488
_publ_section_title
;
Structure prediction by ZEFSAII (Michael W. Deem and Ramdas Pophale) SiO2 
 PCOD9028488
Probable space group: P -1
;
_chemical_formula_sum "Si O2"
_cell_formula_units_Z 16
_cell_length_a 5.156842
_cell_length_b 16.511293
_cell_length_c 13.567451
_cell_angle_alpha 141.200262
_cell_angle_beta 71.835908
_cell_angle_gamma 114.699042
_cell_volume 657.440171
_symmetry_space_group_name_H-M "P -1"
_symmetry_group_IT_number 2
_symmetry_cell_setting 'triclinic'
loop_
_space_group_symop_operation_xyz
x,y,z
-x,-y,-z
loop_
_atom_site_type_symbol
_atom_site_label
_atom_site_fract_x
_atom_site_fract_y
_atom_site_fract_z
Si Si1 0.955162 0.694108 0.235379
Si Si2 0.050528 0.193520 0.205293
Si Si3 0.307672 0.729824 0.855316
Si Si4 0.464078 0.226343 0.491198
Si Si5 0.926363 0.071373 0.293390
Si Si6 0.092039 0.209580 0.889858
Si Si7 0.399381 0.588849 0.015479
Si Si8 0.010412 0.558895 0.445212
O O1 0.774198 0.758984 0.389614
O O2 0.917038 0.752099 0.186898
O O3 0.286510 0.699353 0.192165
O O4 0.838883 0.532417 0.122510
O O5 0.356176 0.220017 0.146431
O O6 0.830224 0.215124 0.170713
O O7 0.928863 0.064037 0.166878
O O8 0.097570 0.312010 0.396355
O O9 0.181556 0.565983 0.712618
O O10 0.191942 0.785289 0.017546
O O11 0.689504 0.146914 0.422282
O O12 0.673356 0.371781 0.569926
O O13 0.257344 0.142565 0.351768
O O14 0.850255 0.929281 0.222937
O O15 0.355016 0.334122 0.013963
O O16 0.500000 0.500000 0.000000
O O17 0.000000 0.500000 0.500000
#
# Coordination Sequence:
#
# PCOD9028488 Si02
#       8
#     2   2   2   2   2   2   2   2
#     4  10  23  44  69  95 136 167 223 277 330 397
#     4  10  22  42  62  96 136 168 217 276 327 397
#     4  11  23  39  69  97 128 176 216 271 347 382
#     4  11  25  43  69  95 131 185 216 271 341 379
#     4  11  26  44  65  96 135 176 229 272 321 395
#     4  11  26  41  66  96 134 175 225 273 321 402
#     4   9  21  44  65  95 132 164 209 285 328 383
#     4   9  19  41  66  97 128 161 218 276 324 392
#
# _framework density 24.336814
#
# number of rings (size 3 to 8) (size 9 to 14) (size 15 to 20)
#    0.000    1.750    0.000    3.375    7.000    5.000 
#   13.500    0.000    0.000    0.000    0.000    0.000 
#    0.000    0.000    0.000    0.000    0.000    0.000 
#
# Total GULP energy -89310.423622 kJ/mol
# GULP energy per Si atom -5581.901476 kJ/mol
# Density = 2.428142 g / cm^3
# Si number density = 24.336814 Si / 1000 Ang^3
#
#
#
# Elastic Constant Matrix: (Units=GPa)
#
#
# Indices 1 2 3 4 5 6 
#
# 1 90.5555 32.0131 21.7032 8.7341 -28.2952 3.4547
# 2 32.0131 132.3337 31.8064 1.2144 -10.2608 -12.0214
# 3 21.7032 31.8064 64.1132 -17.2603 -22.2850 4.3467
# 4 8.7341 1.2144 -17.2603 42.2278 12.7258 -6.9537
# 5 -28.2952 -10.2608 -22.2850 12.7258 38.1531 -5.4658
# 6 3.4547 -12.0214 4.3467 -6.9537 -5.4658 26.2514
#
#
#
# Elastic Compliance Matrix: (Units=1/GPa)
#
#
# Indices 1 2 3 4 5 6 
#
# 1 0.017915 -0.002947 -0.002016 -0.009123 0.013946 -0.002886
# 2 -0.002947 0.009796 -0.004832 -0.000324 -0.001509 0.005273
# 3 -0.002016 -0.004832 0.023686 0.007386 0.008263 -0.002192
# 4 -0.009123 -0.000324 0.007386 0.033455 -0.012835 0.006019
# 5 0.013946 -0.001509 0.008263 -0.012835 0.045569 0.002193
# 6 -0.002886 0.005273 -0.002192 0.006019 0.002193 0.043302
#
#
# Mechanical properties :
#
#
# Convention : Reuss Voigt Hill
#
# Bulk Modulus (GPa) = 31.43724 50.89421 41.16573
# Shear Modulus (GPa) = 24.52024 34.75844 29.63934
#
# Velocity S-wave (km/s) = 3.17762 3.78329 3.49360
# Velocity P-wave (km/s) = 5.13893 6.32789 5.76415
#
# Compressibility (1/GPa) = 0.03180940
#
# Stress axis : x y z
#
# Youngs Moduli (GPa) = 55.81830 102.08542 42.21934
#
# Poissons Ratio (x) = 0.30080 0.08510
# Poissons Ratio (y) = 0.16447 0.20398
# Poissons Ratio (z) = 0.11251 0.49323
#
# Static dielectric constant tensor:
#      x y z
#    x 2.026630 0.035600 0.052740 
#    y 0.035600 2.021740 0.055690 
#    z 0.052740 0.055690 2.075310 
# 
# From -- ./inp_files/485251.got.cif
#   From: 2010.05.17/outbox.cif.g08.bks.cpg/sg2_243_cif.got.tgz:485251.got - 2010.06.03 11:33:40.
