data_PCOD9028096
_publ_section_title
;
Structure prediction by ZEFSAII (Michael W. Deem and Ramdas Pophale) SiO2 
 PCOD9028096
Probable space group: P -1
;
_chemical_formula_sum "Si O2"
_cell_formula_units_Z 16
_cell_length_a 5.793440
_cell_length_b 18.241703
_cell_length_c 8.720481
_cell_angle_alpha 87.304217
_cell_angle_beta 49.088484
_cell_angle_gamma 87.555186
_cell_volume 695.616489
_symmetry_space_group_name_H-M "P -1"
_symmetry_group_IT_number 2
_symmetry_cell_setting 'triclinic'
loop_
_space_group_symop_operation_xyz
x,y,z
-x,-y,-z
loop_
_atom_site_type_symbol
_atom_site_label
_atom_site_fract_x
_atom_site_fract_y
_atom_site_fract_z
Si Si1 0.053242 0.262989 0.912869
Si Si2 0.453663 0.468165 0.856084
Si Si3 0.203839 0.606822 0.809512
Si Si4 0.902460 0.784036 0.438239
Si Si5 0.168568 0.923685 0.474260
Si Si6 0.288311 0.662358 0.422442
Si Si7 0.267844 0.854572 0.758454
Si Si8 0.647663 0.008202 0.105320
O O1 0.976073 0.235472 0.780322
O O2 0.397720 0.293394 0.750510
O O3 0.818583 0.326511 0.066279
O O4 0.001459 0.194592 0.054343
O O5 0.434264 0.539827 0.750300
O O6 0.689823 0.408338 0.691657
O O7 0.500000 0.500000 0.000000
O O8 0.128760 0.428479 0.017182
O O9 0.264425 0.636288 0.610498
O O10 0.542394 0.801266 0.588231
O O11 0.054283 0.856747 0.430521
O O12 0.003111 0.715559 0.505374
O O13 0.156005 0.902631 0.658923
O O14 0.506859 0.944345 0.276687
O O15 0.000000 0.000000 0.500000
O O16 0.414754 0.908903 0.814763
O O17 0.500000 0.000000 0.000000
O O18 0.000000 0.000000 0.000000
#
# Coordination Sequence:
#
# PCOD9028096 Si02
#       8
#     2   2   2   2   2   2   2   2
#     4  11  25  45  68 103 141 191 242 299 366 442
#     4  10  22  41  71 106 144 186 238 295 362 430
#     4  10  22  43  68 104 145 186 239 300 358 433
#     4  12  26  44  72 102 144 189 246 301 378 448
#     4  12  26  50  72 105 143 191 249 314 388 457
#     4  11  25  45  72 103 147 189 244 294 366 444
#     4  12  28  47  74 102 148 188 243 312 377 457
#     4  12  28  48  78 110 145 193 253 320 389 465
#
# _framework density 23.001180000000002
#
# number of rings (size 3 to 8) (size 9 to 14) (size 15 to 20)
#    0.000    0.750    1.250    5.250    5.250    5.500 
#    0.000    0.000    0.000    0.000    0.000    0.000 
#    0.000    0.000    0.000    0.000    0.000    0.000 
#
# Total GULP energy -89518.870393 kJ/mol
# GULP energy per Si atom -5594.929400 kJ/mol
# Density = 2.294883 g / cm^3
# Si number density = 23.001180 Si / 1000 Ang^3
#
#
#
# Elastic Constant Matrix: (Units=GPa)
#
#
# Indices 1 2 3 4 5 6 
#
# 1 92.9068 65.4543 45.8443 1.3496 25.9549 -3.5595
# 2 65.4543 167.8565 70.4622 15.3377 30.5157 -14.0927
# 3 45.8443 70.4622 120.9255 -15.5696 24.9361 -2.2614
# 4 1.3496 15.3377 -15.5696 52.0755 -4.7399 19.8111
# 5 25.9549 30.5157 24.9361 -4.7399 39.7202 12.0192
# 6 -3.5595 -14.0927 -2.2614 19.8111 12.0192 38.4534
#
#
#
# Elastic Compliance Matrix: (Units=1/GPa)
#
#
# Indices 1 2 3 4 5 6 
#
# 1 0.017142 -0.003188 -0.003198 -0.002877 -0.008401 0.004338
# 2 -0.003188 0.013912 -0.006031 -0.012078 -0.010481 0.013947
# 3 -0.003198 -0.006031 0.013757 0.008503 0.001039 -0.006403
# 4 -0.002877 -0.012078 0.008503 0.038660 0.019582 -0.030231
# 5 -0.008401 -0.010481 0.001039 0.019582 0.049518 -0.030124
# 6 0.004338 0.013947 -0.006403 -0.030231 -0.030124 0.056133
#
#
# Mechanical properties :
#
#
# Convention : Reuss Voigt Hill
#
# Bulk Modulus (GPa) = 50.05626 82.80114 66.42870
# Shear Modulus (GPa) = 22.66389 39.37835 31.02112
#
# Velocity S-wave (km/s) = 3.14241 4.14214 3.67642
# Velocity P-wave (km/s) = 5.91406 7.67810 6.85307
#
# Compressibility (1/GPa) = 0.01997752
#
# Stress axis : x y z
#
# Youngs Moduli (GPa) = 58.33533 71.88014 72.68955
#
# Poissons Ratio (x) = 0.22912 0.23249
# Poissons Ratio (y) = 0.18594 0.43839
# Poissons Ratio (z) = 0.18658 0.43351
#
# Static dielectric constant tensor:
#      x y z
#    x 1.893530 -0.013740 -0.046570 
#    y -0.013740 1.899050 0.045850 
#    z -0.046570 0.045850 1.904040 
# 
# From -- ./inp_files/138924.got.cif
#   From: 2010.05.17/outbox.cif.g08.bks.cpg/sg2_70_cif.got.tgz:138924.got - 2010.06.03 11:33:40.
