data_PCOD9028379
_publ_section_title
;
Structure prediction by ZEFSAII (Michael W. Deem and Ramdas Pophale) SiO2 
 PCOD9028379
Probable space group: P -1
;
_chemical_formula_sum "Si O2"
_cell_formula_units_Z 16
_cell_length_a 6.780792
_cell_length_b 5.467238
_cell_length_c 21.569379
_cell_angle_alpha 90.242317
_cell_angle_beta 63.748783
_cell_angle_gamma 76.047788
_cell_volume 690.325840
_symmetry_space_group_name_H-M "P -1"
_symmetry_group_IT_number 2
_symmetry_cell_setting 'triclinic'
loop_
_space_group_symop_operation_xyz
x,y,z
-x,-y,-z
loop_
_atom_site_type_symbol
_atom_site_label
_atom_site_fract_x
_atom_site_fract_y
_atom_site_fract_z
Si Si1 0.991992 0.887307 0.173669
Si Si2 0.226336 0.845288 0.560656
Si Si3 0.185322 0.359960 0.362514
Si Si4 0.378836 0.261859 0.848206
Si Si5 0.440235 0.630394 0.412282
Si Si6 0.865086 0.737901 0.321018
Si Si7 0.548527 0.256442 0.216371
Si Si8 0.481235 0.756294 0.041488
O O1 0.340107 0.302280 0.926565
O O2 0.822819 0.164355 0.184628
O O3 0.853682 0.713641 0.157393
O O4 0.238580 0.834432 0.110680
O O5 0.338208 0.845650 0.477802
O O6 0.400501 0.610591 0.572524
O O7 0.978136 0.795104 0.586874
O O8 0.187529 0.082510 0.611279
O O9 0.238119 0.551812 0.405575
O O10 0.431516 0.233029 0.298391
O O11 0.043284 0.488608 0.322125
O O12 0.026307 0.156065 0.751036
O O13 0.503911 0.463475 0.804161
O O14 0.508184 0.963163 0.818213
O O15 0.618456 0.696345 0.339754
O O16 0.500000 0.500000 0.000000
O O17 0.500000 0.000000 0.000000
#
# Coordination Sequence:
#
# PCOD9028379 Si02
#       8
#     2   2   2   2   2   2   2   2
#     4  10  26  43  72  97 139 177 230 280 343 407
#     4  10  23  39  62  93 136 181 232 292 345 420
#     4  11  23  37  64  95 137 179 237 286 354 402
#     4  10  24  47  70 103 139 179 223 281 335 410
#     4  10  22  42  60  93 137 181 232 287 358 407
#     4  11  23  40  67  98 128 180 232 292 341 413
#     4  10  23  43  70 100 139 179 231 286 332 403
#     4  12  28  47  74 107 142 180 222 278 343 417
#
# _framework density 23.177458000000001
#
# number of rings (size 3 to 8) (size 9 to 14) (size 15 to 20)
#    0.750    0.750    0.000    3.750    5.250    3.500 
#    0.000    0.000    0.000    0.000    0.000    0.000 
#    0.000    0.000    0.000    0.000    0.000    0.000 
#
# Total GULP energy -89359.688936 kJ/mol
# GULP energy per Si atom -5584.980558 kJ/mol
# Density = 2.312471 g / cm^3
# Si number density = 23.177458 Si / 1000 Ang^3
#
#
#
# Elastic Constant Matrix: (Units=GPa)
#
#
# Indices 1 2 3 4 5 6 
#
# 1 80.4674 14.4014 17.5861 -3.9641 -5.0843 19.4310
# 2 14.4014 71.7038 7.7919 -13.1084 -5.9725 11.5115
# 3 17.5861 7.7919 93.5334 -4.0541 -9.4052 10.4177
# 4 -3.9641 -13.1084 -4.0541 29.2063 6.7417 0.3664
# 5 -5.0843 -5.9725 -9.4052 6.7417 41.9834 -2.3972
# 6 19.4310 11.5115 10.4177 0.3664 -2.3972 24.0257
#
#
#
# Elastic Compliance Matrix: (Units=1/GPa)
#
#
# Indices 1 2 3 4 5 6 
#
# 1 0.015847 -0.000793 -0.001478 0.001612 0.000544 -0.011766
# 2 -0.000793 0.016688 -0.000034 0.007315 0.000674 -0.007384
# 3 -0.001478 -0.000034 0.011626 0.000969 0.002057 -0.003639
# 4 0.001612 0.007315 0.000969 0.039155 -0.005197 -0.006344
# 5 0.000544 0.000674 0.002057 -0.005197 0.025331 0.000951
# 6 -0.011766 -0.007384 -0.003639 -0.006344 0.000951 0.056445
#
#
# Mechanical properties :
#
#
# Convention : Reuss Voigt Hill
#
# Bulk Modulus (GPa) = 25.28409 36.14037 30.71223
# Shear Modulus (GPa) = 27.33932 32.77143 30.05537
#
# Velocity S-wave (km/s) = 3.43821 3.76431 3.60495
# Velocity P-wave (km/s) = 5.16665 5.87538 5.53238
#
# Compressibility (1/GPa) = 0.03955056
#
# Stress axis : x y z
#
# Youngs Moduli (GPa) = 63.10157 59.92324 86.01167
#
# Poissons Ratio (x) = 0.04754 0.12717
# Poissons Ratio (y) = 0.05006 0.00291
# Poissons Ratio (z) = 0.09329 0.00203
#
# Static dielectric constant tensor:
#      x y z
#    x 1.936000 -0.022790 0.001860 
#    y -0.022790 1.893830 0.029820 
#    z 0.001860 0.029820 1.838270 
# 
# From -- ./inp_files/603254.got.cif
#   From: 2010.05.17/outbox.cif.g08.bks.cpg/sg2_302_cif.got.tgz:603254.got - 2010.06.03 11:33:40.
