data_PCOD9028968
_publ_section_title
;
Structure prediction by ZEFSAII (Michael W. Deem and Ramdas Pophale) SiO2 
 PCOD9028968
Probable space group: P -1
;
_chemical_formula_sum "Si O2"
_cell_formula_units_Z 16
_cell_length_a 16.785682
_cell_length_b 9.754149
_cell_length_c 9.310352
_cell_angle_alpha 97.776988
_cell_angle_beta 105.418074
_cell_angle_gamma 32.215408
_cell_volume 771.406885
_symmetry_space_group_name_H-M "P -1"
_symmetry_group_IT_number 2
_symmetry_cell_setting 'triclinic'
loop_
_space_group_symop_operation_xyz
x,y,z
-x,-y,-z
loop_
_atom_site_type_symbol
_atom_site_label
_atom_site_fract_x
_atom_site_fract_y
_atom_site_fract_z
Si Si1 0.651324 0.326249 0.451355
Si Si2 0.474354 0.401120 0.879726
Si Si3 0.357308 0.293756 0.916129
Si Si4 0.100409 0.801068 0.335894
Si Si5 0.199017 0.157238 0.164188
Si Si6 0.916269 0.388618 0.952740
Si Si7 0.136879 0.636039 0.628736
Si Si8 0.114714 0.225239 0.446915
O O1 0.500000 0.500000 0.500000
O O2 0.607368 0.448529 0.291163
O O3 0.760723 0.283024 0.583192
O O4 0.756101 0.039486 0.436378
O O5 0.393648 0.404517 0.946244
O O6 0.636906 0.102475 0.867385
O O7 0.500000 0.500000 0.000000
O O8 0.301617 0.356209 0.732546
O O9 0.208345 0.467652 0.963819
O O10 0.500000 0.000000 0.000000
O O11 0.089627 0.733205 0.174046
O O12 0.127924 0.651351 0.455387
O O13 0.934358 0.113193 0.326495
O O14 0.137019 0.394469 0.120199
O O15 0.201349 0.153851 0.336781
O O16 0.084602 0.194692 0.065911
O O17 0.009458 0.715470 0.643768
O O18 0.000000 0.500000 0.500000
#
# Coordination Sequence:
#
# PCOD9028968 Si02
#       8
#     2   2   2   2   2   2   2   2
#     4  11  24  45  69 101 141 179 241 296 349 431
#     4  12  28  45  72 104 145 190 231 296 370 419
#     4  12  25  46  65  98 142 184 227 290 349 417
#     4  10  23  43  70  97 132 184 230 288 352 411
#     4  11  24  46  66 106 146 179 240 297 346 437
#     4  11  25  43  73  98 140 186 236 287 358 419
#     4  10  22  42  65  97 134 172 234 288 332 425
#     4  11  23  42  74 101 136 184 236 290 359 417
#
# _framework density 20.741323999999999
#
# number of rings (size 3 to 8) (size 9 to 14) (size 15 to 20)
#    0.000    1.000    5.000    0.750    3.500    3.500 
#    0.000    1.250    0.000    0.000    0.000    0.000 
#    0.000    0.000    0.000    0.000    0.000    0.000 
#
# Total GULP energy -89262.647150 kJ/mol
# GULP energy per Si atom -5578.915447 kJ/mol
# Density = 2.069412 g / cm^3
# Si number density = 20.741324 Si / 1000 Ang^3
#
#
#
# Elastic Constant Matrix: (Units=GPa)
#
#
# Indices 1 2 3 4 5 6 
#
# 1 98.1785 -7.2445 12.8110 -9.6020 -5.7920 -2.5666
# 2 -7.2445 65.2620 23.9509 -19.0349 11.0041 2.0925
# 3 12.8110 23.9509 77.2189 -14.3572 0.8544 10.9362
# 4 -9.6020 -19.0349 -14.3572 37.7201 2.4499 -0.9462
# 5 -5.7920 11.0041 0.8544 2.4499 29.7800 -2.3756
# 6 -2.5666 2.0925 10.9362 -0.9462 -2.3756 29.4846
#
#
#
# Elastic Compliance Matrix: (Units=1/GPa)
#
#
# Indices 1 2 3 4 5 6 
#
# 1 0.011145 0.002851 -0.002384 0.003346 0.001054 0.001844
# 2 0.002851 0.021989 -0.005327 0.010338 -0.008242 0.000331
# 3 -0.002384 -0.005327 0.016322 0.002750 0.000350 -0.005767
# 4 0.003346 0.010338 0.002750 0.034002 -0.006114 -0.000864
# 5 0.001054 -0.008242 0.000350 -0.006114 0.037593 0.003380
# 6 0.001844 0.000331 -0.005767 -0.000864 0.003380 0.036437
#
#
# Mechanical properties :
#
#
# Convention : Reuss Voigt Hill
#
# Bulk Modulus (GPa) = 25.16599 33.29936 29.23268
# Shear Modulus (GPa) = 27.70823 33.47306 30.59064
#
# Velocity S-wave (km/s) = 3.65895 4.02161 3.84456
# Velocity P-wave (km/s) = 5.47816 6.13628 5.81653
#
# Compressibility (1/GPa) = 0.03973617
#
# Stress axis : x y z
#
# Youngs Moduli (GPa) = 89.72905 45.47801 61.26637
#
# Poissons Ratio (x) = -0.12966 0.14606
# Poissons Ratio (y) = -0.25583 0.32635
# Poissons Ratio (z) = 0.21392 0.24225
#
# Static dielectric constant tensor:
#      x y z
#    x 1.803580 0.041370 0.050090 
#    y 0.041370 1.775760 0.000870 
#    z 0.050090 0.000870 1.827770 
# 
# From -- ./inp_files/298568.got.cif
#   From: 2010.05.17/outbox.cif.g08.bks.cpg/sg2_150_cif.got.tgz:298568.got - 2010.06.03 11:33:40.
