data_PCOD9028251
_publ_section_title
;
Structure prediction by ZEFSAII (Michael W. Deem and Ramdas Pophale) SiO2 
 PCOD9028251
Probable space group: P -1
;
_chemical_formula_sum "Si O2"
_cell_formula_units_Z 16
_cell_length_a 13.146853
_cell_length_b 8.124537
_cell_length_c 8.141393
_cell_angle_alpha 81.592630
_cell_angle_beta 129.794310
_cell_angle_gamma 85.518195
_cell_volume 643.884346
_symmetry_space_group_name_H-M "P -1"
_symmetry_group_IT_number 2
_symmetry_cell_setting 'triclinic'
loop_
_space_group_symop_operation_xyz
x,y,z
-x,-y,-z
loop_
_atom_site_type_symbol
_atom_site_label
_atom_site_fract_x
_atom_site_fract_y
_atom_site_fract_z
Si Si1 0.021222 0.687861 0.510412
Si Si2 0.509578 0.478810 0.212050
Si Si3 0.595484 0.848093 0.733023
Si Si4 0.736971 0.233734 0.059373
Si Si5 0.946226 0.151306 0.049619
Si Si6 0.284373 0.093346 0.795829
Si Si7 0.208185 0.721940 0.402110
Si Si8 0.756512 0.893349 0.597272
O O1 0.142983 0.678936 0.769872
O O2 0.092691 0.744384 0.416307
O O3 0.000000 0.500000 0.500000
O O4 0.872803 0.810665 0.356657
O O5 0.463041 0.317860 0.268188
O O6 0.669217 0.437279 0.415272
O O7 0.500000 0.500000 0.000000
O O8 0.402410 0.640948 0.150577
O O9 0.721406 0.809910 0.741554
O O10 0.500000 0.000000 0.500000
O O11 0.633526 0.890342 0.954413
O O12 0.704627 0.108966 0.182276
O O13 0.824295 0.108495 0.034776
O O14 0.864286 0.308080 0.837002
O O15 0.083726 0.175563 0.267419
O O16 0.000000 0.000000 0.000000
O O17 0.323553 0.142728 0.644857
O O18 0.258714 0.901035 0.421673
#
# Coordination Sequence:
#
# PCOD9028251 Si02
#       8
#     2   2   2   2   2   2   2   2
#     4  12  24  44  74 112 147 193 258 318 379 452
#     4  12  26  50  73 105 161 206 252 310 383 473
#     4  12  28  50  74 113 154 200 260 320 381 460
#     4  12  24  45  76 112 145 199 260 303 384 470
#     4  10  22  41  73 106 143 186 251 322 378 437
#     4  12  24  46  80 107 149 203 258 322 385 455
#     4  11  22  45  72 103 151 203 243 316 387 442
#     4  11  21  46  77 111 142 195 264 315 381 457
#
# _framework density 24.849181999999999
#
# number of rings (size 3 to 8) (size 9 to 14) (size 15 to 20)
#    0.000    0.500    5.000    4.875    0.000    1.000 
#    2.250    1.250    0.000    0.000    0.000    0.000 
#    0.000    0.000    0.000    0.000    0.000    0.000 
#
# Total GULP energy -89271.637219 kJ/mol
# GULP energy per Si atom -5579.477326 kJ/mol
# Density = 2.479262 g / cm^3
# Si number density = 24.849182 Si / 1000 Ang^3
#
#
#
# Elastic Constant Matrix: (Units=GPa)
#
#
# Indices 1 2 3 4 5 6 
#
# 1 98.1384 21.4926 20.5492 -11.5246 -11.8292 -6.3499
# 2 21.4926 63.2430 37.8787 -17.7971 1.4790 5.7549
# 3 20.5492 37.8787 167.9045 -13.6755 -0.8237 -20.8701
# 4 -11.5246 -17.7971 -13.6755 37.8209 -16.9492 -0.2792
# 5 -11.8292 1.4790 -0.8237 -16.9492 49.2407 -14.0145
# 6 -6.3499 5.7549 -20.8701 -0.2792 -14.0145 27.9126
#
#
#
# Elastic Compliance Matrix: (Units=1/GPa)
#
#
# Indices 1 2 3 4 5 6 
#
# 1 0.013107 -0.004339 0.000945 0.005817 0.007722 0.008518
# 2 -0.004339 0.023619 -0.005738 0.006298 -0.002975 -0.011578
# 3 0.000945 -0.005738 0.008629 0.002730 0.004346 0.010059
# 4 0.005817 0.006298 0.002730 0.040577 0.018580 0.011800
# 5 0.007722 -0.002975 0.004346 0.018580 0.035437 0.023598
# 6 0.008518 -0.011578 0.010059 0.011800 0.023598 0.059638
#
#
# Mechanical properties :
#
#
# Convention : Reuss Voigt Hill
#
# Bulk Modulus (GPa) = 36.91308 54.34745 45.63027
# Shear Modulus (GPa) = 24.00369 39.61920 31.81144
#
# Velocity S-wave (km/s) = 3.11139 3.99731 3.58184
# Velocity P-wave (km/s) = 5.27207 6.57442 5.95893
#
# Compressibility (1/GPa) = 0.02709067
#
# Stress axis : x y z
#
# Youngs Moduli (GPa) = 76.29461 42.33893 115.89433
#
# Poissons Ratio (x) = 0.18372 -0.10955
# Poissons Ratio (y) = 0.33106 0.66500
# Poissons Ratio (z) = -0.07212 0.24294
#
# Static dielectric constant tensor:
#      x y z
#    x -9.327890 -8.120880 -7.098820 
#    y -8.120880 -3.640880 -4.823090 
#    z -7.098820 -4.823090 -2.070870 
# 
# From -- ./inp_files/298396.got.cif
#   From: 2010.05.17/outbox.cif.g08.bks.cpg/sg2_150_cif.got.tgz:298396.got - 2010.06.03 11:33:40.
