data_PCOD9028132
_publ_section_title
;
Structure prediction by ZEFSAII (Michael W. Deem and Ramdas Pophale) SiO2 
 PCOD9028132
Probable space group: P -1
;
_chemical_formula_sum "Si O2"
_cell_formula_units_Z 16
_cell_length_a 14.578352
_cell_length_b 11.430694
_cell_length_c 9.319743
_cell_angle_alpha 88.519706
_cell_angle_beta 104.933824
_cell_angle_gamma 30.188355
_cell_volume 648.321422
_symmetry_space_group_name_H-M "P -1"
_symmetry_group_IT_number 2
_symmetry_cell_setting 'triclinic'
loop_
_space_group_symop_operation_xyz
x,y,z
-x,-y,-z
loop_
_atom_site_type_symbol
_atom_site_label
_atom_site_fract_x
_atom_site_fract_y
_atom_site_fract_z
Si Si1 0.230819 0.252024 0.687738
Si Si2 0.390752 0.446367 0.684793
Si Si3 0.642233 0.140028 0.318616
Si Si4 0.499563 0.109341 0.605185
Si Si5 0.979872 0.850875 0.699987
Si Si6 0.992855 0.419375 0.134969
Si Si7 0.284140 0.710827 0.210937
Si Si8 0.317753 0.799912 0.961499
O O1 0.377783 0.194876 0.693671
O O2 0.000000 0.500000 0.500000
O O3 0.162423 0.345111 0.819921
O O4 0.365817 0.987280 0.712988
O O5 0.385732 0.363768 0.551199
O O6 0.491272 0.458251 0.675889
O O7 0.572593 0.221138 0.893366
O O8 0.168734 0.688581 0.676800
O O9 0.397675 0.461825 0.233851
O O10 0.801470 0.989140 0.519612
O O11 0.754713 0.069754 0.222755
O O12 0.500000 0.000000 0.500000
O O13 0.751303 0.861702 0.717181
O O14 0.056376 0.665764 0.852937
O O15 0.866381 0.085354 0.725973
O O16 0.000000 0.500000 0.000000
O O17 0.174926 0.888005 0.016714
O O18 0.500000 0.500000 0.000000
#
# Coordination Sequence:
#
# PCOD9028132 Si02
#       8
#     2   2   2   2   2   2   2   2
#     4  12  24  43  67  99 135 172 231 276 329 405
#     4  10  22  41  71  95 133 174 218 270 335 394
#     4  11  22  41  69  94 134 176 213 279 327 386
#     4  12  23  43  69  97 138 179 218 282 341 393
#     4  12  22  43  67  98 130 169 231 272 322 404
#     4  12  27  43  65  99 136 180 225 277 338 397
#     4   9  22  43  68  91 134 171 216 266 338 381
#     4   8  19  42  66  90 130 172 207 265 335 380
#
# _framework density 24.679117000000002
#
# number of rings (size 3 to 8) (size 9 to 14) (size 15 to 20)
#    0.750    0.500    5.000    0.375    3.500    2.000 
#    0.000    3.750    2.750    0.000    0.000    0.000 
#    0.000    0.000    0.000    0.000    0.000    0.000 
#
# Total GULP energy -89198.763365 kJ/mol
# GULP energy per Si atom -5574.922710 kJ/mol
# Density = 2.462295 g / cm^3
# Si number density = 24.679117 Si / 1000 Ang^3
#
#
#
# Elastic Constant Matrix: (Units=GPa)
#
#
# Indices 1 2 3 4 5 6 
#
# 1 70.4355 24.4625 9.9707 -0.9315 -1.3050 -0.6941
# 2 24.4625 136.4397 12.7214 24.8438 3.9626 13.6010
# 3 9.9707 12.7214 87.5486 16.1942 -19.4605 0.1456
# 4 -0.9315 24.8438 16.1942 33.7449 4.2369 -7.2480
# 5 -1.3050 3.9626 -19.4605 4.2369 27.5861 4.5486
# 6 -0.6941 13.6010 0.1456 -7.2480 4.5486 51.8496
#
#
#
# Elastic Compliance Matrix: (Units=1/GPa)
#
#
# Indices 1 2 3 4 5 6 
#
# 1 0.015896 -0.003680 -0.002574 0.005026 -0.001642 0.002032
# 2 -0.003680 0.009867 0.000826 -0.008734 0.000983 -0.003947
# 3 -0.002574 0.000826 0.016706 -0.011078 0.013750 -0.003053
# 4 0.005026 -0.008734 -0.011078 0.045564 -0.014982 0.010073
# 5 -0.001642 0.000983 0.013750 -0.014982 0.049141 -0.006724
# 6 0.002032 -0.003947 -0.003053 0.010073 -0.006724 0.022356
#
#
# Mechanical properties :
#
#
# Convention : Reuss Voigt Hill
#
# Bulk Modulus (GPa) = 31.63180 43.19256 37.41218
# Shear Modulus (GPa) = 27.63618 39.12073 33.37845
#
# Velocity S-wave (km/s) = 3.35000 3.98575 3.68162
# Velocity P-wave (km/s) = 5.27337 6.22264 5.76757
#
# Compressibility (1/GPa) = 0.03161375
#
# Stress axis : x y z
#
# Youngs Moduli (GPa) = 62.90947 101.34568 59.85916
#
# Poissons Ratio (x) = 0.37296 0.15405
# Poissons Ratio (y) = 0.23151 -0.04944
# Poissons Ratio (z) = 0.16190 -0.08371
#
# Static dielectric constant tensor:
#      x y z
#    x 1.906640 0.174310 -0.118970 
#    y 0.174310 1.753250 0.083050 
#    z -0.118970 0.083050 2.002950 
# 
# From -- ./inp_files/307343.got.cif
#   From: 2010.05.17/outbox.cif.g08.bks.cpg/sg2_154_cif.got.tgz:307343.got - 2010.06.03 11:33:40.
