data_PCOD9028435
_publ_section_title
;
Structure prediction by ZEFSAII (Michael W. Deem and Ramdas Pophale) SiO2 
 PCOD9028435
Probable space group: P -1
;
_chemical_formula_sum "Si O2"
_cell_formula_units_Z 14
_cell_length_a 6.811494
_cell_length_b 23.980609
_cell_length_c 10.382469
_cell_angle_alpha 34.569421
_cell_angle_beta 76.627981
_cell_angle_gamma 102.551470
_cell_volume 631.059089
_symmetry_space_group_name_H-M "P -1"
_symmetry_group_IT_number 2
_symmetry_cell_setting 'triclinic'
loop_
_space_group_symop_operation_xyz
x,y,z
-x,-y,-z
loop_
_atom_site_type_symbol
_atom_site_label
_atom_site_fract_x
_atom_site_fract_y
_atom_site_fract_z
Si Si1 0.573066 0.438165 0.942575
Si Si2 0.284949 0.727612 0.276980
Si Si3 0.185401 0.167393 0.134908
Si Si4 0.292934 0.941708 0.767532
Si Si5 0.246289 0.380297 0.868979
Si Si6 0.379167 0.760006 0.729083
Si Si7 0.342713 0.655803 0.669664
O O1 0.374982 0.437423 0.886068
O O2 0.926978 0.585897 0.599192
O O3 0.531363 0.318489 0.104506
O O4 0.499939 0.381012 0.211209
O O5 0.423835 0.730405 0.379431
O O6 0.469790 0.739450 0.114036
O O7 0.334829 0.861501 0.001301
O O8 0.039490 0.165883 0.033835
O O9 0.143472 0.233400 0.125483
O O10 0.000000 0.000000 0.500000
O O11 0.500000 0.000000 0.500000
O O12 0.398769 0.078210 0.561604
O O13 0.500000 0.500000 0.500000
O O14 0.951410 0.339193 0.979520
O O15 0.362350 0.748116 0.598841
O O16 0.000000 0.500000 0.000000
#
# Coordination Sequence:
#
# PCOD9028435 Si02
#       7
#     2   2   2   2   2   2   2
#     4   9  22  40  63  88 122 157 198 255 300 348
#     4  11  22  42  62  87 124 161 204 247 299 361
#     4  12  24  38  61  88 128 161 195 246 307 362
#     4  12  23  40  60  92 125 161 198 249 304 357
#     4  12  23  35  62  98 116 155 205 245 310 361
#     4  10  22  42  62  85 128 155 203 253 295 354
#     4   8  20  44  63  84 119 163 201 252 298 347
#
# _framework density 22.184929
#
# number of rings (size 3 to 8) (size 9 to 14) (size 15 to 20)
#    0.857    0.571    2.857    2.571    0.000    1.714 
#    2.571    2.143    0.000    0.000    0.000    0.000 
#    0.000    0.000    0.000    0.000    0.000    0.000 
#
# Total GULP energy -78104.650862 kJ/mol
# GULP energy per Si atom -5578.903633 kJ/mol
# Density = 2.213444 g / cm^3
# Si number density = 22.184929 Si / 1000 Ang^3
#
#
#
# Elastic Constant Matrix: (Units=GPa)
#
#
# Indices 1 2 3 4 5 6 
#
# 1 47.8654 -11.5669 11.3318 4.9274 -7.2341 24.9504
# 2 -11.5669 77.5948 14.5830 -16.2702 2.3476 17.4537
# 3 11.3318 14.5830 60.8944 -1.6383 20.7298 8.2392
# 4 4.9274 -16.2702 -1.6383 31.3860 2.8846 4.9562
# 5 -7.2341 2.3476 20.7298 2.8846 27.8721 -0.4073
# 6 24.9504 17.4537 8.2392 4.9562 -0.4073 39.5438
#
#
#
# Elastic Compliance Matrix: (Units=1/GPa)
#
#
# Indices 1 2 3 4 5 6 
#
# 1 0.054184 0.020856 -0.017809 0.005468 0.024400 -0.040116
# 2 0.020856 0.025482 -0.009326 0.012441 0.008566 -0.023934
# 3 -0.017809 -0.009326 0.029538 0.000466 -0.025724 0.008875
# 4 0.005468 0.012441 0.000466 0.040103 -0.004332 -0.014109
# 5 0.024400 0.008566 -0.025724 -0.004332 0.060885 -0.012646
# 6 -0.040116 -0.023934 0.008875 -0.014109 -0.012646 0.060953
#
#
# Mechanical properties :
#
#
# Convention : Reuss Voigt Hill
#
# Bulk Modulus (GPa) = 10.34710 23.89449 17.12080
# Shear Modulus (GPa) = 15.82683 31.22749 23.52716
#
# Velocity S-wave (km/s) = 2.67386 3.75587 3.26007
# Velocity P-wave (km/s) = 3.76920 5.44084 4.68025
#
# Compressibility (1/GPa) = 0.09664539
#
# Stress axis : x y z
#
# Youngs Moduli (GPa) = 18.45567 39.24287 33.85459
#
# Poissons Ratio (x) = -0.81844 0.60291
# Poissons Ratio (y) = -0.38491 0.31574
# Poissons Ratio (z) = 0.32867 0.36600
#
# Static dielectric constant tensor:
#      x y z
#    x 1.375940 -0.505360 0.075410 
#    y -0.505360 1.280090 0.072240 
#    z 0.075410 0.072240 1.809040 
# 
# From -- ./inp_files/371307.got.cif
#   From: 2010.05.17/outbox.cif.g08.bks.cpg/sg2_186_cif.got.tgz:371307.got - 2010.06.03 11:33:40.
