data_PCOD9028982
_publ_section_title
;
Structure prediction by ZEFSAII (Michael W. Deem and Ramdas Pophale) SiO2 
 PCOD9028982
Probable space group: P -1
;
_chemical_formula_sum "Si O2"
_cell_formula_units_Z 16
_cell_length_a 15.585721
_cell_length_b 15.606236
_cell_length_c 8.933388
_cell_angle_alpha 123.463516
_cell_angle_beta 50.501176
_cell_angle_gamma 155.439770
_cell_volume 694.424712
_symmetry_space_group_name_H-M "P -1"
_symmetry_group_IT_number 2
_symmetry_cell_setting 'triclinic'
loop_
_space_group_symop_operation_xyz
x,y,z
-x,-y,-z
loop_
_atom_site_type_symbol
_atom_site_label
_atom_site_fract_x
_atom_site_fract_y
_atom_site_fract_z
Si Si1 0.534401 0.548839 0.684031
Si Si2 0.626523 0.172637 0.405058
Si Si3 0.050414 0.220373 0.647178
Si Si4 0.187860 0.065618 0.121296
Si Si5 0.676557 0.762496 0.163025
Si Si6 0.773270 0.041717 0.515286
Si Si7 0.213602 0.487369 0.301552
Si Si8 0.977295 0.287511 0.058349
O O1 0.500000 0.500000 0.500000
O O2 0.605513 0.720255 0.812132
O O3 0.351725 0.359494 0.819359
O O4 0.758496 0.659515 0.562496
O O5 0.445099 0.067163 0.385392
O O6 0.726981 0.351173 0.551697
O O7 0.823149 0.263332 0.201261
O O8 0.500000 0.000000 0.500000
O O9 0.007351 0.094287 0.692645
O O10 0.829200 0.066884 0.650583
O O11 0.098758 0.354724 0.832802
O O12 0.168884 0.115202 0.038337
O O13 0.186082 0.944103 0.959454
O O14 0.739521 0.906659 0.339266
O O15 0.433191 0.596293 0.201564
O O16 0.991223 0.271132 0.425045
O O17 0.143107 0.428852 0.149829
#
# Coordination Sequence:
#
# PCOD9028982 Si02
#       8
#     2   2   2   2   2   2   2   2
#     4  12  25  43  66 101 137 178 220 280 339 396
#     4  11  22  39  69 104 131 174 229 272 330 391
#     4  10  24  45  64  93 140 179 215 271 348 390
#     4  10  23  43  66  96 133 174 230 273 326 395
#     4  11  23  42  70 101 130 173 236 268 329 394
#     4  11  21  43  67  96 137 180 214 278 331 402
#     4  11  21  41  70  96 135 176 221 275 331 394
#     4  10  22  42  65  98 132 176 223 268 328 396
#
# _framework density 23.040654
#
# number of rings (size 3 to 8) (size 9 to 14) (size 15 to 20)
#    0.750    0.500    3.750    2.625    1.750    0.500 
#    0.000    2.500    0.000    0.000    0.000    0.000 
#    0.000    0.000    0.000    0.000    0.000    0.000 
#
# Total GULP energy -89416.675201 kJ/mol
# GULP energy per Si atom -5588.542200 kJ/mol
# Density = 2.298821 g / cm^3
# Si number density = 23.040654 Si / 1000 Ang^3
#
#
#
# Elastic Constant Matrix: (Units=GPa)
#
#
# Indices 1 2 3 4 5 6 
#
# 1 106.0802 42.5755 42.5323 13.4942 12.0725 25.8044
# 2 42.5755 102.2578 38.1133 20.5228 2.8876 5.8469
# 3 42.5323 38.1133 100.7474 14.5848 12.8767 7.5810
# 4 13.4942 20.5228 14.5848 49.3656 6.1351 8.3028
# 5 12.0725 2.8876 12.8767 6.1351 39.3713 -0.3933
# 6 25.8044 5.8469 7.5810 8.3028 -0.3933 34.5166
#
#
#
# Elastic Compliance Matrix: (Units=1/GPa)
#
#
# Indices 1 2 3 4 5 6 
#
# 1 0.015542 -0.004572 -0.003750 0.000918 -0.003450 -0.010281
# 2 -0.004572 0.013427 -0.003025 -0.004175 0.002085 0.002836
# 3 -0.003750 -0.003025 0.013145 -0.001388 -0.002704 0.000732
# 4 0.000918 -0.004175 -0.001388 0.023453 -0.003230 -0.005353
# 5 -0.003450 0.002085 -0.002704 -0.003230 0.027731 0.003912
# 6 -0.010281 0.002836 0.000732 -0.005353 0.003912 0.037349
#
#
# Mechanical properties :
#
#
# Convention : Reuss Voigt Hill
#
# Bulk Modulus (GPa) = 51.49449 61.72529 56.60989
# Shear Modulus (GPa) = 31.28619 37.04165 34.16392
#
# Velocity S-wave (km/s) = 3.68893 4.01392 3.85485
# Velocity P-wave (km/s) = 6.36727 6.95197 6.66604
#
# Compressibility (1/GPa) = 0.01941955
#
# Stress axis : x y z
#
# Youngs Moduli (GPa) = 64.34041 74.47593 76.07623
#
# Poissons Ratio (x) = 0.34054 0.28529
# Poissons Ratio (y) = 0.29419 0.23012
# Poissons Ratio (z) = 0.24128 0.22528
#
# Static dielectric constant tensor:
#      x y z
#    x 1.884360 0.037940 0.015980 
#    y 0.037940 1.931560 -0.010930 
#    z 0.015980 -0.010930 1.835840 
# 
# From -- ./inp_files/336770.got.cif
#   From: 2010.05.17/outbox.cif.g08.bks.cpg/sg2_169_cif.got.tgz:336770.got - 2010.06.03 11:33:40.
