data_PCOD9028657
_publ_section_title
;
Structure prediction by ZEFSAII (Michael W. Deem and Ramdas Pophale) SiO2 
 PCOD9028657
Probable space group: P -1
;
_chemical_formula_sum "Si O2"
_cell_formula_units_Z 16
_cell_length_a 6.701438
_cell_length_b 9.084256
_cell_length_c 18.760559
_cell_angle_alpha 57.297379
_cell_angle_beta 62.817625
_cell_angle_gamma 59.005780
_cell_volume 798.184887
_symmetry_space_group_name_H-M "P -1"
_symmetry_group_IT_number 2
_symmetry_cell_setting 'triclinic'
loop_
_space_group_symop_operation_xyz
x,y,z
-x,-y,-z
loop_
_atom_site_type_symbol
_atom_site_label
_atom_site_fract_x
_atom_site_fract_y
_atom_site_fract_z
Si Si1 0.401682 0.614835 0.412415
Si Si2 0.531512 0.734551 0.610038
Si Si3 0.418918 0.938566 0.954216
Si Si4 0.787737 0.345036 0.886699
Si Si5 0.632882 0.430515 0.201412
Si Si6 0.088998 0.071499 0.537482
Si Si7 0.720139 0.719642 0.223614
Si Si8 0.108504 0.389448 0.082634
O O1 0.500000 0.500000 0.500000
O O2 0.399480 0.451007 0.401485
O O3 0.577375 0.710293 0.321412
O O4 0.143651 0.779955 0.424316
O O5 0.512939 0.682988 0.708376
O O6 0.731252 0.822992 0.540465
O O7 0.265253 0.884262 0.596946
O O8 0.646137 0.774209 0.929046
O O9 0.353015 0.097981 0.863047
O O10 0.222315 0.846643 0.029928
O O11 0.500000 0.000000 0.000000
O O12 0.529020 0.450742 0.866544
O O13 0.843833 0.466925 0.907794
O O14 0.996663 0.323389 0.800498
O O15 0.672350 0.567436 0.219416
O O16 0.902151 0.315502 0.163109
O O17 0.000000 0.000000 0.500000
O O18 0.000000 0.500000 0.000000
#
# Coordination Sequence:
#
# PCOD9028657 Si02
#       8
#     2   2   2   2   2   2   2   2
#     4  11  23  44  68  95 134 172 213 271 329 386
#     4  10  24  43  67  95 130 172 214 267 326 388
#     4  12  22  42  63  91 131 164 209 271 308 376
#     4  11  22  43  65  88 129 171 208 256 326 377
#     4  10  22  42  64  91 125 169 210 259 317 385
#     4  11  23  43  67  97 128 169 219 267 328 384
#     4  10  24  41  63  96 124 166 218 258 322 383
#     4  11  23  40  64  92 125 167 213 253 318 383
#
# _framework density 20.045480000000001
#
# number of rings (size 3 to 8) (size 9 to 14) (size 15 to 20)
#    0.000    1.250    3.750    1.875    3.500    1.000 
#    0.000    0.000    0.000    0.000    0.000    0.000 
#    0.000    0.000    0.000    0.000    0.000    0.000 
#
# Total GULP energy -89263.755396 kJ/mol
# GULP energy per Si atom -5578.984712 kJ/mol
# Density = 1.999986 g / cm^3
# Si number density = 20.045480 Si / 1000 Ang^3
#
#
#
# Elastic Constant Matrix: (Units=GPa)
#
#
# Indices 1 2 3 4 5 6 
#
# 1 77.2245 33.0504 28.3425 11.4481 -16.0829 -17.9802
# 2 33.0504 95.3417 32.9580 4.5046 -17.1182 -15.5048
# 3 28.3425 32.9580 114.0330 7.6727 -16.9758 -10.6799
# 4 11.4481 4.5046 7.6727 23.6748 -6.2633 -1.2251
# 5 -16.0829 -17.1182 -16.9758 -6.2633 28.3925 4.4718
# 6 -17.9802 -15.5048 -10.6799 -1.2251 4.4718 29.2879
#
#
#
# Elastic Compliance Matrix: (Units=1/GPa)
#
#
# Indices 1 2 3 4 5 6 
#
# 1 0.018915 -0.003438 -0.001797 -0.006187 0.004922 0.008126
# 2 -0.003438 0.013839 -0.002163 0.001187 0.004774 0.003747
# 3 -0.001797 -0.002163 0.010544 -0.001139 0.003572 0.001003
# 4 -0.006187 0.001187 -0.001139 0.047182 0.007369 -0.002737
# 5 0.004922 0.004774 0.003572 0.007369 0.044593 0.000352
# 6 0.008126 0.003747 0.001003 -0.002737 0.000352 0.041314
#
#
# Mechanical properties :
#
#
# Convention : Reuss Voigt Hill
#
# Bulk Modulus (GPa) = 35.08817 52.81121 43.94969
# Shear Modulus (GPa) = 24.91482 29.08760 27.00121
#
# Velocity S-wave (km/s) = 3.52932 3.81344 3.67413
# Velocity P-wave (km/s) = 5.84384 6.76703 6.32231
#
# Compressibility (1/GPa) = 0.02849964
#
# Stress axis : x y z
#
# Youngs Moduli (GPa) = 52.86944 72.26108 94.84244
#
# Poissons Ratio (x) = 0.24842 0.17047
# Poissons Ratio (y) = 0.18176 0.20518
# Poissons Ratio (z) = 0.09503 0.15633
#
# Static dielectric constant tensor:
#      x y z
#    x 1.674640 -0.028910 -0.003170 
#    y -0.028910 1.725850 -0.025180 
#    z -0.003170 -0.025180 1.823980 
# 
# From -- ./inp_files/52171.got.cif
#   From: 2010.05.17/outbox.cif.g08.bks.cpg/sg2_27_cif.got.tgz:52171.got - 2010.06.03 11:33:40.
