data_PCOD9028871
_publ_section_title
;
Structure prediction by ZEFSAII (Michael W. Deem and Ramdas Pophale) SiO2 
 PCOD9028871
Probable space group: P -1
;
_chemical_formula_sum "Si O2"
_cell_formula_units_Z 16
_cell_length_a 8.088661
_cell_length_b 16.264159
_cell_length_c 7.940841
_cell_angle_alpha 87.848262
_cell_angle_beta 81.488399
_cell_angle_gamma 138.252503
_cell_volume 670.331326
_symmetry_space_group_name_H-M "P -1"
_symmetry_group_IT_number 2
_symmetry_cell_setting 'triclinic'
loop_
_space_group_symop_operation_xyz
x,y,z
-x,-y,-z
loop_
_atom_site_type_symbol
_atom_site_label
_atom_site_fract_x
_atom_site_fract_y
_atom_site_fract_z
Si Si1 0.286670 0.578355 0.989502
Si Si2 0.792509 0.568496 0.278815
Si Si3 0.083183 0.856859 0.593129
Si Si4 0.664728 0.791751 0.468610
Si Si5 0.381015 0.556233 0.336279
Si Si6 0.376311 0.791885 0.051501
Si Si7 0.855873 0.988267 0.175557
Si Si8 0.445097 0.864696 0.664413
O O1 0.351241 0.548863 0.818015
O O2 0.276683 0.521551 0.166217
O O3 0.435283 0.718338 0.999047
O O4 0.000000 0.500000 0.000000
O O5 0.207456 0.463031 0.526658
O O6 0.081806 0.688056 0.161618
O O7 0.627118 0.588896 0.294613
O O8 0.189252 0.806213 0.620399
O O9 0.827810 0.780957 0.533205
O O10 0.045302 0.889462 0.774525
O O11 0.317005 0.991736 0.451629
O O12 0.478348 0.682321 0.368011
O O13 0.861860 0.925698 0.332132
O O14 0.503420 0.792467 0.610739
O O15 0.421730 0.859753 0.868988
O O16 0.564373 0.890807 0.163567
O O17 0.000000 0.000000 0.000000
#
# Coordination Sequence:
#
# PCOD9028871 Si02
#       8
#     2   2   2   2   2   2   2   2
#     4  10  22  44  66  97 133 170 222 278 337 401
#     4  10  25  43  68 100 135 172 226 281 335 405
#     4  10  23  42  64  98 130 178 219 277 336 393
#     4  11  22  43  67  94 131 174 227 265 339 408
#     4  11  23  46  68  97 135 179 219 281 339 403
#     4  11  22  42  64 100 127 177 224 271 337 400
#     4  11  22  39  68  97 134 174 221 274 333 399
#     4  10  22  42  65  92 135 174 223 278 328 400
#
# _framework density 23.868794999999999
#
# number of rings (size 3 to 8) (size 9 to 14) (size 15 to 20)
#    0.000    1.500    1.250    4.125    0.000    6.500 
#   22.500    0.000    0.000    0.000    0.000    0.000 
#    0.000    0.000    0.000    0.000    0.000    0.000 
#
# Total GULP energy -89545.202623 kJ/mol
# GULP energy per Si atom -5596.575164 kJ/mol
# Density = 2.381447 g / cm^3
# Si number density = 23.868795 Si / 1000 Ang^3
#
#
#
# Elastic Constant Matrix: (Units=GPa)
#
#
# Indices 1 2 3 4 5 6 
#
# 1 107.6715 14.6250 64.6262 -1.7676 11.6080 8.5015
# 2 14.6250 34.5837 20.2883 15.0790 -3.4152 6.7262
# 3 64.6262 20.2883 138.2382 -2.2075 5.1947 12.8629
# 4 -1.7676 15.0790 -2.2075 31.0888 6.8003 3.3874
# 5 11.6080 -3.4152 5.1947 6.8003 47.0541 1.2522
# 6 8.5015 6.7262 12.8629 3.3874 1.2522 19.4331
#
#
#
# Elastic Compliance Matrix: (Units=1/GPa)
#
#
# Indices 1 2 3 4 5 6 
#
# 1 0.013668 -0.004086 -0.005487 0.003275 -0.003502 -0.001278
# 2 -0.004086 0.046323 -0.004914 -0.024129 0.008595 -0.007341
# 3 -0.005487 -0.004914 0.010940 0.003382 -0.000601 -0.003691
# 4 0.003275 -0.024129 0.003382 0.046707 -0.009607 -0.002842
# 5 -0.003502 0.008595 -0.000601 -0.009607 0.024219 -0.000931
# 6 -0.001278 -0.007341 -0.003691 -0.002842 -0.000931 0.057557
#
#
# Mechanical properties :
#
#
# Convention : Reuss Voigt Hill
#
# Bulk Modulus (GPa) = 23.83334 53.28582 38.55958
# Shear Modulus (GPa) = 20.62916 31.57881 26.10398
#
# Velocity S-wave (km/s) = 2.94304 3.64128 3.31062
# Velocity P-wave (km/s) = 4.64279 6.32862 5.55009
#
# Compressibility (1/GPa) = 0.04195803
#
# Stress axis : x y z
#
# Youngs Moduli (GPa) = 73.16145 21.58748 91.40397
#
# Poissons Ratio (x) = 0.08821 0.50158
# Poissons Ratio (y) = 0.29893 0.44912
# Poissons Ratio (z) = 0.40147 0.10607
#
# Static dielectric constant tensor:
#      x y z
#    x 1.890670 -0.026500 -0.006610 
#    y -0.026500 1.952880 0.000540 
#    z -0.006610 0.000540 1.919660 
# 
# From -- ./inp_files/212806.got.cif
#   From: 2010.05.17/outbox.cif.g08.bks.cpg/sg2_107_cif.got.tgz:212806.got - 2010.06.03 11:33:40.
