data_PCOD9028596
_publ_section_title
;
Structure prediction by ZEFSAII (Michael W. Deem and Ramdas Pophale) SiO2 
 PCOD9028596
Probable space group: P -1
;
_chemical_formula_sum "Si O2"
_cell_formula_units_Z 14
_cell_length_a 4.895968
_cell_length_b 25.867615
_cell_length_c 5.417931
_cell_angle_alpha 63.496469
_cell_angle_beta 88.218822
_cell_angle_gamma 58.093408
_cell_volume 501.982004
_symmetry_space_group_name_H-M "P -1"
_symmetry_group_IT_number 2
_symmetry_cell_setting 'triclinic'
loop_
_space_group_symop_operation_xyz
x,y,z
-x,-y,-z
loop_
_atom_site_type_symbol
_atom_site_label
_atom_site_fract_x
_atom_site_fract_y
_atom_site_fract_z
Si Si1 0.617000 0.214743 0.221811
Si Si2 0.413532 0.946986 0.203606
Si Si3 0.893509 0.446535 0.112229
Si Si4 0.302543 0.907434 0.792698
Si Si5 0.807581 0.800219 0.350679
Si Si6 0.167230 0.416121 0.669759
Si Si7 0.894009 0.295625 0.855297
O O1 0.807254 0.138580 0.238268
O O2 0.810367 0.251565 0.136677
O O3 0.470389 0.207563 0.498524
O O4 0.267646 0.270145 0.966542
O O5 0.306052 0.954350 0.476491
O O6 0.757290 0.866172 0.361048
O O7 0.199116 0.941958 0.996620
O O8 0.500000 0.000000 0.000000
O O9 0.032578 0.403106 0.451965
O O10 0.500000 0.500000 0.000000
O O11 0.000000 0.500000 0.000000
O O12 0.047474 0.401351 0.957664
O O13 0.670997 0.842976 0.002596
O O14 0.105438 0.726942 0.382377
O O15 0.000000 0.500000 0.500000
O O16 0.564499 0.373676 0.736701
#
# Coordination Sequence:
#
# PCOD9028596 Si02
#       7
#     2   2   2   2   2   2   2
#     4  10  22  42  63  98 128 181 219 283 326 409
#     4   9  15  30  61  96 132 174 223 270 332 392
#     4  10  22  42  66  89 127 165 206 260 327 391
#     4   8  17  33  55  91 126 175 213 274 320 390
#     4   8  20  38  60  92 133 172 221 274 330 390
#     4  10  24  45  67  99 130 172 217 279 333 405
#     4  11  24  41  68  97 133 173 229 272 345 397
#
# _framework density 27.889447000000001
#
# number of rings (size 3 to 8) (size 9 to 14) (size 15 to 20)
#    0.857    1.714    0.000    0.857    2.000    6.857 
#    2.571    0.000    0.000    4.286    0.000    0.000 
#    0.000    0.000    0.000    0.000    0.000    0.000 
#
# Total GULP energy -78142.284129 kJ/mol
# GULP energy per Si atom -5581.591724 kJ/mol
# Density = 2.782597 g / cm^3
# Si number density = 27.889447 Si / 1000 Ang^3
#
#
#
# Elastic Constant Matrix: (Units=GPa)
#
#
# Indices 1 2 3 4 5 6 
#
# 1 71.3953 0.7128 -2.0512 8.2503 -8.6741 -2.0898
# 2 0.7128 143.5335 46.1536 44.7561 -16.9346 -11.5302
# 3 -2.0512 46.1536 153.2696 29.4845 1.4631 2.9372
# 4 8.2503 44.7561 29.4845 56.9458 9.5897 -6.2630
# 5 -8.6741 -16.9346 1.4631 9.5897 42.3327 4.7161
# 6 -2.0898 -11.5302 2.9372 -6.2630 4.7161 32.7610
#
#
#
# Elastic Compliance Matrix: (Units=1/GPa)
#
#
# Indices 1 2 3 4 5 6 
#
# 1 0.015137 0.001793 0.000521 -0.004697 0.004870 -0.000049
# 2 0.001793 0.011332 -0.001696 -0.009286 0.006897 0.001487
# 3 0.000521 -0.001696 0.007634 -0.002897 0.000022 -0.001805
# 4 -0.004697 -0.009286 -0.002897 0.029449 -0.011694 0.004005
# 5 0.004870 0.006897 0.000022 -0.011694 0.030461 -0.003884
# 6 -0.000049 0.001487 -0.001805 0.004005 -0.003884 0.032531
#
#
# Mechanical properties :
#
#
# Convention : Reuss Voigt Hill
#
# Bulk Modulus (GPa) = 28.29911 50.86986 39.58448
# Shear Modulus (GPa) = 36.47285 47.96678 42.21981
#
# Velocity S-wave (km/s) = 3.62023 4.15165 3.89501
# Velocity P-wave (km/s) = 5.25772 6.42348 5.86961
#
# Compressibility (1/GPa) = 0.03533680
#
# Stress axis : x y z
#
# Youngs Moduli (GPa) = 66.06482 88.24354 130.99407
#
# Poissons Ratio (x) = -0.15819 -0.06822
# Poissons Ratio (y) = -0.11843 0.22223
# Poissons Ratio (z) = -0.03441 0.14970
#
# Static dielectric constant tensor:
#      x y z
#    x 2.288030 0.065770 0.118850 
#    y 0.065770 2.614770 0.009500 
#    z 0.118850 0.009500 2.399480 
# 
# From -- ./inp_files/14876.got.cif
#   From: 2010.05.17/outbox.cif.g08.bks.cpg/sg2_8_cif.got.tgz:14876.got - 2010.06.03 11:33:40.
