data_PCOD9028837
_publ_section_title
;
Structure prediction by ZEFSAII (Michael W. Deem and Ramdas Pophale) SiO2 
 PCOD9028837
Probable space group: P -1
;
_chemical_formula_sum "Si O2"
_cell_formula_units_Z 16
_cell_length_a 8.295619
_cell_length_b 24.460269
_cell_length_c 20.477429
_cell_angle_alpha 16.901246
_cell_angle_beta 138.202830
_cell_angle_gamma 144.588783
_cell_volume 685.295498
_symmetry_space_group_name_H-M "P -1"
_symmetry_group_IT_number 2
_symmetry_cell_setting 'triclinic'
loop_
_space_group_symop_operation_xyz
x,y,z
-x,-y,-z
loop_
_atom_site_type_symbol
_atom_site_label
_atom_site_fract_x
_atom_site_fract_y
_atom_site_fract_z
Si Si1 0.673526 0.708104 0.126809
Si Si2 0.682115 0.144706 0.500361
Si Si3 0.784321 0.944769 0.058058
Si Si4 0.761165 0.047377 0.156815
Si Si5 0.321275 0.938912 0.739042
Si Si6 0.728328 0.684552 0.461461
Si Si7 0.612318 0.666121 0.012897
Si Si8 0.264657 0.495870 0.980300
O O1 0.529704 0.547920 0.327050
O O2 0.562997 0.878579 0.895656
O O3 0.572680 0.584970 0.167911
O O4 0.013484 0.838151 0.084487
O O5 0.713980 0.276731 0.293778
O O6 0.975844 0.295266 0.455808
O O7 0.433877 0.100960 0.525865
O O8 0.634042 0.903977 0.747934
O O9 0.723497 0.748259 0.312829
O O10 0.493689 0.917394 0.978745
O O11 0.000000 0.000000 0.000000
O O12 0.730940 0.979906 0.301010
O O13 0.074248 0.265415 0.994703
O O14 0.732959 0.865499 0.305079
O O15 0.039729 0.713313 0.889910
O O16 0.361725 0.510268 0.067211
O O17 0.500000 0.500000 0.000000
#
# Coordination Sequence:
#
# PCOD9028837 Si02
#       8
#     2   2   2   2   2   2   2   2
#     4  11  23  43  67  95 126 169 216 257 318 384
#     4  10  22  42  65  90 130 170 213 258 322 377
#     4  12  23  43  69  94 131 170 208 261 324 376
#     4  11  22  43  65  92 136 166 206 270 314 370
#     4  11  22  44  65  92 133 169 209 267 316 376
#     4  11  23  42  68  96 127 168 214 261 317 379
#     4  10  23  44  63  93 132 168 212 265 316 375
#     4  12  24  40  67  97 127 169 217 264 315 375
#
# _framework density 23.347594000000001
#
# number of rings (size 3 to 8) (size 9 to 14) (size 15 to 20)
#    0.000    1.000    7.500    0.750    0.000    4.500 
#    4.500    0.000    0.000    0.000    0.000    0.000 
#    0.000    0.000    0.000    0.000    0.000    0.000 
#
# Total GULP energy -89486.234489 kJ/mol
# GULP energy per Si atom -5592.889656 kJ/mol
# Density = 2.329445 g / cm^3
# Si number density = 23.347594 Si / 1000 Ang^3
#
#
#
# Elastic Constant Matrix: (Units=GPa)
#
#
# Indices 1 2 3 4 5 6 
#
# 1 87.9453 24.7039 21.2182 8.7285 -22.7160 -9.9171
# 2 24.7039 116.1784 36.4390 5.7005 -11.6759 -8.2838
# 3 21.2182 36.4390 88.9938 -1.4191 -30.5799 -2.9254
# 4 8.7285 5.7005 -1.4191 21.7475 -4.4380 -11.5022
# 5 -22.7160 -11.6759 -30.5799 -4.4380 38.1995 2.8807
# 6 -9.9171 -8.2838 -2.9254 -11.5022 2.8807 39.6013
#
#
#
# Elastic Compliance Matrix: (Units=1/GPa)
#
#
# Indices 1 2 3 4 5 6 
#
# 1 0.014346 -0.002033 -0.000014 -0.002740 0.007442 0.001829
# 2 -0.002033 0.010405 -0.004430 -0.002132 -0.001887 0.000858
# 3 -0.000014 -0.004430 0.017805 0.005627 0.013466 0.001040
# 4 -0.002740 -0.002132 0.005627 0.057794 0.007769 0.015505
# 5 0.007442 -0.001887 0.013466 0.007769 0.041582 0.001695
# 6 0.001829 0.000858 0.001040 0.015505 0.001695 0.030346
#
#
# Mechanical properties :
#
#
# Convention : Reuss Voigt Hill
#
# Bulk Modulus (GPa) = 33.78246 50.87108 42.32677
# Shear Modulus (GPa) = 25.62788 33.96010 29.79399
#
# Velocity S-wave (km/s) = 3.31670 3.81799 3.57614
# Velocity P-wave (km/s) = 5.40075 6.42432 5.93464
#
# Compressibility (1/GPa) = 0.02960116
#
# Stress axis : x y z
#
# Youngs Moduli (GPa) = 69.70769 96.10407 56.16310
#
# Poissons Ratio (x) = 0.19540 0.00080
# Poissons Ratio (y) = 0.14173 0.24881
# Poissons Ratio (z) = 0.00099 0.42575
#
# Static dielectric constant tensor:
#      x y z
#    x 1.933160 -0.032440 0.026550 
#    y -0.032440 1.886190 0.007560 
#    z 0.026550 0.007560 1.879770 
# 
# From -- ./inp_files/504754.got.cif
#   From: 2010.05.17/outbox.cif.g08.bks.cpg/sg2_253_cif.got.tgz:504754.got - 2010.06.03 11:33:40.
