data_PCOD9028767
_publ_section_title
;
Structure prediction by ZEFSAII (Michael W. Deem and Ramdas Pophale) SiO2 
 PCOD9028767
Probable space group: P -1
;
_chemical_formula_sum "Si O2"
_cell_formula_units_Z 16
_cell_length_a 15.147033
_cell_length_b 22.223304
_cell_length_c 7.215582
_cell_angle_alpha 70.783407
_cell_angle_beta 63.586506
_cell_angle_gamma 17.910256
_cell_volume 628.674292
_symmetry_space_group_name_H-M "P -1"
_symmetry_group_IT_number 2
_symmetry_cell_setting 'triclinic'
loop_
_space_group_symop_operation_xyz
x,y,z
-x,-y,-z
loop_
_atom_site_type_symbol
_atom_site_label
_atom_site_fract_x
_atom_site_fract_y
_atom_site_fract_z
Si Si1 0.830126 0.683709 0.737054
Si Si2 0.763267 0.788673 0.051301
Si Si3 0.591252 0.658712 0.713593
Si Si4 0.472656 0.785453 0.059429
Si Si5 0.377347 0.899538 0.417035
Si Si6 0.739044 0.266148 0.157560
Si Si7 0.767313 0.329562 0.703377
Si Si8 0.769572 0.873602 0.269145
O O1 0.047410 0.562871 0.479570
O O2 0.458635 0.933455 0.806959
O O3 0.954254 0.645650 0.839574
O O4 0.780280 0.640619 0.868692
O O5 0.584608 0.836429 0.255172
O O6 0.925668 0.732362 0.112635
O O7 0.500000 0.000000 0.000000
O O8 0.455984 0.811280 0.618214
O O9 0.410028 0.712470 0.728167
O O10 0.532261 0.691554 0.955530
O O11 0.455132 0.801635 0.280788
O O12 0.112175 0.030705 0.095901
O O13 0.007544 0.149981 0.514811
O O14 0.546288 0.436316 0.290573
O O15 0.693619 0.322476 0.935815
O O16 0.988303 0.244981 0.693297
O O17 0.500000 0.000000 0.500000
#
# Coordination Sequence:
#
# PCOD9028767 Si02
#       8
#     2   2   2   2   2   2   2   2
#     4  10  22  42  64  98 136 178 220 285 336 400
#     4   9  21  37  65 101 140 165 225 284 340 401
#     4  12  25  46  69 100 146 181 227 282 339 410
#     4  11  24  45  71  97 140 183 225 282 344 405
#     4  11  24  44  73 101 140 182 227 280 348 409
#     4  11  25  46  69  99 139 180 235 284 335 409
#     4  11  23  44  71 101 134 184 232 284 341 405
#     4  11  18  36  68  99 131 174 219 277 351 391
#
# _framework density 25.450379999999999
#
# number of rings (size 3 to 8) (size 9 to 14) (size 15 to 20)
#    0.000    1.250    3.750    1.500    1.750    3.000 
#    6.750    1.250    0.000    0.000    0.000    0.000 
#    0.000    0.000    0.000    0.000    0.000    0.000 
#
# Total GULP energy -89487.258316 kJ/mol
# GULP energy per Si atom -5592.953645 kJ/mol
# Density = 2.539245 g / cm^3
# Si number density = 25.450380 Si / 1000 Ang^3
#
#
#
# Elastic Constant Matrix: (Units=GPa)
#
#
# Indices 1 2 3 4 5 6 
#
# 1 67.2684 44.3915 39.7310 2.9816 7.0672 10.1789
# 2 44.3915 117.7816 31.6427 28.0169 9.9344 21.0216
# 3 39.7310 31.6427 86.9723 24.2885 13.4086 8.1925
# 4 2.9816 28.0169 24.2885 47.5331 14.7243 6.7160
# 5 7.0672 9.9344 13.4086 14.7243 55.7392 2.2737
# 6 10.1789 21.0216 8.1925 6.7160 2.2737 35.8396
#
#
#
# Elastic Compliance Matrix: (Units=1/GPa)
#
#
# Indices 1 2 3 4 5 6 
#
# 1 0.028179 -0.009525 -0.011986 0.010741 -0.001765 -0.001577
# 2 -0.009525 0.014346 0.001793 -0.008311 0.000603 -0.004600
# 3 -0.011986 0.001793 0.019210 -0.009849 -0.000814 -0.000142
# 4 0.010741 -0.008311 -0.009849 0.032382 -0.006000 -0.001612
# 5 -0.001765 0.000603 -0.000814 -0.006000 0.019830 0.000200
# 6 -0.001577 -0.004600 -0.000142 -0.001612 0.000200 0.031370
#
#
# Mechanical properties :
#
#
# Convention : Reuss Voigt Hill
#
# Bulk Modulus (GPa) = 44.84477 55.95032 50.39755
# Shear Modulus (GPa) = 26.01650 38.23950 32.12800
#
# Velocity S-wave (km/s) = 3.20072 3.88043 3.55685
# Velocity P-wave (km/s) = 5.59627 6.48913 6.05917
#
# Compressibility (1/GPa) = 0.02229914
#
# Stress axis : x y z
#
# Youngs Moduli (GPa) = 35.48724 69.70780 52.05492
#
# Poissons Ratio (x) = 0.66397 0.62395
# Poissons Ratio (y) = 0.33802 -0.09336
# Poissons Ratio (z) = 0.42536 -0.12502
#
# Static dielectric constant tensor:
#      x y z
#    x 2.001770 0.030750 0.033980 
#    y 0.030750 2.195840 -0.055120 
#    z 0.033980 -0.055120 1.976510 
# 
# From -- ./inp_files/319327.got.cif
#   From: 2010.05.17/outbox.cif.g08.bks.cpg/sg2_160_cif.got.tgz:319327.got - 2010.06.03 11:33:40.
