data_PCOD9028562
_publ_section_title
;
Structure prediction by ZEFSAII (Michael W. Deem and Ramdas Pophale) SiO2 
 PCOD9028562
Probable space group: P -1
;
_chemical_formula_sum "Si O2"
_cell_formula_units_Z 16
_cell_length_a 7.131451
_cell_length_b 21.782632
_cell_length_c 11.745747
_cell_angle_alpha 28.672592
_cell_angle_beta 57.417712
_cell_angle_gamma 68.821175
_cell_volume 709.223159
_symmetry_space_group_name_H-M "P -1"
_symmetry_group_IT_number 2
_symmetry_cell_setting 'triclinic'
loop_
_space_group_symop_operation_xyz
x,y,z
-x,-y,-z
loop_
_atom_site_type_symbol
_atom_site_label
_atom_site_fract_x
_atom_site_fract_y
_atom_site_fract_z
Si Si1 0.249794 0.326876 0.328963
Si Si2 0.748508 0.953652 0.890667
Si Si3 0.247080 0.844494 0.261341
Si Si4 0.584755 0.507191 0.589840
Si Si5 0.509907 0.231490 0.190091
Si Si6 0.971545 0.750657 0.033811
Si Si7 0.630262 0.399056 0.278228
Si Si8 0.907975 0.881378 0.634663
O O1 0.396573 0.264908 0.290446
O O2 0.397456 0.360225 0.341272
O O3 0.000148 0.225360 0.597628
O O4 0.225834 0.465071 0.053661
O O5 0.748876 0.010827 0.923815
O O6 0.488517 0.881979 0.052141
O O7 0.872145 0.091075 0.563153
O O8 0.898611 0.852391 0.978678
O O9 0.279276 0.730968 0.524915
O O10 0.500000 0.500000 0.500000
O O11 0.426611 0.565590 0.632470
O O12 0.845005 0.604064 0.356328
O O13 0.566726 0.364583 0.879692
O O14 0.311902 0.123926 0.362113
O O15 0.757566 0.203979 0.156862
O O16 0.857741 0.757188 0.936124
O O17 0.000000 0.000000 0.500000
#
# Coordination Sequence:
#
# PCOD9028562 Si02
#       8
#     2   2   2   2   2   2   2   2
#     4  10  23  43  67 101 129 169 221 266 338 392
#     4  10  23  41  65  95 129 176 229 259 323 391
#     4  11  21  44  69  90 134 178 214 274 321 387
#     4  11  22  45  70 101 134 169 216 272 341 398
#     4  11  23  41  70  98 133 175 216 276 334 389
#     4  11  23  44  65 100 134 169 221 278 327 393
#     4  10  23  44  68 101 132 166 220 275 326 399
#     4  10  22  42  63  94 131 175 223 266 320 392
#
# _framework density 22.559895000000001
#
# number of rings (size 3 to 8) (size 9 to 14) (size 15 to 20)
#    0.000    1.500    3.750    0.750    1.750    2.000 
#   13.500    3.750    0.000    0.000    0.000    0.000 
#    0.000    0.000    0.000    0.000    0.000    0.000 
#
# Total GULP energy -89192.978924 kJ/mol
# GULP energy per Si atom -5574.561183 kJ/mol
# Density = 2.250855 g / cm^3
# Si number density = 22.559895 Si / 1000 Ang^3
#
#
#
# Elastic Constant Matrix: (Units=GPa)
#
#
# Indices 1 2 3 4 5 6 
#
# 1 77.3562 47.5530 21.0469 -3.1005 -23.6172 5.0727
# 2 47.5530 80.6088 7.0302 -9.2312 -0.5387 -5.1720
# 3 21.0469 7.0302 68.1618 -9.1257 -34.9986 -1.9387
# 4 -3.1005 -9.2312 -9.1257 19.9166 -0.5144 -0.5336
# 5 -23.6172 -0.5387 -34.9986 -0.5144 46.3002 3.2519
# 6 5.0727 -5.1720 -1.9387 -0.5336 3.2519 30.5447
#
#
#
# Elastic Compliance Matrix: (Units=1/GPa)
#
#
# Indices 1 2 3 4 5 6 
#
# 1 0.029322 -0.018242 -0.000095 -0.003797 0.015309 -0.009661
# 2 -0.018242 0.024641 -0.000749 0.008202 -0.010081 0.008371
# 3 -0.000095 -0.000749 0.026962 0.012511 0.020488 -0.000362
# 4 -0.003797 0.008202 0.012511 0.059441 0.008066 0.002993
# 5 0.015309 -0.010081 0.020488 0.008066 0.045403 -0.007642
# 6 -0.009661 0.008371 -0.000362 0.002993 -0.007642 0.036604
#
#
# Mechanical properties :
#
#
# Convention : Reuss Voigt Hill
#
# Bulk Modulus (GPa) = 23.38980 41.93189 32.66084
# Shear Modulus (GPa) = 18.19529 29.38543 23.79036
#
# Velocity S-wave (km/s) = 2.84303 3.61300 3.25089
# Velocity P-wave (km/s) = 4.60081 6.00269 5.34789
#
# Compressibility (1/GPa) = 0.04275368
#
# Stress axis : x y z
#
# Youngs Moduli (GPa) = 34.10390 40.58236 37.08900
#
# Poissons Ratio (x) = 0.74030 0.00353
# Poissons Ratio (y) = 0.62212 0.02778
# Poissons Ratio (z) = 0.00324 0.03039
#
# Static dielectric constant tensor:
#      x y z
#    x 1.863860 0.002300 0.035560 
#    y 0.002300 1.980320 0.061400 
#    z 0.035560 0.061400 1.974490 
# 
# From -- ./inp_files/370958.got.cif
#   From: 2010.05.17/outbox.cif.g08.bks.cpg/sg2_186_cif.got.tgz:370958.got - 2010.06.03 11:33:40.
