data_PCOD9028268
_publ_section_title
;
Structure prediction by ZEFSAII (Michael W. Deem and Ramdas Pophale) SiO2 
 PCOD9028268
Probable space group: P -1
;
_chemical_formula_sum "Si O2"
_cell_formula_units_Z 16
_cell_length_a 12.886492
_cell_length_b 9.637982
_cell_length_c 15.088129
_cell_angle_alpha 142.200290
_cell_angle_beta 44.272340
_cell_angle_gamma 134.729897
_cell_volume 758.920983
_symmetry_space_group_name_H-M "P -1"
_symmetry_group_IT_number 2
_symmetry_cell_setting 'triclinic'
loop_
_space_group_symop_operation_xyz
x,y,z
-x,-y,-z
loop_
_atom_site_type_symbol
_atom_site_label
_atom_site_fract_x
_atom_site_fract_y
_atom_site_fract_z
Si Si1 0.746701 0.041607 0.610060
Si Si2 0.984869 0.525989 0.415600
Si Si3 0.552387 0.794863 0.118481
Si Si4 0.862025 0.003057 0.150097
Si Si5 0.836965 0.540442 0.025601
Si Si6 0.221192 0.151747 0.311516
Si Si7 0.513707 0.782218 0.938959
Si Si8 0.935138 0.714691 0.239125
O O1 0.577600 0.075686 0.713778
O O2 0.856445 0.301816 0.639808
O O3 0.748108 0.967500 0.675689
O O4 0.819228 0.845771 0.420523
O O5 0.912224 0.262874 0.290716
O O6 0.867463 0.662035 0.523547
O O7 0.000000 0.500000 0.500000
O O8 0.698232 0.905720 0.149397
O O9 0.500000 0.500000 0.000000
O O10 0.593532 0.857771 0.022415
O O11 0.859930 0.812892 0.130196
O O12 0.000000 0.000000 0.000000
O O13 0.662391 0.391070 0.026459
O O14 0.848587 0.541526 0.125479
O O15 0.972627 0.450321 0.852953
O O16 0.370273 0.296796 0.235416
O O17 0.092562 0.935700 0.228342
O O18 0.500000 0.000000 0.000000
#
# Coordination Sequence:
#
# PCOD9028268 Si02
#       8
#     2   2   2   2   2   2   2   2
#     4  11  24  47  71 100 143 182 238 291 356 414
#     4  11  26  46  73 106 142 190 236 290 355 424
#     4  12  26  46  72 102 146 187 229 299 361 420
#     4  12  28  42  72 105 142 181 238 287 362 428
#     4  11  24  44  66 103 140 179 233 293 352 419
#     4  11  24  44  71 100 141 185 237 289 354 414
#     4  12  24  45  68 102 136 184 234 284 352 421
#     4  10  22  41  73  96 135 182 229 292 348 409
#
# _framework density 21.082564999999999
#
# number of rings (size 3 to 8) (size 9 to 14) (size 15 to 20)
#    0.000    0.750    3.750    3.750    8.750    1.000 
#    0.000    3.125    0.000    0.000    0.000    0.000 
#    0.000    0.000    0.000    0.000    0.000    0.000 
#
# Total GULP energy -89142.046143 kJ/mol
# GULP energy per Si atom -5571.377884 kJ/mol
# Density = 2.103458 g / cm^3
# Si number density = 21.082565 Si / 1000 Ang^3
#
#
#
# Elastic Constant Matrix: (Units=GPa)
#
#
# Indices 1 2 3 4 5 6 
#
# 1 117.6986 32.1279 58.5812 -1.1218 -10.4179 5.1262
# 2 32.1279 68.6938 37.8631 7.4995 -8.3892 -10.4511
# 3 58.5812 37.8631 103.4251 16.1687 -6.3100 20.5531
# 4 -1.1218 7.4995 16.1687 46.1124 4.1685 -4.1906
# 5 -10.4179 -8.3892 -6.3100 4.1685 38.8052 -4.0733
# 6 5.1262 -10.4511 20.5531 -4.1906 -4.0733 29.1981
#
#
#
# Elastic Compliance Matrix: (Units=1/GPa)
#
#
# Indices 1 2 3 4 5 6 
#
# 1 0.012846 -0.001165 -0.008020 0.003481 0.001911 0.003740
# 2 -0.001165 0.025072 -0.012133 0.001393 0.004938 0.018608
# 3 -0.008020 -0.012133 0.024088 -0.008414 -0.002202 -0.021406
# 4 0.003481 0.001393 -0.008414 0.025503 -0.001906 0.009205
# 5 0.001911 0.004938 -0.002202 -0.001906 0.027890 0.006600
# 6 0.003740 0.018608 -0.021406 0.009205 0.006600 0.057563
#
#
# Mechanical properties :
#
#
# Convention : Reuss Voigt Hill
#
# Bulk Modulus (GPa) = 51.62836 60.77354 56.20095
# Shear Modulus (GPa) = 22.51696 33.57285 28.04490
#
# Velocity S-wave (km/s) = 3.27163 3.99488 3.65120
# Velocity P-wave (km/s) = 6.23003 7.08292 6.67012
#
# Compressibility (1/GPa) = 0.01936920
#
# Stress axis : x y z
#
# Youngs Moduli (GPa) = 77.84793 39.88521 41.51376
#
# Poissons Ratio (x) = 0.04646 0.33295
# Poissons Ratio (y) = 0.09069 0.50370
# Poissons Ratio (z) = 0.62435 0.48394
#
# Static dielectric constant tensor:
#      x y z
#    x 1.953460 0.347230 -0.359730 
#    y 0.347230 2.585180 -0.967400 
#    z -0.359730 -0.967400 2.897770 
# 
# From -- ./inp_files/516356.got.cif
#   From: 2010.05.17/outbox.cif.g08.bks.cpg/sg2_259_cif.got.tgz:516356.got - 2010.06.03 11:33:40.
