data_PCOD9028380
_publ_section_title
;
Structure prediction by ZEFSAII (Michael W. Deem and Ramdas Pophale) SiO2 
 PCOD9028380
Probable space group: P -1
;
_chemical_formula_sum "Si O2"
_cell_formula_units_Z 16
_cell_length_a 14.097131
_cell_length_b 14.724158
_cell_length_c 8.747718
_cell_angle_alpha 85.966439
_cell_angle_beta 133.721099
_cell_angle_gamma 57.862678
_cell_volume 776.054433
_symmetry_space_group_name_H-M "P -1"
_symmetry_group_IT_number 2
_symmetry_cell_setting 'triclinic'
loop_
_space_group_symop_operation_xyz
x,y,z
-x,-y,-z
loop_
_atom_site_type_symbol
_atom_site_label
_atom_site_fract_x
_atom_site_fract_y
_atom_site_fract_z
Si Si1 0.751325 0.604452 0.750094
Si Si2 0.454512 0.473951 0.106606
Si Si3 0.696744 0.181054 0.261428
Si Si4 0.906850 0.442710 0.245146
Si Si5 0.410744 0.669573 0.196876
Si Si6 0.023576 0.064065 0.146570
Si Si7 0.468494 0.921884 0.561974
Si Si8 0.327586 0.253500 0.887927
O O1 0.605280 0.631594 0.461306
O O2 0.598267 0.771364 0.626846
O O3 0.808190 0.502275 0.960186
O O4 0.000000 0.500000 0.000000
O O5 0.590065 0.305394 0.260086
O O6 0.506052 0.515800 0.290914
O O7 0.500000 0.500000 0.000000
O O8 0.198315 0.588817 0.800688
O O9 0.899677 0.025318 0.597289
O O10 0.696310 0.236298 0.095750
O O11 0.535321 0.186176 0.052158
O O12 0.806437 0.588521 0.198527
O O13 0.166472 0.300321 0.578540
O O14 0.222165 0.765798 0.104026
O O15 0.217302 0.026000 0.308957
O O16 0.000000 0.000000 0.000000
O O17 0.500000 0.000000 0.500000
O O18 0.591511 0.855669 0.871737
#
# Coordination Sequence:
#
# PCOD9028380 Si02
#       8
#     2   2   2   2   2   2   2   2
#     4  11  23  39  61  88 123 160 211 254 313 374
#     4   9  20  36  57  89 124 148 206 258 305 357
#     4   9  19  39  62  88 121 160 207 251 307 375
#     4   9  17  34  55  87 116 158 199 246 303 370
#     4  11  22  39  62  94 124 163 204 258 314 366
#     4  11  22  42  64  86 124 172 207 247 310 378
#     4  10  22  42  60  94 124 164 211 258 308 370
#     4   8  16  34  63  79 118 162 198 245 310 363
#
# _framework density 20.617108999999999
#
# number of rings (size 3 to 8) (size 9 to 14) (size 15 to 20)
#    0.000    2.250    1.250    1.875    0.000    4.500 
#    6.750    0.000    0.000    3.750    0.000    0.000 
#    0.000    0.000    0.000    0.000    0.000    0.000 
#
# Total GULP energy -89074.999796 kJ/mol
# GULP energy per Si atom -5567.187487 kJ/mol
# Density = 2.057018 g / cm^3
# Si number density = 20.617109 Si / 1000 Ang^3
#
#
#
# Elastic Constant Matrix: (Units=GPa)
#
#
# Indices 1 2 3 4 5 6 
#
# 1 98.5060 40.1197 45.5449 -1.1687 5.8687 8.5658
# 2 40.1197 74.9721 42.1471 8.9489 15.5103 -2.9139
# 3 45.5449 42.1471 103.3561 12.1159 6.5388 6.0300
# 4 -1.1687 8.9489 12.1159 16.0695 -5.7907 1.8626
# 5 5.8687 15.5103 6.5388 -5.7907 30.6537 -4.8738
# 6 8.5658 -2.9139 6.0300 1.8626 -4.8738 31.9453
#
#
#
# Elastic Compliance Matrix: (Units=1/GPa)
#
#
# Indices 1 2 3 4 5 6 
#
# 1 0.016032 -0.007913 -0.005124 0.011172 0.003474 -0.004175
# 2 -0.007913 0.024517 -0.004082 -0.016102 -0.012397 0.004176
# 3 -0.005124 -0.004082 0.015018 -0.010071 -0.002314 -0.001599
# 4 0.011172 -0.016102 -0.010071 0.088825 0.024295 -0.004036
# 5 0.003474 -0.012397 -0.002314 0.024295 0.043894 0.003655
# 6 -0.004175 0.004176 -0.001599 -0.004036 0.003655 0.033899
#
#
# Mechanical properties :
#
#
# Convention : Reuss Voigt Hill
#
# Bulk Modulus (GPa) = 46.88565 59.16197 53.02381
# Shear Modulus (GPa) = 18.97292 25.66852 22.32072
#
# Velocity S-wave (km/s) = 3.03686 3.53230 3.29391
# Velocity P-wave (km/s) = 5.92344 6.73751 6.34355
#
# Compressibility (1/GPa) = 0.02132849
#
# Stress axis : x y z
#
# Youngs Moduli (GPa) = 62.37444 40.78790 66.58689
#
# Poissons Ratio (x) = 0.32277 0.34116
# Poissons Ratio (y) = 0.49360 0.27183
# Poissons Ratio (z) = 0.31958 0.16651
#
# Static dielectric constant tensor:
#      x y z
#    x 1.772180 -0.029000 -0.007330 
#    y -0.029000 1.784330 -0.042300 
#    z -0.007330 -0.042300 1.768370 
# 
# From -- ./inp_files/313470.got.cif
#   From: 2010.05.17/outbox.cif.g08.bks.cpg/sg2_157_cif.got.tgz:313470.got - 2010.06.03 11:33:40.
