data_PCOD9028187
_publ_section_title
;
Structure prediction by ZEFSAII (Michael W. Deem and Ramdas Pophale) SiO2 
 PCOD9028187
Probable space group: P -1
;
_chemical_formula_sum "Si O2"
_cell_formula_units_Z 16
_cell_length_a 9.053830
_cell_length_b 20.601962
_cell_length_c 19.437594
_cell_angle_alpha 20.130532
_cell_angle_beta 38.754481
_cell_angle_gamma 51.910548
_cell_volume 659.811017
_symmetry_space_group_name_H-M "P -1"
_symmetry_group_IT_number 2
_symmetry_cell_setting 'triclinic'
loop_
_space_group_symop_operation_xyz
x,y,z
-x,-y,-z
loop_
_atom_site_type_symbol
_atom_site_label
_atom_site_fract_x
_atom_site_fract_y
_atom_site_fract_z
Si Si1 0.056463 0.834529 0.296863
Si Si2 0.614520 0.891169 0.362502
Si Si3 0.745791 0.634379 0.829325
Si Si4 0.333079 0.142512 0.243234
Si Si5 0.261380 0.135975 0.123048
Si Si6 0.579026 0.321637 0.622808
Si Si7 0.784096 0.455520 0.262417
Si Si8 0.171225 0.765499 0.180785
O O1 0.142981 0.664058 0.461797
O O2 0.020704 0.812906 0.248902
O O3 0.777307 0.831714 0.417190
O O4 0.310642 0.080816 0.978040
O O5 0.407502 0.684228 0.594013
O O6 0.445447 0.981620 0.375092
O O7 0.797993 0.096813 0.036550
O O8 0.607384 0.672432 0.908088
O O9 0.923912 0.520340 0.884410
O O10 0.500000 0.500000 0.000000
O O11 0.996806 0.886328 0.465834
O O12 0.411716 0.221428 0.058379
O O13 0.000000 0.000000 0.500000
O O14 0.169101 0.306376 0.974083
O O15 0.528439 0.157391 0.969426
O O16 0.500000 0.500000 0.500000
O O17 0.628778 0.328301 0.515857
O O18 0.000000 0.500000 0.500000
#
# Coordination Sequence:
#
# PCOD9028187 Si02
#       8
#     2   2   2   2   2   2   2   2
#     4  11  24  41  64 101 136 188 240 276 345 421
#     4  11  22  41  73 104 135 181 243 296 337 419
#     4  11  24  47  71  98 142 182 231 296 361 426
#     4   9  19  45  70  99 136 175 234 299 349 407
#     4  10  22  41  72 103 132 182 236 287 350 420
#     4  11  26  44  64  94 149 192 222 285 355 422
#     4  12  23  45  71  97 136 186 231 293 356 412
#     4  11  21  39  71 100 142 178 230 288 346 413
#
# _framework density 24.249366999999999
#
# number of rings (size 3 to 8) (size 9 to 14) (size 15 to 20)
#    0.000    1.250    5.000    1.875    3.500    3.000 
#    4.500    0.000    0.000    0.000    0.000    0.000 
#    0.000    0.000    0.000    0.000    0.000    0.000 
#
# Total GULP energy -89346.898725 kJ/mol
# GULP energy per Si atom -5584.181170 kJ/mol
# Density = 2.419417 g / cm^3
# Si number density = 24.249367 Si / 1000 Ang^3
#
#
#
# Elastic Constant Matrix: (Units=GPa)
#
#
# Indices 1 2 3 4 5 6 
#
# 1 108.6606 50.6518 24.3696 -9.7789 -21.3169 -31.0193
# 2 50.6518 129.5409 11.8444 -27.0843 -3.8794 -33.8029
# 3 24.3696 11.8444 90.3762 -24.7169 -4.2204 -19.2928
# 4 -9.7789 -27.0843 -24.7169 30.7036 -9.3493 1.6212
# 5 -21.3169 -3.8794 -4.2204 -9.3493 28.8518 -9.1232
# 6 -31.0193 -33.8029 -19.2928 1.6212 -9.1232 58.4583
#
#
#
# Elastic Compliance Matrix: (Units=1/GPa)
#
#
# Indices 1 2 3 4 5 6 
#
# 1 0.018383 -0.000094 0.003098 0.014581 0.023153 0.013932
# 2 -0.000094 0.016547 0.008701 0.025775 0.016275 0.014214
# 3 0.003098 0.008701 0.022800 0.033081 0.022841 0.016847
# 4 0.014581 0.025775 0.033081 0.104480 0.065880 0.040943
# 5 0.023153 0.016275 0.022841 0.065880 0.091843 0.041741
# 6 0.013932 0.014214 0.016847 0.040943 0.041741 0.043657
#
#
# Mechanical properties :
#
#
# Convention : Reuss Voigt Hill
#
# Bulk Modulus (GPa) = 12.32457 55.81214 34.06835
# Shear Modulus (GPa) = 16.59223 39.71688 28.15456
#
# Velocity S-wave (km/s) = 2.61862 4.05143 3.41110
# Velocity P-wave (km/s) = 3.77311 6.70457 5.44002
#
# Compressibility (1/GPa) = 0.08113875
#
# Stress axis : x y z
#
# Youngs Moduli (GPa) = 54.39696 60.43571 43.86060
#
# Poissons Ratio (x) = 0.00569 -0.13589
# Poissons Ratio (y) = 0.00512 -0.38161
# Poissons Ratio (z) = -0.16853 -0.52583
#
# Static dielectric constant tensor:
#      x y z
#    x 1.966290 -0.003850 0.070860 
#    y -0.003850 2.646880 0.259910 
#    z 0.070860 0.259910 1.999920 
# 
# From -- ./inp_files/591591.got.cif
#   From: 2010.05.17/outbox.cif.g08.bks.cpg/sg2_296_cif.got.tgz:591591.got - 2010.06.03 11:33:40.
