data_PCOD9028727
_publ_section_title
;
Structure prediction by ZEFSAII (Michael W. Deem and Ramdas Pophale) SiO2 
 PCOD9028727
Probable space group: P -1
;
_chemical_formula_sum "Si O2"
_cell_formula_units_Z 15
_cell_length_a 14.931658
_cell_length_b 12.953284
_cell_length_c 5.094998
_cell_angle_alpha 109.759254
_cell_angle_beta 99.444468
_cell_angle_gamma 41.238043
_cell_volume 604.860533
_symmetry_space_group_name_H-M "P -1"
_symmetry_group_IT_number 2
_symmetry_cell_setting 'triclinic'
loop_
_space_group_symop_operation_xyz
x,y,z
-x,-y,-z
loop_
_atom_site_type_symbol
_atom_site_label
_atom_site_fract_x
_atom_site_fract_y
_atom_site_fract_z
Si Si1 0.124262 0.358267 0.132337
Si Si2 0.500000 0.500000 0.000000
Si Si3 0.209501 0.093274 0.632483
Si Si4 0.680494 0.225856 0.373508
Si Si5 0.244869 0.632377 0.708028
Si Si6 0.949628 0.365682 0.430307
Si Si7 0.512462 0.119196 0.579630
Si Si8 0.568068 0.674176 0.808957
O O1 0.157067 0.443079 0.360270
O O2 0.056896 0.337060 0.286657
O O3 0.231125 0.188733 0.879374
O O4 0.000000 0.500000 0.000000
O O5 0.606541 0.341346 0.693429
O O6 0.373407 0.534667 0.871970
O O7 0.051879 0.229653 0.586544
O O8 0.242956 0.955709 0.693885
O O9 0.328381 0.991796 0.382923
O O10 0.780227 0.223658 0.289319
O O11 0.550141 0.314919 0.194695
O O12 0.121983 0.669361 0.780746
O O13 0.300703 0.510560 0.384272
O O14 0.479851 0.203688 0.352657
O O15 0.500000 0.000000 0.500000
O O16 0.420326 0.261851 0.876287
#
# Coordination Sequence:
#
# PCOD9028727 Si02
#       8
#     2   1   2   2   2   2   2   2
#     4   9  21  43  65  95 135 178 221 277 347 421
#     4  10  22  42  64  96 130 182 228 288 342 402
#     4  10  24  41  69  96 141 180 220 290 354 421
#     4  10  24  41  68  94 136 183 228 289 353 412
#     4  11  25  40  71  96 137 183 239 291 344 424
#     4  10  23  43  69 100 133 181 230 282 352 425
#     4  11  25  42  70 106 141 183 235 296 360 429
#     4  10  24  42  68 101 139 187 232 293 361 421
#
# _framework density 24.799105000000001
#
# number of rings (size 3 to 8) (size 9 to 14) (size 15 to 20)
#    0.000    1.867    0.000    2.000   16.800    5.867 
#    0.000    1.333    0.000    0.000    0.000    0.000 
#    0.000    0.000    0.000    0.000    0.000    0.000 
#
# Total GULP energy -83678.758507 kJ/mol
# GULP energy per Si atom -5578.583900 kJ/mol
# Density = 2.474266 g / cm^3
# Si number density = 24.799105 Si / 1000 Ang^3
#
#
#
# Elastic Constant Matrix: (Units=GPa)
#
#
# Indices 1 2 3 4 5 6 
#
# 1 125.0526 25.5495 -5.6510 -5.3676 36.2567 17.5707
# 2 25.5495 99.0926 6.3754 17.3194 8.1350 15.0378
# 3 -5.6510 6.3754 76.9249 -1.3885 3.9070 2.8018
# 4 -5.3676 17.3194 -1.3885 29.4948 1.7485 3.6823
# 5 36.2567 8.1350 3.9070 1.7485 25.1819 7.2818
# 6 17.5707 15.0378 2.8018 3.6823 7.2818 29.9850
#
#
#
# Elastic Compliance Matrix: (Units=1/GPa)
#
#
# Indices 1 2 3 4 5 6 
#
# 1 0.015789 -0.003083 0.002759 0.006533 -0.021601 -0.003520
# 2 -0.003083 0.012761 -0.001390 -0.007746 0.002243 -0.004057
# 3 0.002759 -0.001390 0.013682 0.002433 -0.005477 -0.001166
# 4 0.006533 -0.007746 0.002433 0.040670 -0.009263 -0.002916
# 5 -0.021601 0.002243 -0.005477 -0.009263 0.072886 -0.004518
# 6 -0.003520 -0.004057 -0.001166 -0.002916 -0.004518 0.039012
#
#
# Mechanical properties :
#
#
# Convention : Reuss Voigt Hill
#
# Bulk Modulus (GPa) = 25.77065 39.29088 32.53076
# Shear Modulus (GPa) = 23.67835 35.25209 29.46522
#
# Velocity S-wave (km/s) = 3.09335 3.77438 3.45070
# Velocity P-wave (km/s) = 4.81380 5.90531 5.38727
#
# Compressibility (1/GPa) = 0.03880384
#
# Stress axis : x y z
#
# Youngs Moduli (GPa) = 63.33562 78.36185 73.08805
#
# Poissons Ratio (x) = 0.24157 -0.20162
# Poissons Ratio (y) = 0.19525 0.10160
# Poissons Ratio (z) = -0.17472 0.10893
#
# Static dielectric constant tensor:
#      x y z
#    x 1.941470 0.064870 -0.058650 
#    y 0.064870 1.421180 0.389870 
#    z -0.058650 0.389870 1.698380 
# 
# From -- ./inp_files/94114.got.cif
#   From: 2010.05.17/outbox.cif.g08.bks.cpg/sg2_48_cif.got.tgz:94114.got - 2010.06.03 11:33:40.
