data_PCOD9028729
_publ_section_title
;
Structure prediction by ZEFSAII (Michael W. Deem and Ramdas Pophale) SiO2 
 PCOD9028729
Probable space group: P -1
;
_chemical_formula_sum "Si O2"
_cell_formula_units_Z 15
_cell_length_a 12.271109
_cell_length_b 8.970591
_cell_length_c 9.314834
_cell_angle_alpha 42.712782
_cell_angle_beta 99.054111
_cell_angle_gamma 99.362550
_cell_volume 685.168878
_symmetry_space_group_name_H-M "P -1"
_symmetry_group_IT_number 2
_symmetry_cell_setting 'triclinic'
loop_
_space_group_symop_operation_xyz
x,y,z
-x,-y,-z
loop_
_atom_site_type_symbol
_atom_site_label
_atom_site_fract_x
_atom_site_fract_y
_atom_site_fract_z
Si Si1 0.118175 0.120394 0.472002
Si Si2 0.541258 0.313093 0.031983
Si Si3 0.500000 0.000000 0.500000
Si Si4 0.740263 0.943801 0.692088
Si Si5 0.325941 0.201922 0.899796
Si Si6 0.065571 0.576216 0.260119
Si Si7 0.836581 0.427561 0.410893
Si Si8 0.243306 0.834148 0.919390
O O1 0.101295 0.330809 0.415744
O O2 0.173002 0.188218 0.283519
O O3 0.000000 0.000000 0.500000
O O4 0.195846 0.962237 0.684894
O O5 0.537547 0.091838 0.282013
O O6 0.500000 0.500000 0.000000
O O7 0.452342 0.283335 0.906206
O O8 0.667253 0.339171 0.983904
O O9 0.378264 0.087940 0.383206
O O10 0.781020 0.200990 0.499544
O O11 0.725057 0.884753 0.897191
O O12 0.258259 0.408542 0.694577
O O13 0.307832 0.010093 0.915151
O O14 0.103122 0.641504 0.382109
O O15 0.135576 0.729047 0.055405
O O16 0.932351 0.552518 0.245928
#
# Coordination Sequence:
#
# PCOD9028729 Si02
#       8
#     2   2   1   2   2   2   2   2
#     4  12  26  44  66  99 138 176 222 282 339 394
#     4  11  25  44  70 102 133 178 226 280 340 398
#     4  10  22  42  64  96 132 172 208 280 338 384
#     4  11  23  43  68  98 134 175 228 273 340 400
#     4  11  25  43  72  97 135 183 223 278 339 399
#     4  11  26  42  69  99 137 180 224 276 338 398
#     4  11  23  45  67 100 137 178 226 274 335 404
#     4  12  26  46  68 102 139 174 231 279 332 407
#
# _framework density 21.892413000000001
#
# number of rings (size 3 to 8) (size 9 to 14) (size 15 to 20)
#    0.000    0.800    5.333    1.200    5.600    1.067 
#    0.000    0.667    0.000    0.000    0.000    0.000 
#    0.000    0.000    0.000    0.000    0.000    0.000 
#
# Total GULP energy -83573.989594 kJ/mol
# GULP energy per Si atom -5571.599306 kJ/mol
# Density = 2.184258 g / cm^3
# Si number density = 21.892413 Si / 1000 Ang^3
#
#
#
# Elastic Constant Matrix: (Units=GPa)
#
#
# Indices 1 2 3 4 5 6 
#
# 1 86.6208 12.9015 1.7965 -0.0057 2.5696 -8.2948
# 2 12.9015 60.3714 1.3021 -0.3267 5.7729 -8.6865
# 3 1.7965 1.3021 45.0700 10.8374 9.9255 3.2998
# 4 -0.0057 -0.3267 10.8374 24.7663 -2.4697 -6.1762
# 5 2.5696 5.7729 9.9255 -2.4697 31.7443 1.5074
# 6 -8.2948 -8.6865 3.2998 -6.1762 1.5074 28.1041
#
#
#
# Elastic Compliance Matrix: (Units=1/GPa)
#
#
# Indices 1 2 3 4 5 6 
#
# 1 0.012201 -0.002063 -0.000854 0.001140 -0.000415 0.003336
# 2 -0.002063 0.018122 -0.000538 0.001552 -0.003104 0.005563
# 3 -0.000854 -0.000538 0.028445 -0.015044 -0.009586 -0.006550
# 4 0.001140 0.001552 -0.015044 0.051087 0.007668 0.013398
# 5 -0.000415 -0.003104 -0.009586 0.007668 0.035703 -0.000186
# 6 0.003336 0.005563 -0.006550 0.013398 -0.000186 0.042010
#
#
# Mechanical properties :
#
#
# Convention : Reuss Voigt Hill
#
# Bulk Modulus (GPa) = 19.28299 24.89581 22.08940
# Shear Modulus (GPa) = 23.61112 28.66044 26.13578
#
# Velocity S-wave (km/s) = 3.28763 3.62214 3.45893
# Velocity P-wave (km/s) = 4.82063 5.37492 5.10531
#
# Compressibility (1/GPa) = 0.05185919
#
# Stress axis : x y z
#
# Youngs Moduli (GPa) = 81.95747 55.18077 35.15501
#
# Poissons Ratio (x) = 0.11384 0.03001
# Poissons Ratio (y) = 0.16909 0.01892
# Poissons Ratio (z) = 0.06996 0.02970
#
# Static dielectric constant tensor:
#      x y z
#    x 1.849550 0.002160 -0.060010 
#    y 0.002160 1.844280 -0.008020 
#    z -0.060010 -0.008020 1.771750 
# 
# From -- ./inp_files/45130.got.cif
#   From: 2010.05.17/outbox.cif.g08.bks.cpg/sg2_23_cif.got.tgz:45130.got - 2010.06.03 11:33:40.
