data_PCOD9028265
_publ_section_title
;
Structure prediction by ZEFSAII (Michael W. Deem and Ramdas Pophale) SiO2 
 PCOD9028265
Probable space group: P -1
;
_chemical_formula_sum "Si O2"
_cell_formula_units_Z 15
_cell_length_a 9.813769
_cell_length_b 11.965902
_cell_length_c 9.834605
_cell_angle_alpha 138.994801
_cell_angle_beta 91.009289
_cell_angle_gamma 64.315387
_cell_volume 581.888636
_symmetry_space_group_name_H-M "P -1"
_symmetry_group_IT_number 2
_symmetry_cell_setting 'triclinic'
loop_
_space_group_symop_operation_xyz
x,y,z
-x,-y,-z
loop_
_atom_site_type_symbol
_atom_site_label
_atom_site_fract_x
_atom_site_fract_y
_atom_site_fract_z
Si Si1 0.611773 0.821240 0.455114
Si Si2 0.000000 0.500000 0.500000
Si Si3 0.004156 0.803421 0.874586
Si Si4 0.998469 0.644435 0.339714
Si Si5 0.100161 0.910520 0.213883
Si Si6 0.474629 0.636843 0.828462
Si Si7 0.595029 0.665832 0.581839
Si Si8 0.726626 0.462200 0.931310
O O1 0.796198 0.772720 0.419173
O O2 0.553296 0.841965 0.629947
O O3 0.500000 0.000000 0.500000
O O4 0.641709 0.607871 0.199668
O O5 0.120940 0.221405 0.232760
O O6 0.042119 0.502151 0.340766
O O7 0.186074 0.541233 0.604056
O O8 0.000052 0.837445 0.066405
O O9 0.000000 0.000000 0.000000
O O10 0.130310 0.516432 0.099738
O O11 0.019359 0.828294 0.542081
O O12 0.177011 0.785271 0.242936
O O13 0.272401 0.811725 0.034035
O O14 0.533642 0.718633 0.784954
O O15 0.490097 0.438276 0.577058
O O16 0.590736 0.554075 0.890308
#
# Coordination Sequence:
#
# PCOD9028265 Si02
#       8
#     2   1   2   2   2   2   2   2
#     4  12  26  46  69 100 148 190 230 290 362 430
#     4  12  22  42  68 100 144 182 222 306 354 422
#     4  11  21  40  69 100 142 183 233 290 369 418
#     4  12  26  43  70 104 141 184 237 295 370 420
#     4  11  23  44  68 102 138 183 240 293 353 442
#     4  10  22  41  73  96 130 182 236 291 353 417
#     4  10  22  45  67 100 139 179 240 292 346 438
#     4  12  24  45  70 101 138 184 238 299 361 426
#
# _framework density 25.778130000000001
#
# number of rings (size 3 to 8) (size 9 to 14) (size 15 to 20)
#    0.000    0.800    5.333    2.800    1.867    0.000 
#    2.400    1.333    0.000    0.000    0.000    0.000 
#    0.000    0.000    0.000    0.000    0.000    0.000 
#
# Total GULP energy -83699.263090 kJ/mol
# GULP energy per Si atom -5579.950873 kJ/mol
# Density = 2.571946 g / cm^3
# Si number density = 25.778130 Si / 1000 Ang^3
#
#
#
# Elastic Constant Matrix: (Units=GPa)
#
#
# Indices 1 2 3 4 5 6 
#
# 1 70.9375 26.6897 13.2572 -16.1547 -0.2064 3.9136
# 2 26.6897 170.5257 19.4871 -19.5215 -5.9396 23.9323
# 3 13.2572 19.4871 74.7006 -15.2825 19.8168 15.2306
# 4 -16.1547 -19.5215 -15.2825 47.3067 10.0088 -0.1325
# 5 -0.2064 -5.9396 19.8168 10.0088 33.6559 -16.2309
# 6 3.9136 23.9323 15.2306 -0.1325 -16.2309 46.8323
#
#
#
# Elastic Compliance Matrix: (Units=1/GPa)
#
#
# Indices 1 2 3 4 5 6 
#
# 1 0.016062 -0.001838 -0.000947 0.004700 -0.001327 -0.000542
# 2 -0.001838 0.006939 0.000427 0.002758 -0.001869 -0.004171
# 3 -0.000947 0.000427 0.029531 0.016141 -0.032173 -0.020847
# 4 0.004700 0.002758 0.016141 0.034815 -0.027250 -0.016397
# 5 -0.001327 -0.001869 -0.032173 -0.027250 0.074375 0.037229
# 6 -0.000542 -0.004171 -0.020847 -0.016397 0.037229 0.043166
#
#
# Mechanical properties :
#
#
# Convention : Reuss Voigt Hill
#
# Bulk Modulus (GPa) = 20.91384 48.33688 34.62536
# Shear Modulus (GPa) = 22.16867 42.67429 32.42148
#
# Velocity S-wave (km/s) = 2.93572 4.07313 3.55027
# Velocity P-wave (km/s) = 4.42966 6.39628 5.50156
#
# Compressibility (1/GPa) = 0.04781522
#
# Stress axis : x y z
#
# Youngs Moduli (GPa) = 62.25992 144.11090 33.86251
#
# Poissons Ratio (x) = 0.26485 0.03207
# Poissons Ratio (y) = 0.11442 -0.01444
# Poissons Ratio (z) = 0.05896 -0.06147
#
# Static dielectric constant tensor:
#      x y z
#    x 1.473650 0.168350 -0.167170 
#    y 0.168350 2.029780 0.033070 
#    z -0.167170 0.033070 2.069110 
# 
# From -- ./inp_files/206397.got.cif
#   From: 2010.05.17/outbox.cif.g08.bks.cpg/sg2_104_cif.got.tgz:206397.got - 2010.06.03 11:33:40.
