data_PCOD9028005
_publ_section_title
;
Structure prediction by ZEFSAII (Michael W. Deem and Ramdas Pophale) SiO2 
 PCOD9028005
Probable space group: P -1
;
_chemical_formula_sum "Si O2"
_cell_formula_units_Z 12
_cell_length_a 7.823509
_cell_length_b 5.233916
_cell_length_c 18.606577
_cell_angle_alpha 89.349327
_cell_angle_beta 46.427249
_cell_angle_gamma 61.454608
_cell_volume 420.015012
_symmetry_space_group_name_H-M "P -1"
_symmetry_group_IT_number 2
_symmetry_cell_setting 'triclinic'
loop_
_space_group_symop_operation_xyz
x,y,z
-x,-y,-z
loop_
_atom_site_type_symbol
_atom_site_label
_atom_site_fract_x
_atom_site_fract_y
_atom_site_fract_z
Si Si1 0.306379 0.608067 0.357535
Si Si2 0.702161 0.121073 0.132556
Si Si3 0.946699 0.347692 0.430387
Si Si4 0.334877 0.258706 0.949305
Si Si5 0.009193 0.943693 0.734567
Si Si6 0.929035 0.608530 0.197035
O O1 0.552212 0.446492 0.221835
O O2 0.332422 0.484382 0.432129
O O3 0.068276 0.553899 0.394518
O O4 0.195926 0.978254 0.395319
O O5 0.519084 0.102447 0.124346
O O6 0.738777 0.895127 0.189021
O O7 0.000000 0.000000 0.000000
O O8 0.903427 0.235518 0.367610
O O9 0.632106 0.225762 0.852559
O O10 0.236020 0.356227 0.059503
O O11 0.000000 0.500000 0.000000
O O12 0.123207 0.638807 0.756812
O O13 0.092010 0.172574 0.733291
#
# Coordination Sequence:
#
# PCOD9028005 Si02
#       6
#     2   2   2   2   2   2
#     4  10  22  42  67  99 127 169 232 274 317 388
#     4  11  24  43  69 100 137 176 225 272 329 392
#     4  10  22  41  70  96 126 174 223 279 324 382
#     4  10  23  40  62  94 129 179 222 265 320 389
#     4  12  23  43  65  94 136 172 222 269 341 389
#     4  11  26  41  62  98 139 176 211 273 340 397
#
# _framework density 28.570406999999999
#
# number of rings (size 3 to 8) (size 9 to 14) (size 15 to 20)
#    0.000    1.333    1.667    3.000    4.667    1.333 
#    0.000    1.667    0.000    0.000    0.000    0.000 
#    0.000    0.000    0.000    0.000    0.000    0.000 
#
# Total GULP energy -66877.366673 kJ/mol
# GULP energy per Si atom -5573.113889 kJ/mol
# Density = 2.850538 g / cm^3
# Si number density = 28.570407 Si / 1000 Ang^3
#
#
#
# Elastic Constant Matrix: (Units=GPa)
#
#
# Indices 1 2 3 4 5 6 
#
# 1 73.3168 0.7377 31.3015 -7.9873 39.2396 22.7141
# 2 0.7377 131.2807 11.9906 -0.4206 -4.5648 19.3070
# 3 31.3015 11.9906 202.3530 -2.2689 26.1101 5.8083
# 4 -7.9873 -0.4206 -2.2689 58.0574 1.9380 10.5570
# 5 39.2396 -4.5648 26.1101 1.9380 66.9999 -1.6151
# 6 22.7141 19.3070 5.8083 10.5570 -1.6151 57.0383
#
#
#
# Elastic Compliance Matrix: (Units=1/GPa)
#
#
# Indices 1 2 3 4 5 6 
#
# 1 0.027668 0.001392 -0.001866 0.006634 -0.015887 -0.012977
# 2 0.001392 0.008163 -0.000573 0.000855 -0.000143 -0.003421
# 3 -0.001866 -0.000573 0.005386 -0.000084 -0.001034 0.000375
# 4 0.006634 0.000855 -0.000084 0.019502 -0.004519 -0.006660
# 5 -0.015887 -0.000143 -0.001034 -0.004519 0.024947 0.008023
# 6 -0.012977 -0.003421 0.000375 -0.006660 0.008023 0.025280
#
#
# Mechanical properties :
#
#
# Convention : Reuss Voigt Hill
#
# Bulk Modulus (GPa) = 25.55960 55.00111 40.28035
# Shear Modulus (GPa) = 39.65784 60.61383 50.13583
#
# Velocity S-wave (km/s) = 3.72973 4.61104 4.19360
# Velocity P-wave (km/s) = 5.24532 6.90230 6.13006
#
# Compressibility (1/GPa) = 0.03912425
#
# Stress axis : x y z
#
# Youngs Moduli (GPa) = 36.14332 122.50851 185.66311
#
# Poissons Ratio (x) = -0.17056 0.34637
# Poissons Ratio (y) = -0.05032 0.10634
# Poissons Ratio (z) = 0.06743 0.07017
#
# Static dielectric constant tensor:
#      x y z
#    x 1.922680 -0.026770 -0.048180 
#    y -0.026770 2.631600 0.198270 
#    z -0.048180 0.198270 2.266560 
# 
# From -- ./inp_files/552649.got.cif
#   From: 2010.05.17/outbox.cif.g08.bks.cpg/sg2_277_cif.got.tgz:552649.got - 2010.06.03 11:33:40.
