data_PCOD9028018
_publ_section_title
;
Structure prediction by ZEFSAII (Michael W. Deem and Ramdas Pophale) SiO2 
 PCOD9028018
Probable space group: P -1
;
_chemical_formula_sum "Si O2"
_cell_formula_units_Z 16
_cell_length_a 9.250423
_cell_length_b 20.941036
_cell_length_c 24.359821
_cell_angle_alpha 158.927538
_cell_angle_beta 148.152524
_cell_angle_gamma 28.428503
_cell_volume 796.149862
_symmetry_space_group_name_H-M "P -1"
_symmetry_group_IT_number 2
_symmetry_cell_setting 'triclinic'
loop_
_space_group_symop_operation_xyz
x,y,z
-x,-y,-z
loop_
_atom_site_type_symbol
_atom_site_label
_atom_site_fract_x
_atom_site_fract_y
_atom_site_fract_z
Si Si1 0.215444 0.454684 0.364110
Si Si2 0.687007 0.189958 0.069300
Si Si3 0.896244 0.745100 0.396358
Si Si4 0.590150 0.997587 0.090160
Si Si5 0.784017 0.094755 0.455150
Si Si6 0.796364 0.127752 0.745938
Si Si7 0.114644 0.282465 0.887833
Si Si8 0.168727 0.446973 0.570469
O O1 0.500000 0.500000 0.500000
O O2 0.038723 0.556043 0.331820
O O3 0.016706 0.540957 0.424199
O O4 0.368345 0.215767 0.218457
O O5 0.725913 0.383912 0.249186
O O6 0.520924 0.148254 0.033626
O O7 0.446579 0.230584 0.976437
O O8 0.000000 0.000000 0.000000
O O9 0.575412 0.772692 0.287461
O O10 0.116156 0.763190 0.435014
O O11 0.851711 0.928885 0.569985
O O12 0.946765 0.936815 0.173909
O O13 0.500000 0.000000 0.000000
O O14 0.445827 0.229021 0.476520
O O15 0.828411 0.903012 0.281242
O O16 0.000000 0.000000 0.500000
O O17 0.887062 0.268992 0.850138
O O18 0.000000 0.500000 0.000000
O O19 0.000000 0.500000 0.500000
#
# Coordination Sequence:
#
# PCOD9028018 Si02
#       8
#     2   2   2   2   2   2   2   2
#     4  12  25  44  72  99 137 185 229 282 350 406
#     4  11  23  44  66  94 136 180 226 279 346 404
#     4  10  22  41  70  97 136 173 229 283 337 406
#     4  11  25  44  69 100 138 180 229 282 346 413
#     4  11  25  43  68 104 135 177 234 284 340 409
#     4   9  21  41  69  95 130 178 224 276 342 400
#     4  10  22  42  69  94 137 181 221 280 345 413
#     4  12  27  43  70 103 137 178 238 286 340 412
#
# _framework density 20.096719
#
# number of rings (size 3 to 8) (size 9 to 14) (size 15 to 20)
#    0.000    1.250    2.500    2.250   12.250    0.000 
#    2.250    0.625    0.000    0.000    0.000    0.000 
#    0.000    0.000    0.000    0.000    0.000    0.000 
#
# Total GULP energy -89274.379849 kJ/mol
# GULP energy per Si atom -5579.648741 kJ/mol
# Density = 2.005098 g / cm^3
# Si number density = 20.096719 Si / 1000 Ang^3
#
#
#
# Elastic Constant Matrix: (Units=GPa)
#
#
# Indices 1 2 3 4 5 6 
#
# 1 110.6082 70.8997 49.6639 -12.3299 -5.5721 2.4395
# 2 70.8997 140.8475 33.4991 -21.4548 1.4616 11.3042
# 3 49.6639 33.4991 88.2395 -17.9315 12.4740 1.6812
# 4 -12.3299 -21.4548 -17.9315 43.0774 6.4143 -2.4254
# 5 -5.5721 1.4616 12.4740 6.4143 31.4041 -1.4676
# 6 2.4395 11.3042 1.6812 -2.4254 -1.4676 33.5262
#
#
#
# Elastic Compliance Matrix: (Units=1/GPa)
#
#
# Indices 1 2 3 4 5 6 
#
# 1 0.018015 -0.007671 -0.009110 -0.003542 0.007981 0.001825
# 2 -0.007671 0.011617 0.001383 0.004507 -0.003524 -0.003256
# 3 -0.009110 0.001383 0.019014 0.007568 -0.010811 -0.000683
# 4 -0.003542 0.004507 0.007568 0.029053 -0.009777 0.000032
# 5 0.007981 -0.003524 -0.010811 -0.009777 0.039816 0.002185
# 6 0.001825 -0.003256 -0.000683 0.000032 0.002185 0.030925
#
#
# Mechanical properties :
#
#
# Convention : Reuss Voigt Hill
#
# Bulk Modulus (GPa) = 56.01877 71.98009 63.99943
# Shear Modulus (GPa) = 26.99993 33.97705 30.48849
#
# Velocity S-wave (km/s) = 3.66935 4.11624 3.89921
# Velocity P-wave (km/s) = 6.77402 7.64761 7.22403
#
# Compressibility (1/GPa) = 0.01785116
#
# Stress axis : x y z
#
# Youngs Moduli (GPa) = 55.50836 86.08381 52.59189
#
# Poissons Ratio (x) = 0.66031 0.47913
# Poissons Ratio (y) = 0.42578 -0.07275
# Poissons Ratio (z) = 0.50569 -0.11908
#
# Static dielectric constant tensor:
#      x y z
#    x 1.758960 -0.040460 0.043970 
#    y -0.040460 1.746570 -0.010560 
#    z 0.043970 -0.010560 1.703660 
# 
# From -- ./inp_files/208782.got.cif
#   From: 2010.05.17/outbox.cif.g08.bks.cpg/sg2_105_cif.got.tgz:208782.got - 2010.06.03 11:33:40.
