data_PCOD9028076
_publ_section_title
;
Structure prediction by ZEFSAII (Michael W. Deem and Ramdas Pophale) SiO2 
 PCOD9028076
Probable space group: P -1
;
_chemical_formula_sum "Si O2"
_cell_formula_units_Z 14
_cell_length_a 9.675164
_cell_length_b 16.517471
_cell_length_c 12.213161
_cell_angle_alpha 155.096495
_cell_angle_beta 125.974056
_cell_angle_gamma 43.658728
_cell_volume 551.283515
_symmetry_space_group_name_H-M "P -1"
_symmetry_group_IT_number 2
_symmetry_cell_setting 'triclinic'
loop_
_space_group_symop_operation_xyz
x,y,z
-x,-y,-z
loop_
_atom_site_type_symbol
_atom_site_label
_atom_site_fract_x
_atom_site_fract_y
_atom_site_fract_z
Si Si1 0.383997 0.847510 0.316628
Si Si2 0.105248 0.559487 0.523704
Si Si3 0.535858 0.848635 0.962065
Si Si4 0.462782 0.612886 0.833295
Si Si5 0.271644 0.916092 0.729695
Si Si6 0.905976 0.229237 0.810131
Si Si7 0.178790 0.281490 0.620030
O O1 0.312984 0.721743 0.206549
O O2 0.582687 0.828384 0.432722
O O3 0.202545 0.113349 0.523741
O O4 0.447124 0.714009 0.067766
O O5 0.280579 0.339094 0.262962
O O6 0.245881 0.644172 0.741130
O O7 0.000000 0.500000 0.500000
O O8 0.940212 0.711697 0.536740
O O9 0.519775 0.741205 0.931522
O O10 0.332440 0.929784 0.897961
O O11 0.586484 0.039673 0.228630
O O12 0.651596 0.344523 0.579665
O O13 0.040222 0.120269 0.849080
O O14 0.908462 0.453223 0.058429
O O15 0.000000 0.000000 0.500000
#
# Coordination Sequence:
#
# PCOD9028076 Si02
#       7
#     2   2   2   2   2   2   2
#     4  11  28  47  71 101 144 191 238 289 351 424
#     4  11  23  43  74 107 146 183 232 296 351 420
#     4  10  23  42  68 103 141 184 227 290 354 415
#     4  11  25  45  73 105 141 186 236 286 352 426
#     4  10  22  41  71 101 138 179 233 288 354 410
#     4  12  26  44  74 102 136 187 238 294 350 426
#     4  11  26  50  68 103 145 186 236 292 354 417
#
# _framework density 25.395281000000001
#
# number of rings (size 3 to 8) (size 9 to 14) (size 15 to 20)
#    0.000    1.143    1.429    3.857    4.000   10.286 
#    0.000    0.000    0.000    0.000    0.000    0.000 
#    0.000    0.000    0.000    0.000    0.000    0.000 
#
# Total GULP energy -78338.532744 kJ/mol
# GULP energy per Si atom -5595.609482 kJ/mol
# Density = 2.533748 g / cm^3
# Si number density = 25.395281 Si / 1000 Ang^3
#
#
#
# Elastic Constant Matrix: (Units=GPa)
#
#
# Indices 1 2 3 4 5 6 
#
# 1 67.8273 -0.1333 8.7054 -5.0993 -4.1985 20.1475
# 2 -0.1333 118.0440 24.1293 15.9338 -3.3921 -18.3273
# 3 8.7054 24.1293 100.5778 16.4169 7.2754 10.3697
# 4 -5.0993 15.9338 16.4169 36.4242 3.8634 9.0687
# 5 -4.1985 -3.3921 7.2754 3.8634 29.2553 0.7854
# 6 20.1475 -18.3273 10.3697 9.0687 0.7854 41.2226
#
#
#
# Elastic Compliance Matrix: (Units=1/GPa)
#
#
# Indices 1 2 3 4 5 6 
#
# 1 0.018991 -0.002421 -0.001145 0.006903 0.002130 -0.011629
# 2 -0.002421 0.011144 -0.002416 -0.006373 0.002170 0.008106
# 3 -0.001145 -0.002416 0.011653 -0.003397 -0.002823 -0.002645
# 4 0.006903 -0.006373 -0.003397 0.036406 -0.003354 -0.013298
# 5 0.002130 0.002170 -0.002823 -0.003354 0.035866 0.000688
# 6 -0.011629 0.008106 -0.002645 -0.013298 0.000688 0.037124
#
#
# Mechanical properties :
#
#
# Convention : Reuss Voigt Hill
#
# Bulk Modulus (GPa) = 33.53067 39.09463 36.31265
# Shear Modulus (GPa) = 28.88713 38.29693 33.59203
#
# Velocity S-wave (km/s) = 3.37634 3.88755 3.64093
# Velocity P-wave (km/s) = 5.33214 5.96478 5.65731
#
# Compressibility (1/GPa) = 0.02982344
#
# Stress axis : x y z
#
# Youngs Moduli (GPa) = 52.65763 89.73656 85.81649
#
# Poissons Ratio (x) = 0.21722 0.09825
# Poissons Ratio (y) = 0.12746 0.20737
# Poissons Ratio (z) = 0.06028 0.21684
#
# Static dielectric constant tensor:
#      x y z
#    x 1.993740 -0.097120 0.001360 
#    y -0.097120 2.129360 0.010500 
#    z 0.001360 0.010500 2.064670 
# 
# From -- ./inp_files/400165.got.cif
#   From: 2010.05.17/outbox.cif.g08.bks.cpg/sg2_201_cif.got.tgz:400165.got - 2010.06.03 11:33:40.
