data_PCOD9028161
_publ_section_title
;
Structure prediction by ZEFSAII (Michael W. Deem and Ramdas Pophale) SiO2 
 PCOD9028161
Probable space group: P -1
;
_chemical_formula_sum "Si O2"
_cell_formula_units_Z 15
_cell_length_a 9.463643
_cell_length_b 10.013212
_cell_length_c 13.475879
_cell_angle_alpha 50.607450
_cell_angle_beta 107.927827
_cell_angle_gamma 138.224286
_cell_volume 622.599764
_symmetry_space_group_name_H-M "P -1"
_symmetry_group_IT_number 2
_symmetry_cell_setting 'triclinic'
loop_
_space_group_symop_operation_xyz
x,y,z
-x,-y,-z
loop_
_atom_site_type_symbol
_atom_site_label
_atom_site_fract_x
_atom_site_fract_y
_atom_site_fract_z
Si Si1 0.000000 0.500000 0.500000
Si Si2 0.353669 0.021032 0.196038
Si Si3 0.854004 0.722863 0.454495
Si Si4 0.513005 0.456907 0.171563
Si Si5 0.084689 0.257906 0.153479
Si Si6 0.210304 0.779021 0.754723
Si Si7 0.978506 0.744278 0.089755
Si Si8 0.385640 0.268214 0.453644
O O1 0.812419 0.227468 0.650068
O O2 0.970833 0.642183 0.504188
O O3 0.206426 0.938096 0.108139
O O4 0.433765 0.261950 0.158026
O O5 0.573078 0.094378 0.195935
O O6 0.622394 0.502234 0.448153
O O7 0.778809 0.722706 0.547402
O O8 0.988997 0.996165 0.302586
O O9 0.782282 0.695010 0.115336
O O10 0.440239 0.315581 0.327994
O O11 0.353617 0.484106 0.112522
O O12 0.979120 0.317121 0.167550
O O13 0.009094 0.207542 0.047164
O O14 0.125524 0.539423 0.789926
O O15 0.286439 0.001835 0.596079
#
# Coordination Sequence:
#
# PCOD9028161 Si02
#       8
#     1   2   2   2   2   2   2   2
#     4  12  20  40  66 100 132 164 224 278 338 406
#     4  11  25  42  68 101 135 183 227 282 343 398
#     4  10  22  41  71  99 136 174 218 285 341 412
#     4  11  25  44  68 100 135 184 224 289 335 405
#     4  11  24  47  66 101 141 180 235 273 339 412
#     4  10  24  45  70 100 138 177 228 290 335 409
#     4  11  26  45  69  99 137 189 228 279 336 404
#     4  10  22  44  66 103 137 173 227 277 353 401
#
# _framework density 24.092523
#
# number of rings (size 3 to 8) (size 9 to 14) (size 15 to 20)
#    0.000    1.333    2.667    1.600    1.867    5.333 
#    4.800    0.000    0.000    0.000    0.000    0.000 
#    0.000    0.000    0.000    0.000    0.000    0.000 
#
# Total GULP energy -83784.998742 kJ/mol
# GULP energy per Si atom -5585.666583 kJ/mol
# Density = 2.403769 g / cm^3
# Si number density = 24.092523 Si / 1000 Ang^3
#
#
#
# Elastic Constant Matrix: (Units=GPa)
#
#
# Indices 1 2 3 4 5 6 
#
# 1 155.5810 36.3989 36.8225 14.5849 -8.8475 12.2188
# 2 36.3989 98.7190 10.2455 9.3225 3.8338 31.3784
# 3 36.8225 10.2455 77.9801 3.7257 -15.9733 5.4706
# 4 14.5849 9.3225 3.7257 43.1714 -4.8674 12.8732
# 5 -8.8475 3.8338 -15.9733 -4.8674 27.9706 -4.5589
# 6 12.2188 31.3784 5.4706 12.8732 -4.5589 31.5824
#
#
#
# Elastic Compliance Matrix: (Units=1/GPa)
#
#
# Indices 1 2 3 4 5 6 
#
# 1 0.008004 -0.002871 -0.003200 -0.002088 0.000946 0.001298
# 2 -0.002871 0.016776 -0.001021 0.001805 -0.006250 -0.017018
# 3 -0.003200 -0.001021 0.016157 0.000758 0.008548 0.000379
# 4 -0.002088 0.001805 0.000758 0.027217 0.002326 -0.011875
# 5 0.000946 -0.006250 0.008548 0.002326 0.043781 0.009735
# 6 0.001298 -0.017018 0.000379 -0.011875 0.009735 0.054249
#
#
# Mechanical properties :
#
#
# Convention : Reuss Voigt Hill
#
# Bulk Modulus (GPa) = 37.37892 55.46823 46.42357
# Shear Modulus (GPa) = 26.41505 37.13243 31.77374
#
# Velocity S-wave (km/s) = 3.31479 3.93013 3.63550
# Velocity P-wave (km/s) = 5.49535 6.60814 6.07727
#
# Compressibility (1/GPa) = 0.02675305
#
# Stress axis : x y z
#
# Youngs Moduli (GPa) = 124.93376 59.60937 61.89213
#
# Poissons Ratio (x) = 0.17116 0.19805
# Poissons Ratio (y) = 0.35872 0.06319
# Poissons Ratio (z) = 0.39977 0.06086
#
# Static dielectric constant tensor:
#      x y z
#    x 1.938560 0.028330 0.028630 
#    y 0.028330 1.900400 -0.008680 
#    z 0.028630 -0.008680 1.901390 
# 
# From -- ./inp_files/381394.got.cif
#   From: 2010.05.17/outbox.cif.g08.bks.cpg/sg2_191_cif.got.tgz:381394.got - 2010.06.03 11:33:40.
