data_PCOD9028321
_publ_section_title
;
Structure prediction by ZEFSAII (Michael W. Deem and Ramdas Pophale) SiO2 
 PCOD9028321
Probable space group: P -1
;
_chemical_formula_sum "Si O2"
_cell_formula_units_Z 16
_cell_length_a 18.378628
_cell_length_b 5.314812
_cell_length_c 7.916589
_cell_angle_alpha 86.706814
_cell_angle_beta 58.061899
_cell_angle_gamma 94.299107
_cell_volume 650.055838
_symmetry_space_group_name_H-M "P -1"
_symmetry_group_IT_number 2
_symmetry_cell_setting 'triclinic'
loop_
_space_group_symop_operation_xyz
x,y,z
-x,-y,-z
loop_
_atom_site_type_symbol
_atom_site_label
_atom_site_fract_x
_atom_site_fract_y
_atom_site_fract_z
Si Si1 0.521964 0.247648 0.580014
Si Si2 0.648364 0.836666 0.064230
Si Si3 0.740767 0.384883 0.819049
Si Si4 0.035597 0.957625 0.768497
Si Si5 0.867650 0.379295 0.127325
Si Si6 0.693884 0.041506 0.363746
Si Si7 0.202829 0.294771 0.560216
Si Si8 0.068222 0.431442 0.284572
O O1 0.500000 0.500000 0.500000
O O2 0.456002 0.198872 0.819557
O O3 0.623004 0.228403 0.487607
O O4 0.500000 0.000000 0.500000
O O5 0.664382 0.866185 0.245682
O O6 0.682085 0.585280 0.961928
O O7 0.698545 0.096887 0.915035
O O8 0.756987 0.461268 0.601134
O O9 0.835048 0.474453 0.779500
O O10 0.091130 0.726640 0.753441
O O11 0.960685 0.856724 0.733560
O O12 0.113120 0.160210 0.594752
O O13 0.000000 0.000000 0.000000
O O14 0.783099 0.197642 0.189138
O O15 0.832046 0.637015 0.215530
O O16 0.934770 0.413163 0.893083
O O17 0.722444 0.880603 0.492452
O O18 0.000000 0.500000 0.500000
#
# Coordination Sequence:
#
# PCOD9028321 Si02
#       8
#     2   2   2   2   2   2   2   2
#     4  10  22  41  76 112 141 177 239 294 352 437
#     4  11  24  47  71 106 143 182 234 303 363 421
#     4  12  28  45  69 102 150 188 235 300 370 420
#     4  11  25  42  66  96 132 188 252 305 356 428
#     4  11  23  44  67  95 141 184 242 295 362 433
#     4  10  23  42  75 102 135 187 236 289 358 441
#     4  11  26  44  68  96 142 196 240 292 367 443
#     4  12  26  42  69 101 140 188 245 306 364 423
#
# _framework density 24.61327
#
# number of rings (size 3 to 8) (size 9 to 14) (size 15 to 20)
#    0.000    1.000    2.500    3.375   12.250    0.500 
#    0.000    1.250    0.000    0.000    0.000    0.000 
#    0.000    0.000    0.000    0.000    0.000    0.000 
#
# Total GULP energy -89408.357258 kJ/mol
# GULP energy per Si atom -5588.022329 kJ/mol
# Density = 2.455725 g / cm^3
# Si number density = 24.613270 Si / 1000 Ang^3
#
#
#
# Elastic Constant Matrix: (Units=GPa)
#
#
# Indices 1 2 3 4 5 6 
#
# 1 61.3462 24.6096 33.2497 -7.6025 -9.7870 -8.0272
# 2 24.6096 99.6694 23.0429 -3.4429 -6.1998 -7.4904
# 3 33.2497 23.0429 114.6289 -3.2461 -18.3671 -4.6829
# 4 -7.6025 -3.4429 -3.2461 52.1833 -1.1283 -4.7521
# 5 -9.7870 -6.1998 -18.3671 -1.1283 29.1952 5.0722
# 6 -8.0272 -7.4904 -4.6829 -4.7521 5.0722 39.4440
#
#
#
# Elastic Compliance Matrix: (Units=1/GPa)
#
#
# Indices 1 2 3 4 5 6 
#
# 1 0.021667 -0.003707 -0.004848 0.002958 0.003002 0.003100
# 2 -0.003707 0.011323 -0.001100 0.000259 0.000260 0.001263
# 3 -0.004848 -0.001100 0.011172 -0.000020 0.005264 -0.000549
# 4 0.002958 0.000259 -0.000020 0.019900 0.001303 0.002879
# 5 0.003002 0.000260 0.005264 0.001303 0.039303 -0.003612
# 6 0.003100 0.001263 -0.000549 0.002879 -0.003612 0.026969
#
#
# Mechanical properties :
#
#
# Convention : Reuss Voigt Hill
#
# Bulk Modulus (GPa) = 40.24068 48.60544 44.42306
# Shear Modulus (GPa) = 31.65985 37.14731 34.40358
#
# Velocity S-wave (km/s) = 3.59038 3.88911 3.74273
# Velocity P-wave (km/s) = 5.79417 6.32119 6.06341
#
# Compressibility (1/GPa) = 0.02485047
#
# Stress axis : x y z
#
# Youngs Moduli (GPa) = 46.15344 88.31655 89.51161
#
# Poissons Ratio (x) = 0.32740 0.43397
# Poissons Ratio (y) = 0.17109 0.09848
# Poissons Ratio (z) = 0.22376 0.09717
#
# Static dielectric constant tensor:
#      x y z
#    x 2.035430 -0.049000 -0.020300 
#    y -0.049000 2.048190 -0.013300 
#    z -0.020300 -0.013300 1.972360 
# 
# From -- ./inp_files/340321.got.cif
#   From: 2010.05.17/outbox.cif.g08.bks.cpg/sg2_171_cif.got.tgz:340321.got - 2010.06.03 11:33:40.
