data_PCOD9028278
_publ_section_title
;
Structure prediction by ZEFSAII (Michael W. Deem and Ramdas Pophale) SiO2 
 PCOD9028278
Probable space group: P -1
;
_chemical_formula_sum "Si O2"
_cell_formula_units_Z 15
_cell_length_a 14.503059
_cell_length_b 17.395868
_cell_length_c 9.191447
_cell_angle_alpha 137.323086
_cell_angle_beta 39.825235
_cell_angle_gamma 150.840933
_cell_volume 707.989613
_symmetry_space_group_name_H-M "P -1"
_symmetry_group_IT_number 2
_symmetry_cell_setting 'triclinic'
loop_
_space_group_symop_operation_xyz
x,y,z
-x,-y,-z
loop_
_atom_site_type_symbol
_atom_site_label
_atom_site_fract_x
_atom_site_fract_y
_atom_site_fract_z
Si Si1 0.466765 0.352962 0.383531
Si Si2 0.370236 0.171629 0.513899
Si Si3 0.905296 0.967842 0.780476
Si Si4 0.108371 0.518538 0.040879
Si Si5 0.500000 0.000000 0.000000
Si Si6 0.855060 0.192704 0.065724
Si Si7 0.354037 0.088916 0.727472
Si Si8 0.766161 0.223754 0.538399
O O1 0.500000 0.500000 0.500000
O O2 0.447968 0.321775 0.535818
O O3 0.660006 0.388327 0.143505
O O4 0.258957 0.190187 0.337038
O O5 0.428175 0.198976 0.650977
O O6 0.123675 0.031148 0.612890
O O7 0.454730 0.107669 0.244047
O O8 0.934030 0.109774 0.877499
O O9 0.804271 0.930965 0.009818
O O10 0.106182 0.619603 0.299867
O O11 0.000000 0.500000 0.000000
O O12 0.991476 0.345000 0.005990
O O13 0.366056 0.937397 0.922351
O O14 0.846450 0.245726 0.308758
O O15 0.543234 0.155570 0.691205
O O16 0.255451 0.912982 0.554419
#
# Coordination Sequence:
#
# PCOD9028278 Si02
#       8
#     2   2   2   2   1   2   2   2
#     4  12  27  45  63 100 143 183 225 287 350 408
#     4  12  25  42  71 103 137 178 236 279 345 411
#     4  11  24  46  71  96 134 187 233 281 346 423
#     4  12  27  41  68 103 139 181 237 290 347 407
#     4  12  24  38  76 106 128 174 242 284 338 416
#     4  11  24  44  71  99 137 187 228 288 350 415
#     4  10  22  41  74 100 135 183 231 291 338 419
#     4  10  22  42  68 102 142 178 230 291 357 398
#
# _framework density 21.186751999999998
#
# number of rings (size 3 to 8) (size 9 to 14) (size 15 to 20)
#    0.000    0.800    4.000    2.800    5.600    0.000 
#    0.000    0.667    0.000    0.000    0.000    0.000 
#    0.000    0.000    0.000    0.000    0.000    0.000 
#
# Total GULP energy -83684.306993 kJ/mol
# GULP energy per Si atom -5578.953800 kJ/mol
# Density = 2.113853 g / cm^3
# Si number density = 21.186752 Si / 1000 Ang^3
#
#
#
# Elastic Constant Matrix: (Units=GPa)
#
#
# Indices 1 2 3 4 5 6 
#
# 1 100.2575 22.9524 29.6751 11.7916 10.6146 -22.2253
# 2 22.9524 46.9951 16.3490 4.9160 12.7435 -33.9048
# 3 29.6751 16.3490 55.0373 10.3269 10.0070 -13.7647
# 4 11.7916 4.9160 10.3269 32.4464 4.1351 4.1554
# 5 10.6146 12.7435 10.0070 4.1351 38.4300 -8.5763
# 6 -22.2253 -33.9048 -13.7647 4.1554 -8.5763 41.6483
#
#
#
# Elastic Compliance Matrix: (Units=1/GPa)
#
#
# Indices 1 2 3 4 5 6 
#
# 1 0.013200 -0.000175 -0.004830 -0.003858 -0.000676 0.005551
# 2 -0.000175 0.060093 -0.001849 -0.013697 -0.007189 0.048102
# 3 -0.004830 -0.001849 0.023847 -0.005682 -0.002806 0.003787
# 4 -0.003858 -0.013697 -0.005682 0.038744 -0.001375 -0.019236
# 5 -0.000676 -0.007189 -0.002806 -0.001375 0.029252 -0.000979
# 6 0.005551 0.048102 0.003787 -0.019236 -0.000979 0.069101
#
#
# Mechanical properties :
#
#
# Convention : Reuss Voigt Hill
#
# Bulk Modulus (GPa) = 11.98589 37.80476 24.89533
# Shear Modulus (GPa) = 18.13204 31.39252 24.76228
#
# Velocity S-wave (km/s) = 2.92861 3.85347 3.42243
# Velocity P-wave (km/s) = 4.13585 6.13851 5.23386
#
# Compressibility (1/GPa) = 0.08343143
#
# Stress axis : x y z
#
# Youngs Moduli (GPa) = 75.75815 16.64087 41.93479
#
# Poissons Ratio (x) = 0.00290 0.20255
# Poissons Ratio (y) = 0.01322 0.07756
# Poissons Ratio (z) = 0.36592 0.03078
#
# Static dielectric constant tensor:
#      x y z
#    x 1.757750 -0.013660 0.019400 
#    y -0.013660 1.782320 -0.031670 
#    z 0.019400 -0.031670 1.739870 
# 
# From -- ./inp_files/216265.got.cif
#   From: 2010.05.17/outbox.cif.g08.bks.cpg/sg2_109_cif.got.tgz:216265.got - 2010.06.03 11:33:40.
