data_PCOD9028945
_publ_section_title
;
Structure prediction by ZEFSAII (Michael W. Deem and Ramdas Pophale) SiO2 
 PCOD9028945
Probable space group: P -1
;
_chemical_formula_sum "Si O2"
_cell_formula_units_Z 14
_cell_length_a 8.133672
_cell_length_b 22.407404
_cell_length_c 11.421412
_cell_angle_alpha 32.065295
_cell_angle_beta 34.895139
_cell_angle_gamma 42.268327
_cell_volume 625.241219
_symmetry_space_group_name_H-M "P -1"
_symmetry_group_IT_number 2
_symmetry_cell_setting 'triclinic'
loop_
_space_group_symop_operation_xyz
x,y,z
-x,-y,-z
loop_
_atom_site_type_symbol
_atom_site_label
_atom_site_fract_x
_atom_site_fract_y
_atom_site_fract_z
Si Si1 0.766303 0.464831 0.033889
Si Si2 0.538077 0.694770 0.673365
Si Si3 0.279936 0.785042 0.251220
Si Si4 0.730505 0.888521 0.683511
Si Si5 0.393679 0.879769 0.280453
Si Si6 0.351485 0.125348 0.524660
Si Si7 0.327821 0.523778 0.681401
O O1 0.746053 0.578846 0.778314
O O2 0.078767 0.444862 0.944156
O O3 0.708768 0.361891 0.156812
O O4 0.554394 0.488842 0.231977
O O5 0.607747 0.789836 0.382158
O O6 0.497276 0.770061 0.689563
O O7 0.358015 0.828435 0.259787
O O8 0.216949 0.657921 0.514448
O O9 0.978991 0.857358 0.261920
O O10 0.561425 0.793721 0.995164
O O11 0.691023 0.877451 0.585418
O O12 0.069681 0.889671 0.509186
O O13 0.546834 0.007040 0.638315
O O14 0.500000 0.000000 0.000000
O O15 0.500000 0.500000 0.500000
#
# Coordination Sequence:
#
# PCOD9028945 Si02
#       7
#     2   2   2   2   2   2   2
#     4  10  24  46  65  95 135 170 222 271 333 381
#     4  11  22  42  69  92 136 176 206 276 336 381
#     4  11  22  42  67  94 131 176 218 270 336 389
#     4  10  24  42  67  99 126 177 226 267 324 407
#     4  11  25  44  67  97 136 174 217 274 337 393
#     4  10  22  42  65  96 130 175 218 272 327 388
#     4  11  24  42  71  98 124 173 226 272 321 402
#
# _framework density 22.391358
#
# number of rings (size 3 to 8) (size 9 to 14) (size 15 to 20)
#    0.000    1.429    2.857    1.286    4.000    4.571 
#    0.000    5.714    0.000    0.000    0.000    0.000 
#    0.000    0.000    0.000    0.000    0.000    0.000 
#
# Total GULP energy -78044.144577 kJ/mol
# GULP energy per Si atom -5574.581755 kJ/mol
# Density = 2.234039 g / cm^3
# Si number density = 22.391358 Si / 1000 Ang^3
#
#
#
# Elastic Constant Matrix: (Units=GPa)
#
#
# Indices 1 2 3 4 5 6 
#
# 1 85.6637 40.4369 23.6620 -6.2993 -13.4635 13.9418
# 2 40.4369 78.6167 36.9788 -22.9003 -11.6992 18.3056
# 3 23.6620 36.9788 118.8387 -7.5201 -3.7495 -5.1697
# 4 -6.2993 -22.9003 -7.5201 46.9344 3.4089 -5.1023
# 5 -13.4635 -11.6992 -3.7495 3.4089 29.2743 -19.1273
# 6 13.9418 18.3056 -5.1697 -5.1023 -19.1273 28.4243
#
#
#
# Elastic Compliance Matrix: (Units=1/GPa)
#
#
# Indices 1 2 3 4 5 6 
#
# 1 0.016167 -0.007758 -0.000851 -0.002127 0.003937 -0.000821
# 2 -0.007758 0.025292 -0.006640 0.008918 -0.005797 -0.015991
# 3 -0.000851 -0.006640 0.011185 -0.000844 0.004966 0.009918
# 4 -0.002127 0.008918 -0.000844 0.025200 -0.001200 -0.001138
# 5 0.003937 -0.005797 0.004966 -0.001200 0.064349 0.045792
# 6 -0.000821 -0.015991 0.009918 -0.001138 0.045792 0.078296
#
#
# Mechanical properties :
#
#
# Convention : Reuss Voigt Hill
#
# Bulk Modulus (GPa) = 45.15339 53.91939 49.53639
# Shear Modulus (GPa) = 19.35235 33.06271 26.20753
#
# Velocity S-wave (km/s) = 2.94305 3.84680 3.42487
# Velocity P-wave (km/s) = 5.63543 6.62293 6.14904
#
# Compressibility (1/GPa) = 0.02214673
#
# Stress axis : x y z
#
# Youngs Moduli (GPa) = 61.85631 39.53893 89.40574
#
# Poissons Ratio (x) = 0.30672 0.07609
# Poissons Ratio (y) = 0.47985 0.59361
# Poissons Ratio (z) = 0.05264 0.26252
#
# Static dielectric constant tensor:
#      x y z
#    x 1.884360 -0.003660 0.021480 
#    y -0.003660 1.867860 0.044770 
#    z 0.021480 0.044770 1.906960 
# 
# From -- ./inp_files/406863.got.cif
#   From: 2010.05.17/outbox.cif.g08.bks.cpg/sg2_204_cif.got.tgz:406863.got - 2010.06.03 11:33:40.
