data_PCOD9028476
_publ_section_title
;
Structure prediction by ZEFSAII (Michael W. Deem and Ramdas Pophale) SiO2 
 PCOD9028476
Probable space group: P -1
;
_chemical_formula_sum "Si O2"
_cell_formula_units_Z 16
_cell_length_a 14.259091
_cell_length_b 6.111164
_cell_length_c 8.581685
_cell_angle_alpha 94.794388
_cell_angle_beta 83.254848
_cell_angle_gamma 67.356874
_cell_volume 678.586326
_symmetry_space_group_name_H-M "P -1"
_symmetry_group_IT_number 2
_symmetry_cell_setting 'triclinic'
loop_
_space_group_symop_operation_xyz
x,y,z
-x,-y,-z
loop_
_atom_site_type_symbol
_atom_site_label
_atom_site_fract_x
_atom_site_fract_y
_atom_site_fract_z
Si Si1 0.882676 0.564306 0.209131
Si Si2 0.546565 0.466779 0.233616
Si Si3 0.584197 0.105913 0.944958
Si Si4 0.923334 0.316270 0.880338
Si Si5 0.036904 0.881109 0.652452
Si Si6 0.223246 0.011971 0.562611
Si Si7 0.229998 0.292050 0.296409
Si Si8 0.632055 0.502579 0.521658
O O1 0.936334 0.393333 0.334411
O O2 0.783048 0.785316 0.300461
O O3 0.966458 0.663019 0.140501
O O4 0.871302 0.400930 0.062664
O O5 0.472026 0.687367 0.158373
O O6 0.612640 0.550936 0.345106
O O7 0.473130 0.388859 0.354425
O O8 0.606562 0.247246 0.094335
O O9 0.685758 0.899112 0.843585
O O10 0.500000 0.000000 0.000000
O O11 0.852523 0.499543 0.776365
O O12 0.954056 0.044521 0.804443
O O13 0.146806 0.901475 0.640636
O O14 0.000000 0.000000 0.500000
O O15 0.186302 0.147902 0.413354
O O16 0.326989 0.786391 0.495125
O O17 0.289223 0.409071 0.403860
#
# Coordination Sequence:
#
# PCOD9028476 Si02
#       8
#     2   2   2   2   2   2   2   2
#     4  10  22  42  62  94 133 172 215 255 332 378
#     4  10  24  44  65  92 129 167 214 269 329 384
#     4  11  23  45  67  95 129 168 213 271 330 387
#     4  10  23  40  64  93 130 171 211 270 314 384
#     4  11  21  40  65  91 130 168 213 264 320 379
#     4  11  23  39  62  94 130 166 215 267 308 388
#     4  12  24  41  66  97 127 169 224 262 324 385
#     4  11  23  42  65  95 127 168 216 269 320 387
#
# _framework density 23.578430999999998
#
# number of rings (size 3 to 8) (size 9 to 14) (size 15 to 20)
#    0.000    1.250    2.500    3.375    1.750    3.500 
#    2.250    0.000    0.000    0.000    0.000    0.000 
#    0.000    0.000    0.000    0.000    0.000    0.000 
#
# Total GULP energy -89443.753973 kJ/mol
# GULP energy per Si atom -5590.234623 kJ/mol
# Density = 2.352477 g / cm^3
# Si number density = 23.578431 Si / 1000 Ang^3
#
#
#
# Elastic Constant Matrix: (Units=GPa)
#
#
# Indices 1 2 3 4 5 6 
#
# 1 41.6439 -1.0086 23.5631 10.2645 4.2188 0.2180
# 2 -1.0086 71.7188 31.9213 25.0400 -7.5189 -16.0669
# 3 23.5631 31.9213 137.7143 32.1389 3.8840 -7.7801
# 4 10.2645 25.0400 32.1389 49.8592 -6.1568 -7.5198
# 5 4.2188 -7.5189 3.8840 -6.1568 34.6874 -4.5430
# 6 0.2180 -16.0669 -7.7801 -7.5198 -4.5430 28.2638
#
#
#
# Elastic Compliance Matrix: (Units=1/GPa)
#
#
# Indices 1 2 3 4 5 6 
#
# 1 0.028257 0.003587 -0.004389 -0.005402 -0.003304 -0.001355
# 2 0.003587 0.020494 -0.003340 -0.006888 0.004412 0.009579
# 3 -0.004389 -0.003340 0.009758 -0.004055 -0.002080 -0.000592
# 4 -0.005402 -0.006888 -0.004055 0.028381 0.005098 0.003380
# 5 -0.003304 0.004412 -0.002080 0.005098 0.032442 0.008532
# 6 -0.001355 0.009579 -0.000592 0.003380 0.008532 0.042945
#
#
# Mechanical properties :
#
#
# Convention : Reuss Voigt Hill
#
# Bulk Modulus (GPa) = 19.91039 40.00319 29.95679
# Shear Modulus (GPa) = 26.69479 35.66882 31.18180
#
# Velocity S-wave (km/s) = 3.36842 3.89366 3.64053
# Velocity P-wave (km/s) = 4.85706 6.10057 5.51398
#
# Compressibility (1/GPa) = 0.05022503
#
# Stress axis : x y z
#
# Youngs Moduli (GPa) = 35.38991 48.79504 102.47874
#
# Poissons Ratio (x) = -0.17502 0.44977
# Poissons Ratio (y) = -0.12694 0.34225
# Poissons Ratio (z) = 0.15532 0.16296
#
# Static dielectric constant tensor:
#      x y z
#    x 1.906370 0.013650 0.027660 
#    y 0.013650 1.888780 0.024910 
#    z 0.027660 0.024910 1.947060 
# 
# From -- ./inp_files/37328.got.cif
#   From: 2010.05.17/outbox.cif.g08.bks.cpg/sg2_19_cif.got.tgz:37328.got - 2010.06.03 11:33:40.
