data_PCOD9028011
_publ_section_title
;
Structure prediction by ZEFSAII (Michael W. Deem and Ramdas Pophale) SiO2 
 PCOD9028011
Probable space group: P -1
;
_chemical_formula_sum "Si O2"
_cell_formula_units_Z 16
_cell_length_a 10.368661
_cell_length_b 13.854731
_cell_length_c 9.152848
_cell_angle_alpha 71.336128
_cell_angle_beta 68.861119
_cell_angle_gamma 124.136486
_cell_volume 747.390846
_symmetry_space_group_name_H-M "P -1"
_symmetry_group_IT_number 2
_symmetry_cell_setting 'triclinic'
loop_
_space_group_symop_operation_xyz
x,y,z
-x,-y,-z
loop_
_atom_site_type_symbol
_atom_site_label
_atom_site_fract_x
_atom_site_fract_y
_atom_site_fract_z
Si Si1 0.901434 0.112249 0.032101
Si Si2 0.924619 0.348214 0.437067
Si Si3 0.934040 0.775911 0.393547
Si Si4 0.369598 0.330445 0.192542
Si Si5 0.661356 0.302403 0.017982
Si Si6 0.843060 0.885753 0.872480
Si Si7 0.735305 0.178701 0.287950
Si Si8 0.505961 0.186653 0.840287
O O1 0.064860 0.232676 0.777437
O O2 0.987244 0.062264 0.107353
O O3 0.873917 0.180160 0.133783
O O4 0.672597 0.968804 0.112435
O O5 0.841655 0.260701 0.358733
O O6 0.732123 0.304550 0.609198
O O7 0.984004 0.283557 0.542481
O O8 0.133304 0.532605 0.225628
O O9 0.718167 0.688842 0.604463
O O10 0.086942 0.960358 0.272253
O O11 0.511471 0.309066 0.133764
O O12 0.500000 0.500000 0.000000
O O13 0.179053 0.197534 0.219433
O O14 0.716872 0.267143 0.151441
O O15 0.549007 0.173576 0.995930
O O16 0.608816 0.768772 0.101621
O O17 0.500000 0.000000 0.500000
#
# Coordination Sequence:
#
# PCOD9028011 Si02
#       8
#     2   2   2   2   2   2   2   2
#     4  11  24  44  66 103 134 166 227 279 325 389
#     4  12  24  44  68  97 138 174 221 272 334 397
#     4  11  23  40  72  96 129 178 221 273 330 386
#     4  11  23  44  69  99 133 175 221 271 334 399
#     4  11  26  44  67  96 138 174 219 271 334 400
#     4  10  24  42  69  99 134 172 225 276 329 390
#     4  12  27  42  68  99 132 176 221 277 328 385
#     4  10  22  41  70  97 130 171 223 267 334 387
#
# _framework density 21.407807999999999
#
# number of rings (size 3 to 8) (size 9 to 14) (size 15 to 20)
#    0.000    1.000    2.500    4.125    7.000    3.500 
#    0.000    0.625    2.750    0.000    0.000    0.000 
#    0.000    0.000    0.000    0.000    0.000    0.000 
#
# Total GULP energy -89365.962087 kJ/mol
# GULP energy per Si atom -5585.372630 kJ/mol
# Density = 2.135908 g / cm^3
# Si number density = 21.407808 Si / 1000 Ang^3
#
#
#
# Elastic Constant Matrix: (Units=GPa)
#
#
# Indices 1 2 3 4 5 6 
#
# 1 84.4523 -2.3931 42.3401 -2.7273 2.0784 -13.0210
# 2 -2.3931 56.2774 15.2954 19.1778 -1.1157 -10.8733
# 3 42.3401 15.2954 135.2319 17.7798 -11.0227 -14.5631
# 4 -2.7273 19.1778 17.7798 38.1397 -14.3998 -4.4566
# 5 2.0784 -1.1157 -11.0227 -14.3998 43.9038 5.1464
# 6 -13.0210 -10.8733 -14.5631 -4.4566 5.1464 18.6826
#
#
#
# Elastic Compliance Matrix: (Units=1/GPa)
#
#
# Indices 1 2 3 4 5 6 
#
# 1 0.016056 0.003272 -0.004723 0.002019 -0.002439 0.010566
# 2 0.003272 0.025100 -0.001131 -0.012240 -0.005528 0.014610
# 3 -0.004723 -0.001131 0.009847 -0.003616 0.001184 0.002536
# 4 0.002019 -0.012240 -0.003616 0.038257 0.011537 -0.002587
# 5 -0.002439 -0.005528 0.001184 0.011537 0.027879 -0.008922
# 6 0.010566 0.014610 0.002536 -0.002587 -0.008922 0.073210
#
#
# Mechanical properties :
#
#
# Convention : Reuss Voigt Hill
#
# Bulk Modulus (GPa) = 21.81671 42.93850 32.37760
# Shear Modulus (GPa) = 23.71984 34.85985 29.28984
#
# Velocity S-wave (km/s) = 3.33227 4.03969 3.70291
# Velocity P-wave (km/s) = 5.00185 6.46991 5.78266
#
# Compressibility (1/GPa) = 0.04583643
#
# Stress axis : x y z
#
# Youngs Moduli (GPa) = 62.28134 39.84098 101.55823
#
# Poissons Ratio (x) = -0.13035 0.47971
# Poissons Ratio (y) = -0.20377 0.11490
# Poissons Ratio (z) = 0.29419 0.04507
#
# Static dielectric constant tensor:
#      x y z
#    x 1.805760 0.008390 -0.043190 
#    y 0.008390 1.796460 -0.011510 
#    z -0.043190 -0.011510 1.802270 
# 
# From -- ./inp_files/272471.got.cif
#   From: 2010.05.17/outbox.cif.g08.bks.cpg/sg2_137_cif.got.tgz:272471.got - 2010.06.03 11:33:40.
