data_PCOD9028377
_publ_section_title
;
Structure prediction by ZEFSAII (Michael W. Deem and Ramdas Pophale) SiO2 
 PCOD9028377
Probable space group: P -1
;
_chemical_formula_sum "Si O2"
_cell_formula_units_Z 14
_cell_length_a 6.914202
_cell_length_b 9.542487
_cell_length_c 13.617455
_cell_angle_alpha 94.342328
_cell_angle_beta 100.367604
_cell_angle_gamma 131.322174
_cell_volume 640.307815
_symmetry_space_group_name_H-M "P -1"
_symmetry_group_IT_number 2
_symmetry_cell_setting 'triclinic'
loop_
_space_group_symop_operation_xyz
x,y,z
-x,-y,-z
loop_
_atom_site_type_symbol
_atom_site_label
_atom_site_fract_x
_atom_site_fract_y
_atom_site_fract_z
Si Si1 0.556287 0.307773 0.721818
Si Si2 0.721722 0.281677 0.944991
Si Si3 0.792374 0.020630 0.006403
Si Si4 0.555981 0.722294 0.603858
Si Si5 0.361750 0.940366 0.610417
Si Si6 0.978262 0.763095 0.755349
Si Si7 0.168997 0.280028 0.563137
O O1 0.586418 0.280388 0.835993
O O2 0.791854 0.532685 0.728542
O O3 0.272314 0.244462 0.664988
O O4 0.567604 0.170191 0.653310
O O5 0.505234 0.186331 0.008673
O O6 0.777809 0.141715 0.934467
O O7 0.000000 0.500000 0.000000
O O8 0.889086 0.141466 0.123087
O O9 0.000000 0.000000 0.000000
O O10 0.485248 0.849073 0.603151
O O11 0.775282 0.789348 0.709708
O O12 0.292483 0.496850 0.588259
O O13 0.681155 0.726239 0.513778
O O14 0.193729 0.856183 0.692931
O O15 0.141721 0.865880 0.502383
#
# Coordination Sequence:
#
# PCOD9028377 Si02
#       7
#     2   2   2   2   2   2   2
#     4  11  22  40  63  92 129 167 209 269 322 377
#     4  11  24  46  68  96 133 169 217 273 328 392
#     4  11  25  44  71  95 129 173 220 271 332 390
#     4   9  20  37  63  91 126 169 213 254 318 386
#     4  11  21  39  67  88 125 174 213 255 323 385
#     4  10  22  42  60  92 132 164 208 271 319 379
#     4   9  20  39  59  92 132 163 209 268 314 377
#
# _framework density 21.864483
#
# number of rings (size 3 to 8) (size 9 to 14) (size 15 to 20)
#    0.000    1.714    2.857    1.714    2.000    1.143 
#    0.000    8.571    0.000    0.000    0.000    0.000 
#    0.000    0.000    0.000    0.000    0.000    0.000 
#
# Total GULP energy -78340.007201 kJ/mol
# GULP energy per Si atom -5595.714800 kJ/mol
# Density = 2.181472 g / cm^3
# Si number density = 21.864483 Si / 1000 Ang^3
#
#
#
# Elastic Constant Matrix: (Units=GPa)
#
#
# Indices 1 2 3 4 5 6 
#
# 1 117.2452 69.1965 27.9967 0.0627 12.5842 -25.6980
# 2 69.1965 152.3673 38.4338 1.1343 13.4476 -14.8188
# 3 27.9967 38.4338 114.6331 -13.2922 30.0595 -10.4345
# 4 0.0627 1.1343 -13.2922 31.8071 -5.6421 5.4670
# 5 12.5842 13.4476 30.0595 -5.6421 26.0709 -3.7372
# 6 -25.6980 -14.8188 -10.4345 5.4670 -3.7372 30.1717
#
#
#
# Elastic Compliance Matrix: (Units=1/GPa)
#
#
# Indices 1 2 3 4 5 6 
#
# 1 0.013953 -0.005077 -0.000364 -0.002096 -0.002818 0.009296
# 2 -0.005077 0.009385 -0.001952 -0.001177 -0.000427 -0.000229
# 3 -0.000364 -0.001952 0.013477 0.003106 -0.013519 0.001155
# 4 -0.002096 -0.001177 0.003106 0.034801 0.004562 -0.007030
# 5 -0.002818 -0.000427 -0.013519 0.004562 0.056350 -0.001133
# 6 0.009296 -0.000229 0.001155 -0.007030 -0.001133 0.042482
#
#
# Mechanical properties :
#
#
# Convention : Reuss Voigt Hill
#
# Bulk Modulus (GPa) = 45.39054 72.83328 59.11191
# Shear Modulus (GPa) = 25.96380 34.18450 30.07415
#
# Velocity S-wave (km/s) = 3.44973 3.95837 3.71277
# Velocity P-wave (km/s) = 6.05579 7.36716 6.74343
#
# Compressibility (1/GPa) = 0.02203102
#
# Stress axis : x y z
#
# Youngs Moduli (GPa) = 71.66806 106.55104 74.20077
#
# Poissons Ratio (x) = 0.54092 0.02697
# Poissons Ratio (y) = 0.36383 0.14484
# Poissons Ratio (z) = 0.02605 0.20799
#
# Static dielectric constant tensor:
#      x y z
#    x 1.768800 0.019850 0.017350 
#    y 0.019850 1.817490 -0.011770 
#    z 0.017350 -0.011770 1.821490 
# 
# From -- ./inp_files/480589.got.cif
#   From: 2010.05.17/outbox.cif.g08.bks.cpg/sg2_241_cif.got.tgz:480589.got - 2010.06.03 11:33:40.
