data_PCOD9028053
_publ_section_title
;
Structure prediction by ZEFSAII (Michael W. Deem and Ramdas Pophale) SiO2 
 PCOD9028053
Probable space group: P -1
;
_chemical_formula_sum "Si O2"
_cell_formula_units_Z 13
_cell_length_a 11.271531
_cell_length_b 5.335612
_cell_length_c 9.760057
_cell_angle_alpha 80.603186
_cell_angle_beta 111.613852
_cell_angle_gamma 109.090669
_cell_volume 515.078467
_symmetry_space_group_name_H-M "P -1"
_symmetry_group_IT_number 2
_symmetry_cell_setting 'triclinic'
loop_
_space_group_symop_operation_xyz
x,y,z
-x,-y,-z
loop_
_atom_site_type_symbol
_atom_site_label
_atom_site_fract_x
_atom_site_fract_y
_atom_site_fract_z
Si Si1 0.505861 0.146161 0.177362
Si Si2 0.949625 0.507645 0.209060
Si Si3 0.858275 0.017280 0.389719
Si Si4 0.500000 0.000000 0.500000
Si Si5 0.350990 0.244158 0.873924
Si Si6 0.218751 0.941820 0.359321
Si Si7 0.888112 0.749386 0.912364
O O1 0.591768 0.439945 0.139362
O O2 0.509593 0.141968 0.341888
O O3 0.564382 0.910977 0.168807
O O4 0.367494 0.124569 0.040268
O O5 0.070422 0.743175 0.301644
O O6 0.035142 0.369299 0.158935
O O7 0.878379 0.313366 0.316273
O O8 0.850191 0.569172 0.047521
O O9 0.766371 0.941510 0.491074
O O10 0.794330 0.840622 0.248729
O O11 0.000000 0.000000 0.500000
O O12 0.342791 0.827364 0.409012
O O13 0.220877 0.161673 0.226945
O O14 0.000000 0.000000 0.000000
#
# Coordination Sequence:
#
# PCOD9028053 Si02
#       7
#     2   2   2   1   2   2   2
#     4  10  24  49  74 102 146 198 244 308 355 443
#     4  10  22  41  70  99 138 182 231 293 368 431
#     4  12  24  42  73 105 139 186 234 305 364 442
#     4  12  26  46  72 106 142 192 244 312 356 436
#     4  10  24  49  72 105 147 193 251 293 375 443
#     4  11  24  45  65 103 139 182 240 293 367 433
#     4   9  20  42  64  97 137 178 227 288 362 432
#
# _framework density 25.238876000000001
#
# number of rings (size 3 to 8) (size 9 to 14) (size 15 to 20)
#    0.000    1.538    3.077    0.462    2.154    5.538 
#   11.077    0.000    0.000    0.000    0.000    0.000 
#    0.000    0.000    0.000    0.000    0.000    0.000 
#
# Total GULP energy -72406.725786 kJ/mol
# GULP energy per Si atom -5569.748137 kJ/mol
# Density = 2.518143 g / cm^3
# Si number density = 25.238876 Si / 1000 Ang^3
#
#
#
# Elastic Constant Matrix: (Units=GPa)
#
#
# Indices 1 2 3 4 5 6 
#
# 1 47.3281 13.8109 40.4219 -1.6147 16.5581 0.0149
# 2 13.8109 53.7666 27.3213 -4.2457 -2.5845 -13.2428
# 3 40.4219 27.3213 243.5966 -32.1637 21.3408 -0.5002
# 4 -1.6147 -4.2457 -32.1637 42.2307 9.4697 -3.3929
# 5 16.5581 -2.5845 21.3408 9.4697 40.9296 2.8182
# 6 0.0149 -13.2428 -0.5002 -3.3929 2.8182 23.8367
#
#
#
# Elastic Compliance Matrix: (Units=1/GPa)
#
#
# Indices 1 2 3 4 5 6 
#
# 1 0.029667 -0.007201 -0.003167 0.000161 -0.010650 -0.002804
# 2 -0.007201 0.024978 -0.001828 0.000964 0.004293 0.013473
# 3 -0.003167 -0.001828 0.005713 0.004708 -0.002910 0.000121
# 4 0.000161 0.000964 0.004708 0.030061 -0.009833 0.006075
# 5 -0.010650 0.004293 -0.002910 -0.009833 0.033009 -0.002972
# 6 -0.002804 0.013473 0.000121 0.006075 -0.002972 0.050657
#
#
# Mechanical properties :
#
#
# Convention : Reuss Voigt Hill
#
# Bulk Modulus (GPa) = 27.80334 56.42216 42.11275
# Shear Modulus (GPa) = 23.75679 38.94189 31.34934
#
# Velocity S-wave (km/s) = 3.07135 3.93228 3.52817
# Velocity P-wave (km/s) = 4.85979 6.55903 5.77228
#
# Compressibility (1/GPa) = 0.03596690
#
# Stress axis : x y z
#
# Youngs Moduli (GPa) = 33.70695 40.03479 175.05443
#
# Poissons Ratio (x) = 0.28830 0.55435
# Poissons Ratio (y) = 0.24273 0.31995
# Poissons Ratio (z) = 0.10674 0.07317
#
# Static dielectric constant tensor:
#      x y z
#    x 2.090020 -0.053910 0.005060 
#    y -0.053910 2.016890 -0.028140 
#    z 0.005060 -0.028140 1.924840 
# 
# From -- ./inp_files/24075.got.cif
#   From: 2010.05.17/outbox.cif.g08.bks.cpg/sg2_13_cif.got.tgz:24075.got - 2010.06.03 11:33:40.
