data_PCOD9028453
_publ_section_title
;
Structure prediction by ZEFSAII (Michael W. Deem and Ramdas Pophale) SiO2 
 PCOD9028453
Probable space group: P -1
;
_chemical_formula_sum "Si O2"
_cell_formula_units_Z 16
_cell_length_a 28.258445
_cell_length_b 15.296486
_cell_length_c 18.467435
_cell_angle_alpha 20.037502
_cell_angle_beta 19.214737
_cell_angle_gamma 19.206796
_cell_volume 775.731198
_symmetry_space_group_name_H-M "P -1"
_symmetry_group_IT_number 2
_symmetry_cell_setting 'triclinic'
loop_
_space_group_symop_operation_xyz
x,y,z
-x,-y,-z
loop_
_atom_site_type_symbol
_atom_site_label
_atom_site_fract_x
_atom_site_fract_y
_atom_site_fract_z
Si Si1 0.573029 0.612849 0.599510
Si Si2 0.139030 0.800386 0.394682
Si Si3 0.380920 0.426639 0.775313
Si Si4 0.620029 0.138056 0.102073
Si Si5 0.030239 0.815532 0.027668
Si Si6 0.636501 0.145923 0.750021
Si Si7 0.231285 0.838099 0.986330
Si Si8 0.014770 0.247936 0.496035
O O1 0.718878 0.487599 0.545828
O O2 0.634658 0.368599 0.638395
O O3 0.533822 0.938060 0.377146
O O4 0.410638 0.624978 0.858455
O O5 0.056768 0.734098 0.495946
O O6 0.246434 0.934008 0.098895
O O7 0.000000 0.000000 0.500000
O O8 0.500000 0.500000 0.500000
O O9 0.203891 0.723429 0.809590
O O10 0.470843 0.315905 0.809208
O O11 0.356331 0.153327 0.997254
O O12 0.500000 0.500000 0.000000
O O13 0.721906 0.036194 0.109313
O O14 0.049892 0.506329 0.261437
O O15 0.881654 0.958625 0.073366
O O16 0.000000 0.000000 0.000000
O O17 0.802690 0.043289 0.541908
O O18 0.121171 0.721210 0.274362
#
# Coordination Sequence:
#
# PCOD9028453 Si02
#       8
#     2   2   2   2   2   2   2   2
#     4  12  24  40  65  96 129 170 219 260 319 391
#     4  11  23  43  65  96 130 172 210 266 321 387
#     4  10  22  42  65  87 127 164 211 267 329 374
#     4  11  25  43  64  96 132 173 214 263 324 385
#     4  11  24  41  64  95 126 168 214 268 319 381
#     4  10  22  42  62  92 124 165 211 271 316 383
#     4  11  24  40  67  91 128 173 209 261 324 377
#     4  10  23  42  64  93 133 163 215 264 319 381
#
# _framework density 20.625699999999998
#
# number of rings (size 3 to 8) (size 9 to 14) (size 15 to 20)
#    0.000    1.250    2.500    2.625    3.500    3.000 
#    2.250    0.000    0.000    0.000    0.000    0.000 
#    0.000    0.000    0.000    0.000    0.000    0.000 
#
# Total GULP energy -89238.857632 kJ/mol
# GULP energy per Si atom -5577.428602 kJ/mol
# Density = 2.057876 g / cm^3
# Si number density = 20.625700 Si / 1000 Ang^3
#
#
#
# Elastic Constant Matrix: (Units=GPa)
#
#
# Indices 1 2 3 4 5 6 
#
# 1 53.1607 27.8758 18.2743 -9.8189 5.3418 1.6376
# 2 27.8758 112.7968 44.3033 23.9156 9.9215 2.7422
# 3 18.2743 44.3033 91.7358 14.8000 0.0864 35.0541
# 4 -9.8189 23.9156 14.8000 36.1824 3.7857 -1.5641
# 5 5.3418 9.9215 0.0864 3.7857 22.8100 12.6349
# 6 1.6376 2.7422 35.0541 -1.5641 12.6349 36.8682
#
#
#
# Elastic Compliance Matrix: (Units=1/GPa)
#
#
# Indices 1 2 3 4 5 6 
#
# 1 0.032615 -0.004932 -0.016435 0.022108 -0.021817 0.022959
# 2 -0.004932 0.016580 -0.011478 -0.005648 -0.012869 0.014070
# 3 -0.016435 -0.011478 0.045382 -0.022578 0.044399 -0.057739
# 4 0.022108 -0.005648 -0.022578 0.051126 -0.029502 0.033184
# 5 -0.021817 -0.012869 0.044399 -0.029502 0.101566 -0.076347
# 6 0.022959 0.014070 -0.057739 0.033184 -0.076347 0.107527
#
#
# Mechanical properties :
#
#
# Convention : Reuss Voigt Hill
#
# Bulk Modulus (GPa) = 34.61619 48.73334 41.67476
# Shear Modulus (GPa) = 11.62485 30.32144 20.97315
#
# Velocity S-wave (km/s) = 2.37662 3.83832 3.19226
# Velocity P-wave (km/s) = 4.93463 6.58198 5.81691
#
# Compressibility (1/GPa) = 0.02888822
#
# Stress axis : x y z
#
# Youngs Moduli (GPa) = 30.66090 60.31445 22.03536
#
# Poissons Ratio (x) = 0.29746 0.36214
# Poissons Ratio (y) = 0.15121 0.25292
# Poissons Ratio (z) = 0.50390 0.69227
#
# Static dielectric constant tensor:
#      x y z
#    x 1.870030 -0.080350 -0.010740 
#    y -0.080350 1.803240 0.044900 
#    z -0.010740 0.044900 1.806710 
# 
# From -- ./inp_files/139082.got.cif
#   From: 2010.05.17/outbox.cif.g08.bks.cpg/sg2_70_cif.got.tgz:139082.got - 2010.06.03 11:33:40.
