data_PCOD9028239
_publ_section_title
;
Structure prediction by ZEFSAII (Michael W. Deem and Ramdas Pophale) SiO2 
 PCOD9028239
Probable space group: P -1
;
_chemical_formula_sum "Si O2"
_cell_formula_units_Z 16
_cell_length_a 8.866298
_cell_length_b 8.596184
_cell_length_c 13.609593
_cell_angle_alpha 131.305434
_cell_angle_beta 113.067973
_cell_angle_gamma 50.630240
_cell_volume 601.730459
_symmetry_space_group_name_H-M "P -1"
_symmetry_group_IT_number 2
_symmetry_cell_setting 'triclinic'
loop_
_space_group_symop_operation_xyz
x,y,z
-x,-y,-z
loop_
_atom_site_type_symbol
_atom_site_label
_atom_site_fract_x
_atom_site_fract_y
_atom_site_fract_z
Si Si1 0.419310 0.825636 0.881374
Si Si2 0.771836 0.164097 0.975142
Si Si3 0.838677 0.776953 0.536782
Si Si4 0.903148 0.076034 0.287416
Si Si5 0.776473 0.929114 0.360443
Si Si6 0.379031 0.381374 0.489130
Si Si7 0.747575 0.698231 0.773304
Si Si8 0.884794 0.518058 0.079824
O O1 0.372745 0.711203 0.914550
O O2 0.202523 0.992024 0.847945
O O3 0.591219 0.667920 0.782454
O O4 0.500000 0.000000 0.000000
O O5 0.781938 0.361771 0.991022
O O6 0.712912 0.967152 0.850790
O O7 0.000000 0.000000 0.000000
O O8 0.899109 0.936507 0.681768
O O9 0.000000 0.500000 0.500000
O O10 0.833913 0.816261 0.435619
O O11 0.638092 0.813470 0.531722
O O12 0.602615 0.217553 0.446057
O O13 0.936958 0.940624 0.342820
O O14 0.728274 0.364652 0.373954
O O15 0.730703 0.780779 0.205501
O O16 0.251318 0.422963 0.378102
O O17 0.943038 0.582159 0.837429
O O18 0.000000 0.500000 0.000000
#
# Coordination Sequence:
#
# PCOD9028239 Si02
#       8
#     2   2   2   2   2   2   2   2
#     4  10  22  41  73 101 133 188 246 291 353 427
#     4   9  22  40  70  93 133 185 242 282 363 411
#     4  10  24  43  70 101 141 186 234 288 358 428
#     4  11  24  43  74  98 144 187 238 289 368 417
#     4  12  25  44  68 106 146 180 242 301 352 428
#     4  11  24  44  73 106 141 186 237 299 361 422
#     4  10  22  44  69  98 140 184 242 294 356 428
#     4  11  26  43  69 103 145 188 242 302 359 426
#
# _framework density 26.589980000000001
#
# number of rings (size 3 to 8) (size 9 to 14) (size 15 to 20)
#    0.000    1.500    1.250    2.625   12.250    0.000 
#    0.000    2.500    0.000    0.000    0.000    0.000 
#    0.000    0.000    0.000    0.000    0.000    0.000 
#
# Total GULP energy -89139.113589 kJ/mol
# GULP energy per Si atom -5571.194599 kJ/mol
# Density = 2.652946 g / cm^3
# Si number density = 26.589980 Si / 1000 Ang^3
#
#
#
# Elastic Constant Matrix: (Units=GPa)
#
#
# Indices 1 2 3 4 5 6 
#
# 1 129.4489 33.6506 18.5966 -4.0836 -6.7453 51.8721
# 2 33.6506 72.9555 29.9750 -7.5047 -0.2664 5.5413
# 3 18.5966 29.9750 92.4244 -0.5627 4.5048 0.2687
# 4 -4.0836 -7.5047 -0.5627 55.1886 5.2124 -2.1992
# 5 -6.7453 -0.2664 4.5048 5.2124 41.6717 3.5740
# 6 51.8721 5.5413 0.2687 -2.1992 3.5740 47.1771
#
#
#
# Elastic Compliance Matrix: (Units=1/GPa)
#
#
# Indices 1 2 3 4 5 6 
#
# 1 0.017131 -0.005842 -0.001727 -0.000717 0.004600 -0.018521
# 2 -0.005842 0.018214 -0.004683 0.002269 -0.000992 0.004492
# 3 -0.001727 -0.004683 0.012767 -0.000359 -0.001859 0.002500
# 4 -0.000717 0.002269 -0.000359 0.018674 -0.002535 0.001586
# 5 0.004600 -0.000992 -0.001859 -0.002535 0.025855 -0.007008
# 6 -0.018521 0.004492 0.002500 0.001586 -0.007008 0.041624
#
#
# Mechanical properties :
#
#
# Convention : Reuss Voigt Hill
#
# Bulk Modulus (GPa) = 42.35739 51.03034 46.69387
# Shear Modulus (GPa) = 30.00515 42.98124 36.49319
#
# Velocity S-wave (km/s) = 3.36287 4.02487 3.70867
# Velocity P-wave (km/s) = 5.57162 6.39004 5.99481
#
# Compressibility (1/GPa) = 0.02360863
#
# Stress axis : x y z
#
# Youngs Moduli (GPa) = 58.37451 54.90199 78.32728
#
# Poissons Ratio (x) = 0.32075 0.13526
# Poissons Ratio (y) = 0.34103 0.36678
# Poissons Ratio (z) = 0.10081 0.25709
#
# Static dielectric constant tensor:
#      x y z
#    x 2.195810 0.012200 -0.088980 
#    y 0.012200 2.214220 0.121080 
#    z -0.088980 0.121080 2.281040 
# 
# From -- ./inp_files/380391.got.cif
#   From: 2010.05.17/outbox.cif.g08.bks.cpg/sg2_191_cif.got.tgz:380391.got - 2010.06.03 11:33:40.
