data_PCOD9028508
_publ_section_title
;
Structure prediction by ZEFSAII (Michael W. Deem and Ramdas Pophale) SiO2 
 PCOD9028508
Probable space group: P -1
;
_chemical_formula_sum "Si O2"
_cell_formula_units_Z 14
_cell_length_a 14.273751
_cell_length_b 27.162699
_cell_length_c 5.206642
_cell_angle_alpha 107.755757
_cell_angle_beta 97.239288
_cell_angle_gamma 19.492325
_cell_volume 552.529692
_symmetry_space_group_name_H-M "P -1"
_symmetry_group_IT_number 2
_symmetry_cell_setting 'triclinic'
loop_
_space_group_symop_operation_xyz
x,y,z
-x,-y,-z
loop_
_atom_site_type_symbol
_atom_site_label
_atom_site_fract_x
_atom_site_fract_y
_atom_site_fract_z
Si Si1 0.460956 0.473687 0.744613
Si Si2 0.119371 0.745282 0.875637
Si Si3 0.665675 0.089874 0.799960
Si Si4 0.306748 0.238669 0.397755
Si Si5 0.470084 0.050959 0.319469
Si Si6 0.252209 0.401027 0.100167
Si Si7 0.608051 0.304690 0.770709
O O1 0.222166 0.630100 0.727720
O O2 0.819995 0.277413 0.438052
O O3 0.360012 0.469374 0.776308
O O4 0.500000 0.500000 0.000000
O O5 0.314969 0.690259 0.984533
O O6 0.794741 0.915003 0.193057
O O7 0.497053 0.164863 0.587307
O O8 0.534138 0.121416 0.034149
O O9 0.514162 0.225307 0.036733
O O10 0.053757 0.887650 0.560590
O O11 0.209744 0.232429 0.462600
O O12 0.984575 0.441113 0.550487
O O13 0.500000 0.000000 0.500000
O O14 0.500000 0.000000 0.000000
O O15 0.446256 0.340012 0.894776
O O16 0.000000 0.500000 0.000000
#
# Coordination Sequence:
#
# PCOD9028508 Si02
#       7
#     2   2   2   2   2   2   2
#     4   9  21  38  68  96 137 178 232 290 337 419
#     4  10  22  42  63 102 137 184 239 281 346 427
#     4  11  23  47  73 101 136 189 242 293 343 426
#     4  11  24  47  71 100 149 184 230 294 360 415
#     4  12  27  41  71 104 145 187 233 284 355 427
#     4  10  25  47  70 105 139 182 239 301 361 416
#     4  11  22  42  74  97 138 184 237 292 356 414
#
# _framework density 25.338004999999999
#
# number of rings (size 3 to 8) (size 9 to 14) (size 15 to 20)
#    0.000    1.429    1.429    2.571    6.000    2.286 
#   10.286    3.571    0.000    0.000    0.000    0.000 
#    0.000    0.000    0.000    0.000    0.000    0.000 
#
# Total GULP energy -78035.372171 kJ/mol
# GULP energy per Si atom -5573.955155 kJ/mol
# Density = 2.528033 g / cm^3
# Si number density = 25.338005 Si / 1000 Ang^3
#
#
#
# Elastic Constant Matrix: (Units=GPa)
#
#
# Indices 1 2 3 4 5 6 
#
# 1 161.0516 48.4601 35.3384 13.4088 -12.0173 27.7128
# 2 48.4601 45.5635 33.8483 9.0132 -1.5430 18.0615
# 3 35.3384 33.8483 140.4808 21.7377 -12.1227 11.0330
# 4 13.4088 9.0132 21.7377 45.7329 8.9430 9.7586
# 5 -12.0173 -1.5430 -12.1227 8.9430 41.8370 0.4682
# 6 27.7128 18.0615 11.0330 9.7586 0.4682 49.8768
#
#
#
# Elastic Compliance Matrix: (Units=1/GPa)
#
#
# Indices 1 2 3 4 5 6 
#
# 1 0.009588 -0.009482 0.000465 -0.001344 0.002846 -0.001760
# 2 -0.009482 0.040129 -0.007039 0.000524 -0.003308 -0.007777
# 3 0.000465 -0.007039 0.009577 -0.004197 0.003535 0.000960
# 4 -0.001344 0.000524 -0.004197 0.026321 -0.007169 -0.003597
# 5 0.002846 -0.003308 0.003535 -0.007169 0.027155 -0.000017
# 6 -0.001760 -0.007777 0.000960 -0.003597 -0.000017 0.024335
#
#
# Mechanical properties :
#
#
# Convention : Reuss Voigt Hill
#
# Bulk Modulus (GPa) = 36.79253 64.70994 50.75123
# Shear Modulus (GPa) = 28.04593 42.78593 35.41593
#
# Velocity S-wave (km/s) = 3.33058 4.11372 3.74269
# Velocity P-wave (km/s) = 5.41688 6.93958 6.22496
#
# Compressibility (1/GPa) = 0.02717943
#
# Stress axis : x y z
#
# Youngs Moduli (GPa) = 104.30206 24.91937 104.41971
#
# Poissons Ratio (x) = 0.23630 -0.04853
# Poissons Ratio (y) = 0.98904 0.73506
# Poissons Ratio (z) = -0.04848 0.17542
#
# Static dielectric constant tensor:
#      x y z
#    x 2.012780 0.114530 -0.036870 
#    y 0.114530 2.342280 0.053630 
#    z -0.036870 0.053630 2.158940 
# 
# From -- ./inp_files/84433.got.cif
#   From: 2010.05.17/outbox.cif.g08.bks.cpg/sg2_43_cif.got.tgz:84433.got - 2010.06.03 11:33:40.
