data_PCOD9028227
_publ_section_title
;
Structure prediction by ZEFSAII (Michael W. Deem and Ramdas Pophale) SiO2 
 PCOD9028227
Probable space group: P -1
;
_chemical_formula_sum "Si O2"
_cell_formula_units_Z 16
_cell_length_a 13.102748
_cell_length_b 11.898765
_cell_length_c 7.866896
_cell_angle_alpha 116.508814
_cell_angle_beta 48.713450
_cell_angle_gamma 129.624214
_cell_volume 709.177742
_symmetry_space_group_name_H-M "P -1"
_symmetry_group_IT_number 2
_symmetry_cell_setting 'triclinic'
loop_
_space_group_symop_operation_xyz
x,y,z
-x,-y,-z
loop_
_atom_site_type_symbol
_atom_site_label
_atom_site_fract_x
_atom_site_fract_y
_atom_site_fract_z
Si Si1 0.835877 0.347929 0.575506
Si Si2 0.740570 0.839576 0.209002
Si Si3 0.034982 0.163376 0.547287
Si Si4 0.548499 0.823430 0.743395
Si Si5 0.613947 0.596078 0.590646
Si Si6 0.018058 0.824365 0.795883
Si Si7 0.264376 0.845477 0.102586
Si Si8 0.551156 0.386245 0.799247
O O1 0.781944 0.253907 0.744365
O O2 0.693435 0.373021 0.706167
O O3 0.000000 0.500000 0.500000
O O4 0.883650 0.255478 0.337711
O O5 0.651085 0.823477 0.472081
O O6 0.608518 0.766853 0.160373
O O7 0.849813 0.766386 0.033032
O O8 0.863267 0.009846 0.167174
O O9 0.203276 0.278268 0.515949
O O10 0.022121 0.182322 0.368810
O O11 0.901513 0.182510 0.801708
O O12 0.000000 0.000000 0.500000
O O13 0.533606 0.694062 0.793678
O O14 0.642232 0.982103 0.835765
O O15 0.385133 0.809449 0.852508
O O16 0.500000 0.500000 0.500000
O O17 0.614844 0.467054 0.605009
O O18 0.500000 0.500000 0.000000
#
# Coordination Sequence:
#
# PCOD9028227 Si02
#       8
#     2   2   2   2   2   2   2   2
#     4  11  22  43  67  96 136 175 229 285 338 413
#     4  11  21  43  66  97 140 172 233 281 344 409
#     4  11  20  41  69  98 128 177 232 269 340 412
#     4  11  21  43  67  98 134 180 215 289 342 400
#     4  12  24  41  68  98 139 176 224 285 338 405
#     4  10  23  41  68 100 132 183 229 289 340 405
#     4  10  22  41  72  98 132 175 236 279 344 406
#     4  12  25  41  67 101 134 186 226 274 353 415
#
# _framework density 22.561339
#
# number of rings (size 3 to 8) (size 9 to 14) (size 15 to 20)
#    0.000    1.000    5.000    3.750    0.000    0.500 
#    0.000    3.125    0.000    0.000    0.000    0.000 
#    0.000    0.000    0.000    0.000    0.000    0.000 
#
# Total GULP energy -89208.750439 kJ/mol
# GULP energy per Si atom -5575.546902 kJ/mol
# Density = 2.250999 g / cm^3
# Si number density = 22.561339 Si / 1000 Ang^3
#
#
#
# Elastic Constant Matrix: (Units=GPa)
#
#
# Indices 1 2 3 4 5 6 
#
# 1 132.7327 56.2335 53.2367 6.3190 -52.6613 14.5167
# 2 56.2335 126.7024 21.5088 12.0702 -22.6740 20.7126
# 3 53.2367 21.5088 135.9179 2.8001 -54.1080 8.9434
# 4 6.3190 12.0702 2.8001 18.8326 1.6876 -7.8515
# 5 -52.6613 -22.6740 -54.1080 1.6876 50.0113 -4.1309
# 6 14.5167 20.7126 8.9434 -7.8515 -4.1309 50.7236
#
#
#
# Elastic Compliance Matrix: (Units=1/GPa)
#
#
# Indices 1 2 3 4 5 6 
#
# 1 0.015303 -0.003086 0.001147 -0.005984 0.015914 -0.002952
# 2 -0.003086 0.011243 0.001099 -0.008683 0.002916 -0.005008
# 3 0.001147 0.001099 0.013519 -0.005692 0.016301 -0.002714
# 4 -0.005984 -0.008683 -0.005692 0.069592 -0.017454 0.015613
# 5 0.015914 0.002916 0.016301 -0.017454 0.055739 -0.006782
# 6 -0.002952 -0.005008 -0.002714 0.015613 -0.006782 0.024948
#
#
# Mechanical properties :
#
#
# Convention : Reuss Voigt Hill
#
# Bulk Modulus (GPa) = 26.05164 73.03455 49.54309
# Shear Modulus (GPa) = 24.41177 41.53843 32.97510
#
# Velocity S-wave (km/s) = 3.29297 4.29550 3.82720
# Velocity P-wave (km/s) = 5.10199 7.55272 6.44492
#
# Compressibility (1/GPa) = 0.03838530
#
# Stress axis : x y z
#
# Youngs Moduli (GPa) = 65.34820 88.94086 73.96903
#
# Poissons Ratio (x) = 0.27447 -0.08486
# Poissons Ratio (y) = 0.20166 -0.08128
# Poissons Ratio (z) = -0.07497 -0.09773
#
# Static dielectric constant tensor:
#      x y z
#    x 1.760670 0.003070 0.065730 
#    y 0.003070 1.829720 -0.033360 
#    z 0.065730 -0.033360 1.954720 
# 
# From -- ./inp_files/262972.got.cif
#   From: 2010.05.17/outbox.cif.g08.bks.cpg/sg2_132_cif.got.tgz:262972.got - 2010.06.03 11:33:40.
