data_PCOD9028759
_publ_section_title
;
Structure prediction by ZEFSAII (Michael W. Deem and Ramdas Pophale) SiO2 
 PCOD9028759
Probable space group: P -1
;
_chemical_formula_sum "Si O2"
_cell_formula_units_Z 14
_cell_length_a 17.573226
_cell_length_b 17.553295
_cell_length_c 8.582885
_cell_angle_alpha 36.325685
_cell_angle_beta 35.981655
_cell_angle_gamma 23.247647
_cell_volume 591.499482
_symmetry_space_group_name_H-M "P -1"
_symmetry_group_IT_number 2
_symmetry_cell_setting 'triclinic'
loop_
_space_group_symop_operation_xyz
x,y,z
-x,-y,-z
loop_
_atom_site_type_symbol
_atom_site_label
_atom_site_fract_x
_atom_site_fract_y
_atom_site_fract_z
Si Si1 0.632786 0.029955 0.736110
Si Si2 0.212406 0.281808 0.468266
Si Si3 0.404394 0.445636 0.330853
Si Si4 0.604962 0.074877 0.061535
Si Si5 0.022715 0.235887 0.611211
Si Si6 0.726779 0.355008 0.437271
Si Si7 0.961519 0.944480 0.845109
O O1 0.547690 0.212201 0.475080
O O2 0.859623 0.838863 0.620410
O O3 0.634749 0.076306 0.831564
O O4 0.500000 0.000000 0.000000
O O5 0.370891 0.265132 0.174239
O O6 0.158641 0.222073 0.520681
O O7 0.000000 0.500000 0.500000
O O8 0.320717 0.125416 0.688056
O O9 0.340433 0.519841 0.496613
O O10 0.206789 0.554298 0.383362
O O11 0.500000 0.500000 0.000000
O O12 0.745603 0.055665 0.961915
O O13 0.015191 0.106662 0.928705
O O14 0.500000 0.500000 0.500000
O O15 0.911911 0.128369 0.583806
O O16 0.860023 0.265018 0.201148
#
# Coordination Sequence:
#
# PCOD9028759 Si02
#       7
#     2   2   2   2   2   2   2
#     4  12  26  45  70 100 146 186 228 292 355 413
#     4  10  23  40  67  94 133 178 231 285 339 417
#     4  12  28  45  72 106 142 187 238 290 349 425
#     4  10  22  42  64  98 133 179 230 280 349 412
#     4  11  25  44  66 101 139 183 232 288 356 413
#     4  11  23  43  69 102 135 183 240 286 347 422
#     4  10  23  42  70  98 138 181 231 297 349 410
#
# _framework density 23.668658000000001
#
# number of rings (size 3 to 8) (size 9 to 14) (size 15 to 20)
#    0.000    1.143    1.429    3.429    2.000   12.000 
#    0.000    0.000    0.000    0.000    0.000    0.000 
#    0.000    0.000    0.000    0.000    0.000    0.000 
#
# Total GULP energy -77995.315380 kJ/mol
# GULP energy per Si atom -5571.093956 kJ/mol
# Density = 2.361479 g / cm^3
# Si number density = 23.668658 Si / 1000 Ang^3
#
#
#
# Elastic Constant Matrix: (Units=GPa)
#
#
# Indices 1 2 3 4 5 6 
#
# 1 58.4479 4.1225 1.7360 6.0300 -2.0915 -17.1275
# 2 4.1225 105.4160 20.3797 27.8083 -10.1457 -12.0156
# 3 1.7360 20.3797 71.6855 19.6470 2.1323 1.3467
# 4 6.0300 27.8083 19.6470 38.0857 -2.9297 -3.7205
# 5 -2.0915 -10.1457 2.1323 -2.9297 29.8984 2.2418
# 6 -17.1275 -12.0156 1.3467 -3.7205 2.2418 40.1601
#
#
#
# Elastic Compliance Matrix: (Units=1/GPa)
#
#
# Indices 1 2 3 4 5 6 
#
# 1 0.019857 0.001082 -0.000162 -0.002958 0.000843 0.008477
# 2 0.001082 0.012553 -0.001586 -0.007928 0.003421 0.003345
# 3 -0.000162 -0.001586 0.016628 -0.007741 -0.002368 -0.001686
# 4 -0.002958 -0.007928 -0.007741 0.036598 0.001245 -0.000053
# 5 0.000843 0.003421 -0.002368 0.001245 0.034985 -0.000375
# 6 0.008477 0.003345 -0.001686 -0.000053 -0.000375 0.029589
#
#
# Mechanical properties :
#
#
# Convention : Reuss Voigt Hill
#
# Bulk Modulus (GPa) = 20.96208 32.00285 26.48247
# Shear Modulus (GPa) = 29.86066 35.58293 32.72179
#
# Velocity S-wave (km/s) = 3.55577 3.88155 3.72222
# Velocity P-wave (km/s) = 5.07284 5.79992 5.44852
#
# Compressibility (1/GPa) = 0.04770519
#
# Stress axis : x y z
#
# Youngs Moduli (GPa) = 50.35987 79.66503 60.13801
#
# Poissons Ratio (x) = -0.08622 0.00976
# Poissons Ratio (y) = -0.05451 0.09541
# Poissons Ratio (z) = 0.00817 0.12639
#
# Static dielectric constant tensor:
#      x y z
#    x 2.141860 0.184090 -0.217840 
#    y 0.184090 1.987400 -0.234450 
#    z -0.217840 -0.234450 2.239340 
# 
# From -- ./inp_files/336674.got.cif
#   From: 2010.05.17/outbox.cif.g08.bks.cpg/sg2_169_cif.got.tgz:336674.got - 2010.06.03 11:33:40.
