data_PCOD9028060
_publ_section_title
;
Structure prediction by ZEFSAII (Michael W. Deem and Ramdas Pophale) SiO2 
 PCOD9028060
Probable space group: P -1
;
_chemical_formula_sum "Si O2"
_cell_formula_units_Z 16
_cell_length_a 11.296272
_cell_length_b 22.725247
_cell_length_c 5.145156
_cell_angle_alpha 110.295057
_cell_angle_beta 117.830977
_cell_angle_gamma 33.654170
_cell_volume 644.945886
_symmetry_space_group_name_H-M "P -1"
_symmetry_group_IT_number 2
_symmetry_cell_setting 'triclinic'
loop_
_space_group_symop_operation_xyz
x,y,z
-x,-y,-z
loop_
_atom_site_type_symbol
_atom_site_label
_atom_site_fract_x
_atom_site_fract_y
_atom_site_fract_z
Si Si1 0.364607 0.400235 0.224478
Si Si2 0.790297 0.024980 0.489763
Si Si3 0.717192 0.168402 0.308715
Si Si4 0.602319 0.802452 0.302568
Si Si5 0.090128 0.206010 0.534112
Si Si6 0.745300 0.922596 0.007960
Si Si7 0.575124 0.432237 0.222586
Si Si8 0.946995 0.575052 0.362879
O O1 0.583410 0.283635 0.396766
O O2 0.448931 0.412866 0.099384
O O3 0.187450 0.505026 0.383387
O O4 0.210093 0.400631 0.972339
O O5 0.779846 0.983971 0.165288
O O6 0.035553 0.917973 0.699833
O O7 0.768122 0.106548 0.518113
O O8 0.568796 0.094378 0.535553
O O9 0.557945 0.184080 0.997683
O O10 0.753953 0.791272 0.269720
O O11 0.788958 0.690758 0.481448
O O12 0.084217 0.173873 0.755582
O O13 0.842901 0.317734 0.345919
O O14 0.208718 0.119920 0.297086
O O15 0.500000 0.000000 0.000000
O O16 0.500000 0.500000 0.500000
O O17 0.500000 0.500000 0.000000
O O18 0.000000 0.500000 0.500000
#
# Coordination Sequence:
#
# PCOD9028060 Si02
#       8
#     2   2   2   2   2   2   2   2
#     4  10  23  44  68 101 142 178 245 296 367 438
#     4  11  23  41  68  97 141 180 242 295 364 438
#     4  10  23  43  64 101 133 187 233 304 367 424
#     4  11  23  40  67  99 136 180 242 295 360 438
#     4  12  27  46  73 106 146 197 245 302 370 439
#     4  12  25  46  71 105 146 194 244 303 362 444
#     4  12  28  50  75 109 148 197 247 307 371 447
#     4  10  22  41  71 100 133 184 232 306 362 424
#
# _framework density 24.808281999999998
#
# number of rings (size 3 to 8) (size 9 to 14) (size 15 to 20)
#    0.000    1.000    1.250    4.500    5.250    0.000 
#    9.000    0.000    0.000    0.000    0.000    0.000 
#    0.000    0.000    0.000    0.000    0.000    0.000 
#
# Total GULP energy -89537.324510 kJ/mol
# GULP energy per Si atom -5596.082782 kJ/mol
# Density = 2.475182 g / cm^3
# Si number density = 24.808282 Si / 1000 Ang^3
#
#
#
# Elastic Constant Matrix: (Units=GPa)
#
#
# Indices 1 2 3 4 5 6 
#
# 1 106.2186 49.8753 4.7791 -16.1937 4.1182 -2.2293
# 2 49.8753 175.9284 39.5891 -33.4009 5.2694 -14.0450
# 3 4.7791 39.5891 62.3338 -1.9285 -5.4237 -2.2288
# 4 -16.1937 -33.4009 -1.9285 42.5972 7.0354 -3.5376
# 5 4.1182 5.2694 -5.4237 7.0354 33.8489 -6.9109
# 6 -2.2293 -14.0450 -2.2288 -3.5376 -6.9109 40.0536
#
#
#
# Elastic Compliance Matrix: (Units=1/GPa)
#
#
# Indices 1 2 3 4 5 6 
#
# 1 0.011127 -0.002963 0.000971 0.002126 -0.001259 -0.000395
# 2 -0.002963 0.009384 -0.005666 0.006680 -0.002801 0.002917
# 3 0.000971 -0.005666 0.019839 -0.003981 0.004695 -0.000370
# 4 0.002126 0.006680 -0.003981 0.030902 -0.007613 0.003655
# 5 -0.001259 -0.002801 0.004695 -0.007613 0.033343 0.004290
# 6 -0.000395 0.002917 -0.000370 0.003655 0.004290 0.027010
#
#
# Mechanical properties :
#
#
# Convention : Reuss Voigt Hill
#
# Bulk Modulus (GPa) = 39.94585 59.21866 49.58225
# Shear Modulus (GPa) = 32.20305 39.98241 36.09273
#
# Velocity S-wave (km/s) = 3.60679 4.01890 3.81841
# Velocity P-wave (km/s) = 5.78637 6.74224 6.28251
#
# Compressibility (1/GPa) = 0.02503389
#
# Stress axis : x y z
#
# Youngs Moduli (GPa) = 89.87281 106.56283 50.40692
#
# Poissons Ratio (x) = 0.31577 -0.04894
# Poissons Ratio (y) = 0.26631 0.28558
# Poissons Ratio (z) = -0.08726 0.60374
#
# Static dielectric constant tensor:
#      x y z
#    x 1.980790 -0.005060 0.017980 
#    y -0.005060 1.996590 -0.015150 
#    z 0.017980 -0.015150 1.993340 
# 
# From -- ./inp_files/84467.got.cif
#   From: 2010.05.17/outbox.cif.g08.bks.cpg/sg2_43_cif.got.tgz:84467.got - 2010.06.03 11:33:40.
