data_PCOD9028811
_publ_section_title
;
Structure prediction by ZEFSAII (Michael W. Deem and Ramdas Pophale) SiO2 
 PCOD9028811
Probable space group: P -1
;
_chemical_formula_sum "Si O2"
_cell_formula_units_Z 14
_cell_length_a 8.913185
_cell_length_b 11.187581
_cell_length_c 8.126108
_cell_angle_alpha 71.035581
_cell_angle_beta 129.555508
_cell_angle_gamma 107.962451
_cell_volume 585.099486
_symmetry_space_group_name_H-M "P -1"
_symmetry_group_IT_number 2
_symmetry_cell_setting 'triclinic'
loop_
_space_group_symop_operation_xyz
x,y,z
-x,-y,-z
loop_
_atom_site_type_symbol
_atom_site_label
_atom_site_fract_x
_atom_site_fract_y
_atom_site_fract_z
Si Si1 0.387932 0.262547 0.206103
Si Si2 0.801245 0.334864 0.311111
Si Si3 0.173398 0.943373 0.553507
Si Si4 0.012809 0.395357 0.786079
Si Si5 0.579856 0.365552 0.631038
Si Si6 0.784036 0.025383 0.803638
Si Si7 0.525455 0.119601 0.837392
O O1 0.570804 0.328710 0.195895
O O2 0.468723 0.291609 0.432106
O O3 0.355550 0.110016 0.225509
O O4 0.181792 0.313029 0.999439
O O5 0.816388 0.196827 0.302016
O O6 0.932866 0.356045 0.562580
O O7 0.883172 0.458288 0.208532
O O8 0.191641 0.913794 0.386007
O O9 0.338448 0.064401 0.625648
O O10 0.000000 0.000000 0.500000
O O11 0.814153 0.386022 0.758247
O O12 0.500000 0.500000 0.500000
O O13 0.523819 0.270880 0.790501
O O14 0.713889 0.109721 0.861168
O O15 0.000000 0.000000 0.000000
O O16 0.500000 0.000000 0.000000
#
# Coordination Sequence:
#
# PCOD9028811 Si02
#       7
#     2   2   2   2   2   2   2
#     4  11  21  43  72 100 137 192 239 297 372 430
#     4  10  22  42  65 105 140 184 238 302 357 445
#     4  12  25  42  70 102 143 183 241 302 370 431
#     4  10  23  41  70 100 142 191 244 286 370 445
#     4  11  26  46  69 102 148 193 242 302 366 442
#     4  12  23  44  74 102 143 190 239 304 367 439
#     4  12  26  47  71 106 146 191 244 305 370 435
#
# _framework density 23.927555000000002
#
# number of rings (size 3 to 8) (size 9 to 14) (size 15 to 20)
#    0.000    0.857    2.857    5.143    2.000    1.714 
#    5.143    0.000    0.000    0.000    0.000    0.000 
#    0.000    0.000    0.000    0.000    0.000    0.000 
#
# Total GULP energy -78148.230706 kJ/mol
# GULP energy per Si atom -5582.016479 kJ/mol
# Density = 2.387310 g / cm^3
# Si number density = 23.927555 Si / 1000 Ang^3
#
#
#
# Elastic Constant Matrix: (Units=GPa)
#
#
# Indices 1 2 3 4 5 6 
#
# 1 111.6809 46.0320 54.8186 -19.4215 20.8953 7.4369
# 2 46.0320 187.6913 30.1523 -48.6534 4.3242 33.5752
# 3 54.8186 30.1523 88.3351 -24.2409 15.2926 12.5193
# 4 -19.4215 -48.6534 -24.2409 47.1988 6.4182 1.0618
# 5 20.8953 4.3242 15.2926 6.4182 48.4393 -3.4624
# 6 7.4369 33.5752 12.5193 1.0618 -3.4624 29.9978
#
#
#
# Elastic Compliance Matrix: (Units=1/GPa)
#
#
# Indices 1 2 3 4 5 6 
#
# 1 0.014294 -0.002803 -0.007930 -0.000713 -0.003134 0.002567
# 2 -0.002803 0.011885 0.004577 0.014385 -0.004312 -0.015525
# 3 -0.007930 0.004577 0.021448 0.013657 -0.006522 -0.013344
# 4 -0.000713 0.014385 0.013657 0.045063 -0.013026 -0.024722
# 5 -0.003134 -0.004312 -0.006522 -0.013026 0.027017 0.011905
# 6 0.002567 -0.015525 -0.013344 -0.024722 0.011905 0.057894
#
#
# Mechanical properties :
#
#
# Convention : Reuss Voigt Hill
#
# Bulk Modulus (GPa) = 28.31779 72.19034 50.25407
# Shear Modulus (GPa) = 24.79108 42.24080 33.51594
#
# Velocity S-wave (km/s) = 3.22233 4.20618 3.74669
# Velocity P-wave (km/s) = 5.07001 7.33656 6.30596
#
# Compressibility (1/GPa) = 0.03531350
#
# Stress axis : x y z
#
# Youngs Moduli (GPa) = 69.96149 84.13665 46.62520
#
# Poissons Ratio (x) = 0.23586 0.36975
# Poissons Ratio (y) = 0.19612 -0.21340
# Poissons Ratio (z) = 0.55481 -0.38509
#
# Static dielectric constant tensor:
#      x y z
#    x 1.816670 0.011070 0.012870 
#    y 0.011070 1.934080 -0.070910 
#    z 0.012870 -0.070910 2.007670 
# 
# From -- ./inp_files/185519.got.cif
#   From: 2010.05.17/outbox.cif.g08.bks.cpg/sg2_93_cif.got.tgz:185519.got - 2010.06.03 11:33:40.
