data_PCOD9028908
_publ_section_title
;
Structure prediction by ZEFSAII (Michael W. Deem and Ramdas Pophale) SiO2 
 PCOD9028908
Probable space group: P -1
;
_chemical_formula_sum "Si O2"
_cell_formula_units_Z 16
_cell_length_a 20.891243
_cell_length_b 9.005482
_cell_length_c 12.997755
_cell_angle_alpha 33.868653
_cell_angle_beta 37.759469
_cell_angle_gamma 59.695942
_cell_volume 747.319309
_symmetry_space_group_name_H-M "P -1"
_symmetry_group_IT_number 2
_symmetry_cell_setting 'triclinic'
loop_
_space_group_symop_operation_xyz
x,y,z
-x,-y,-z
loop_
_atom_site_type_symbol
_atom_site_label
_atom_site_fract_x
_atom_site_fract_y
_atom_site_fract_z
Si Si1 0.914867 0.187461 0.332464
Si Si2 0.535586 0.331664 0.642337
Si Si3 0.718652 0.746709 0.320090
Si Si4 0.684064 0.748309 0.916261
Si Si5 0.617877 0.285360 0.888025
Si Si6 0.178775 0.927717 0.274506
Si Si7 0.616201 0.208571 0.170456
Si Si8 0.045482 0.843079 0.280636
O O1 0.924224 0.218521 0.426627
O O2 0.774914 0.062955 0.571881
O O3 0.946399 0.941378 0.381986
O O4 0.000000 0.500000 0.000000
O O5 0.500000 0.500000 0.500000
O O6 0.660329 0.521228 0.427726
O O7 0.443258 0.291305 0.873985
O O8 0.497639 0.000644 0.839679
O O9 0.654224 0.572362 0.605291
O O10 0.686347 0.014934 0.184585
O O11 0.859168 0.905553 0.059534
O O12 0.744896 0.759134 0.943961
O O13 0.679524 0.492753 0.997052
O O14 0.727193 0.204786 0.777510
O O15 0.601389 0.307401 0.017722
O O16 0.121360 0.902545 0.253591
O O17 0.500000 0.000000 0.500000
O O18 0.000000 0.500000 0.500000
#
# Coordination Sequence:
#
# PCOD9028908 Si02
#       8
#     2   2   2   2   2   2   2   2
#     4  10  22  42  65  94 132 169 228 274 330 394
#     4  11  19  42  68  94 128 176 212 271 330 399
#     4  12  24  40  69  97 133 175 220 274 340 393
#     4   9  21  39  66  89 126 172 213 265 331 397
#     4  11  23  41  65 102 130 167 229 275 330 406
#     4   9  21  42  67  86 131 172 219 269 330 396
#     4  12  22  42  64  91 138 171 214 275 337 398
#     4  12  24  43  68  98 135 179 228 278 339 406
#
# _framework density 21.409858
#
# number of rings (size 3 to 8) (size 9 to 14) (size 15 to 20)
#    0.750    0.500    3.750    3.000    0.000    0.500 
#    2.250    1.250    0.000    0.000    0.000    0.000 
#    0.000    0.000    0.000    0.000    0.000    0.000 
#
# Total GULP energy -89183.574845 kJ/mol
# GULP energy per Si atom -5573.973428 kJ/mol
# Density = 2.136113 g / cm^3
# Si number density = 21.409858 Si / 1000 Ang^3
#
#
#
# Elastic Constant Matrix: (Units=GPa)
#
#
# Indices 1 2 3 4 5 6 
#
# 1 69.5201 33.1740 32.0836 -8.9598 8.4368 25.7730
# 2 33.1740 91.8248 37.7065 -6.2103 -5.3534 29.7479
# 3 32.0836 37.7065 148.8729 2.5595 0.5450 23.5667
# 4 -8.9598 -6.2103 2.5595 39.3337 4.0349 -7.8457
# 5 8.4368 -5.3534 0.5450 4.0349 36.3155 6.2517
# 6 25.7730 29.7479 23.5667 -7.8457 6.2517 29.6374
#
#
#
# Elastic Compliance Matrix: (Units=1/GPa)
#
#
# Indices 1 2 3 4 5 6 
#
# 1 0.022505 -0.002937 -0.001972 0.002430 -0.003550 -0.013662
# 2 -0.002937 0.018024 -0.001360 -0.001620 0.006332 -0.016220
# 3 -0.001972 -0.001360 0.008190 -0.002155 0.001103 -0.004236
# 4 0.002430 -0.001620 -0.002155 0.028423 -0.005640 0.009940
# 5 -0.003550 0.006332 0.001103 -0.005640 0.032039 -0.012398
# 6 -0.013662 -0.016220 -0.004236 0.009940 -0.012398 0.070517
#
#
# Mechanical properties :
#
#
# Convention : Reuss Voigt Hill
#
# Bulk Modulus (GPa) = 27.63886 57.34956 42.49421
# Shear Modulus (GPa) = 24.47413 34.87423 29.67418
#
# Velocity S-wave (km/s) = 3.38468 4.04032 3.72695
# Velocity P-wave (km/s) = 5.31151 6.97211 6.19768
#
# Compressibility (1/GPa) = 0.03618095
#
# Stress axis : x y z
#
# Youngs Moduli (GPa) = 44.43462 55.48066 122.09837
#
# Poissons Ratio (x) = 0.16296 0.24080
# Poissons Ratio (y) = 0.13051 0.16603
# Poissons Ratio (z) = 0.08763 0.07544
#
# Static dielectric constant tensor:
#      x y z
#    x 1.836020 -0.006320 0.024150 
#    y -0.006320 1.834460 0.017770 
#    z 0.024150 0.017770 1.895130 
# 
# From -- ./inp_files/469762.got.cif
#   From: 2010.05.17/outbox.cif.g08.bks.cpg/sg2_235_cif.got.tgz:469762.got - 2010.06.03 11:33:40.
