data_PCOD9028353
_publ_section_title
;
Structure prediction by ZEFSAII (Michael W. Deem and Ramdas Pophale) SiO2 
 PCOD9028353
Probable space group: P -1
;
_chemical_formula_sum "Si O2"
_cell_formula_units_Z 16
_cell_length_a 8.865530
_cell_length_b 12.151125
_cell_length_c 14.545669
_cell_angle_alpha 100.404443
_cell_angle_beta 120.538297
_cell_angle_gamma 38.732241
_cell_volume 773.774183
_symmetry_space_group_name_H-M "P -1"
_symmetry_group_IT_number 2
_symmetry_cell_setting 'triclinic'
loop_
_space_group_symop_operation_xyz
x,y,z
-x,-y,-z
loop_
_atom_site_type_symbol
_atom_site_label
_atom_site_fract_x
_atom_site_fract_y
_atom_site_fract_z
Si Si1 0.946534 0.881369 0.364944
Si Si2 0.289331 0.160363 0.165194
Si Si3 0.939065 0.251800 0.223423
Si Si4 0.139593 0.464639 0.816914
Si Si5 0.234827 0.542628 0.300580
Si Si6 0.846215 0.852491 0.070736
Si Si7 0.076243 0.848122 0.599708
Si Si8 0.787135 0.116449 0.041180
O O1 0.201263 0.668305 0.373177
O O2 0.905372 0.891756 0.463591
O O3 0.637044 0.006444 0.238396
O O4 0.012862 0.977124 0.384516
O O5 0.241702 0.113807 0.236593
O O6 0.099708 0.371379 0.155443
O O7 0.123295 0.186409 0.034215
O O8 0.798960 0.450018 0.204388
O O9 0.968268 0.197910 0.328293
O O10 0.777458 0.238054 0.112239
O O11 0.959866 0.456509 0.713774
O O12 0.452129 0.263332 0.924806
O O13 0.573473 0.334702 0.350156
O O14 0.064562 0.665764 0.172171
O O15 0.891495 0.961065 0.115730
O O16 0.500000 0.000000 0.000000
O O17 0.000000 0.000000 0.000000
#
# Coordination Sequence:
#
# PCOD9028353 Si02
#       8
#     2   2   2   2   2   2   2   2
#     4  11  23  46  68  94 124 167 221 268 316 366
#     4  10  22  42  59  93 131 162 208 260 317 386
#     4  10  24  40  60  91 129 171 206 256 330 367
#     4  10  23  40  60  89 132 169 205 257 328 374
#     4  12  24  42  67  93 131 165 218 264 318 377
#     4  12  23  37  63  98 122 169 212 251 324 382
#     4  11  25  43  68  94 126 168 218 270 311 378
#     4  12  22  38  60  93 137 169 205 262 312 391
#
# _framework density 20.677868
#
# number of rings (size 3 to 8) (size 9 to 14) (size 15 to 20)
#    0.750    0.250    5.000    1.500    3.500    1.000 
#    0.000    0.625    0.000    0.000    0.000    0.000 
#    0.000    0.000    0.000    0.000    0.000    0.000 
#
# Total GULP energy -89240.022062 kJ/mol
# GULP energy per Si atom -5577.501379 kJ/mol
# Density = 2.063080 g / cm^3
# Si number density = 20.677868 Si / 1000 Ang^3
#
#
#
# Elastic Constant Matrix: (Units=GPa)
#
#
# Indices 1 2 3 4 5 6 
#
# 1 69.8879 23.5905 18.3280 8.4541 -10.1825 17.9825
# 2 23.5905 94.5738 17.5746 8.7398 3.2083 19.3290
# 3 18.3280 17.5746 79.1638 13.4938 -9.1609 6.9822
# 4 8.4541 8.7398 13.4938 26.3582 -5.9298 6.2270
# 5 -10.1825 3.2083 -9.1609 -5.9298 31.4492 -1.7472
# 6 17.9825 19.3290 6.9822 6.2270 -1.7472 32.6239
#
#
#
# Elastic Compliance Matrix: (Units=1/GPa)
#
#
# Indices 1 2 3 4 5 6 
#
# 1 0.018672 -0.002736 -0.002288 -0.000948 0.005050 -0.007730
# 2 -0.002736 0.013046 -0.001830 -0.001951 -0.003431 -0.005641
# 3 -0.002288 -0.001830 0.014822 -0.005737 0.002705 0.000413
# 4 -0.000948 -0.001951 -0.005737 0.044487 0.006318 -0.005247
# 5 0.005050 -0.003431 0.002705 0.006318 0.035727 -0.000622
# 6 -0.007730 -0.005641 0.000413 -0.005247 -0.000622 0.039135
#
#
# Mechanical properties :
#
#
# Convention : Reuss Voigt Hill
#
# Bulk Modulus (GPa) = 30.45760 40.29018 35.37389
# Shear Modulus (GPa) = 26.24113 30.36176 28.30144
#
# Velocity S-wave (km/s) = 3.56623 3.83603 3.70358
# Velocity P-wave (km/s) = 5.63195 6.25676 5.95256
#
# Compressibility (1/GPa) = 0.03283252
#
# Stress axis : x y z
#
# Youngs Moduli (GPa) = 53.55748 76.65267 67.46577
#
# Poissons Ratio (x) = 0.20974 0.15434
# Poissons Ratio (y) = 0.14654 0.12344
# Poissons Ratio (z) = 0.12252 0.14025
#
# Static dielectric constant tensor:
#      x y z
#    x 1.773940 0.024190 -0.003270 
#    y 0.024190 1.769720 0.029220 
#    z -0.003270 0.029220 1.738740 
# 
# From -- ./inp_files/499204.got.cif
#   From: 2010.05.17/outbox.cif.g08.bks.cpg/sg2_250_cif.got.tgz:499204.got - 2010.06.03 11:33:40.
