data_PCOD9028812
_publ_section_title
;
Structure prediction by ZEFSAII (Michael W. Deem and Ramdas Pophale) SiO2 
 PCOD9028812
Probable space group: P -1
;
_chemical_formula_sum "Si O2"
_cell_formula_units_Z 14
_cell_length_a 11.234686
_cell_length_b 5.018946
_cell_length_c 20.518868
_cell_angle_alpha 91.579628
_cell_angle_beta 152.876472
_cell_angle_gamma 92.760196
_cell_volume 520.529658
_symmetry_space_group_name_H-M "P -1"
_symmetry_group_IT_number 2
_symmetry_cell_setting 'triclinic'
loop_
_space_group_symop_operation_xyz
x,y,z
-x,-y,-z
loop_
_atom_site_type_symbol
_atom_site_label
_atom_site_fract_x
_atom_site_fract_y
_atom_site_fract_z
Si Si1 0.765584 0.751907 0.876616
Si Si2 0.934978 0.582880 0.668671
Si Si3 0.203444 0.935080 0.327017
Si Si4 0.633521 0.371993 0.924568
Si Si5 0.695923 0.918251 0.337840
Si Si6 0.432079 0.605930 0.332407
Si Si7 0.497560 0.142448 0.069316
O O1 0.793538 0.523290 0.943069
O O2 0.729529 0.651696 0.783936
O O3 0.483935 0.848318 0.756750
O O4 0.000000 0.000000 0.000000
O O5 0.959215 0.287843 0.705612
O O6 0.669648 0.551526 0.495328
O O7 0.195141 0.746069 0.762647
O O8 0.891487 0.778274 0.709748
O O9 0.244617 0.783912 0.279254
O O10 0.500000 0.000000 0.500000
O O11 0.352666 0.272946 0.750299
O O12 0.625435 0.585831 0.979351
O O13 0.672738 0.087141 0.971249
O O14 0.571823 0.767305 0.340505
O O15 0.000000 0.000000 0.500000
O O16 0.500000 0.000000 0.000000
#
# Coordination Sequence:
#
# PCOD9028812 Si02
#       7
#     2   2   2   2   2   2   2
#     4  11  27  49  74 112 153 197 248 307 383 450
#     4  11  24  43  70 104 147 185 248 309 366 441
#     4  10  22  42  65 105 142 185 237 300 368 436
#     4  11  25  49  73 103 154 186 255 306 377 443
#     4  11  25  46  77 112 145 194 250 308 372 445
#     4  10  24  39  74 101 145 189 243 297 376 437
#     4  12  26  48  71 108 139 200 247 312 373 449
#
# _framework density 26.895682999999998
#
# number of rings (size 3 to 8) (size 9 to 14) (size 15 to 20)
#    0.000    1.143    1.429    3.857    8.000    4.571 
#    5.143    0.000    0.000    0.000    0.000    0.000 
#    0.000    0.000    0.000    0.000    0.000    0.000 
#
# Total GULP energy -78423.523842 kJ/mol
# GULP energy per Si atom -5601.680274 kJ/mol
# Density = 2.683447 g / cm^3
# Si number density = 26.895683 Si / 1000 Ang^3
#
#
#
# Elastic Constant Matrix: (Units=GPa)
#
#
# Indices 1 2 3 4 5 6 
#
# 1 98.0138 22.8494 35.2210 24.4125 -7.5553 -3.5427
# 2 22.8494 135.7286 35.0897 35.1623 -0.7546 2.5588
# 3 35.2210 35.0897 184.7135 22.6771 6.1131 -10.3706
# 4 24.4125 35.1623 22.6771 36.8944 -6.6331 -1.7359
# 5 -7.5553 -0.7546 6.1131 -6.6331 56.6840 18.1996
# 6 -3.5427 2.5588 -10.3706 -1.7359 18.1996 60.8071
#
#
#
# Elastic Compliance Matrix: (Units=1/GPa)
#
#
# Indices 1 2 3 4 5 6 
#
# 1 0.012644 0.000207 -0.001576 -0.007416 0.001008 -0.000054
# 2 0.000207 0.009950 -0.000805 -0.009269 -0.000640 -0.000617
# 3 -0.001576 -0.000805 0.006281 -0.002275 -0.001625 0.001435
# 4 -0.007416 -0.009269 -0.002275 0.042998 0.004325 -0.000497
# 5 0.001008 -0.000640 -0.001625 0.004325 0.020434 -0.006184
# 6 -0.000054 -0.000617 0.001435 -0.000497 -0.006184 0.018550
#
#
# Mechanical properties :
#
#
# Convention : Reuss Voigt Hill
#
# Bulk Modulus (GPa) = 40.77345 67.19734 53.98539
# Shear Modulus (GPa) = 40.52493 52.56349 46.54421
#
# Velocity S-wave (km/s) = 3.88589 4.42560 4.16450
# Velocity P-wave (km/s) = 5.94359 7.15215 6.57569
#
# Compressibility (1/GPa) = 0.02452577
#
# Stress axis : x y z
#
# Youngs Moduli (GPa) = 79.09155 100.49869 159.21285
#
# Poissons Ratio (x) = -0.02078 0.25094
# Poissons Ratio (y) = -0.01635 0.12820
# Poissons Ratio (z) = 0.12466 0.08092
#
# Static dielectric constant tensor:
#      x y z
#    x 2.126980 -0.015060 0.016610 
#    y -0.015060 2.103250 -0.030290 
#    z 0.016610 -0.030290 2.101520 
# 
# From -- ./inp_files/592569.got.cif
#   From: 2010.05.17/outbox.cif.g08.bks.cpg/sg2_297_cif.got.tgz:592569.got - 2010.06.03 11:33:40.
