data_PCOD9028043
_publ_section_title
;
Structure prediction by ZEFSAII (Michael W. Deem and Ramdas Pophale) SiO2 
 PCOD9028043
Probable space group: P -1
;
_chemical_formula_sum "Si O2"
_cell_formula_units_Z 16
_cell_length_a 10.907049
_cell_length_b 8.986844
_cell_length_c 10.366900
_cell_angle_alpha 129.437912
_cell_angle_beta 113.791794
_cell_angle_gamma 92.841321
_cell_volume 647.369640
_symmetry_space_group_name_H-M "P -1"
_symmetry_group_IT_number 2
_symmetry_cell_setting 'triclinic'
loop_
_space_group_symop_operation_xyz
x,y,z
-x,-y,-z
loop_
_atom_site_type_symbol
_atom_site_label
_atom_site_fract_x
_atom_site_fract_y
_atom_site_fract_z
Si Si1 0.838351 0.230092 0.178827
Si Si2 0.154901 0.126094 0.415633
Si Si3 0.644096 0.402459 0.301523
Si Si4 0.841842 0.811893 0.013995
Si Si5 0.402976 0.315194 0.958360
Si Si6 0.319578 0.928119 0.528760
Si Si7 0.388588 0.591237 0.438752
Si Si8 0.025276 0.677641 0.421362
O O1 0.694212 0.272353 0.150851
O O2 0.907336 0.278462 0.380113
O O3 0.943528 0.420397 0.236068
O O4 0.806850 0.987552 0.016536
O O5 0.236552 0.351557 0.500435
O O6 0.086943 0.208974 0.553098
O O7 0.279695 0.051074 0.465057
O O8 0.018048 0.937809 0.182357
O O9 0.634959 0.304109 0.381752
O O10 0.494033 0.388824 0.170995
O O11 0.761672 0.600185 0.780311
O O12 0.761641 0.751178 0.087898
O O13 0.393048 0.105993 0.767645
O O14 0.500000 0.500000 0.000000
O O15 0.408993 0.786868 0.459708
O O16 0.151546 0.778219 0.425418
O O17 0.500000 0.500000 0.500000
#
# Coordination Sequence:
#
# PCOD9028043 Si02
#       8
#     2   2   2   2   2   2   2   2
#     4   9  18  35  65  97 124 160 217 283 320 379
#     4  10  22  41  70  99 133 167 219 284 326 391
#     4  11  22  42  68  98 134 170 225 273 334 389
#     4  11  24  42  67  96 139 173 222 268 332 392
#     4  12  24  41  68 102 126 175 225 276 332 396
#     4  12  23  41  69  96 134 177 219 273 337 385
#     4  12  27  44  64  95 139 184 219 268 324 401
#     4   9  17  34  63 101 125 155 212 278 335 370
#
# _framework density 24.715401
#
# number of rings (size 3 to 8) (size 9 to 14) (size 15 to 20)
#    0.000    1.250    6.250    1.125    1.750    2.000 
#    0.000    2.500    0.000    0.000    0.000    0.000 
#    0.000    0.000    0.000    0.000    0.000    0.000 
#
# Total GULP energy -89187.808313 kJ/mol
# GULP energy per Si atom -5574.238020 kJ/mol
# Density = 2.465915 g / cm^3
# Si number density = 24.715401 Si / 1000 Ang^3
#
#
#
# Elastic Constant Matrix: (Units=GPa)
#
#
# Indices 1 2 3 4 5 6 
#
# 1 67.9052 27.2596 11.9782 10.1316 16.2732 -16.1000
# 2 27.2596 103.2870 25.1878 21.6156 0.4758 -21.9701
# 3 11.9782 25.1878 114.1470 7.8032 7.2373 -9.9498
# 4 10.1316 21.6156 7.8032 41.4903 -6.6998 1.5941
# 5 16.2732 0.4758 7.2373 -6.6998 21.5576 6.8161
# 6 -16.1000 -21.9701 -9.9498 1.5941 6.8161 39.5533
#
#
#
# Elastic Compliance Matrix: (Units=1/GPa)
#
#
# Indices 1 2 3 4 5 6 
#
# 1 0.028282 -0.001629 0.001640 -0.012005 -0.030916 0.016831
# 2 -0.001629 0.013543 -0.001494 -0.007158 -0.003102 0.007306
# 3 0.001640 -0.001494 0.009814 -0.002642 -0.006434 0.003521
# 4 -0.012005 -0.007158 -0.002642 0.036090 0.026224 -0.015501
# 5 -0.030916 -0.003102 -0.006434 0.026224 0.090399 -0.032561
# 6 0.016831 0.007306 0.003521 -0.015501 -0.032561 0.043313
#
#
# Mechanical properties :
#
#
# Convention : Reuss Voigt Hill
#
# Bulk Modulus (GPa) = 20.54640 46.02117 33.28379
# Shear Modulus (GPa) = 20.77868 35.24782 28.01325
#
# Velocity S-wave (km/s) = 2.90266 3.78053 3.37030
# Velocity P-wave (km/s) = 4.42325 6.14145 5.35176
#
# Compressibility (1/GPa) = 0.04867032
#
# Stress axis : x y z
#
# Youngs Moduli (GPa) = 35.35838 73.84087 101.89744
#
# Poissons Ratio (x) = 0.12030 -0.16708
# Poissons Ratio (y) = 0.05760 0.15228
# Poissons Ratio (z) = -0.05798 0.11035
#
# Static dielectric constant tensor:
#      x y z
#    x 2.193240 -0.071900 -0.026970 
#    y -0.071900 2.003830 0.017340 
#    z -0.026970 0.017340 1.922260 
# 
# From -- ./inp_files/420109.got.cif
#   From: 2010.05.17/outbox.cif.g08.bks.cpg/sg2_211_cif.got.tgz:420109.got - 2010.06.03 11:33:40.
