data_PCOD9028242
_publ_section_title
;
Structure prediction by ZEFSAII (Michael W. Deem and Ramdas Pophale) SiO2 
 PCOD9028242
Probable space group: P -1
;
_chemical_formula_sum "Si O2"
_cell_formula_units_Z 14
_cell_length_a 19.639592
_cell_length_b 13.413696
_cell_length_c 11.386432
_cell_angle_alpha 31.530253
_cell_angle_beta 154.239622
_cell_angle_gamma 145.990709
_cell_volume 656.493142
_symmetry_space_group_name_H-M "P -1"
_symmetry_group_IT_number 2
_symmetry_cell_setting 'triclinic'
loop_
_space_group_symop_operation_xyz
x,y,z
-x,-y,-z
loop_
_atom_site_type_symbol
_atom_site_label
_atom_site_fract_x
_atom_site_fract_y
_atom_site_fract_z
Si Si1 0.402351 0.275453 0.035486
Si Si2 0.931400 0.265148 0.617208
Si Si3 0.519424 0.821259 0.288976
Si Si4 0.875912 0.795561 0.822736
Si Si5 0.839925 0.367355 0.120990
Si Si6 0.031950 0.125389 0.543617
Si Si7 0.600130 0.029857 0.451201
O O1 0.495569 0.177775 0.181609
O O2 0.390139 0.126202 0.276156
O O3 0.500000 0.500000 0.000000
O O4 0.218976 0.248273 0.731607
O O5 0.872209 0.247172 0.408312
O O6 0.774732 0.170641 0.546696
O O7 0.000000 0.500000 0.500000
O O8 0.069807 0.183765 0.976701
O O9 0.683618 0.772468 0.551819
O O10 0.532609 0.899747 0.363200
O O11 0.349933 0.659136 0.169898
O O12 0.500000 0.000000 0.000000
O O13 0.912979 0.597194 0.030131
O O14 0.974155 0.966983 0.718017
O O15 0.920663 0.276857 0.231855
O O16 0.000000 0.000000 0.500000
#
# Coordination Sequence:
#
# PCOD9028242 Si02
#       7
#     2   2   2   2   2   2   2
#     4  11  28  44  71 100 137 192 237 285 341 418
#     4  10  22  41  73 102 132 174 228 287 346 412
#     4  12  23  43  70 104 140 179 222 290 357 418
#     4  11  25  43  71 102 139 180 229 287 354 409
#     4  11  25  43  71 104 141 174 232 285 353 421
#     4  12  26  44  70  98 140 188 238 283 345 409
#     4  11  24  46  68  97 143 176 231 287 349 405
#
# _framework density 21.325431999999999
#
# number of rings (size 3 to 8) (size 9 to 14) (size 15 to 20)
#    0.000    0.857    4.286    1.286    6.000    4.000 
#    0.000    0.000    0.000    0.000    0.000    0.000 
#    0.000    0.000    0.000    0.000    0.000    0.000 
#
# Total GULP energy -78193.518661 kJ/mol
# GULP energy per Si atom -5585.251333 kJ/mol
# Density = 2.127689 g / cm^3
# Si number density = 21.325432 Si / 1000 Ang^3
#
#
#
# Elastic Constant Matrix: (Units=GPa)
#
#
# Indices 1 2 3 4 5 6 
#
# 1 94.3120 41.9795 38.2123 -0.7698 13.3085 -13.0967
# 2 41.9795 147.2296 35.3898 8.7514 12.2465 -6.2174
# 3 38.2123 35.3898 107.7602 17.3890 13.0816 0.4644
# 4 -0.7698 8.7514 17.3890 41.1471 -4.2202 2.9358
# 5 13.3085 12.2465 13.0816 -4.2202 29.7510 3.5218
# 6 -13.0967 -6.2174 0.4644 2.9358 3.5218 31.2853
#
#
#
# Elastic Compliance Matrix: (Units=1/GPa)
#
#
# Indices 1 2 3 4 5 6 
#
# 1 0.014992 -0.002762 -0.004215 0.001786 -0.004184 0.006093
# 2 -0.002762 0.008159 -0.001227 -0.001523 -0.001899 0.000840
# 3 -0.004215 -0.001227 0.012506 -0.005394 -0.003723 -0.001269
# 4 0.001786 -0.001523 -0.005394 0.027805 0.006477 -0.002813
# 5 -0.004184 -0.001899 -0.003723 0.006477 0.039667 -0.007146
# 6 0.006093 0.000840 -0.001269 -0.002813 -0.007146 0.035769
#
#
# Mechanical properties :
#
#
# Convention : Reuss Voigt Hill
#
# Bulk Modulus (GPa) = 51.95919 64.49610 58.22764
# Shear Modulus (GPa) = 30.91736 36.01803 33.46769
#
# Velocity S-wave (km/s) = 3.81174 4.11417 3.96584
# Velocity P-wave (km/s) = 6.61742 7.27172 6.95227
#
# Compressibility (1/GPa) = 0.01924587
#
# Stress axis : x y z
#
# Youngs Moduli (GPa) = 66.70420 122.57007 79.96431
#
# Poissons Ratio (x) = 0.33855 0.33709
# Poissons Ratio (y) = 0.18424 0.09814
# Poissons Ratio (z) = 0.28119 0.15043
#
# Static dielectric constant tensor:
#      x y z
#    x 1.782040 -0.020380 -0.013730 
#    y -0.020380 1.793980 0.023430 
#    z -0.013730 0.023430 1.793480 
# 
# From -- ./inp_files/471891.got.cif
#   From: 2010.05.17/outbox.cif.g08.bks.cpg/sg2_236_cif.got.tgz:471891.got - 2010.06.03 11:33:40.
