data_PCOD9028790
_publ_section_title
;
Structure prediction by ZEFSAII (Michael W. Deem and Ramdas Pophale) SiO2 
 PCOD9028790
Probable space group: P -1
;
_chemical_formula_sum "Si O2"
_cell_formula_units_Z 14
_cell_length_a 28.294328
_cell_length_b 5.517943
_cell_length_c 5.172789
_cell_angle_alpha 92.849922
_cell_angle_beta 110.013069
_cell_angle_gamma 45.354590
_cell_volume 517.441845
_symmetry_space_group_name_H-M "P -1"
_symmetry_group_IT_number 2
_symmetry_cell_setting 'triclinic'
loop_
_space_group_symop_operation_xyz
x,y,z
-x,-y,-z
loop_
_atom_site_type_symbol
_atom_site_label
_atom_site_fract_x
_atom_site_fract_y
_atom_site_fract_z
Si Si1 0.208068 0.533485 0.572504
Si Si2 0.678431 0.210270 0.010589
Si Si3 0.243234 0.699407 0.142397
Si Si4 0.594027 0.114379 0.578423
Si Si5 0.948096 0.693988 0.167857
Si Si6 0.440785 0.016954 0.994389
Si Si7 0.914603 0.301466 0.941761
O O1 0.280834 0.114517 0.734137
O O2 0.202661 0.712193 0.828376
O O3 0.213500 0.709719 0.360573
O O4 0.142040 0.581936 0.379626
O O5 0.739386 0.089418 0.912059
O O6 0.637695 0.565964 0.109214
O O7 0.614034 0.307799 0.732733
O O8 0.326046 0.296220 0.279521
O O9 0.567449 0.164935 0.242465
O O10 0.546098 0.141037 0.705311
O O11 0.900126 0.617206 0.049808
O O12 0.000000 0.500000 0.500000
O O13 0.912701 0.083989 0.121597
O O14 0.000000 0.500000 0.000000
O O15 0.500000 0.000000 0.000000
O O16 0.000000 0.000000 0.000000
#
# Coordination Sequence:
#
# PCOD9028790 Si02
#       7
#     2   2   2   2   2   2   2
#     4  11  25  42  69 103 133 183 240 289 364 436
#     4  10  24  46  73  97 147 188 234 305 361 427
#     4  10  23  43  67  99 136 178 235 290 353 426
#     4  10  22  42  65 100 136 183 236 284 355 429
#     4  10  22  42  68  94 136 180 223 285 358 429
#     4  11  24  41  68 104 141 182 237 292 353 432
#     4  10  24  46  70 104 142 185 240 303 367 445
#
# _framework density 27.056180999999999
#
# number of rings (size 3 to 8) (size 9 to 14) (size 15 to 20)
#    0.000    1.714    0.000    3.429    2.000   16.000 
#    2.571    0.000    0.000    2.571    0.000    0.000 
#    0.000    0.000    0.000    0.000    0.000    0.000 
#
# Total GULP energy -78469.793961 kJ/mol
# GULP energy per Si atom -5604.985283 kJ/mol
# Density = 2.699460 g / cm^3
# Si number density = 27.056181 Si / 1000 Ang^3
#
#
#
# Elastic Constant Matrix: (Units=GPa)
#
#
# Indices 1 2 3 4 5 6 
#
# 1 194.9191 29.1424 80.7948 2.4860 1.9553 8.0063
# 2 29.1424 113.8959 47.3405 4.0850 -7.1907 30.5007
# 3 80.7948 47.3405 228.6733 3.1456 2.2022 10.4563
# 4 2.4860 4.0850 3.1456 38.1391 2.0296 1.5199
# 5 1.9553 -7.1907 2.2022 2.0296 60.9148 2.4578
# 6 8.0063 30.5007 10.4563 1.5199 2.4578 47.0162
#
#
#
# Elastic Compliance Matrix: (Units=1/GPa)
#
#
# Indices 1 2 3 4 5 6 
#
# 1 0.006069 -0.000700 -0.001990 -0.000141 -0.000196 -0.000122
# 2 -0.000700 0.011809 -0.001874 -0.000874 0.001803 -0.007191
# 3 -0.001990 -0.001874 0.005452 -0.000114 -0.000365 0.000365
# 4 -0.000141 -0.000874 -0.000114 0.026391 -0.000966 -0.000186
# 5 -0.000196 0.001803 -0.000365 -0.000966 0.016758 -0.001900
# 6 -0.000122 -0.007191 0.000365 -0.000186 -0.001900 0.025979
#
#
# Mechanical properties :
#
#
# Convention : Reuss Voigt Hill
#
# Bulk Modulus (GPa) = 70.41304 94.67153 82.54229
# Shear Modulus (GPa) = 47.02816 54.56140 50.79478
#
# Velocity S-wave (km/s) = 4.17366 4.49552 4.33758
# Velocity P-wave (km/s) = 7.02190 7.87483 7.46057
#
# Compressibility (1/GPa) = 0.01420191
#
# Stress axis : x y z
#
# Youngs Moduli (GPa) = 164.78313 84.68239 183.40553
#
# Poissons Ratio (x) = 0.05932 0.36493
# Poissons Ratio (y) = 0.11542 0.34366
# Poissons Ratio (z) = 0.32788 0.15867
#
# Static dielectric constant tensor:
#      x y z
#    x 2.232630 -0.082720 0.065300 
#    y -0.082720 2.186490 -0.022680 
#    z 0.065300 -0.022680 2.046670 
# 
# From -- ./inp_files/125887.got.cif
#   From: 2010.05.17/outbox.cif.g08.bks.cpg/sg2_63_cif.got.tgz:125887.got - 2010.06.03 11:33:40.
