data_PCOD9028952
_publ_section_title
;
Structure prediction by ZEFSAII (Michael W. Deem and Ramdas Pophale) SiO2 
 PCOD9028952
Probable space group: P -1
;
_chemical_formula_sum "Si O2"
_cell_formula_units_Z 13
_cell_length_a 23.504602
_cell_length_b 19.625869
_cell_length_c 5.154744
_cell_angle_alpha 81.525637
_cell_angle_beta 95.129750
_cell_angle_gamma 166.477627
_cell_volume 534.809224
_symmetry_space_group_name_H-M "P -1"
_symmetry_group_IT_number 2
_symmetry_cell_setting 'triclinic'
loop_
_space_group_symop_operation_xyz
x,y,z
-x,-y,-z
loop_
_atom_site_type_symbol
_atom_site_label
_atom_site_fract_x
_atom_site_fract_y
_atom_site_fract_z
Si Si1 0.751011 0.644960 0.966438
Si Si2 0.017531 0.472918 0.771743
Si Si3 0.303108 0.024833 0.942234
Si Si4 0.749917 0.389164 0.076189
Si Si5 0.634813 0.332680 0.570039
Si Si6 0.019269 0.904646 0.437237
Si Si7 0.500000 0.500000 0.000000
O O1 0.962855 0.875590 0.705569
O O2 0.524346 0.326478 0.993129
O O3 0.871316 0.771195 0.223161
O O4 0.636364 0.586063 0.938998
O O5 0.000000 0.500000 0.500000
O O6 0.240927 0.680352 0.800379
O O7 0.790785 0.152497 0.844739
O O8 0.000000 0.500000 0.000000
O O9 0.409412 0.120125 0.661983
O O10 0.040911 0.755279 0.958410
O O11 0.643440 0.306941 0.314925
O O12 0.628546 0.266240 0.824265
O O13 0.882321 0.669930 0.518078
O O14 0.305601 0.234423 0.281459
#
# Coordination Sequence:
#
# PCOD9028952 Si02
#       7
#     2   2   2   2   2   2   1
#     4  11  25  45  65 103 128 183 219 279 317 409
#     4  10  22  42  65  96 137 171 212 280 331 385
#     4   9  24  41  70  91 139 171 223 267 340 375
#     4  10  23  38  67  94 131 166 225 265 322 396
#     4  11  21  42  64 100 123 178 223 268 315 403
#     4  11  26  42  68  97 142 165 230 272 331 389
#     4  12  26  46  72  98 140 176 220 270 354 370
#
# _framework density 24.307735999999998
#
# number of rings (size 3 to 8) (size 9 to 14) (size 15 to 20)
#    0.923    0.615    0.000    4.615    0.000   12.308 
#    0.000    4.615    0.000    0.000    0.000    0.000 
#    0.000    0.000    0.000    0.000    0.000    0.000 
#
# Total GULP energy -72443.793290 kJ/mol
# GULP energy per Si atom -5572.599484 kJ/mol
# Density = 2.425241 g / cm^3
# Si number density = 24.307736 Si / 1000 Ang^3
#
#
#
# Elastic Constant Matrix: (Units=GPa)
#
#
# Indices 1 2 3 4 5 6 
#
# 1 128.2036 15.5994 49.4532 14.9405 -5.8051 -15.6193
# 2 15.5994 52.2174 21.9777 -3.5937 -4.7369 -5.2345
# 3 49.4532 21.9777 132.9888 10.4971 -4.3604 2.9757
# 4 14.9405 -3.5937 10.4971 34.6281 -1.0290 3.0151
# 5 -5.8051 -4.7369 -4.3604 -1.0290 31.5019 -13.3515
# 6 -15.6193 -5.2345 2.9757 3.0151 -13.3515 31.3439
#
#
#
# Elastic Compliance Matrix: (Units=1/GPa)
#
#
# Indices 1 2 3 4 5 6 
#
# 1 0.011007 -0.000809 -0.003648 -0.004294 0.004699 0.008111
# 2 -0.000809 0.022151 -0.003584 0.003408 0.005124 0.005491
# 3 -0.003648 -0.003584 0.009616 -0.001423 -0.001561 -0.003857
# 4 -0.004294 0.003408 -0.001423 0.031921 -0.001639 -0.005204
# 5 0.004699 0.005124 -0.001561 -0.001639 0.042218 0.021487
# 6 0.008111 0.005491 -0.003857 -0.005204 0.021487 0.046882
#
#
# Mechanical properties :
#
#
# Convention : Reuss Voigt Hill
#
# Bulk Modulus (GPa) = 37.46422 54.16340 45.81381
# Shear Modulus (GPa) = 26.48694 34.58673 30.53683
#
# Velocity S-wave (km/s) = 3.30457 3.77619 3.54822
# Velocity P-wave (km/s) = 5.47779 6.42989 5.97284
#
# Compressibility (1/GPa) = 0.02669213
#
# Stress axis : x y z
#
# Youngs Moduli (GPa) = 90.85130 45.14555 103.99742
#
# Poissons Ratio (x) = 0.03652 0.37937
# Poissons Ratio (y) = 0.07350 0.37269
# Poissons Ratio (z) = 0.33141 0.16179
#
# Static dielectric constant tensor:
#      x y z
#    x 1.928610 0.017330 0.048200 
#    y 0.017330 1.970720 -0.046970 
#    z 0.048200 -0.046970 1.944600 
# 
# From -- ./inp_files/119678.got.cif
#   From: 2010.05.17/outbox.cif.g08.bks.cpg/sg2_60_cif.got.tgz:119678.got - 2010.06.03 11:33:40.
