data_PCOD9028454
_publ_section_title
;
Structure prediction by ZEFSAII (Michael W. Deem and Ramdas Pophale) SiO2 
 PCOD9028454
Probable space group: P -1
;
_chemical_formula_sum "Si O2"
_cell_formula_units_Z 16
_cell_length_a 6.567264
_cell_length_b 12.563774
_cell_length_c 11.160285
_cell_angle_alpha 50.254827
_cell_angle_beta 88.651477
_cell_angle_gamma 105.292772
_cell_volume 659.629036
_symmetry_space_group_name_H-M "P -1"
_symmetry_group_IT_number 2
_symmetry_cell_setting 'triclinic'
loop_
_space_group_symop_operation_xyz
x,y,z
-x,-y,-z
loop_
_atom_site_type_symbol
_atom_site_label
_atom_site_fract_x
_atom_site_fract_y
_atom_site_fract_z
Si Si1 0.210512 0.066833 0.762730
Si Si2 0.305100 0.413267 0.156238
Si Si3 0.418605 0.946138 0.408015
Si Si4 0.606991 0.563428 0.231787
Si Si5 0.575378 0.246519 0.777111
Si Si6 0.913975 0.436241 0.788488
Si Si7 0.780811 0.824078 0.858683
Si Si8 0.054965 0.724132 0.445487
O O1 0.384245 0.078739 0.647026
O O2 0.360940 0.101705 0.855553
O O3 0.094839 0.187826 0.661611
O O4 0.007891 0.914176 0.856498
O O5 0.435420 0.417884 0.275542
O O6 0.150191 0.503224 0.130816
O O7 0.185424 0.258379 0.203188
O O8 0.500000 0.500000 0.000000
O O9 0.193988 0.802817 0.505125
O O10 0.500000 0.000000 0.500000
O O11 0.347305 0.069441 0.252581
O O12 0.525236 0.622844 0.307069
O O13 0.843799 0.558226 0.230725
O O14 0.638744 0.699727 0.041442
O O15 0.733144 0.279024 0.867481
O O16 0.751754 0.263015 0.659098
O O17 0.916298 0.556602 0.600779
#
# Coordination Sequence:
#
# PCOD9028454 Si02
#       8
#     2   2   2   2   2   2   2   2
#     4  10  23  41  62  87 127 160 201 263 302 361
#     4   9  22  39  59  90 126 159 207 248 301 366
#     4  10  24  39  63  90 124 163 204 255 307 362
#     4  10  23  41  63  91 126 163 203 258 305 362
#     4  10  22  42  62  92 127 160 209 255 307 362
#     4  11  23  37  66  92 122 167 207 249 313 365
#     4  10  23  41  62  91 122 165 207 246 310 371
#     4  10  23  39  61  96 122 160 210 251 310 368
#
# _framework density 24.256059
#
# number of rings (size 3 to 8) (size 9 to 14) (size 15 to 20)
#    0.000    2.000    0.000    1.125    5.250   10.500 
#    0.000    6.250    0.000    0.000    0.000    0.000 
#    0.000    0.000    0.000    0.000    0.000    0.000 
#
# Total GULP energy -89308.288480 kJ/mol
# GULP energy per Si atom -5581.768030 kJ/mol
# Density = 2.420085 g / cm^3
# Si number density = 24.256059 Si / 1000 Ang^3
#
#
#
# Elastic Constant Matrix: (Units=GPa)
#
#
# Indices 1 2 3 4 5 6 
#
# 1 171.4774 68.2065 15.0494 13.1415 5.3759 -14.6866
# 2 68.2065 151.0438 10.5648 6.6343 5.0954 11.3187
# 3 15.0494 10.5648 31.5591 -10.3632 3.8573 -1.8960
# 4 13.1415 6.6343 -10.3632 19.6577 -1.6662 -10.6525
# 5 5.3759 5.0954 3.8573 -1.6662 21.8112 8.1769
# 6 -14.6866 11.3187 -1.8960 -10.6525 8.1769 59.6338
#
#
#
# Elastic Compliance Matrix: (Units=1/GPa)
#
#
# Indices 1 2 3 4 5 6 
#
# 1 0.008129 -0.003159 -0.004511 -0.006012 -0.001524 0.001593
# 2 -0.003159 0.008678 -0.002985 -0.004157 0.000195 -0.003289
# 3 -0.004511 -0.002985 0.046707 0.032202 -0.006852 0.007632
# 4 -0.006012 -0.004157 0.032202 0.081289 -0.002741 0.015229
# 5 -0.001524 0.000195 -0.006852 -0.002741 0.050180 -0.008001
# 6 0.001593 -0.003289 0.007632 0.015229 -0.008001 0.021846
#
#
# Mechanical properties :
#
#
# Convention : Reuss Voigt Hill
#
# Bulk Modulus (GPa) = 23.69433 60.19132 41.94283
# Shear Modulus (GPa) = 19.82483 37.57118 28.69800
#
# Velocity S-wave (km/s) = 2.86197 3.93993 3.44339
# Velocity P-wave (km/s) = 4.55091 6.75027 5.75661
#
# Compressibility (1/GPa) = 0.04220419
#
# Stress axis : x y z
#
# Youngs Moduli (GPa) = 123.01290 115.22746 21.40985
#
# Poissons Ratio (x) = 0.36403 0.09658
# Poissons Ratio (y) = 0.38863 0.06391
# Poissons Ratio (z) = 0.55494 0.34396
#
# Static dielectric constant tensor:
#      x y z
#    x 1.951790 0.009010 0.014860 
#    y 0.009010 2.063420 0.022720 
#    z 0.014860 0.022720 1.931320 
# 
# From -- ./inp_files/363897.got.cif
#   From: 2010.05.17/outbox.cif.g08.bks.cpg/sg2_182_cif.got.tgz:363897.got - 2010.06.03 11:33:40.
