data_PCOD9028427
_publ_section_title
;
Structure prediction by ZEFSAII (Michael W. Deem and Ramdas Pophale) SiO2 
 PCOD9028427
Probable space group: P -1
;
_chemical_formula_sum "Si O2"
_cell_formula_units_Z 14
_cell_length_a 7.399902
_cell_length_b 10.219615
_cell_length_c 11.226920
_cell_angle_alpha 90.649307
_cell_angle_beta 100.775188
_cell_angle_gamma 135.792527
_cell_volume 568.309585
_symmetry_space_group_name_H-M "P -1"
_symmetry_group_IT_number 2
_symmetry_cell_setting 'triclinic'
loop_
_space_group_symop_operation_xyz
x,y,z
-x,-y,-z
loop_
_atom_site_type_symbol
_atom_site_label
_atom_site_fract_x
_atom_site_fract_y
_atom_site_fract_z
Si Si1 0.075379 0.794453 0.479524
Si Si2 0.558586 0.918643 0.664337
Si Si3 0.617388 0.445641 0.276472
Si Si4 0.780622 0.569645 0.042721
Si Si5 0.331741 0.060690 0.718553
Si Si6 0.741517 0.484720 0.795428
Si Si7 0.202568 0.877549 0.920623
O O1 0.308136 0.808795 0.538799
O O2 0.801182 0.579948 0.413132
O O3 0.170866 0.923611 0.376461
O O4 0.097180 0.905291 0.593807
O O5 0.526510 0.766442 0.724317
O O6 0.514575 0.024202 0.739618
O O7 0.405823 0.452466 0.234810
O O8 0.803488 0.538240 0.180960
O O9 0.746856 0.441785 0.934777
O O10 0.052976 0.687061 0.817715
O O11 0.500000 0.500000 0.000000
O O12 0.539658 0.280221 0.706001
O O13 0.213975 0.008622 0.836243
O O14 0.012708 0.779259 0.013190
O O15 0.500000 0.000000 0.000000
#
# Coordination Sequence:
#
# PCOD9028427 Si02
#       7
#     2   2   2   2   2   2   2
#     4   9  22  40  65  96 135 177 229 276 333 410
#     4   9  22  39  64  95 131 181 229 269 332 406
#     4  11  20  42  70  94 130 186 226 275 333 409
#     4   8  20  43  64  97 139 177 223 280 337 411
#     4  10  22  42  61  98 139 172 224 288 339 405
#     4   9  23  42  63  99 141 167 225 286 341 397
#     4  10  23  41  68 101 132 183 226 283 349 397
#
# _framework density 24.634463
#
# number of rings (size 3 to 8) (size 9 to 14) (size 15 to 20)
#    1.714    0.857    0.000    0.429    2.000    5.714 
#    0.000    2.857    0.000    0.000    0.000    1.000 
#    0.000    0.000    0.000    0.000    0.000    0.000 
#
# Total GULP energy -78029.900629 kJ/mol
# GULP energy per Si atom -5573.564331 kJ/mol
# Density = 2.457839 g / cm^3
# Si number density = 24.634463 Si / 1000 Ang^3
#
#
#
# Elastic Constant Matrix: (Units=GPa)
#
#
# Indices 1 2 3 4 5 6 
#
# 1 59.3283 36.2004 -6.5599 -2.9848 3.6142 -9.1925
# 2 36.2004 132.0217 0.5128 -12.7199 -4.0794 -7.8874
# 3 -6.5599 0.5128 34.3262 -6.2502 0.7369 -5.7906
# 4 -2.9848 -12.7199 -6.2502 42.1513 8.4499 0.0555
# 5 3.6142 -4.0794 0.7369 8.4499 16.9253 1.4307
# 6 -9.1925 -7.8874 -5.7906 0.0555 1.4307 41.6485
#
#
#
# Elastic Compliance Matrix: (Units=1/GPa)
#
#
# Indices 1 2 3 4 5 6 
#
# 1 0.022474 -0.005921 0.005798 0.002267 -0.008026 0.004918
# 2 -0.005921 0.009469 -0.000968 0.001755 0.002691 0.000257
# 3 0.005798 -0.000968 0.032513 0.006233 -0.006492 0.005832
# 4 0.002267 0.001755 0.006233 0.028268 -0.014628 0.002164
# 5 -0.008026 0.002691 -0.006492 -0.014628 0.069414 -0.004529
# 6 0.004918 0.000257 0.005832 0.002164 -0.004529 0.026108
#
#
# Mechanical properties :
#
#
# Convention : Reuss Voigt Hill
#
# Bulk Modulus (GPa) = 16.05773 31.77588 23.91681
# Shear Modulus (GPa) = 23.67586 33.17989 28.42787
#
# Velocity S-wave (km/s) = 3.10350 3.67398 3.40073
# Velocity P-wave (km/s) = 4.40169 5.56098 5.01494
#
# Compressibility (1/GPa) = 0.06227529
#
# Stress axis : x y z
#
# Youngs Moduli (GPa) = 44.49575 105.60407 30.75713
#
# Poissons Ratio (x) = 0.62525 -0.17833
# Poissons Ratio (y) = 0.26345 0.02976
# Poissons Ratio (z) = -0.25799 0.10220
#
# Static dielectric constant tensor:
#      x y z
#    x 2.002060 0.033770 -0.057760 
#    y 0.033770 1.968600 -0.024900 
#    z -0.057760 -0.024900 2.044100 
# 
# From -- ./inp_files/390459.got.cif
#   From: 2010.05.17/outbox.cif.g08.bks.cpg/sg2_196_cif.got.tgz:390459.got - 2010.06.03 11:33:40.
