data_PCOD9028339
_publ_section_title
;
Structure prediction by ZEFSAII (Michael W. Deem and Ramdas Pophale) SiO2 
 PCOD9028339
Probable space group: P -1
;
_chemical_formula_sum "Si O2"
_cell_formula_units_Z 15
_cell_length_a 5.349566
_cell_length_b 17.039272
_cell_length_c 11.632014
_cell_angle_alpha 135.485031
_cell_angle_beta 53.204640
_cell_angle_gamma 121.135390
_cell_volume 587.578871
_symmetry_space_group_name_H-M "P -1"
_symmetry_group_IT_number 2
_symmetry_cell_setting 'triclinic'
loop_
_space_group_symop_operation_xyz
x,y,z
-x,-y,-z
loop_
_atom_site_type_symbol
_atom_site_label
_atom_site_fract_x
_atom_site_fract_y
_atom_site_fract_z
Si Si1 0.856930 0.155244 0.095679
Si Si2 0.293683 0.965867 0.782716
Si Si3 0.014034 0.181204 0.477318
Si Si4 0.283370 0.412828 0.719772
Si Si5 0.780662 0.152996 0.846299
Si Si6 0.377703 0.347851 0.116694
Si Si7 0.428098 0.644690 0.177552
Si Si8 0.000000 0.000000 0.500000
O O1 0.608355 0.099701 0.200745
O O2 0.049845 0.281211 0.187181
O O3 0.748079 0.139832 0.978298
O O4 0.121174 0.074485 0.961801
O O5 0.055379 0.874752 0.685568
O O6 0.602058 0.034409 0.704583
O O7 0.711194 0.240445 0.650238
O O8 0.281132 0.294227 0.528279
O O9 0.001342 0.081916 0.467540
O O10 0.409388 0.387805 0.785348
O O11 0.916879 0.432447 0.835945
O O12 0.499369 0.528052 0.738743
O O13 0.641397 0.264350 0.969463
O O14 0.104951 0.125764 0.682550
O O15 0.350041 0.356251 0.995098
#
# Coordination Sequence:
#
# PCOD9028339 Si02
#       8
#     2   2   2   2   2   2   2   1
#     4  10  23  38  64  86 128 171 217 268 317 382
#     4  10  22  42  57  93 124 173 217 263 324 389
#     4  10  24  37  65  91 137 168 212 264 333 388
#     4  10  24  41  64  98 133 175 214 266 333 394
#     4  11  23  37  66  94 130 167 208 277 327 390
#     4  11  23  39  63  94 129 166 223 264 324 388
#     4  10  23  38  64  97 132 175 209 263 339 381
#     4  12  22  38  60 100 130 162 210 264 338 392
#
# _framework density 25.528487999999999
#
# number of rings (size 3 to 8) (size 9 to 14) (size 15 to 20)
#    0.800    0.800    2.667    1.200    7.467    0.533 
#    0.000    0.667    0.000    1.600    0.000    0.000 
#    0.000    0.000    0.000    0.000    0.000    0.000 
#
# Total GULP energy -83554.130480 kJ/mol
# GULP energy per Si atom -5570.275365 kJ/mol
# Density = 2.547038 g / cm^3
# Si number density = 25.528488 Si / 1000 Ang^3
#
#
#
# Elastic Constant Matrix: (Units=GPa)
#
#
# Indices 1 2 3 4 5 6 
#
# 1 87.5132 44.1130 26.1295 21.9392 21.7570 -2.5867
# 2 44.1130 215.8929 98.2958 56.6972 30.8800 13.1229
# 3 26.1295 98.2958 115.0633 53.0873 20.7589 -4.5151
# 4 21.9392 56.6972 53.0873 65.1854 -2.8179 2.8767
# 5 21.7570 30.8800 20.7589 -2.8179 48.3658 3.0374
# 6 -2.5867 13.1229 -4.5151 2.8767 3.0374 52.9754
#
#
#
# Elastic Compliance Matrix: (Units=1/GPa)
#
#
# Indices 1 2 3 4 5 6 
#
# 1 0.014817 -0.001537 0.001814 -0.005512 -0.006906 0.001954
# 2 -0.001537 0.008597 -0.005513 -0.002470 -0.002425 -0.002401
# 3 0.001814 -0.005513 0.020394 -0.012920 -0.007072 0.004299
# 4 -0.005512 -0.002470 -0.012920 0.030503 0.011572 -0.003078
# 5 -0.006906 -0.002425 -0.007072 0.011572 0.029206 -0.002642
# 6 0.001954 -0.002401 0.004299 -0.003078 -0.002642 0.020252
#
#
# Mechanical properties :
#
#
# Convention : Reuss Voigt Hill
#
# Bulk Modulus (GPa) = 29.99668 83.94954 56.97311
# Shear Modulus (GPa) = 34.39928 49.96739 42.18334
#
# Velocity S-wave (km/s) = 3.67479 4.42896 4.06939
# Velocity P-wave (km/s) = 5.45722 7.68832 6.66677
#
# Compressibility (1/GPa) = 0.03333702
#
# Stress axis : x y z
#
# Youngs Moduli (GPa) = 67.49225 116.31608 49.03421
#
# Poissons Ratio (x) = 0.17873 -0.08895
# Poissons Ratio (y) = 0.10371 0.27031
# Poissons Ratio (z) = -0.12243 0.64122
#
# Static dielectric constant tensor:
#      x y z
#    x 2.287870 0.251730 -0.102940 
#    y 0.251730 2.179530 -0.110090 
#    z -0.102940 -0.110090 2.234840 
# 
# From -- ./inp_files/367146.got.cif
#   From: 2010.05.17/outbox.cif.g08.bks.cpg/sg2_184_cif.got.tgz:367146.got - 2010.06.03 11:33:40.
