data_PCOD9028784
_publ_section_title
;
Structure prediction by ZEFSAII (Michael W. Deem and Ramdas Pophale) SiO2 
 PCOD9028784
Probable space group: P -1
;
_chemical_formula_sum "Si O2"
_cell_formula_units_Z 16
_cell_length_a 5.788106
_cell_length_b 20.138896
_cell_length_c 8.970657
_cell_angle_alpha 125.560817
_cell_angle_beta 57.192624
_cell_angle_gamma 98.728867
_cell_volume 694.270540
_symmetry_space_group_name_H-M "P -1"
_symmetry_group_IT_number 2
_symmetry_cell_setting 'triclinic'
loop_
_space_group_symop_operation_xyz
x,y,z
-x,-y,-z
loop_
_atom_site_type_symbol
_atom_site_label
_atom_site_fract_x
_atom_site_fract_y
_atom_site_fract_z
Si Si1 0.924663 0.161888 0.416562
Si Si2 0.978354 0.828699 0.950198
Si Si3 0.842456 0.996412 0.391410
Si Si4 0.668774 0.732770 0.117538
Si Si5 0.961035 0.445584 0.300336
Si Si6 0.801114 0.435681 0.798653
Si Si7 0.893957 0.703228 0.306439
Si Si8 0.356536 0.651239 0.546935
O O1 0.626890 0.228194 0.646309
O O2 0.001313 0.150267 0.202167
O O3 0.139177 0.210567 0.479623
O O4 0.902110 0.074738 0.381604
O O5 0.220125 0.744043 0.775271
O O6 0.990553 0.907909 0.148507
O O7 0.704876 0.796042 0.056666
O O8 0.500000 0.000000 0.500000
O O9 0.000000 0.000000 0.500000
O O10 0.889697 0.729696 0.172134
O O11 0.774828 0.636882 0.902174
O O12 0.684191 0.411013 0.387658
O O13 0.000000 0.500000 0.500000
O O14 0.984785 0.504015 0.227182
O O15 0.811001 0.375669 0.571332
O O16 0.845445 0.372385 0.838330
O O17 0.500000 0.500000 0.000000
O O18 0.648845 0.658411 0.383586
#
# Coordination Sequence:
#
# PCOD9028784 Si02
#       8
#     2   2   2   2   2   2   2   2
#     4  12  25  47  76 107 149 195 246 311 383 459
#     4  11  23  49  75 108 147 197 245 311 379 465
#     4  12  28  52  80 119 158 203 255 321 388 465
#     4  11  23  45  71 102 147 187 252 307 379 455
#     4   9  21  40  64  96 140 188 238 310 371 449
#     4  11  22  41  66  96 143 189 242 306 380 442
#     4  12  23  41  71 103 141 193 245 314 382 449
#     4  10  22  42  64  99 142 181 248 297 370 453
#
# _framework density 23.045771999999999
#
# number of rings (size 3 to 8) (size 9 to 14) (size 15 to 20)
#    0.000    1.000    3.750    2.625    0.000    3.500 
#    4.500    8.125    0.000    0.000    0.000    0.000 
#    0.000    0.000    0.000    0.000    0.000    0.000 
#
# Total GULP energy -89278.857127 kJ/mol
# GULP energy per Si atom -5579.928570 kJ/mol
# Density = 2.299332 g / cm^3
# Si number density = 23.045772 Si / 1000 Ang^3
#
#
#
# Elastic Constant Matrix: (Units=GPa)
#
#
# Indices 1 2 3 4 5 6 
#
# 1 55.5874 47.0379 38.7210 -3.8560 9.2210 9.2038
# 2 47.0379 195.0171 45.8901 0.2160 17.1222 7.9742
# 3 38.7210 45.8901 160.5701 15.0767 28.8274 -2.8971
# 4 -3.8560 0.2160 15.0767 54.5874 7.5265 -0.0086
# 5 9.2210 17.1222 28.8274 7.5265 29.4750 2.2750
# 6 9.2038 7.9742 -2.8971 -0.0086 2.2750 26.0356
#
#
#
# Elastic Compliance Matrix: (Units=1/GPa)
#
#
# Indices 1 2 3 4 5 6 
#
# 1 0.028055 -0.005008 -0.005753 0.003656 -0.000481 -0.008981
# 2 -0.005008 0.006587 -0.000330 -0.000024 -0.001922 -0.000116
# 3 -0.005753 -0.000330 0.009180 -0.002007 -0.006763 0.003746
# 4 0.003656 -0.000024 -0.002007 0.019698 -0.004108 -0.001143
# 5 -0.000481 -0.001922 -0.006763 -0.004108 0.043149 -0.003765
# 6 -0.008981 -0.000116 0.003746 -0.001143 -0.003765 0.042365
#
#
# Mechanical properties :
#
#
# Convention : Reuss Voigt Hill
#
# Bulk Modulus (GPa) = 46.20922 74.94137 60.57530
# Shear Modulus (GPa) = 28.02263 40.65464 34.33863
#
# Velocity S-wave (km/s) = 3.49084 4.20465 3.86426
# Velocity P-wave (km/s) = 6.02848 7.49408 6.80087
#
# Compressibility (1/GPa) = 0.02164070
#
# Stress axis : x y z
#
# Youngs Moduli (GPa) = 35.64432 151.82137 108.93680
#
# Poissons Ratio (x) = 0.76026 0.62672
# Poissons Ratio (y) = 0.17849 0.03591
# Poissons Ratio (z) = 0.20506 0.05004
#
# Static dielectric constant tensor:
#      x y z
#    x 2.011040 0.042940 -0.057150 
#    y 0.042940 1.886030 -0.053370 
#    z -0.057150 -0.053370 1.885150 
# 
# From -- ./inp_files/112947.got.cif
#   From: 2010.05.17/outbox.cif.g08.bks.cpg/sg2_57_cif.got.tgz:112947.got - 2010.06.03 11:33:40.
