data_PCOD9028386
_publ_section_title
;
Structure prediction by ZEFSAII (Michael W. Deem and Ramdas Pophale) SiO2 
 PCOD9028386
Probable space group: P -1
;
_chemical_formula_sum "Si O2"
_cell_formula_units_Z 16
_cell_length_a 10.033378
_cell_length_b 17.374114
_cell_length_c 18.648585
_cell_angle_alpha 23.498910
_cell_angle_beta 145.082018
_cell_angle_gamma 148.568931
_cell_volume 664.874755
_symmetry_space_group_name_H-M "P -1"
_symmetry_group_IT_number 2
_symmetry_cell_setting 'triclinic'
loop_
_space_group_symop_operation_xyz
x,y,z
-x,-y,-z
loop_
_atom_site_type_symbol
_atom_site_label
_atom_site_fract_x
_atom_site_fract_y
_atom_site_fract_z
Si Si1 0.119062 0.263234 0.586861
Si Si2 0.673578 0.533332 0.642764
Si Si3 0.459246 0.080107 0.702413
Si Si4 0.167351 0.758300 0.744518
Si Si5 0.450886 0.452443 0.934006
Si Si6 0.069488 0.941135 0.002831
Si Si7 0.700564 0.937906 0.597214
Si Si8 0.123794 0.724877 0.402839
O O1 0.403816 0.324348 0.692500
O O2 0.188814 0.415916 0.416567
O O3 0.922195 0.329075 0.488116
O O4 0.956451 0.025371 0.685632
O O5 0.593120 0.724273 0.462257
O O6 0.885125 0.562630 0.771416
O O7 0.645851 0.043486 0.873388
O O8 0.000000 0.500000 0.500000
O O9 0.623606 0.148076 0.641799
O O10 0.201708 0.877198 0.734479
O O11 0.219771 0.925217 0.558169
O O12 0.383522 0.672928 0.908959
O O13 0.573194 0.682088 0.751689
O O14 0.152761 0.287082 0.926278
O O15 0.500000 0.500000 0.000000
O O16 0.026508 0.125026 0.785196
O O17 0.000000 0.000000 0.000000
O O18 0.500000 0.000000 0.500000
#
# Coordination Sequence:
#
# PCOD9028386 Si02
#       8
#     2   2   2   2   2   2   2   2
#     4  10  22  42  61 101 129 168 236 261 336 412
#     4  10  23  41  68  90 137 189 209 273 336 416
#     4  11  22  43  67  95 133 177 224 272 341 400
#     4  11  23  43  62  98 135 176 231 268 338 415
#     4  12  23  41  65 101 141 173 218 292 346 390
#     4  10  23  40  63 102 136 169 223 285 344 396
#     4  11  23  38  67  97 135 173 220 284 343 396
#     4  11  20  38  69 101 128 165 226 290 328 390
#
# _framework density 24.064682000000001
#
# number of rings (size 3 to 8) (size 9 to 14) (size 15 to 20)
#    0.000    1.250    5.000    1.875    1.750    3.000 
#    0.000    3.750    0.000    4.500    0.000    0.000 
#    0.000    0.000    0.000    0.000    0.000    0.000 
#
# Total GULP energy -89285.794377 kJ/mol
# GULP energy per Si atom -5580.362149 kJ/mol
# Density = 2.400991 g / cm^3
# Si number density = 24.064682 Si / 1000 Ang^3
#
#
#
# Elastic Constant Matrix: (Units=GPa)
#
#
# Indices 1 2 3 4 5 6 
#
# 1 74.0052 5.8141 20.6326 0.7427 6.8597 -11.5442
# 2 5.8141 213.7571 34.0584 -2.2200 -0.4533 -14.7527
# 3 20.6326 34.0584 75.6775 -14.6014 15.6039 9.0219
# 4 0.7427 -2.2200 -14.6014 33.0312 7.8602 8.6062
# 5 6.8597 -0.4533 15.6039 7.8602 16.5388 -2.1348
# 6 -11.5442 -14.7527 9.0219 8.6062 -2.1348 25.6469
#
#
#
# Elastic Compliance Matrix: (Units=1/GPa)
#
#
# Indices 1 2 3 4 5 6 
#
# 1 0.022067 0.005054 -0.022958 -0.025478 0.028868 0.031868
# 2 0.005054 0.008465 -0.016353 -0.018199 0.024935 0.021079
# 3 -0.022958 -0.016353 0.074761 0.080045 -0.110095 -0.082064
# 4 -0.025478 -0.018199 0.080045 0.124844 -0.138142 -0.103487
# 5 0.028868 0.024935 -0.110095 -0.138142 0.235742 0.132044
# 6 0.031868 0.021079 -0.082064 -0.103487 0.132044 0.140046
#
#
# Mechanical properties :
#
#
# Convention : Reuss Voigt Hill
#
# Bulk Modulus (GPa) = 27.19021 53.82779 40.50900
# Shear Modulus (GPa) = 7.28121 35.23904 21.26012
#
# Velocity S-wave (km/s) = 1.74134 3.83083 2.97553
# Velocity P-wave (km/s) = 3.91999 6.47947 5.35490
#
# Compressibility (1/GPa) = 0.03677794
#
# Stress axis : x y z
#
# Youngs Moduli (GPa) = 45.31609 118.13313 13.37602
#
# Poissons Ratio (x) = -0.59702 0.30709
# Poissons Ratio (y) = -0.22902 0.21874
# Poissons Ratio (z) = 1.04037 1.93186
#
# Static dielectric constant tensor:
#      x y z
#    x 1.925030 -0.011020 -0.127730 
#    y -0.011020 2.081340 -0.011990 
#    z -0.127730 -0.011990 2.215780 
# 
# From -- ./inp_files/612326.got.cif
#   From: 2010.05.17/outbox.cif.g08.bks.cpg/sg2_307_cif.got.tgz:612326.got - 2010.06.03 11:33:40.
