data_PCOD9028348
_publ_section_title
;
Structure prediction by ZEFSAII (Michael W. Deem and Ramdas Pophale) SiO2 
 PCOD9028348
Probable space group: P -1
;
_chemical_formula_sum "Si O2"
_cell_formula_units_Z 15
_cell_length_a 12.045303
_cell_length_b 17.182297
_cell_length_c 9.958037
_cell_angle_alpha 33.962790
_cell_angle_beta 37.121162
_cell_angle_gamma 38.881974
_cell_volume 651.591346
_symmetry_space_group_name_H-M "P -1"
_symmetry_group_IT_number 2
_symmetry_cell_setting 'triclinic'
loop_
_space_group_symop_operation_xyz
x,y,z
-x,-y,-z
loop_
_atom_site_type_symbol
_atom_site_label
_atom_site_fract_x
_atom_site_fract_y
_atom_site_fract_z
Si Si1 0.508160 0.912407 0.937188
Si Si2 0.975849 0.175167 0.778965
Si Si3 0.170637 0.562701 0.966086
Si Si4 0.300887 0.221642 0.574348
Si Si5 0.813503 0.137096 0.528651
Si Si6 0.051790 0.245082 0.318662
Si Si7 0.000000 0.500000 0.500000
Si Si8 0.527440 0.269133 0.033440
O O1 0.468330 0.830487 0.958422
O O2 0.741923 0.851203 0.807568
O O3 0.413185 0.086114 0.753056
O O4 0.391556 0.880334 0.220855
O O5 0.091827 0.207628 0.748031
O O6 0.068558 0.234061 0.478020
O O7 0.744102 0.262596 0.873981
O O8 0.000000 0.000000 0.000000
O O9 0.204190 0.717036 0.748110
O O10 0.035336 0.608054 0.898380
O O11 0.373952 0.433851 0.920057
O O12 0.067399 0.517523 0.254771
O O13 0.438676 0.208655 0.331677
O O14 0.226375 0.383437 0.478499
O O15 0.887822 0.171301 0.553689
O O16 0.000000 0.000000 0.500000
#
# Coordination Sequence:
#
# PCOD9028348 Si02
#       8
#     2   2   2   2   2   2   1   2
#     4  12  21  38  68  90 129 165 205 268 316 373
#     4  12  21  38  66  99 130 162 212 266 321 371
#     4   9  23  43  62  91 128 162 215 258 312 384
#     4  11  23  40  65  94 129 169 213 259 316 385
#     4  10  22  42  59  90 130 165 205 260 308 379
#     4  10  23  39  61 100 121 163 215 254 316 380
#     4  10  22  48  64  82 132 178 198 266 316 374
#     4  11  21  39  63  95 126 165 207 267 323 366
#
# _framework density 23.020564
#
# number of rings (size 3 to 8) (size 9 to 14) (size 15 to 20)
#    0.800    0.533    4.000    2.000    0.000    3.200 
#    4.800    2.667    0.000    0.000    0.000    0.000 
#    0.000    0.000    0.000    0.000    0.000    0.000 
#
# Total GULP energy -83502.804634 kJ/mol
# GULP energy per Si atom -5566.853642 kJ/mol
# Density = 2.296817 g / cm^3
# Si number density = 23.020564 Si / 1000 Ang^3
#
#
#
# Elastic Constant Matrix: (Units=GPa)
#
#
# Indices 1 2 3 4 5 6 
#
# 1 68.6077 32.0594 32.8575 9.9390 1.6716 -29.3121
# 2 32.0594 125.1044 64.6979 9.6722 19.9491 -30.8601
# 3 32.8575 64.6979 106.9153 11.5766 9.4771 -10.2898
# 4 9.9390 9.6722 11.5766 43.4781 -11.1719 2.3782
# 5 1.6716 19.9491 9.4771 -11.1719 18.6521 7.8615
# 6 -29.3121 -30.8601 -10.2898 2.3782 7.8615 37.8565
#
#
#
# Elastic Compliance Matrix: (Units=1/GPa)
#
#
# Indices 1 2 3 4 5 6 
#
# 1 0.055269 0.039704 -0.016438 -0.050706 -0.110223 0.096768
# 2 0.039704 0.063236 -0.020571 -0.060578 -0.143517 0.110309
# 3 -0.016438 -0.020571 0.018912 0.014430 0.036336 -0.032809
# 4 -0.050706 -0.060578 0.014430 0.095479 0.172529 -0.126548
# 5 -0.110223 -0.143517 0.036336 0.172529 0.424726 -0.291501
# 6 0.096768 0.110309 -0.032809 -0.126548 -0.291501 0.250832
#
#
# Mechanical properties :
#
#
# Convention : Reuss Voigt Hill
#
# Bulk Modulus (GPa) = 7.00241 62.20633 34.60437
# Shear Modulus (GPa) = 5.25946 31.39819 18.32883
#
# Velocity S-wave (km/s) = 1.51316 3.69713 2.82475
# Velocity P-wave (km/s) = 2.47007 6.73096 5.06987
#
# Compressibility (1/GPa) = 0.14280793
#
# Stress axis : x y z
#
# Youngs Moduli (GPa) = 18.09317 15.81375 52.87624
#
# Poissons Ratio (x) = -0.62787 0.86917
# Poissons Ratio (y) = -0.71837 1.08771
# Poissons Ratio (z) = 0.29741 0.32530
#
# Static dielectric constant tensor:
#      x y z
#    x 1.992860 0.118330 -0.045240 
#    y 0.118330 1.913120 -0.040920 
#    z -0.045240 -0.040920 1.785290 
# 
# From -- ./inp_files/457226.got.cif
#   From: 2010.05.17/outbox.cif.g08.bks.cpg/sg2_229_cif.got.tgz:457226.got - 2010.06.03 11:33:40.
