data_PCOD9028506
_publ_section_title
;
Structure prediction by ZEFSAII (Michael W. Deem and Ramdas Pophale) SiO2 
 PCOD9028506
Probable space group: P -1
;
_chemical_formula_sum "Si O2"
_cell_formula_units_Z 14
_cell_length_a 17.168429
_cell_length_b 5.394718
_cell_length_c 16.426749
_cell_angle_alpha 70.184472
_cell_angle_beta 32.544454
_cell_angle_gamma 91.865837
_cell_volume 598.618133
_symmetry_space_group_name_H-M "P -1"
_symmetry_group_IT_number 2
_symmetry_cell_setting 'triclinic'
loop_
_space_group_symop_operation_xyz
x,y,z
-x,-y,-z
loop_
_atom_site_type_symbol
_atom_site_label
_atom_site_fract_x
_atom_site_fract_y
_atom_site_fract_z
Si Si1 0.497936 0.266653 0.366996
Si Si2 0.843911 0.543757 0.126268
Si Si3 0.180992 0.250160 0.699696
Si Si4 0.674472 0.138046 0.602597
Si Si5 0.255915 0.141378 0.021291
Si Si6 0.936102 0.637855 0.737319
Si Si7 0.603666 0.487609 0.984321
O O1 0.656926 0.282049 0.269532
O O2 0.321927 0.165761 0.583408
O O3 0.422914 0.056286 0.373976
O O4 0.609461 0.653599 0.195480
O O5 0.784696 0.556866 0.267827
O O6 0.000000 0.500000 0.000000
O O7 0.966597 0.917601 0.934630
O O8 0.230098 0.477759 0.551062
O O9 0.843342 0.137845 0.479809
O O10 0.515499 0.900436 0.835612
O O11 0.130636 0.259542 0.138783
O O12 0.142039 0.747773 0.151286
O O13 0.378891 0.289868 0.979669
O O14 0.818993 0.642540 0.767015
O O15 0.500000 0.500000 0.000000
#
# Coordination Sequence:
#
# PCOD9028506 Si02
#       7
#     2   2   2   2   2   2   2
#     4  11  24  41  65  96 129 177 229 280 341 410
#     4  11  26  44  64  92 136 172 222 290 345 400
#     4  11  25  41  67  93 130 178 226 280 344 410
#     4  11  24  39  70  95 128 178 225 277 335 410
#     4   9  22  42  69  94 141 174 224 282 338 398
#     4  10  22  42  63 101 133 177 225 280 337 402
#     4   9  22  43  68 102 138 176 221 280 340 405
#
# _framework density 23.387194999999998
#
# number of rings (size 3 to 8) (size 9 to 14) (size 15 to 20)
#    0.857    0.857    0.000    3.000    6.000    5.714 
#    0.000    0.714    0.000    0.000    0.000    0.000 
#    0.000    0.000    0.000    0.000    0.000    0.000 
#
# Total GULP energy -78105.083983 kJ/mol
# GULP energy per Si atom -5578.934570 kJ/mol
# Density = 2.333396 g / cm^3
# Si number density = 23.387195 Si / 1000 Ang^3
#
#
#
# Elastic Constant Matrix: (Units=GPa)
#
#
# Indices 1 2 3 4 5 6 
#
# 1 141.1200 18.3001 54.5638 -0.0233 -35.9208 -13.8178
# 2 18.3001 80.9856 12.5004 -1.6196 0.3165 -5.3092
# 3 54.5638 12.5004 104.9383 3.3684 -33.8096 -4.0560
# 4 -0.0233 -1.6196 3.3684 37.7015 -6.0929 -4.8906
# 5 -35.9208 0.3165 -33.8096 -6.0929 44.1999 2.3718
# 6 -13.8178 -5.3092 -4.0560 -4.8906 2.3718 18.0928
#
#
#
# Elastic Compliance Matrix: (Units=1/GPa)
#
#
# Indices 1 2 3 4 5 6 
#
# 1 0.010780 -0.001472 -0.003227 0.002125 0.006229 0.006835
# 2 -0.001472 0.013128 -0.001518 0.000668 -0.002515 0.002898
# 3 -0.003227 -0.001518 0.013969 -0.000119 0.008104 -0.000873
# 4 0.002125 0.000668 -0.000119 0.028534 0.005091 0.008838
# 5 0.006229 -0.002515 0.008104 0.005091 0.034461 0.002695
# 6 0.006835 0.002898 -0.000873 0.008838 0.002695 0.063182
#
#
# Mechanical properties :
#
#
# Convention : Reuss Voigt Hill
#
# Bulk Modulus (GPa) = 39.30264 55.30804 47.30534
# Shear Modulus (GPa) = 27.03163 36.11080 31.57122
#
# Velocity S-wave (km/s) = 3.40344 3.93369 3.67813
# Velocity P-wave (km/s) = 5.68209 6.65824 6.18944
#
# Compressibility (1/GPa) = 0.02544358
#
# Stress axis : x y z
#
# Youngs Moduli (GPa) = 92.76551 76.17336 71.58543
#
# Poissons Ratio (x) = 0.11209 0.23100
# Poissons Ratio (y) = 0.13651 0.10869
# Poissons Ratio (z) = 0.29935 0.11565
#
# Static dielectric constant tensor:
#      x y z
#    x 1.923370 -0.074470 -0.002710 
#    y -0.074470 1.933790 -0.030980 
#    z -0.002710 -0.030980 1.913330 
# 
# From -- ./inp_files/574787.got.cif
#   From: 2010.05.17/outbox.cif.g08.bks.cpg/sg2_288_cif.got.tgz:574787.got - 2010.06.03 11:33:40.
