data_PCOD9028024
_publ_section_title
;
Structure prediction by ZEFSAII (Michael W. Deem and Ramdas Pophale) SiO2 
 PCOD9028024
Probable space group: P -1
;
_chemical_formula_sum "Si O2"
_cell_formula_units_Z 14
_cell_length_a 8.841019
_cell_length_b 7.982212
_cell_length_c 12.196410
_cell_angle_alpha 97.363216
_cell_angle_beta 71.699438
_cell_angle_gamma 48.829723
_cell_volume 543.434065
_symmetry_space_group_name_H-M "P -1"
_symmetry_group_IT_number 2
_symmetry_cell_setting 'triclinic'
loop_
_space_group_symop_operation_xyz
x,y,z
-x,-y,-z
loop_
_atom_site_type_symbol
_atom_site_label
_atom_site_fract_x
_atom_site_fract_y
_atom_site_fract_z
Si Si1 0.962354 0.466001 0.229343
Si Si2 0.341997 0.813530 0.172107
Si Si3 0.617481 0.656360 0.510928
Si Si4 0.224334 0.565558 0.108817
Si Si5 0.905970 0.882902 0.013656
Si Si6 0.285832 0.765823 0.424581
Si Si7 0.533113 0.986214 0.240548
O O1 0.845977 0.494746 0.369255
O O2 0.746519 0.711588 0.225075
O O3 0.138993 0.485860 0.201239
O O4 0.072004 0.223606 0.117088
O O5 0.157061 0.806819 0.185301
O O6 0.403504 0.695158 0.271814
O O7 0.364494 0.993073 0.212203
O O8 0.506802 0.665464 0.013406
O O9 0.393819 0.813321 0.491977
O O10 0.639465 0.471637 0.562655
O O11 0.595708 0.826346 0.613092
O O12 0.091227 0.643387 0.031084
O O13 0.657573 0.030920 0.140058
O O14 0.000000 0.000000 0.000000
O O15 0.000000 0.000000 0.500000
#
# Coordination Sequence:
#
# PCOD9028024 Si02
#       7
#     2   2   2   2   2   2   2
#     4  11  21  45  71 105 141 194 247 293 363 450
#     4  11  22  43  68  99 144 184 243 299 366 416
#     4  11  26  45  78 105 147 197 243 292 378 430
#     4  10  22  41  70  97 138 196 230 307 364 419
#     4  11  23  38  69 102 140 185 251 290 356 445
#     4  11  27  46  72 106 150 194 242 302 357 441
#     4  11  22  41  71 103 139 194 239 299 360 438
#
# _framework density 25.762094000000001
#
# number of rings (size 3 to 8) (size 9 to 14) (size 15 to 20)
#    0.000    1.143    4.286    1.286   10.000    0.000 
#    0.000    5.000    0.000    0.000    0.000    0.000 
#    0.000    0.000    0.000    0.000    0.000    0.000 
#
# Total GULP energy -78289.454090 kJ/mol
# GULP energy per Si atom -5592.103864 kJ/mol
# Density = 2.570346 g / cm^3
# Si number density = 25.762094 Si / 1000 Ang^3
#
#
#
# Elastic Constant Matrix: (Units=GPa)
#
#
# Indices 1 2 3 4 5 6 
#
# 1 147.5227 24.5661 42.9488 1.0055 2.6662 33.0570
# 2 24.5661 51.4399 5.9204 -11.4840 -6.3790 8.1014
# 3 42.9488 5.9204 122.1352 -16.3111 -0.4548 16.7773
# 4 1.0055 -11.4840 -16.3111 41.6396 14.7159 -6.2823
# 5 2.6662 -6.3790 -0.4548 14.7159 56.8254 -3.9505
# 6 33.0570 8.1014 16.7773 -6.2823 -3.9505 49.8741
#
#
#
# Elastic Compliance Matrix: (Units=1/GPa)
#
#
# Indices 1 2 3 4 5 6 
#
# 1 0.009461 -0.004140 -0.002843 -0.003076 -0.000487 -0.005068
# 2 -0.004140 0.022927 0.001283 0.006472 0.001067 -0.000512
# 3 -0.002843 0.001283 0.009871 0.004422 -0.000869 -0.001157
# 4 -0.003076 0.006472 0.004422 0.030424 -0.006778 0.002796
# 5 -0.000487 0.001067 -0.000869 -0.006778 0.019568 0.001138
# 6 -0.005068 -0.000512 -0.001157 0.002796 0.001138 0.024324
#
#
# Mechanical properties :
#
#
# Convention : Reuss Voigt Hill
#
# Bulk Modulus (GPa) = 32.40423 51.99646 42.20035
# Shear Modulus (GPa) = 36.16304 46.17866 41.17085
#
# Velocity S-wave (km/s) = 3.75070 4.23839 4.00198
# Velocity P-wave (km/s) = 5.60023 6.64673 6.14580
#
# Compressibility (1/GPa) = 0.03086017
#
# Stress axis : x y z
#
# Youngs Moduli (GPa) = 105.69538 43.61592 101.30362
#
# Poissons Ratio (x) = 0.18058 0.28798
# Poissons Ratio (y) = 0.43760 -0.12998
# Poissons Ratio (z) = 0.30047 -0.05596
#
# Static dielectric constant tensor:
#      x y z
#    x 2.047410 -0.037500 -0.014550 
#    y -0.037500 2.159380 0.015410 
#    z -0.014550 0.015410 1.955920 
# 
# From -- ./inp_files/379927.got.cif
#   From: 2010.05.17/outbox.cif.g08.bks.cpg/sg2_190_cif.got.tgz:379927.got - 2010.06.03 11:33:40.
