data_PCOD9028623
_publ_section_title
;
Structure prediction by ZEFSAII (Michael W. Deem and Ramdas Pophale) SiO2 
 PCOD9028623
Probable space group: P -1
;
_chemical_formula_sum "Si O2"
_cell_formula_units_Z 14
_cell_length_a 11.237483
_cell_length_b 14.446184
_cell_length_c 17.727766
_cell_angle_alpha 30.340442
_cell_angle_beta 28.632858
_cell_angle_gamma 30.263457
_cell_volume 625.968013
_symmetry_space_group_name_H-M "P -1"
_symmetry_group_IT_number 2
_symmetry_cell_setting 'triclinic'
loop_
_space_group_symop_operation_xyz
x,y,z
-x,-y,-z
loop_
_atom_site_type_symbol
_atom_site_label
_atom_site_fract_x
_atom_site_fract_y
_atom_site_fract_z
Si Si1 0.637162 0.695753 0.983435
Si Si2 0.229997 0.759842 0.434562
Si Si3 0.717009 0.546184 0.197618
Si Si4 0.252778 0.851590 0.627337
Si Si5 0.540278 0.385394 0.174438
Si Si6 0.493273 0.106912 0.685315
Si Si7 0.926147 0.481148 0.776240
O O1 0.960707 0.534953 0.905225
O O2 0.552310 0.897718 0.840881
O O3 0.620612 0.723059 0.063360
O O4 0.454143 0.587085 0.131992
O O5 0.507197 0.628469 0.325533
O O6 0.307303 0.818059 0.431800
O O7 0.050670 0.633261 0.628740
O O8 0.050910 0.968827 0.342651
O O9 0.711478 0.356171 0.288437
O O10 0.335319 0.798279 0.705672
O O11 0.439016 0.919588 0.422119
O O12 0.283220 0.402346 0.256773
O O13 0.758082 0.406456 0.980219
O O14 0.186148 0.279331 0.745976
#
# Coordination Sequence:
#
# PCOD9028623 Si02
#       7
#     2   2   2   2   2   2   2
#     4  10  22  42  66  95 141 167 219 274 326 397
#     4  12  24  41  70 101 135 169 221 277 332 392
#     4  10  22  42  64 104 131 174 212 276 336 378
#     4  11  24  42  67 103 131 168 224 271 334 385
#     4  10  25  47  64  93 135 182 220 269 326 399
#     4  12  24  40  69 103 130 174 220 277 334 385
#     4  11  25  44  68  94 134 181 221 268 332 391
#
# _framework density 22.365361
#
# number of rings (size 3 to 8) (size 9 to 14) (size 15 to 20)
#    0.000    1.143    2.857    2.571    4.000    2.286 
#    0.000    0.000    0.000    0.000    0.000    0.000 
#    0.000    0.000    0.000    0.000    0.000    0.000 
#
# Total GULP energy -78270.951692 kJ/mol
# GULP energy per Si atom -5590.782264 kJ/mol
# Density = 2.231446 g / cm^3
# Si number density = 22.365361 Si / 1000 Ang^3
#
#
#
# Elastic Constant Matrix: (Units=GPa)
#
#
# Indices 1 2 3 4 5 6 
#
# 1 130.0079 25.6267 48.8008 8.2125 27.8438 -29.9952
# 2 25.6267 87.4576 21.3794 -0.7543 16.3918 -17.3771
# 3 48.8008 21.3794 89.7531 -8.6772 26.4168 -14.8640
# 4 8.2125 -0.7543 -8.6772 30.6650 -9.7284 6.8128
# 5 27.8438 16.3918 26.4168 -9.7284 43.4895 -10.2972
# 6 -29.9952 -17.3771 -14.8640 6.8128 -10.2972 29.1187
#
#
#
# Elastic Compliance Matrix: (Units=1/GPa)
#
#
# Indices 1 2 3 4 5 6 
#
# 1 0.014209 0.000538 -0.005110 -0.009770 -0.005366 0.012738
# 2 0.000538 0.013771 -0.001613 -0.003013 -0.003471 0.007426
# 3 -0.005110 -0.001613 0.016095 0.004454 -0.005104 -0.000857
# 4 -0.009770 -0.003013 0.004454 0.043324 0.010593 -0.015979
# 5 -0.005366 -0.003471 -0.005104 0.010593 0.032965 -0.001025
# 6 0.012738 0.007426 -0.000857 -0.015979 -0.001025 0.054834
#
#
# Mechanical properties :
#
#
# Convention : Reuss Voigt Hill
#
# Bulk Modulus (GPa) = 31.53957 55.42583 43.48270
# Shear Modulus (GPa) = 25.23531 34.74874 29.99203
#
# Velocity S-wave (km/s) = 3.36269 3.94596 3.66594
# Velocity P-wave (km/s) = 5.40458 6.75252 6.11580
#
# Compressibility (1/GPa) = 0.03170620
#
# Stress axis : x y z
#
# Youngs Moduli (GPa) = 70.37765 72.61752 62.13133
#
# Poissons Ratio (x) = -0.03906 0.31747
# Poissons Ratio (y) = -0.03786 0.10019
# Poissons Ratio (z) = 0.35961 0.11710
#
# Static dielectric constant tensor:
#      x y z
#    x 1.840210 0.015750 0.028410 
#    y 0.015750 1.811260 -0.025540 
#    z 0.028410 -0.025540 1.918490 
# 
# From -- ./inp_files/569687.got.cif
#   From: 2010.05.17/outbox.cif.g08.bks.cpg/sg2_285_cif.got.tgz:569687.got - 2010.06.03 11:33:40.
