data_PCOD9028834
_publ_section_title
;
Structure prediction by ZEFSAII (Michael W. Deem and Ramdas Pophale) SiO2 
 PCOD9028834
Probable space group: P -1
;
_chemical_formula_sum "Si O2"
_cell_formula_units_Z 10
_cell_length_a 10.269160
_cell_length_b 11.907567
_cell_length_c 8.826898
_cell_angle_alpha 107.606817
_cell_angle_beta 43.912955
_cell_angle_gamma 142.199235
_cell_volume 357.268473
_symmetry_space_group_name_H-M "P -1"
_symmetry_group_IT_number 2
_symmetry_cell_setting 'triclinic'
loop_
_space_group_symop_operation_xyz
x,y,z
-x,-y,-z
loop_
_atom_site_type_symbol
_atom_site_label
_atom_site_fract_x
_atom_site_fract_y
_atom_site_fract_z
Si Si1 0.230667 0.165661 0.688479
Si Si2 0.186030 0.927433 0.208619
Si Si3 0.701273 0.407473 0.115751
Si Si4 0.901591 0.740264 0.683777
Si Si5 0.227366 0.697183 0.513934
O O1 0.505813 0.360868 0.404972
O O2 0.463196 0.232018 0.658682
O O3 0.924447 0.102947 0.886764
O O4 0.027155 0.936645 0.710731
O O5 0.878388 0.726362 0.514600
O O6 0.390578 0.155428 0.195577
O O7 0.500000 0.000000 0.000000
O O8 0.000000 0.500000 0.000000
O O9 0.959986 0.588233 0.835226
O O10 0.235747 0.832172 0.487748
O O11 0.500000 0.500000 0.000000
O O12 0.000000 0.500000 0.500000
#
# Coordination Sequence:
#
# PCOD9028834 Si02
#       5
#     2   2   2   2   2
#     4  10  22  42  65  90 126 174 213 249 313 392
#     4  11  22  41  65  93 127 166 212 263 313 372
#     4   9  19  39  64  87 122 168 209 249 310 387
#     4  11  22  40  67  94 125 167 211 260 315 377
#     4  11  22  40  64  98 130 159 208 273 319 360
#
# _framework density 27.990154
#
# number of rings (size 3 to 8) (size 9 to 14) (size 15 to 20)
#    0.000    1.600    0.000    6.600    0.000    0.000 
#    0.000   26.000    0.000    2.400    0.000    0.000 
#    0.000    0.000    0.000    0.000    0.000    0.000 
#
# Total GULP energy -55714.738565 kJ/mol
# GULP energy per Si atom -5571.473857 kJ/mol
# Density = 2.792645 g / cm^3
# Si number density = 27.990154 Si / 1000 Ang^3
#
#
#
# Elastic Constant Matrix: (Units=GPa)
#
#
# Indices 1 2 3 4 5 6 
#
# 1 344.1175 42.0198 76.7826 0.9892 -29.8299 11.2113
# 2 42.0198 66.3459 14.0799 2.2156 -10.2080 -1.1921
# 3 76.7826 14.0799 99.9077 6.7964 -9.5238 -0.7183
# 4 0.9892 2.2156 6.7964 24.6157 -3.8942 -5.2881
# 5 -29.8299 -10.2080 -9.5238 -3.8942 53.9077 7.9789
# 6 11.2113 -1.1921 -0.7183 -5.2881 7.9789 44.5202
#
#
#
# Elastic Compliance Matrix: (Units=1/GPa)
#
#
# Indices 1 2 3 4 5 6 
#
# 1 0.003882 -0.001697 -0.002649 0.000709 0.001598 -0.001268
# 2 -0.001697 0.016652 -0.000798 -0.000812 0.001953 0.000414
# 3 -0.002649 -0.000798 0.012400 -0.003109 0.000286 0.000425
# 4 0.000709 -0.000812 -0.003109 0.042820 0.002123 0.004455
# 5 0.001598 0.001953 0.000286 0.002123 0.020567 -0.003779
# 6 -0.001268 0.000414 0.000425 0.004455 -0.003779 0.024006
#
#
# Mechanical properties :
#
#
# Convention : Reuss Voigt Hill
#
# Bulk Modulus (GPa) = 44.16074 86.23729 65.19902
# Shear Modulus (GPa) = 36.18884 49.77464 42.98174
#
# Velocity S-wave (km/s) = 3.59961 4.22155 3.92293
# Velocity P-wave (km/s) = 5.75220 7.39180 6.62293
#
# Compressibility (1/GPa) = 0.02264455
#
# Stress axis : x y z
#
# Youngs Moduli (GPa) = 257.58992 60.05351 80.64746
#
# Poissons Ratio (x) = 0.10192 0.21367
# Poissons Ratio (y) = 0.43716 0.06436
# Poissons Ratio (z) = 0.68246 0.04792
#
# Static dielectric constant tensor:
#      x y z
#    x 2.350030 -0.016000 -0.038640 
#    y -0.016000 2.169560 -0.106620 
#    z -0.038640 -0.106620 2.900590 
# 
# From -- ./inp_files/149027.got.cif
#   From: 2010.05.17/outbox.cif.g08.bks.cpg/sg2_75_cif.got.tgz:149027.got - 2010.06.03 11:33:40.
