data_PCOD9028460
_publ_section_title
;
Structure prediction by ZEFSAII (Michael W. Deem and Ramdas Pophale) SiO2 
 PCOD9028460
Probable space group: P -1
;
_chemical_formula_sum "Si O2"
_cell_formula_units_Z 12
_cell_length_a 9.794833
_cell_length_b 8.603630
_cell_length_c 14.204301
_cell_angle_alpha 128.758620
_cell_angle_beta 34.219751
_cell_angle_gamma 118.307402
_cell_volume 522.340681
_symmetry_space_group_name_H-M "P -1"
_symmetry_group_IT_number 2
_symmetry_cell_setting 'triclinic'
loop_
_space_group_symop_operation_xyz
x,y,z
-x,-y,-z
loop_
_atom_site_type_symbol
_atom_site_label
_atom_site_fract_x
_atom_site_fract_y
_atom_site_fract_z
Si Si1 0.200945 0.411010 0.694151
Si Si2 0.191109 0.088809 0.056209
Si Si3 0.873566 0.217277 0.673946
Si Si4 0.246034 0.479454 0.291829
Si Si5 0.731652 0.272266 0.981302
Si Si6 0.675585 0.166296 0.283008
O O1 0.084446 0.356755 0.638882
O O2 0.436494 0.250911 0.508724
O O3 0.264189 0.637991 0.738188
O O4 0.984208 0.374651 0.875229
O O5 0.223898 0.302833 0.162128
O O6 0.908571 0.099389 0.188691
O O7 0.248160 0.921264 0.039392
O O8 0.346400 0.011458 0.846497
O O9 0.738040 0.320820 0.701923
O O10 0.000000 0.000000 0.500000
O O11 0.720643 0.208333 0.853272
O O12 0.487713 0.418663 0.192330
O O13 0.000000 0.500000 0.500000
#
# Coordination Sequence:
#
# PCOD9028460 Si02
#       6
#     2   2   2   2   2   2
#     4   9  22  42  62  93 121 171 206 257 310 363
#     4  11  23  41  63  98 123 169 212 250 317 371
#     4  10  22  42  62  93 123 165 208 262 317 364
#     4  12  25  41  65  94 129 165 208 264 316 371
#     4  10  24  39  64  95 127 159 209 264 313 365
#     4  10  22  42  69  87 130 171 207 255 304 384
#
# _framework density 22.973513000000001
#
# number of rings (size 3 to 8) (size 9 to 14) (size 15 to 20)
#    1.000    0.667    1.667    2.000    4.667    1.333 
#    3.000    0.000    0.000    0.000    0.000    0.000 
#    0.000    0.000    0.000    0.000    0.000    0.000 
#
# Total GULP energy -67055.018487 kJ/mol
# GULP energy per Si atom -5587.918207 kJ/mol
# Density = 2.292122 g / cm^3
# Si number density = 22.973513 Si / 1000 Ang^3
#
#
#
# Elastic Constant Matrix: (Units=GPa)
#
#
# Indices 1 2 3 4 5 6 
#
# 1 57.6468 37.5249 55.4562 11.2909 -11.5865 -17.1874
# 2 37.5249 95.5291 58.3656 11.8461 -11.0713 -11.5592
# 3 55.4562 58.3656 177.7559 4.9565 -25.4481 -4.7331
# 4 11.2909 11.8461 4.9565 35.2820 1.9706 -5.6732
# 5 -11.5865 -11.0713 -25.4481 1.9706 43.4469 21.0756
# 6 -17.1874 -11.5592 -4.7331 -5.6732 21.0756 42.9040
#
#
#
# Elastic Compliance Matrix: (Units=1/GPa)
#
#
# Indices 1 2 3 4 5 6 
#
# 1 0.033294 -0.006307 -0.008273 -0.005377 -0.002873 0.011426
# 2 -0.006307 0.015142 -0.002880 -0.002547 0.000222 0.000789
# 3 -0.008273 -0.002880 0.009750 0.001054 0.005405 -0.005531
# 4 -0.005377 -0.002547 0.001054 0.031645 -0.004739 0.003788
# 5 -0.002873 0.000222 0.005405 -0.004739 0.034438 -0.018038
# 6 0.011426 0.000789 -0.005531 0.003788 -0.018038 0.036849
#
#
# Mechanical properties :
#
#
# Convention : Reuss Voigt Hill
#
# Bulk Modulus (GPa) = 42.98399 70.40279 56.69339
# Shear Modulus (GPa) = 24.53450 36.29892 30.41671
#
# Velocity S-wave (km/s) = 3.27149 3.97928 3.64262
# Velocity P-wave (km/s) = 5.74640 7.19893 6.51328
#
# Compressibility (1/GPa) = 0.02326448
#
# Stress axis : x y z
#
# Youngs Moduli (GPa) = 30.03567 66.03954 102.56667
#
# Poissons Ratio (x) = 0.41652 0.84855
# Poissons Ratio (y) = 0.18944 0.29544
# Poissons Ratio (z) = 0.24849 0.19022
#
# Static dielectric constant tensor:
#      x y z
#    x 1.911880 0.068030 -0.018380 
#    y 0.068030 1.834280 -0.032950 
#    z -0.018380 -0.032950 1.861170 
# 
# From -- ./inp_files/493744.got.cif
#   From: 2010.05.17/outbox.cif.g08.bks.cpg/sg2_247_cif.got.tgz:493744.got - 2010.06.03 11:33:40.
