data_PCOD9028067
_publ_section_title
;
Structure prediction by ZEFSAII (Michael W. Deem and Ramdas Pophale) SiO2 
 PCOD9028067
Probable space group: P -1
;
_chemical_formula_sum "Si O2"
_cell_formula_units_Z 16
_cell_length_a 17.259413
_cell_length_b 11.817356
_cell_length_c 13.662159
_cell_angle_alpha 133.890665
_cell_angle_beta 148.299547
_cell_angle_gamma 28.271725
_cell_volume 675.753198
_symmetry_space_group_name_H-M "P -1"
_symmetry_group_IT_number 2
_symmetry_cell_setting 'triclinic'
loop_
_space_group_symop_operation_xyz
x,y,z
-x,-y,-z
loop_
_atom_site_type_symbol
_atom_site_label
_atom_site_fract_x
_atom_site_fract_y
_atom_site_fract_z
Si Si1 0.645921 0.992528 0.722627
Si Si2 0.641841 0.956790 0.926282
Si Si3 0.427043 0.725289 0.823861
Si Si4 0.334708 0.677968 0.022160
Si Si5 0.661727 0.480603 0.529813
Si Si6 0.171760 0.874695 0.337213
Si Si7 0.722805 0.932255 0.289800
Si Si8 0.990226 0.475927 0.809260
O O1 0.594087 0.217265 0.786239
O O2 0.500000 0.000000 0.500000
O O3 0.605048 0.003788 0.801248
O O4 0.907317 0.714530 0.829708
O O5 0.405226 0.094653 0.802596
O O6 0.826159 0.681914 0.000210
O O7 0.712395 0.063688 0.117156
O O8 0.638654 0.481334 0.965120
O O9 0.302272 0.681019 0.611970
O O10 0.456369 0.825950 0.828007
O O11 0.500000 0.500000 0.000000
O O12 0.075114 0.921344 0.855734
O O13 0.389965 0.712366 0.401664
O O14 0.777600 0.318468 0.656536
O O15 0.773662 0.550769 0.659109
O O16 0.176554 0.020664 0.501819
O O17 0.903410 0.705108 0.275790
#
# Coordination Sequence:
#
# PCOD9028067 Si02
#       8
#     2   2   2   2   2   2   2   2
#     4  12  27  44  71 105 142 184 232 289 358 422
#     4  11  23  46  69 103 141 184 237 296 350 415
#     4  10  22  41  71 100 141 183 236 285 350 424
#     4  12  26  45  71 100 147 186 233 279 362 428
#     4  10  22  42  68 105 140 180 248 290 346 410
#     4  10  24  42  68 102 143 191 229 294 350 420
#     4  10  24  42  72 104 138 182 242 293 350 407
#     4  11  23  41  72 100 137 185 239 293 346 417
#
# _framework density 23.677284
#
# number of rings (size 3 to 8) (size 9 to 14) (size 15 to 20)
#    0.000    1.250    1.250    4.125    5.250    7.000 
#    0.000    6.250    0.000    0.000    0.000    0.000 
#    0.000    0.000    0.000    0.000    0.000    0.000 
#
# Total GULP energy -89516.253105 kJ/mol
# GULP energy per Si atom -5594.765819 kJ/mol
# Density = 2.362339 g / cm^3
# Si number density = 23.677284 Si / 1000 Ang^3
#
#
#
# Elastic Constant Matrix: (Units=GPa)
#
#
# Indices 1 2 3 4 5 6 
#
# 1 89.4251 38.8508 25.2452 0.4751 -2.6149 -13.6344
# 2 38.8508 133.5098 25.7642 5.4561 -3.0543 -1.8043
# 3 25.2452 25.7642 79.4589 -2.3260 -18.7006 -15.0656
# 4 0.4751 5.4561 -2.3260 50.3872 -6.2770 -10.5898
# 5 -2.6149 -3.0543 -18.7006 -6.2770 39.5516 -2.0941
# 6 -13.6344 -1.8043 -15.0656 -10.5898 -2.0941 30.0289
#
#
#
# Elastic Compliance Matrix: (Units=1/GPa)
#
#
# Indices 1 2 3 4 5 6 
#
# 1 0.014269 -0.003707 -0.002187 0.001371 0.000140 0.005652
# 2 -0.003707 0.009108 -0.002773 -0.001940 -0.001336 -0.003304
# 3 -0.002187 -0.002773 0.018581 0.004586 0.009708 0.010457
# 4 0.001371 -0.001940 0.004586 0.023483 0.006447 0.011538
# 5 0.000140 -0.001336 0.009708 0.006447 0.031296 0.009310
# 6 0.005652 -0.003304 0.010457 0.011538 0.009310 0.045633
#
#
# Mechanical properties :
#
#
# Convention : Reuss Voigt Hill
#
# Bulk Modulus (GPa) = 40.61063 53.56826 47.08945
# Shear Modulus (GPa) = 29.77773 38.16245 33.97009
#
# Velocity S-wave (km/s) = 3.55018 4.01905 3.79187
# Velocity P-wave (km/s) = 5.83044 6.64909 6.25318
#
# Compressibility (1/GPa) = 0.02462409
#
# Stress axis : x y z
#
# Youngs Moduli (GPa) = 70.08300 109.79416 53.81922
#
# Poissons Ratio (x) = 0.40697 0.11769
# Poissons Ratio (y) = 0.25977 0.14926
# Poissons Ratio (z) = 0.15326 0.30449
#
# Static dielectric constant tensor:
#      x y z
#    x 1.878050 -0.007070 -0.002980 
#    y -0.007070 1.945860 0.022470 
#    z -0.002980 0.022470 1.925570 
# 
# From -- ./inp_files/538471.got.cif
#   From: 2010.05.17/outbox.cif.g08.bks.cpg/sg2_270_cif.got.tgz:538471.got - 2010.06.03 11:33:40.
