data_PCOD9028029
_publ_section_title
;
Structure prediction by ZEFSAII (Michael W. Deem and Ramdas Pophale) SiO2 
 PCOD9028029
Probable space group: P -1
;
_chemical_formula_sum "Si O2"
_cell_formula_units_Z 16
_cell_length_a 6.652979
_cell_length_b 14.314818
_cell_length_c 15.206885
_cell_angle_alpha 140.894905
_cell_angle_beta 105.361437
_cell_angle_gamma 62.157125
_cell_volume 795.279381
_symmetry_space_group_name_H-M "P -1"
_symmetry_group_IT_number 2
_symmetry_cell_setting 'triclinic'
loop_
_space_group_symop_operation_xyz
x,y,z
-x,-y,-z
loop_
_atom_site_type_symbol
_atom_site_label
_atom_site_fract_x
_atom_site_fract_y
_atom_site_fract_z
Si Si1 0.612712 0.060598 0.134876
Si Si2 0.138760 0.740567 0.347183
Si Si3 0.471599 0.418462 0.349071
Si Si4 0.965773 0.603371 0.387402
Si Si5 0.090144 0.911184 0.041284
Si Si6 0.656854 0.988903 0.423904
Si Si7 0.676698 0.889790 0.688865
Si Si8 0.603776 0.470934 0.217332
O O1 0.626655 0.225982 0.227279
O O2 0.472033 0.112475 0.246081
O O3 0.865656 0.917015 0.068731
O O4 0.500000 0.000000 0.000000
O O5 0.353026 0.572255 0.218139
O O6 0.046422 0.707778 0.406298
O O7 0.898966 0.825953 0.328799
O O8 0.257411 0.866062 0.458324
O O9 0.500000 0.500000 0.500000
O O10 0.545013 0.496304 0.332778
O O11 0.204651 0.451747 0.330893
O O12 0.843779 0.715362 0.538832
O O13 0.788495 0.545010 0.277538
O O14 0.180661 0.017449 0.188266
O O15 0.280696 0.724297 0.923742
O O16 0.000000 0.000000 0.000000
O O17 0.500000 0.000000 0.500000
O O18 0.495502 0.014574 0.339978
#
# Coordination Sequence:
#
# PCOD9028029 Si02
#       8
#     2   2   2   2   2   2   2   2
#     4  12  24  41  59  89 131 182 220 255 314 384
#     4  10  22  41  70  98 133 161 214 279 342 386
#     4  11  23  34  58  89 128 167 221 269 315 380
#     4  11  23  38  65  98 130 169 220 275 331 388
#     4  12  25  43  62  89 139 185 219 261 313 390
#     4  11  22  43  71 104 130 162 212 284 347 386
#     4  12  25  40  66  99 129 172 223 265 333 393
#     4  11  22  42  60  93 131 180 215 266 329 382
#
# _framework density 20.118715999999999
#
# number of rings (size 3 to 8) (size 9 to 14) (size 15 to 20)
#    0.000    0.750    5.000    2.250    3.500    2.000 
#    0.000    0.625    0.000    3.750    0.000    0.000 
#    0.000    0.000    0.000    0.000    0.000    0.000 
#
# Total GULP energy -89289.023048 kJ/mol
# GULP energy per Si atom -5580.563940 kJ/mol
# Density = 2.007293 g / cm^3
# Si number density = 20.118716 Si / 1000 Ang^3
#
#
#
# Elastic Constant Matrix: (Units=GPa)
#
#
# Indices 1 2 3 4 5 6 
#
# 1 102.9618 27.2262 16.8016 -3.4947 -9.1610 -9.8251
# 2 27.2262 81.7922 24.1048 3.8845 -6.0129 -21.4546
# 3 16.8016 24.1048 70.9429 9.8167 -1.0092 -10.1172
# 4 -3.4947 3.8845 9.8167 33.2879 -11.1610 -8.4957
# 5 -9.1610 -6.0129 -1.0092 -11.1610 33.8055 3.1488
# 6 -9.8251 -21.4546 -10.1172 -8.4957 3.1488 46.3412
#
#
#
# Elastic Compliance Matrix: (Units=1/GPa)
#
#
# Indices 1 2 3 4 5 6 
#
# 1 0.011327 -0.002797 -0.002025 0.003594 0.003598 0.001079
# 2 -0.002797 0.016009 -0.004055 0.001174 0.001795 0.006027
# 3 -0.002025 -0.004055 0.016741 -0.005415 -0.002607 0.000533
# 4 0.003594 0.001174 -0.005415 0.037786 0.012921 0.006173
# 5 0.003598 0.001795 -0.002607 0.012921 0.034969 0.001017
# 6 0.001079 0.006027 0.000533 0.006173 0.001017 0.025777
#
#
# Mechanical properties :
#
#
# Convention : Reuss Voigt Hill
#
# Bulk Modulus (GPa) = 37.98623 43.55134 40.76879
# Shear Modulus (GPa) = 29.56188 35.19119 32.37654
#
# Velocity S-wave (km/s) = 3.83740 4.18685 4.01593
# Velocity P-wave (km/s) = 6.20936 6.71321 6.46619
#
# Compressibility (1/GPa) = 0.02632533
#
# Stress axis : x y z
#
# Youngs Moduli (GPa) = 88.28113 62.46443 59.73301
#
# Poissons Ratio (x) = 0.17472 0.12094
# Poissons Ratio (y) = 0.24693 0.24219
# Poissons Ratio (z) = 0.17874 0.25326
#
# Static dielectric constant tensor:
#      x y z
#    x 1.756060 -0.013180 -0.028080 
#    y -0.013180 1.753120 0.021560 
#    z -0.028080 0.021560 1.639760 
# 
# From -- ./inp_files/484525.got.cif
#   From: 2010.05.17/outbox.cif.g08.bks.cpg/sg2_243_cif.got.tgz:484525.got - 2010.06.03 11:33:40.
