data_PCOD9028016
_publ_section_title
;
Structure prediction by ZEFSAII (Michael W. Deem and Ramdas Pophale) SiO2 
 PCOD9028016
Probable space group: P -1
;
_chemical_formula_sum "Si O2"
_cell_formula_units_Z 16
_cell_length_a 12.207730
_cell_length_b 7.196572
_cell_length_c 10.845874
_cell_angle_alpha 92.480337
_cell_angle_beta 111.156991
_cell_angle_gamma 120.917258
_cell_volume 730.545460
_symmetry_space_group_name_H-M "P -1"
_symmetry_group_IT_number 2
_symmetry_cell_setting 'triclinic'
loop_
_space_group_symop_operation_xyz
x,y,z
-x,-y,-z
loop_
_atom_site_type_symbol
_atom_site_label
_atom_site_fract_x
_atom_site_fract_y
_atom_site_fract_z
Si Si1 0.945056 0.570030 0.864564
Si Si2 0.650220 0.734920 0.573106
Si Si3 0.282917 0.494413 0.602532
Si Si4 0.752909 0.199046 0.575161
Si Si5 0.263701 0.312098 0.130964
Si Si6 0.552321 0.616681 0.157215
Si Si7 0.167807 0.019364 0.843017
Si Si8 0.985844 0.834049 0.383036
O O1 0.822945 0.360083 0.727368
O O2 0.871018 0.680237 0.900124
O O3 0.070254 0.753297 0.827445
O O4 0.000000 0.500000 0.000000
O O5 0.500000 0.500000 0.500000
O O6 0.741156 0.693947 0.512142
O O7 0.712668 0.773500 0.734920
O O8 0.635223 0.936769 0.542750
O O9 0.303376 0.696959 0.537929
O O10 0.401325 0.515521 0.741927
O O11 0.147775 0.406632 0.631760
O O12 0.882371 0.184485 0.578830
O O13 0.408337 0.559277 0.163435
O O14 0.233502 0.145941 0.002348
O O15 0.697405 0.866232 0.195818
O O16 0.500000 0.500000 0.000000
O O17 0.065438 0.093014 0.753633
O O18 0.000000 0.000000 0.500000
#
# Coordination Sequence:
#
# PCOD9028016 Si02
#       8
#     2   2   2   2   2   2   2   2
#     4  12  24  41  65 104 139 175 235 281 333 403
#     4  12  24  43  67  94 136 179 224 276 343 403
#     4  11  22  42  66 101 127 173 226 279 338 398
#     4  12  25  41  67 100 134 174 229 286 334 401
#     4  11  21  43  68  96 138 185 220 277 346 402
#     4   9  21  42  70  93 131 184 223 270 342 406
#     4  10  22  41  70  97 135 185 225 272 345 401
#     4  11  21  41  68  92 135 178 222 275 342 400
#
# _framework density 21.901443
#
# number of rings (size 3 to 8) (size 9 to 14) (size 15 to 20)
#    0.000    1.000    3.750    3.750    0.000    0.500 
#    0.000    0.625    0.000    0.000    0.000    0.000 
#    0.000    0.000    0.000    0.000    0.000    0.000 
#
# Total GULP energy -89330.453842 kJ/mol
# GULP energy per Si atom -5583.153365 kJ/mol
# Density = 2.185159 g / cm^3
# Si number density = 21.901443 Si / 1000 Ang^3
#
#
#
# Elastic Constant Matrix: (Units=GPa)
#
#
# Indices 1 2 3 4 5 6 
#
# 1 50.2042 0.6526 -6.2270 -6.7489 -1.1955 19.3940
# 2 0.6526 138.2747 43.4258 -26.3982 7.7809 16.3498
# 3 -6.2270 43.4258 140.1118 -30.7008 5.6225 -6.5817
# 4 -6.7489 -26.3982 -30.7008 41.1875 -2.7800 1.8163
# 5 -1.1955 7.7809 5.6225 -2.7800 24.5784 4.8072
# 6 19.3940 16.3498 -6.5817 1.8163 4.8072 29.5896
#
#
#
# Elastic Compliance Matrix: (Units=1/GPa)
#
#
# Indices 1 2 3 4 5 6 
#
# 1 0.030431 0.003829 0.000932 0.009550 0.005705 -0.023367
# 2 0.003829 0.010044 -0.002059 0.005913 -0.000121 -0.008860
# 3 0.000932 -0.002059 0.009184 0.005486 -0.001260 0.002437
# 4 0.009550 0.005913 0.005486 0.034435 0.003378 -0.010969
# 5 0.005705 -0.000121 -0.001260 0.003378 0.043880 -0.011289
# 6 -0.023367 -0.008860 0.002437 -0.010969 -0.011289 0.057056
#
#
# Mechanical properties :
#
#
# Convention : Reuss Voigt Hill
#
# Bulk Modulus (GPa) = 18.16112 44.92150 31.54131
# Shear Modulus (GPa) = 25.25510 38.45372 31.85441
#
# Velocity S-wave (km/s) = 3.39945 4.19473 3.81785
# Velocity P-wave (km/s) = 4.87017 6.63447 5.81957
#
# Compressibility (1/GPa) = 0.05506270
#
# Stress axis : x y z
#
# Youngs Moduli (GPa) = 32.86138 99.56510 108.88759
#
# Poissons Ratio (x) = -0.38123 -0.10146
# Poissons Ratio (y) = -0.12582 0.22415
# Poissons Ratio (z) = -0.03062 0.20496
#
# Static dielectric constant tensor:
#      x y z
#    x 1.894680 0.108160 0.000840 
#    y 0.108160 1.879910 -0.022860 
#    z 0.000840 -0.022860 1.815200 
# 
# From -- ./inp_files/410610.got.cif
#   From: 2010.05.17/outbox.cif.g08.bks.cpg/sg2_206_cif.got.tgz:410610.got - 2010.06.03 11:33:40.
