data_PCOD9028240
_publ_section_title
;
Structure prediction by ZEFSAII (Michael W. Deem and Ramdas Pophale) SiO2 
 PCOD9028240
Probable space group: P -1
;
_chemical_formula_sum "Si O2"
_cell_formula_units_Z 12
_cell_length_a 5.713959
_cell_length_b 7.710843
_cell_length_c 12.104246
_cell_angle_alpha 79.582273
_cell_angle_beta 105.666279
_cell_angle_gamma 113.441735
_cell_volume 469.484154
_symmetry_space_group_name_H-M "P -1"
_symmetry_group_IT_number 2
_symmetry_cell_setting 'triclinic'
loop_
_space_group_symop_operation_xyz
x,y,z
-x,-y,-z
loop_
_atom_site_type_symbol
_atom_site_label
_atom_site_fract_x
_atom_site_fract_y
_atom_site_fract_z
Si Si1 0.528406 0.318520 0.206049
Si Si2 0.232100 0.693643 0.978657
Si Si3 0.869339 0.301569 0.440167
Si Si4 0.552433 0.719799 0.217814
Si Si5 0.990378 0.988404 0.866908
Si Si6 0.599266 0.729848 0.474248
O O1 0.786899 0.332201 0.302926
O O2 0.460321 0.492569 0.224837
O O3 0.294107 0.117382 0.207592
O O4 0.576681 0.347775 0.078545
O O5 0.373345 0.776965 0.101984
O O6 0.137457 0.841534 0.886685
O O7 0.000000 0.500000 0.000000
O O8 0.588202 0.209524 0.475956
O O9 0.000000 0.500000 0.500000
O O10 0.088951 0.209209 0.475315
O O11 0.551909 0.776825 0.337120
O O12 0.843880 0.816104 0.193716
O O13 0.000000 0.000000 0.000000
O O14 0.500000 0.500000 0.500000
#
# Coordination Sequence:
#
# PCOD9028240 Si02
#       6
#     2   2   2   2   2   2
#     4  12  25  46  72 102 143 190 238 302 365 434
#     4  12  26  42  74 106 141 189 239 299 375 435
#     4  10  22  41  73 101 143 188 244 298 354 433
#     4  12  24  46  74 103 142 194 236 304 366 430
#     4  12  27  47  66 109 148 182 245 297 367 442
#     4  10  22  43  70 107 139 192 246 296 358 433
#
# _framework density 25.559968000000001
#
# number of rings (size 3 to 8) (size 9 to 14) (size 15 to 20)
#    0.000    0.667    6.667    2.000    7.000    1.333 
#    0.000    1.667    0.000    0.000    0.000    0.000 
#    0.000    0.000    0.000    0.000    0.000    0.000 
#
# Total GULP energy -67185.752446 kJ/mol
# GULP energy per Si atom -5598.812704 kJ/mol
# Density = 2.550179 g / cm^3
# Si number density = 25.559968 Si / 1000 Ang^3
#
#
#
# Elastic Constant Matrix: (Units=GPa)
#
#
# Indices 1 2 3 4 5 6 
#
# 1 122.5645 11.2723 28.9137 -3.2067 11.1131 12.8984
# 2 11.2723 108.7815 5.1614 7.5514 11.2691 18.3709
# 3 28.9137 5.1614 141.8566 -4.1305 16.4345 7.4570
# 4 -3.2067 7.5514 -4.1305 15.1591 14.1117 1.8986
# 5 11.1131 11.2691 16.4345 14.1117 50.7897 -0.1674
# 6 12.8984 18.3709 7.4570 1.8986 -0.1674 31.2508
#
#
#
# Elastic Compliance Matrix: (Units=1/GPa)
#
#
# Indices 1 2 3 4 5 6 
#
# 1 0.009257 -0.000324 -0.001191 0.005025 -0.002977 -0.003667
# 2 -0.000324 0.010596 0.000059 -0.003279 -0.001408 -0.005918
# 3 -0.001191 0.000059 0.008016 0.005830 -0.003972 -0.001831
# 4 0.005025 -0.003279 0.005830 0.098932 -0.029772 -0.007707
# 5 -0.002977 -0.001408 -0.003972 -0.029772 0.030226 0.004975
# 6 -0.003667 -0.005918 -0.001831 -0.007707 0.004975 0.037924
#
#
# Mechanical properties :
#
#
# Convention : Reuss Voigt Hill
#
# Bulk Modulus (GPa) = 40.06720 51.54417 45.80568
# Shear Modulus (GPa) = 24.25036 41.29694 32.77365
#
# Velocity S-wave (km/s) = 3.08354 4.02392 3.58470
# Velocity P-wave (km/s) = 5.32799 6.46522 5.92395
#
# Compressibility (1/GPa) = 0.02495807
#
# Stress axis : x y z
#
# Youngs Moduli (GPa) = 108.02582 94.37195 124.74702
#
# Poissons Ratio (x) = 0.03056 0.14858
# Poissons Ratio (y) = 0.03499 -0.00738
# Poissons Ratio (z) = 0.12867 -0.00558
#
# Static dielectric constant tensor:
#      x y z
#    x 2.126060 0.011290 0.031100 
#    y 0.011290 1.972660 -0.020020 
#    z 0.031100 -0.020020 1.932520 
# 
# From -- ./inp_files/18757.got.cif
#   From: 2010.05.17/outbox.cif.g08.bks.cpg/sg2_10_cif.got.tgz:18757.got - 2010.06.03 11:33:40.
