data_PCOD9028642
_publ_section_title
;
Structure prediction by ZEFSAII (Michael W. Deem and Ramdas Pophale) SiO2 
 PCOD9028642
Probable space group: P -1
;
_chemical_formula_sum "Si O2"
_cell_formula_units_Z 15
_cell_length_a 6.819634
_cell_length_b 5.195135
_cell_length_c 27.828995
_cell_angle_alpha 129.080414
_cell_angle_beta 59.434603
_cell_angle_gamma 106.511852
_cell_volume 658.033617
_symmetry_space_group_name_H-M "P -1"
_symmetry_group_IT_number 2
_symmetry_cell_setting 'triclinic'
loop_
_space_group_symop_operation_xyz
x,y,z
-x,-y,-z
loop_
_atom_site_type_symbol
_atom_site_label
_atom_site_fract_x
_atom_site_fract_y
_atom_site_fract_z
Si Si1 0.994350 0.141492 0.871963
Si Si2 0.576652 0.758241 0.642481
Si Si3 0.370663 0.344195 0.542159
Si Si4 0.877925 0.857535 0.044369
Si Si5 0.500000 0.500000 0.000000
Si Si6 0.478123 0.282197 0.798838
Si Si7 0.136812 0.718572 0.381887
Si Si8 0.769942 0.804065 0.775383
O O1 0.755886 0.353386 0.933444
O O2 0.059432 0.951983 0.891742
O O3 0.224503 0.332457 0.856790
O O4 0.952122 0.914802 0.804442
O O5 0.394601 0.616453 0.612924
O O6 0.683653 0.451395 0.623577
O O7 0.477510 0.028851 0.724370
O O8 0.771622 0.939878 0.609622
O O9 0.500000 0.500000 0.500000
O O10 0.107660 0.267201 0.560763
O O11 0.500000 0.000000 0.500000
O O12 0.624384 0.775383 0.050848
O O13 0.000000 0.500000 0.000000
O O14 0.000000 0.000000 0.000000
O O15 0.581451 0.611552 0.805350
O O16 0.647672 0.107961 0.796704
O O17 0.131908 0.464253 0.307352
#
# Coordination Sequence:
#
# PCOD9028642 Si02
#       8
#     2   2   2   2   1   2   2   2
#     4  11  23  41  67  93 126 161 207 261 316 378
#     4  10  22  42  64  89 127 168 212 263 315 369
#     4  12  25  38  61  96 130 171 217 257 309 373
#     4  10  24  42  61  86 119 161 200 243 300 367
#     4  10  24  42  62  90 126 164 200 246 310 380
#     4  10  23  42  66  95 123 162 211 263 318 373
#     4  10  22  42  64  90 127 168 209 261 317 370
#     4  10  23  42  67  95 123 161 212 263 316 373
#
# _framework density 22.795188
#
# number of rings (size 3 to 8) (size 9 to 14) (size 15 to 20)
#    0.000    1.600    0.000    3.200    0.000   13.867 
#    0.000    8.000    0.000    0.000    0.000    0.000 
#    0.000    0.000    0.000    0.000    0.000    0.000 
#
# Total GULP energy -83608.507748 kJ/mol
# GULP energy per Si atom -5573.900517 kJ/mol
# Density = 2.274330 g / cm^3
# Si number density = 22.795188 Si / 1000 Ang^3
#
#
#
# Elastic Constant Matrix: (Units=GPa)
#
#
# Indices 1 2 3 4 5 6 
#
# 1 98.1391 30.0615 33.9701 -16.4770 11.6012 28.1872
# 2 30.0615 86.9472 33.9037 -30.7934 5.1184 -18.4290
# 3 33.9701 33.9037 58.3969 -19.4357 2.2980 4.7715
# 4 -16.4770 -30.7934 -19.4357 42.7125 9.1754 -1.7181
# 5 11.6012 5.1184 2.2980 9.1754 52.8972 -4.7539
# 6 28.1872 -18.4290 4.7715 -1.7181 -4.7539 32.5754
#
#
#
# Elastic Compliance Matrix: (Units=1/GPa)
#
#
# Indices 1 2 3 4 5 6 
#
# 1 0.024587 -0.013158 -0.004708 -0.001984 -0.006180 -0.029036
# 2 -0.013158 0.030850 -0.007898 0.014712 0.000463 0.030839
# 3 -0.004708 -0.007898 0.026255 0.004374 -0.000469 -0.004078
# 4 -0.001984 0.014712 0.004374 0.037097 -0.006680 0.010381
# 5 -0.006180 0.000463 -0.000469 -0.006680 0.022163 0.008560
# 6 -0.029036 0.030839 -0.004078 0.010381 0.008560 0.075663
#
#
# Mechanical properties :
#
#
# Convention : Reuss Voigt Hill
#
# Bulk Modulus (GPa) = 33.15176 48.81709 40.98443
# Shear Modulus (GPa) = 17.97281 35.34022 26.65652
#
# Velocity S-wave (km/s) = 2.81098 3.94170 3.42335
# Velocity P-wave (km/s) = 5.01102 6.49446 5.80036
#
# Compressibility (1/GPa) = 0.03016431
#
# Stress axis : x y z
#
# Youngs Moduli (GPa) = 40.67252 32.41479 38.08731
#
# Poissons Ratio (x) = 0.42652 0.17931
# Poissons Ratio (y) = 0.53518 0.30081
# Poissons Ratio (z) = 0.19148 0.25601
#
# Static dielectric constant tensor:
#      x y z
#    x 1.806910 0.001420 0.042840 
#    y 0.001420 1.842340 0.041990 
#    z 0.042840 0.041990 1.965180 
# 
# From -- ./inp_files/614961.got.cif
#   From: 2010.05.17/outbox.cif.g08.bks.cpg/sg2_308_cif.got.tgz:614961.got - 2010.06.03 11:33:40.
