data_PCOD9028905
_publ_section_title
;
Structure prediction by ZEFSAII (Michael W. Deem and Ramdas Pophale) SiO2 
 PCOD9028905
Probable space group: P -1
;
_chemical_formula_sum "Si O2"
_cell_formula_units_Z 12
_cell_length_a 21.015036
_cell_length_b 5.092296
_cell_length_c 4.827237
_cell_angle_alpha 90.101735
_cell_angle_beta 94.408765
_cell_angle_gamma 126.154531
_cell_volume 415.158754
_symmetry_space_group_name_H-M "P -1"
_symmetry_group_IT_number 2
_symmetry_cell_setting 'triclinic'
loop_
_space_group_symop_operation_xyz
x,y,z
-x,-y,-z
loop_
_atom_site_type_symbol
_atom_site_label
_atom_site_fract_x
_atom_site_fract_y
_atom_site_fract_z
Si Si1 0.983307 0.709163 0.299777
Si Si2 0.311956 0.505785 0.054708
Si Si3 0.447141 0.967991 0.731716
Si Si4 0.855069 0.896139 0.824338
Si Si5 0.344654 0.092679 0.456988
Si Si6 0.822563 0.315605 0.428973
O O1 0.888893 0.479849 0.209872
O O2 0.000000 0.500000 0.500000
O O3 0.000000 0.000000 0.500000
O O4 0.050491 0.873610 0.083484
O O5 0.216481 0.271345 0.979959
O O6 0.333094 0.815582 0.243983
O O7 0.338825 0.326106 0.252466
O O8 0.362025 0.639101 0.791032
O O9 0.423334 0.211488 0.655785
O O10 0.500000 0.000000 0.500000
O O11 0.500000 0.000000 0.000000
O O12 0.838905 0.606785 0.625678
O O13 0.839852 0.107946 0.625061
O O14 0.270960 0.917399 0.647548
#
# Coordination Sequence:
#
# PCOD9028905 Si02
#       6
#     2   2   2   2   2   2
#     4   8  12  20  40  75 112 154 201 247 299 362
#     4  10  22  42  65  94 130 171 215 267 326 391
#     4  12  26  48  72 101 132 173 218 278 336 400
#     4   8  14  26  48  78 117 159 203 252 307 368
#     4  10  22  42  65  94 130 171 215 267 326 391
#     4   8  14  26  48  78 117 159 203 252 307 368
#
# _framework density 28.904603000000002
#
# number of rings (size 3 to 8) (size 9 to 14) (size 15 to 20)
#    0.000    2.667    1.667    0.000    0.000    2.667 
#    0.000    0.000    0.000    1.000    0.000    0.000 
#    0.000   40.000    0.000    0.000    0.000   18.667 
#
# Total GULP energy -67301.202093 kJ/mol
# GULP energy per Si atom -5608.433508 kJ/mol
# Density = 2.883882 g / cm^3
# Si number density = 28.904603 Si / 1000 Ang^3
#
#
#
# Elastic Constant Matrix: (Units=GPa)
#
#
# Indices 1 2 3 4 5 6 
#
# 1 244.7207 55.3421 89.8379 -29.2898 -22.0177 23.6781
# 2 55.3421 125.8529 49.1089 -28.8158 0.6572 -19.1434
# 3 89.8379 49.1089 180.8391 -10.9577 -17.5843 7.3565
# 4 -29.2898 -28.8158 -10.9577 47.3415 13.4379 -3.4156
# 5 -22.0177 0.6572 -17.5843 13.4379 67.9483 -32.4817
# 6 23.6781 -19.1434 7.3565 -3.4156 -32.4817 78.0466
#
#
#
# Elastic Compliance Matrix: (Units=1/GPa)
#
#
# Indices 1 2 3 4 5 6 
#
# 1 0.005630 -0.001428 -0.002215 0.001964 0.000042 -0.001746
# 2 -0.001428 0.011313 -0.002209 0.005934 -0.000699 0.003385
# 3 -0.002215 -0.002209 0.007286 -0.001447 0.001472 -0.000007
# 4 0.001964 0.005934 -0.001447 0.027074 -0.005127 0.000047
# 5 0.000042 -0.000699 0.001472 -0.005127 0.019812 0.007698
# 6 -0.001746 0.003385 -0.000007 0.000047 0.007698 0.017379
#
#
# Mechanical properties :
#
#
# Convention : Reuss Voigt Hill
#
# Bulk Modulus (GPa) = 79.83948 104.44338 92.14143
# Shear Modulus (GPa) = 47.90525 62.47553 55.19039
#
# Velocity S-wave (km/s) = 4.07548 4.65417 4.37441
# Velocity P-wave (km/s) = 7.05888 8.06809 7.58030
#
# Compressibility (1/GPa) = 0.01252513
#
# Stress axis : x y z
#
# Youngs Moduli (GPa) = 177.61805 88.39633 137.25236
#
# Poissons Ratio (x) = 0.12619 0.30404
# Poissons Ratio (y) = 0.25356 0.30319
# Poissons Ratio (z) = 0.39345 0.19527
#
# Static dielectric constant tensor:
#      x y z
#    x 2.246790 -0.033730 -0.000080 
#    y -0.033730 2.283290 -0.018150 
#    z -0.000080 -0.018150 2.112180 
# 
# From -- ./inp_files/13347.got.cif
#   From: 2010.05.17/outbox.cif.g08.bks.cpg/sg2_7_cif.got.tgz:13347.got - 2010.06.03 11:33:40.
