data_PCOD9028228
_publ_section_title
;
Structure prediction by ZEFSAII (Michael W. Deem and Ramdas Pophale) SiO2 
 PCOD9028228
Probable space group: P -1
;
_chemical_formula_sum "Si O2"
_cell_formula_units_Z 16
_cell_length_a 8.641905
_cell_length_b 5.293940
_cell_length_c 24.740301
_cell_angle_alpha 91.211126
_cell_angle_beta 47.412614
_cell_angle_gamma 66.031416
_cell_volume 683.782389
_symmetry_space_group_name_H-M "P -1"
_symmetry_group_IT_number 2
_symmetry_cell_setting 'triclinic'
loop_
_space_group_symop_operation_xyz
x,y,z
-x,-y,-z
loop_
_atom_site_type_symbol
_atom_site_label
_atom_site_fract_x
_atom_site_fract_y
_atom_site_fract_z
Si Si1 0.432859 0.365966 0.691645
Si Si2 0.595198 0.686642 0.007596
Si Si3 0.589811 0.606382 0.742626
Si Si4 0.837889 0.854609 0.524183
Si Si5 0.183616 0.269202 0.841223
Si Si6 0.596538 0.226272 0.825223
Si Si7 0.150206 0.325389 0.599188
Si Si8 0.181768 0.793658 0.656274
O O1 0.617130 0.353482 0.693996
O O2 0.201514 0.410903 0.781628
O O3 0.352467 0.626965 0.667827
O O4 0.587058 0.050895 0.621002
O O5 0.487098 0.752551 0.093916
O O6 0.500000 0.500000 0.000000
O O7 0.903094 0.466646 0.932223
O O8 0.500000 0.000000 0.000000
O O9 0.590055 0.516082 0.804145
O O10 0.842831 0.588093 0.670255
O O11 0.313478 0.911272 0.796529
O O12 0.769159 0.846802 0.477992
O O13 0.000000 0.500000 0.500000
O O14 0.000000 0.000000 0.500000
O O15 0.387494 0.234612 0.836489
O O16 0.888535 0.945380 0.745033
O O17 0.256659 0.521163 0.594709
O O18 0.189109 0.068089 0.630900
#
# Coordination Sequence:
#
# PCOD9028228 Si02
#       8
#     2   2   2   2   2   2   2   2
#     4  11  26  42  69 105 134 186 228 289 339 406
#     4  12  30  47  71 105 144 177 224 287 346 404
#     4  10  22  41  72  98 132 183 237 273 335 408
#     4  12  25  42  72 100 139 179 237 285 337 401
#     4  11  24  45  74  97 139 181 238 273 340 414
#     4  10  24  44  68 101 134 184 224 281 337 411
#     4  11  23  44  65 101 137 184 223 283 340 407
#     4  11  25  42  69  98 144 175 228 280 349 402
#
# _framework density 23.399256000000001
#
# number of rings (size 3 to 8) (size 9 to 14) (size 15 to 20)
#    0.000    1.000    2.500    2.625   10.500    2.500 
#    0.000    0.000    0.000    0.000    0.000    0.000 
#    0.000    0.000    0.000    0.000    0.000    0.000 
#
# Total GULP energy -89508.581378 kJ/mol
# GULP energy per Si atom -5594.286336 kJ/mol
# Density = 2.334600 g / cm^3
# Si number density = 23.399256 Si / 1000 Ang^3
#
#
#
# Elastic Constant Matrix: (Units=GPa)
#
#
# Indices 1 2 3 4 5 6 
#
# 1 81.4980 30.0667 44.6384 -6.5790 12.2416 2.6987
# 2 30.0667 127.0755 30.1301 4.4080 14.9072 -6.3830
# 3 44.6384 30.1301 128.7403 0.4868 14.3172 -4.4023
# 4 -6.5790 4.4080 0.4868 36.3347 -12.4533 4.2332
# 5 12.2416 14.9072 14.3172 -12.4533 42.0058 -1.4749
# 6 2.6987 -6.3830 -4.4023 4.2332 -1.4749 37.6238
#
#
#
# Elastic Compliance Matrix: (Units=1/GPa)
#
#
# Indices 1 2 3 4 5 6 
#
# 1 0.016637 -0.002841 -0.005072 0.003320 -0.001222 -0.002690
# 2 -0.002841 0.009270 -0.000777 -0.002871 -0.002982 0.001892
# 3 -0.005072 -0.000777 0.010008 -0.001877 -0.002160 0.001529
# 4 0.003320 -0.002871 -0.001877 0.032471 0.010170 -0.004200
# 5 -0.001222 -0.002982 -0.002160 0.010170 0.028948 -0.000680
# 6 -0.002690 0.001892 0.001529 -0.004200 -0.000680 0.027718
#
#
# Mechanical properties :
#
#
# Convention : Reuss Voigt Hill
#
# Bulk Modulus (GPa) = 53.95513 60.77603 57.36558
# Shear Modulus (GPa) = 33.64483 38.69143 36.16813
#
# Velocity S-wave (km/s) = 3.79602 4.07078 3.93580
# Velocity P-wave (km/s) = 6.50551 6.93721 6.72482
#
# Compressibility (1/GPa) = 0.01853392
#
# Stress axis : x y z
#
# Youngs Moduli (GPa) = 60.10646 107.87269 99.92111
#
# Poissons Ratio (x) = 0.30643 0.50685
# Poissons Ratio (y) = 0.17074 0.07769
# Poissons Ratio (z) = 0.30489 0.08387
#
# Static dielectric constant tensor:
#      x y z
#    x 1.921710 0.011230 -0.009420 
#    y 0.011230 2.045990 0.018930 
#    z -0.009420 0.018930 1.863480 
# 
# From -- ./inp_files/52874.got.cif
#   From: 2010.05.17/outbox.cif.g08.bks.cpg/sg2_27_cif.got.tgz:52874.got - 2010.06.03 11:33:40.
