data_PCOD9028820
_publ_section_title
;
Structure prediction by ZEFSAII (Michael W. Deem and Ramdas Pophale) SiO2 
 PCOD9028820
Probable space group: P -1
;
_chemical_formula_sum "Si O2"
_cell_formula_units_Z 15
_cell_length_a 12.367768
_cell_length_b 9.652380
_cell_length_c 19.382804
_cell_angle_alpha 134.688213
_cell_angle_beta 39.351634
_cell_angle_gamma 104.129780
_cell_volume 779.221967
_symmetry_space_group_name_H-M "P -1"
_symmetry_group_IT_number 2
_symmetry_cell_setting 'triclinic'
loop_
_space_group_symop_operation_xyz
x,y,z
-x,-y,-z
loop_
_atom_site_type_symbol
_atom_site_label
_atom_site_fract_x
_atom_site_fract_y
_atom_site_fract_z
Si Si1 0.741250 0.719171 0.990809
Si Si2 0.500000 0.500000 0.000000
Si Si3 0.705578 0.021675 0.987002
Si Si4 0.796534 0.610767 0.689567
Si Si5 0.794039 0.215878 0.627425
Si Si6 0.187554 0.148619 0.616841
Si Si7 0.668034 0.835470 0.224828
Si Si8 0.047487 0.759691 0.090060
O O1 0.602177 0.647744 0.998861
O O2 0.990596 0.439329 0.786455
O O3 0.750793 0.891530 0.993642
O O4 0.636569 0.855524 0.164747
O O5 0.570864 0.410434 0.852399
O O6 0.839467 0.119103 0.939144
O O7 0.768811 0.812347 0.825344
O O8 0.435622 0.254765 0.190397
O O9 0.853813 0.374788 0.620662
O O10 0.000000 0.500000 0.500000
O O11 0.784295 0.058586 0.519407
O O12 0.000000 0.000000 0.500000
O O13 0.097107 0.143574 0.733513
O O14 0.435624 0.058538 0.458504
O O15 0.872128 0.826192 0.140706
O O16 0.759872 0.553789 0.105742
#
# Coordination Sequence:
#
# PCOD9028820 Si02
#       8
#     2   1   2   2   2   2   2   2
#     4  11  24  38  62  88 123 160 201 245 302 358
#     4  12  22  38  60  90 122 160 198 246 296 356
#     4  11  24  41  57  87 129 156 195 248 301 358
#     4  11  25  38  58  89 124 162 193 239 304 361
#     4  12  23  36  63  91 120 156 203 243 293 357
#     4  11  21  38  64  89 117 156 205 250 296 353
#     4  10  22  42  65  89 115 156 210 252 295 352
#     4  10  23  41  64  89 118 158 202 253 304 351
#
# _framework density 19.249972
#
# number of rings (size 3 to 8) (size 9 to 14) (size 15 to 20)
#    0.000    1.067    4.000    2.000    3.733    1.600 
#    0.000    0.667    0.000    0.000    0.000    0.000 
#    0.000    0.000    0.000    0.000    0.000    0.000 
#
# Total GULP energy -83552.959904 kJ/mol
# GULP energy per Si atom -5570.197327 kJ/mol
# Density = 1.920616 g / cm^3
# Si number density = 19.249972 Si / 1000 Ang^3
#
#
#
# Elastic Constant Matrix: (Units=GPa)
#
#
# Indices 1 2 3 4 5 6 
#
# 1 84.5009 50.8592 10.6991 -0.6829 -4.2438 -1.2995
# 2 50.8592 164.8751 57.0486 -14.7786 -13.3861 5.1073
# 3 10.6991 57.0486 73.7105 -16.6917 -1.3117 -8.4132
# 4 -0.6829 -14.7786 -16.6917 25.4841 -1.2771 4.3917
# 5 -4.2438 -13.3861 -1.3117 -1.2771 19.3306 -13.2224
# 6 -1.2995 5.1073 -8.4132 4.3917 -13.2224 18.4758
#
#
#
# Elastic Compliance Matrix: (Units=1/GPa)
#
#
# Indices 1 2 3 4 5 6 
#
# 1 0.015259 -0.005678 0.002645 -0.002257 0.004794 0.007815
# 2 -0.005678 0.011111 -0.007972 0.002267 0.001627 -0.006475
# 3 0.002645 -0.007972 0.023404 0.008177 0.009371 0.017809
# 4 -0.002257 0.002267 0.008177 0.047421 -0.001838 -0.009649
# 5 0.004794 0.001627 0.009371 -0.001838 0.112769 0.085296
# 6 0.007815 -0.006475 0.017809 -0.009649 0.085296 0.127911
#
#
# Mechanical properties :
#
#
# Convention : Reuss Voigt Hill
#
# Bulk Modulus (GPa) = 36.01555 62.25559 49.13557
# Shear Modulus (GPa) = 13.54508 26.29006 19.91757
#
# Velocity S-wave (km/s) = 2.65550 3.69957 3.22013
# Velocity P-wave (km/s) = 5.30587 7.11758 6.27743
#
# Compressibility (1/GPa) = 0.02776578
#
# Stress axis : x y z
#
# Youngs Moduli (GPa) = 65.53440 90.00214 42.72805
#
# Poissons Ratio (x) = 0.51099 -0.11303
# Poissons Ratio (y) = 0.37207 0.34062
# Poissons Ratio (z) = -0.17337 0.71749
#
# Static dielectric constant tensor:
#      x y z
#    x 1.711530 -0.011270 -0.020440 
#    y -0.011270 1.610100 0.011350 
#    z -0.020440 0.011350 1.697230 
# 
# From -- ./inp_files/267998.got.cif
#   From: 2010.05.17/outbox.cif.g08.bks.cpg/sg2_134_cif.got.tgz:267998.got - 2010.06.03 11:33:40.
