data_PCOD9028382
_publ_section_title
;
Structure prediction by ZEFSAII (Michael W. Deem and Ramdas Pophale) SiO2 
 PCOD9028382
Probable space group: P -1
;
_chemical_formula_sum "Si O2"
_cell_formula_units_Z 16
_cell_length_a 14.695482
_cell_length_b 8.924090
_cell_length_c 14.584421
_cell_angle_alpha 146.879231
_cell_angle_beta 53.413716
_cell_angle_gamma 131.908032
_cell_volume 774.611383
_symmetry_space_group_name_H-M "P -1"
_symmetry_group_IT_number 2
_symmetry_cell_setting 'triclinic'
loop_
_space_group_symop_operation_xyz
x,y,z
-x,-y,-z
loop_
_atom_site_type_symbol
_atom_site_label
_atom_site_fract_x
_atom_site_fract_y
_atom_site_fract_z
Si Si1 0.615221 0.918702 0.417200
Si Si2 0.097937 0.775579 0.642303
Si Si3 0.816854 0.034583 0.113200
Si Si4 0.198224 0.596117 0.134043
Si Si5 0.375206 0.744965 0.731220
Si Si6 0.378296 0.706475 0.918867
Si Si7 0.364086 0.114881 0.397402
Si Si8 0.993705 0.279209 0.972680
O O1 0.598124 0.590958 0.224410
O O2 0.609077 0.884664 0.512293
O O3 0.500000 0.000000 0.500000
O O4 0.756789 0.140222 0.424155
O O5 0.100212 0.772400 0.752142
O O6 0.000000 0.500000 0.500000
O O7 0.063045 0.062757 0.791263
O O8 0.695931 0.104718 0.210041
O O9 0.873068 0.080353 0.999864
O O10 0.786963 0.696540 0.986629
O O11 0.063667 0.493011 0.123438
O O12 0.238477 0.851391 0.314577
O O13 0.281486 0.718645 0.057128
O O14 0.328946 0.682884 0.832000
O O15 0.360886 0.429977 0.534700
O O16 0.521228 0.926932 0.741194
O O17 0.500000 0.000000 0.000000
O O18 0.000000 0.500000 0.000000
#
# Coordination Sequence:
#
# PCOD9028382 Si02
#       8
#     2   2   2   2   2   2   2   2
#     4  11  24  43  66  96 136 175 220 271 331 394
#     4  11  25  46  67  99 136 174 221 276 334 395
#     4  11  24  42  70  92 130 168 222 268 329 388
#     4  11  22  42  63  95 126 169 214 273 319 390
#     4  10  22  42  60  95 129 171 211 268 321 390
#     4  11  21  41  65  93 135 174 217 272 326 388
#     4  10  23  37  65  90 132 167 213 262 329 383
#     4  11  25  46  69  94 128 173 221 273 330 394
#
# _framework density 20.655518000000001
#
# number of rings (size 3 to 8) (size 9 to 14) (size 15 to 20)
#    0.000    1.250    3.750    3.000    5.250    2.500 
#    2.250    1.250    0.000    0.000    0.000    0.000 
#    0.000    0.000    0.000    0.000    0.000    0.000 
#
# Total GULP energy -89188.813293 kJ/mol
# GULP energy per Si atom -5574.300831 kJ/mol
# Density = 2.060851 g / cm^3
# Si number density = 20.655518 Si / 1000 Ang^3
#
#
#
# Elastic Constant Matrix: (Units=GPa)
#
#
# Indices 1 2 3 4 5 6 
#
# 1 90.4670 17.0251 27.3101 23.0027 -11.3062 -7.0125
# 2 17.0251 99.3131 5.2106 -7.4433 -3.7001 -3.8783
# 3 27.3101 5.2106 30.0804 7.3417 9.4868 3.5438
# 4 23.0027 -7.4433 7.3417 35.6704 8.2882 6.4151
# 5 -11.3062 -3.7001 9.4868 8.2882 27.2042 6.1981
# 6 -7.0125 -3.8783 3.5438 6.4151 6.1981 36.7875
#
#
#
# Elastic Compliance Matrix: (Units=1/GPa)
#
#
# Indices 1 2 3 4 5 6 
#
# 1 0.031706 -0.004035 -0.032654 -0.022750 0.029166 0.007817
# 2 -0.004035 0.010998 0.001191 0.005193 -0.002116 -0.000273
# 3 -0.032654 0.001191 0.072699 0.017763 -0.042098 -0.009107
# 4 -0.022750 0.005193 0.017763 0.048193 -0.027514 -0.009269
# 5 0.029166 -0.002116 -0.042098 -0.027514 0.071154 0.002202
# 6 0.007817 -0.000273 -0.009107 -0.009269 0.002202 0.030767
#
#
# Mechanical properties :
#
#
# Convention : Reuss Voigt Hill
#
# Bulk Modulus (GPa) = 22.51920 35.43910 28.97915
# Shear Modulus (GPa) = 14.23213 31.28674 22.75944
#
# Velocity S-wave (km/s) = 2.62777 3.89613 3.32303
# Velocity P-wave (km/s) = 4.48697 6.11835 5.36503
#
# Compressibility (1/GPa) = 0.04440655
#
# Stress axis : x y z
#
# Youngs Moduli (GPa) = 31.53936 90.92446 13.75531
#
# Poissons Ratio (x) = 0.36691 0.44917
# Poissons Ratio (y) = 0.12727 -0.01638
# Poissons Ratio (z) = 1.02989 -0.10827
#
# Static dielectric constant tensor:
#      x y z
#    x 1.767400 0.082950 0.012150 
#    y 0.082950 1.872650 -0.034090 
#    z 0.012150 -0.034090 1.769620 
# 
# From -- ./inp_files/530295.got.cif
#   From: 2010.05.17/outbox.cif.g08.bks.cpg/sg2_266_cif.got.tgz:530295.got - 2010.06.03 11:33:40.
