data_PCOD9028468
_publ_section_title
;
Structure prediction by ZEFSAII (Michael W. Deem and Ramdas Pophale) SiO2 
 PCOD9028468
Probable space group: P -1
;
_chemical_formula_sum "Si O2"
_cell_formula_units_Z 16
_cell_length_a 13.777360
_cell_length_b 6.883584
_cell_length_c 15.241768
_cell_angle_alpha 112.159061
_cell_angle_beta 146.885750
_cell_angle_gamma 61.207220
_cell_volume 691.016552
_symmetry_space_group_name_H-M "P -1"
_symmetry_group_IT_number 2
_symmetry_cell_setting 'triclinic'
loop_
_space_group_symop_operation_xyz
x,y,z
-x,-y,-z
loop_
_atom_site_type_symbol
_atom_site_label
_atom_site_fract_x
_atom_site_fract_y
_atom_site_fract_z
Si Si1 0.418635 0.511555 0.808078
Si Si2 0.780664 0.555406 0.178466
Si Si3 0.858359 0.013641 0.315997
Si Si4 0.527975 0.871340 0.357343
Si Si5 0.415131 0.491416 0.530597
Si Si6 0.294015 0.309798 0.166390
Si Si7 0.055206 0.669930 0.186011
Si Si8 0.071462 0.099409 0.320000
O O1 0.293445 0.452062 0.779630
O O2 0.317902 0.771008 0.759563
O O3 0.430762 0.338537 0.711501
O O4 0.624419 0.493371 0.993922
O O5 0.973508 0.358446 0.271837
O O6 0.801219 0.794906 0.223292
O O7 0.958245 0.056208 0.310756
O O8 0.000000 0.000000 0.500000
O O9 0.521739 0.759137 0.427773
O O10 0.710409 0.947768 0.506749
O O11 0.356324 0.074033 0.224170
O O12 0.500000 0.500000 0.500000
O O13 0.516953 0.626296 0.691444
O O14 0.190706 0.593812 0.361238
O O15 0.165675 0.496405 0.166556
O O16 0.162359 0.318234 0.983621
O O17 0.052399 0.919182 0.205407
#
# Coordination Sequence:
#
# PCOD9028468 Si02
#       8
#     2   2   2   2   2   2   2   2
#     4  10  23  40  63  97 129 176 224 270 330 401
#     4  10  22  42  62  93 140 170 217 279 331 390
#     4  11  23  39  63  93 133 171 216 268 332 392
#     4  12  24  41  71  97 132 178 228 279 335 408
#     4  10  24  45  65  96 131 173 223 281 340 397
#     4  10  23  46  66  97 131 174 223 285 334 405
#     4  10  22  45  67  94 138 169 222 282 338 401
#     4  11  24  39  64  99 128 174 221 271 330 406
#
# _framework density 23.154292000000002
#
# number of rings (size 3 to 8) (size 9 to 14) (size 15 to 20)
#    0.000    1.500    1.250    2.625    3.500    6.000 
#    2.250    3.125    0.000    0.000    0.000    0.000 
#    0.000    0.000    0.000    0.000    0.000    0.000 
#
# Total GULP energy -89416.720177 kJ/mol
# GULP energy per Si atom -5588.545011 kJ/mol
# Density = 2.310159 g / cm^3
# Si number density = 23.154292 Si / 1000 Ang^3
#
#
#
# Elastic Constant Matrix: (Units=GPa)
#
#
# Indices 1 2 3 4 5 6 
#
# 1 73.0526 39.0436 17.5019 15.9673 -1.0436 -2.0059
# 2 39.0436 157.8759 56.0500 7.8487 15.5136 -1.0263
# 3 17.5019 56.0500 140.0200 -14.3182 7.5961 -1.5522
# 4 15.9673 7.8487 -14.3182 51.2863 -15.2585 1.3805
# 5 -1.0436 15.5136 7.5961 -15.2585 26.7168 5.6558
# 6 -2.0059 -1.0263 -1.5522 1.3805 5.6558 35.4631
#
#
#
# Elastic Compliance Matrix: (Units=1/GPa)
#
#
# Indices 1 2 3 4 5 6 
#
# 1 0.017008 -0.003489 -0.001240 -0.005173 -0.000129 0.001029
# 2 -0.003489 0.009140 -0.003179 -0.003192 -0.006596 0.001104
# 3 -0.001240 -0.003179 0.008875 0.003793 0.001473 -0.000156
# 4 -0.005173 -0.003192 0.003793 0.027942 0.017395 -0.004081
# 5 -0.000129 -0.006596 0.001473 0.017395 0.052722 -0.009219
# 6 0.001029 0.001104 -0.000156 -0.004081 -0.009219 0.029911
#
#
# Mechanical properties :
#
#
# Convention : Reuss Voigt Hill
#
# Bulk Modulus (GPa) = 52.06368 66.23772 59.15070
# Shear Modulus (GPa) = 29.79457 39.91678 34.85567
#
# Velocity S-wave (km/s) = 3.59107 4.15655 3.88411
# Velocity P-wave (km/s) = 6.30307 7.19062 6.76143
#
# Compressibility (1/GPa) = 0.01920725
#
# Stress axis : x y z
#
# Youngs Moduli (GPa) = 58.79619 109.41351 112.67048
#
# Poissons Ratio (x) = 0.38179 0.13968
# Poissons Ratio (y) = 0.20516 0.35815
# Poissons Ratio (z) = 0.07289 0.34780
#
# Static dielectric constant tensor:
#      x y z
#    x 1.963250 -0.067970 0.124800 
#    y -0.067970 2.056430 -0.268980 
#    z 0.124800 -0.268980 2.242880 
# 
# From -- ./inp_files/571768.got.cif
#   From: 2010.05.17/outbox.cif.g08.bks.cpg/sg2_286_cif.got.tgz:571768.got - 2010.06.03 11:33:40.
