data_PCOD9028129
_publ_section_title
;
Structure prediction by ZEFSAII (Michael W. Deem and Ramdas Pophale) SiO2 
 PCOD9028129
Probable space group: P -1
;
_chemical_formula_sum "Si O2"
_cell_formula_units_Z 14
_cell_length_a 5.604016
_cell_length_b 15.864592
_cell_length_c 8.260277
_cell_angle_alpha 85.793252
_cell_angle_beta 123.113270
_cell_angle_gamma 93.324771
_cell_volume 613.315451
_symmetry_space_group_name_H-M "P -1"
_symmetry_group_IT_number 2
_symmetry_cell_setting 'triclinic'
loop_
_space_group_symop_operation_xyz
x,y,z
-x,-y,-z
loop_
_atom_site_type_symbol
_atom_site_label
_atom_site_fract_x
_atom_site_fract_y
_atom_site_fract_z
Si Si1 0.824084 0.529791 0.150051
Si Si2 0.339417 0.819559 0.328591
Si Si3 0.831842 0.343290 0.542853
Si Si4 0.772925 0.072383 0.422921
Si Si5 0.022512 0.223278 0.339732
Si Si6 0.815055 0.620952 0.798361
Si Si7 0.321475 0.972705 0.098738
O O1 0.928318 0.587578 0.329516
O O2 0.017593 0.447390 0.235688
O O3 0.500000 0.500000 0.000000
O O4 0.876568 0.588102 0.004433
O O5 0.215980 0.724879 0.319438
O O6 0.195541 0.877216 0.405266
O O7 0.328499 0.872513 0.152689
O O8 0.669175 0.812542 0.500561
O O9 0.932578 0.287813 0.437734
O O10 0.519873 0.379044 0.375800
O O11 0.812150 0.143269 0.287315
O O12 0.478398 0.023678 0.294925
O O13 0.000000 0.000000 0.500000
O O14 0.062231 0.284136 0.193066
O O15 0.500000 0.000000 0.000000
O O16 0.000000 0.000000 0.000000
#
# Coordination Sequence:
#
# PCOD9028129 Si02
#       7
#     2   2   2   2   2   2   2
#     4  11  24  42  68  99 137 172 225 282 347 417
#     4  10  23  44  66  94 131 183 232 275 348 417
#     4  10  23  44  68  95 136 179 225 283 345 418
#     4  11  22  43  74  92 132 185 234 279 339 423
#     4  10  22  41  71  95 128 178 236 276 339 412
#     4  10  23  43  66 101 130 176 228 275 351 411
#     4  12  27  42  65 105 140 178 231 298 355 408
#
# _framework density 22.826751999999999
#
# number of rings (size 3 to 8) (size 9 to 14) (size 15 to 20)
#    0.000    1.429    1.429    2.571    4.000    8.000 
#    7.714    0.000    0.000    0.000    0.000    0.000 
#    0.000    0.000    0.000    0.000    0.000    0.000 
#
# Total GULP energy -78203.400683 kJ/mol
# GULP energy per Si atom -5585.957192 kJ/mol
# Density = 2.277480 g / cm^3
# Si number density = 22.826752 Si / 1000 Ang^3
#
#
#
# Elastic Constant Matrix: (Units=GPa)
#
#
# Indices 1 2 3 4 5 6 
#
# 1 85.5402 37.4952 26.3798 -12.4635 11.2807 -8.6017
# 2 37.4952 121.7356 54.1904 -20.0137 14.7995 -0.5958
# 3 26.3798 54.1904 68.7817 -6.1172 6.4932 -0.8183
# 4 -12.4635 -20.0137 -6.1172 53.6635 16.5679 -3.6911
# 5 11.2807 14.7995 6.4932 16.5679 37.6832 -13.1828
# 6 -8.6017 -0.5958 -0.8183 -3.6911 -13.1828 48.5605
#
#
#
# Elastic Compliance Matrix: (Units=1/GPa)
#
#
# Indices 1 2 3 4 5 6 
#
# 1 0.014856 -0.001914 -0.003445 0.003742 -0.004150 0.001708
# 2 -0.001914 0.015064 -0.009966 0.006045 -0.006890 -0.001733
# 3 -0.003445 -0.009966 0.023299 -0.002487 0.002032 0.000023
# 4 0.003742 0.006045 -0.002487 0.026006 -0.014989 -0.001397
# 5 -0.004150 -0.006890 0.002032 -0.014989 0.039835 0.008889
# 6 0.001708 -0.001733 0.000023 -0.001397 0.008889 0.023182
#
#
# Mechanical properties :
#
#
# Convention : Reuss Voigt Hill
#
# Bulk Modulus (GPa) = 44.30982 56.90981 50.60981
# Shear Modulus (GPa) = 27.71380 38.51424 33.11402
#
# Velocity S-wave (km/s) = 3.48816 4.11206 3.81289
# Velocity P-wave (km/s) = 5.97298 6.89425 6.45009
#
# Compressibility (1/GPa) = 0.02256836
#
# Stress axis : x y z
#
# Youngs Moduli (GPa) = 67.31244 66.38496 42.91963
#
# Poissons Ratio (x) = 0.12707 0.14784
# Poissons Ratio (y) = 0.12885 0.42776
# Poissons Ratio (z) = 0.23187 0.66162
#
# Static dielectric constant tensor:
#      x y z
#    x 2.241010 0.141680 -0.005780 
#    y 0.141680 1.866460 0.011770 
#    z -0.005780 0.011770 1.833320 
# 
# From -- ./inp_files/38302.got.cif
#   From: 2010.05.17/outbox.cif.g08.bks.cpg/sg2_20_cif.got.tgz:38302.got - 2010.06.03 11:33:40.
