data_PCOD9028860
_publ_section_title
;
Structure prediction by ZEFSAII (Michael W. Deem and Ramdas Pophale) SiO2 
 PCOD9028860
Probable space group: P -1
;
_chemical_formula_sum "Si O2"
_cell_formula_units_Z 14
_cell_length_a 10.793383
_cell_length_b 16.034905
_cell_length_c 14.121914
_cell_angle_alpha 28.684934
_cell_angle_beta 150.340265
_cell_angle_gamma 135.027721
_cell_volume 564.819555
_symmetry_space_group_name_H-M "P -1"
_symmetry_group_IT_number 2
_symmetry_cell_setting 'triclinic'
loop_
_space_group_symop_operation_xyz
x,y,z
-x,-y,-z
loop_
_atom_site_type_symbol
_atom_site_label
_atom_site_fract_x
_atom_site_fract_y
_atom_site_fract_z
Si Si1 0.391932 0.701714 0.598723
Si Si2 0.842727 0.223368 0.162025
Si Si3 0.379226 0.079921 0.741024
Si Si4 0.813975 0.923608 0.647150
Si Si5 0.010845 0.287963 0.841935
Si Si6 0.542503 0.439213 0.480224
Si Si7 0.584884 0.315720 0.151605
O O1 0.562304 0.843623 0.552283
O O2 0.155750 0.735114 0.336963
O O3 0.309821 0.701936 0.653553
O O4 0.582504 0.504359 0.914535
O O5 0.725020 0.135949 0.373101
O O6 0.080914 0.185205 0.429963
O O7 0.983156 0.169108 0.206082
O O8 0.684634 0.423566 0.858908
O O9 0.358470 0.906568 0.838227
O O10 0.520758 0.235506 0.653163
O O11 0.500000 0.000000 0.000000
O O12 0.920007 0.868654 0.877986
O O13 0.820599 0.446101 0.617031
O O14 0.281289 0.320753 0.955724
O O15 0.500000 0.500000 0.500000
#
# Coordination Sequence:
#
# PCOD9028860 Si02
#       7
#     2   2   2   2   2   2   2
#     4  10  22  42  65  92 125 168 208 260 322 370
#     4  11  25  43  64  97 133 170 213 267 320 383
#     4  11  23  43  66  94 131 171 220 263 319 383
#     4  11  23  42  65  94 128 162 212 264 315 379
#     4  11  22  42  67  91 127 168 214 258 314 382
#     4  12  23  44  66  94 134 172 212 263 322 382
#     4  10  24  43  62  95 128 160 215 264 314 376
#
# _framework density 24.786678999999999
#
# number of rings (size 3 to 8) (size 9 to 14) (size 15 to 20)
#    0.000    1.143    2.857    3.429    0.000    5.714 
#    2.571    1.429    0.000    0.000    0.000    0.000 
#    0.000    0.000    0.000    0.000    0.000    0.000 
#
# Total GULP energy -78303.130298 kJ/mol
# GULP energy per Si atom -5593.080736 kJ/mol
# Density = 2.473026 g / cm^3
# Si number density = 24.786679 Si / 1000 Ang^3
#
#
#
# Elastic Constant Matrix: (Units=GPa)
#
#
# Indices 1 2 3 4 5 6 
#
# 1 88.3809 31.3018 6.0068 11.3043 0.9010 -27.1001
# 2 31.3018 93.2484 25.8411 14.3864 -15.9042 -9.9139
# 3 6.0068 25.8411 116.7388 16.1413 -14.3653 -20.1465
# 4 11.3043 14.3864 16.1413 58.5786 -6.9774 -15.6984
# 5 0.9010 -15.9042 -14.3653 -6.9774 30.3095 5.7784
# 6 -27.1001 -9.9139 -20.1465 -15.6984 5.7784 34.8917
#
#
#
# Elastic Compliance Matrix: (Units=1/GPa)
#
#
# Indices 1 2 3 4 5 6 
#
# 1 0.017699 -0.006009 0.002175 0.000719 -0.005245 0.014487
# 2 -0.006009 0.014482 -0.002464 -0.001967 0.006921 -0.004006
# 3 0.002175 -0.002464 0.010469 -0.000737 0.002227 0.006333
# 4 0.000719 -0.001967 -0.000737 0.020042 0.001624 0.008322
# 5 -0.005245 0.006921 0.002227 0.001624 0.039473 -0.006628
# 6 0.014487 -0.004006 0.006333 0.008322 -0.006628 0.047272
#
#
# Mechanical properties :
#
#
# Convention : Reuss Voigt Hill
#
# Bulk Modulus (GPa) = 33.27556 47.18529 40.23042
# Shear Modulus (GPa) = 29.06105 40.43717 34.74911
#
# Velocity S-wave (km/s) = 3.42781 4.04345 3.74829
# Velocity P-wave (km/s) = 5.39634 6.39353 5.91598
#
# Compressibility (1/GPa) = 0.03005209
#
# Stress axis : x y z
#
# Youngs Moduli (GPa) = 56.50158 69.05110 95.52394
#
# Poissons Ratio (x) = 0.41493 -0.20774
# Poissons Ratio (y) = 0.33952 0.23540
# Poissons Ratio (z) = -0.12288 0.17016
#
# Static dielectric constant tensor:
#      x y z
#    x 2.109210 0.003640 -0.052800 
#    y 0.003640 1.967770 -0.014000 
#    z -0.052800 -0.014000 1.954780 
# 
# From -- ./inp_files/523215.got.cif
#   From: 2010.05.17/outbox.cif.g08.bks.cpg/sg2_262_cif.got.tgz:523215.got - 2010.06.03 11:33:40.
