data_PCOD9028919
_publ_section_title
;
Structure prediction by ZEFSAII (Michael W. Deem and Ramdas Pophale) SiO2 
 PCOD9028919
Probable space group: P -1
;
_chemical_formula_sum "Si O2"
_cell_formula_units_Z 16
_cell_length_a 12.199421
_cell_length_b 8.644311
_cell_length_c 17.831441
_cell_angle_alpha 113.351762
_cell_angle_beta 147.941315
_cell_angle_gamma 53.803307
_cell_volume 781.304852
_symmetry_space_group_name_H-M "P -1"
_symmetry_group_IT_number 2
_symmetry_cell_setting 'triclinic'
loop_
_space_group_symop_operation_xyz
x,y,z
-x,-y,-z
loop_
_atom_site_type_symbol
_atom_site_label
_atom_site_fract_x
_atom_site_fract_y
_atom_site_fract_z
Si Si1 0.098338 0.146999 0.174379
Si Si2 0.206962 0.530435 0.660052
Si Si3 0.523609 0.219954 0.445767
Si Si4 0.766784 0.357239 0.722073
Si Si5 0.230662 0.172683 0.857574
Si Si6 0.762191 0.469882 0.148026
Si Si7 0.250832 0.708841 0.134800
Si Si8 0.013556 0.978329 0.592647
O O1 0.349756 0.134816 0.330040
O O2 0.943760 0.254442 0.178721
O O3 0.146992 0.932296 0.144965
O O4 0.933148 0.279999 0.033490
O O5 0.187582 0.509953 0.733339
O O6 0.480863 0.381304 0.761318
O O7 0.150317 0.749150 0.650431
O O8 0.000000 0.500000 0.500000
O O9 0.628445 0.248237 0.590403
O O10 0.361697 0.437002 0.357528
O O11 0.748936 0.086707 0.497187
O O12 0.740090 0.397387 0.802748
O O13 0.042860 0.231285 0.828831
O O14 0.224273 0.367227 0.862462
O O15 0.138313 0.088617 0.722324
O O16 0.500000 0.000000 0.000000
O O17 0.500000 0.500000 0.000000
O O18 0.000000 0.000000 0.500000
#
# Coordination Sequence:
#
# PCOD9028919 Si02
#       8
#     2   2   2   2   2   2   2   2
#     4  11  25  44  67  97 133 181 220 273 341 393
#     4  12  26  43  70 104 137 183 225 278 340 395
#     4  10  22  42  65  95 128 177 219 268 336 393
#     4  10  23  42  66  95 135 167 225 274 330 403
#     4  11  25  42  70 101 129 182 224 277 341 398
#     4  12  25  46  70  97 140 175 230 278 335 413
#     4  11  26  43  65  99 137 173 228 278 330 403
#     4  11  24  43  67 101 138 172 227 277 336 403
#
# _framework density 20.478562
#
# number of rings (size 3 to 8) (size 9 to 14) (size 15 to 20)
#    0.000    1.000    2.500    3.000    7.000    2.000 
#    0.000    0.000    0.000    0.000    0.000    0.000 
#    0.000    0.000    0.000    0.000    0.000    0.000 
#
# Total GULP energy -89478.005157 kJ/mol
# GULP energy per Si atom -5592.375322 kJ/mol
# Density = 2.043195 g / cm^3
# Si number density = 20.478562 Si / 1000 Ang^3
#
#
#
# Elastic Constant Matrix: (Units=GPa)
#
#
# Indices 1 2 3 4 5 6 
#
# 1 79.8868 8.1096 38.8409 -0.7394 -2.2367 -28.8769
# 2 8.1096 82.0837 8.4826 -5.6065 16.4332 -17.0058
# 3 38.8409 8.4826 106.1759 0.7915 19.2788 -19.9022
# 4 -0.7394 -5.6065 0.7915 38.9023 0.9608 7.1054
# 5 -2.2367 16.4332 19.2788 0.9608 33.1328 1.8780
# 6 -28.8769 -17.0058 -19.9022 7.1054 1.8780 40.3440
#
#
#
# Elastic Compliance Matrix: (Units=1/GPa)
#
#
# Indices 1 2 3 4 5 6 
#
# 1 0.019457 0.000080 -0.005736 -0.001653 0.004023 0.011234
# 2 0.000080 0.015509 0.001856 0.001009 -0.009236 0.007762
# 3 -0.005736 0.001856 0.013881 -0.000633 -0.009598 0.004083
# 4 -0.001653 0.001009 -0.000633 0.026904 -0.000697 -0.005776
# 5 0.004023 -0.009236 -0.009598 -0.000697 0.041066 -0.007538
# 6 0.011234 0.007762 0.004083 -0.005776 -0.007538 0.039482
#
#
# Mechanical properties :
#
#
# Convention : Reuss Voigt Hill
#
# Bulk Modulus (GPa) = 24.24429 42.11250 33.17839
# Shear Modulus (GPa) = 28.14530 36.65671 32.40100
#
# Velocity S-wave (km/s) = 3.71128 4.23543 3.98199
# Velocity P-wave (km/s) = 5.49813 6.67288 6.11379
#
# Compressibility (1/GPa) = 0.04124682
#
# Stress axis : x y z
#
# Youngs Moduli (GPa) = 51.39584 64.47783 72.03992
#
# Poissons Ratio (x) = -0.00514 0.41324
# Poissons Ratio (y) = -0.00410 -0.13373
# Poissons Ratio (z) = 0.29482 -0.11970
#
# Static dielectric constant tensor:
#      x y z
#    x 1.702540 0.007640 -0.009880 
#    y 0.007640 1.727220 0.018120 
#    z -0.009880 0.018120 1.598750 
# 
# From -- ./inp_files/263159.got.cif
#   From: 2010.05.17/outbox.cif.g08.bks.cpg/sg2_132_cif.got.tgz:263159.got - 2010.06.03 11:33:40.
