data_PCOD9028654
_publ_section_title
;
Structure prediction by ZEFSAII (Michael W. Deem and Ramdas Pophale) SiO2 
 PCOD9028654
Probable space group: P -1
;
_chemical_formula_sum "Si O2"
_cell_formula_units_Z 12
_cell_length_a 17.569273
_cell_length_b 9.979186
_cell_length_c 6.853086
_cell_angle_alpha 133.692040
_cell_angle_beta 124.083806
_cell_angle_gamma 45.953963
_cell_volume 616.994951
_symmetry_space_group_name_H-M "P -1"
_symmetry_group_IT_number 2
_symmetry_cell_setting 'triclinic'
loop_
_space_group_symop_operation_xyz
x,y,z
-x,-y,-z
loop_
_atom_site_type_symbol
_atom_site_label
_atom_site_fract_x
_atom_site_fract_y
_atom_site_fract_z
Si Si1 0.406463 0.693150 0.184689
Si Si2 0.963689 0.246534 0.161595
Si Si3 0.447194 0.216515 0.268472
Si Si4 0.683801 0.837515 0.636211
Si Si5 0.928931 0.573937 0.778975
Si Si6 0.717496 0.512277 0.017584
O O1 0.464501 0.724932 0.486275
O O2 0.352848 0.916190 0.212866
O O3 0.500000 0.500000 0.000000
O O4 0.321386 0.628296 0.062624
O O5 0.956408 0.367908 0.476092
O O6 0.844231 0.374868 0.029780
O O7 0.041603 0.278945 0.163348
O O8 0.000000 0.000000 0.000000
O O9 0.400025 0.176831 0.358077
O O10 0.351160 0.401227 0.189922
O O11 0.500000 0.000000 0.000000
O O12 0.801986 0.707854 0.769655
O O13 0.691923 0.715579 0.322840
O O14 0.000000 0.500000 0.000000
#
# Coordination Sequence:
#
# PCOD9028654 Si02
#       6
#     2   2   2   2   2   2
#     4  12  23  41  63  89 126 162 202 249 301 357
#     4  10  22  42  64  91 123 155 203 257 299 357
#     4  12  23  41  65  89 124 163 204 248 297 362
#     4  11  23  42  62  90 127 160 199 254 305 354
#     4  10  22  42  65  89 122 161 200 250 308 361
#     4  11  23  41  63  91 124 162 201 249 305 359
#
# _framework density 19.449104999999999
#
# number of rings (size 3 to 8) (size 9 to 14) (size 15 to 20)
#    0.000    1.000    3.333    4.000    0.000    0.667 
#    6.000    0.000    0.000    0.000    0.000    0.000 
#    0.000    0.000    0.000    0.000    0.000    0.000 
#
# Total GULP energy -67124.644180 kJ/mol
# GULP energy per Si atom -5593.720348 kJ/mol
# Density = 1.940484 g / cm^3
# Si number density = 19.449105 Si / 1000 Ang^3
#
#
#
# Elastic Constant Matrix: (Units=GPa)
#
#
# Indices 1 2 3 4 5 6 
#
# 1 53.1837 -6.6616 -10.2516 16.5824 12.2058 -3.9278
# 2 -6.6616 96.3402 29.8736 8.2550 3.8634 8.1596
# 3 -10.2516 29.8736 70.9945 4.3756 14.3777 -8.8609
# 4 16.5824 8.2550 4.3756 44.1094 -0.5378 10.7718
# 5 12.2058 3.8634 14.3777 -0.5378 27.6259 1.0799
# 6 -3.9278 8.1596 -8.8609 10.7718 1.0799 30.5423
#
#
#
# Elastic Compliance Matrix: (Units=1/GPa)
#
#
# Indices 1 2 3 4 5 6 
#
# 1 0.032422 -0.000409 0.012075 -0.017133 -0.021456 0.014583
# 2 -0.000409 0.012752 -0.006469 -0.000270 0.001967 -0.005311
# 3 0.012075 -0.006469 0.024573 -0.009501 -0.017967 0.014396
# 4 -0.017133 -0.000270 -0.009501 0.034565 0.013912 -0.017570
# 5 -0.021456 0.001967 -0.017967 0.013912 0.055625 -0.015371
# 6 0.014583 -0.005311 0.014396 -0.017570 -0.015371 0.046953
#
#
# Mechanical properties :
#
#
# Convention : Reuss Voigt Hill
#
# Bulk Modulus (GPa) = 12.47812 27.38212 19.93012
# Shear Modulus (GPa) = 22.40051 34.29271 28.34661
#
# Velocity S-wave (km/s) = 3.39743 4.20361 3.82183
# Velocity P-wave (km/s) = 4.67116 6.13757 5.45388
#
# Compressibility (1/GPa) = 0.08014031
#
# Stress axis : x y z
#
# Youngs Moduli (GPa) = 30.84292 78.42101 40.69589
#
# Poissons Ratio (x) = 0.03208 -0.49142
# Poissons Ratio (y) = 0.01262 0.26327
# Poissons Ratio (z) = -0.37244 0.50733
#
# Static dielectric constant tensor:
#      x y z
#    x 1.658220 -0.006930 0.007250 
#    y -0.006930 1.659970 -0.006970 
#    z 0.007250 -0.006970 1.667270 
# 
# From -- ./inp_files/3277.got.cif
#   From: 2010.05.17/outbox.cif.g08.bks.cpg/sg2_2_cif.got.tgz:3277.got - 2010.06.03 11:33:40.
