data_PCOD9028264
_publ_section_title
;
Structure prediction by ZEFSAII (Michael W. Deem and Ramdas Pophale) SiO2 
 PCOD9028264
Probable space group: P -1
;
_chemical_formula_sum "Si O2"
_cell_formula_units_Z 16
_cell_length_a 8.441614
_cell_length_b 22.111412
_cell_length_c 12.372660
_cell_angle_alpha 20.193674
_cell_angle_beta 69.635849
_cell_angle_gamma 68.773862
_cell_volume 742.879113
_symmetry_space_group_name_H-M "P -1"
_symmetry_group_IT_number 2
_symmetry_cell_setting 'triclinic'
loop_
_space_group_symop_operation_xyz
x,y,z
-x,-y,-z
loop_
_atom_site_type_symbol
_atom_site_label
_atom_site_fract_x
_atom_site_fract_y
_atom_site_fract_z
Si Si1 0.607001 0.808023 0.801042
Si Si2 0.727731 0.704513 0.177026
Si Si3 0.188854 0.060361 0.833223
Si Si4 0.572644 0.669990 0.647525
Si Si5 0.631502 0.447885 0.802971
Si Si6 0.269003 0.966880 0.211776
Si Si7 0.069086 0.808321 0.854625
Si Si8 0.874114 0.971778 0.335144
O O1 0.786189 0.831608 0.662239
O O2 0.500000 0.000000 0.500000
O O3 0.617544 0.754454 0.013490
O O4 0.522823 0.663448 0.995740
O O5 0.687808 0.531368 0.538093
O O6 0.917656 0.692472 0.105191
O O7 0.718392 0.863678 0.999346
O O8 0.248530 0.258968 0.479188
O O9 0.219944 0.993737 0.814919
O O10 0.282859 0.995899 0.030185
O O11 0.000000 0.000000 0.000000
O O12 0.591878 0.610927 0.618136
O O13 0.423388 0.825157 0.443975
O O14 0.500000 0.500000 0.000000
O O15 0.781589 0.306612 0.049986
O O16 0.075797 0.918654 0.357492
O O17 0.140439 0.856741 0.873443
O O18 0.000000 0.000000 0.500000
#
# Coordination Sequence:
#
# PCOD9028264 Si02
#       8
#     2   2   2   2   2   2   2   2
#     4  12  24  42  67 103 137 180 224 285 348 402
#     4  11  24  43  69  98 137 175 231 278 338 412
#     4  10  22  47  71  98 134 182 233 273 340 410
#     4  12  27  42  70 103 138 181 230 288 332 406
#     4  12  26  43  65 104 139 171 230 285 343 401
#     4  10  24  45  72  95 133 190 225 269 349 408
#     4  11  22  44  71  97 128 180 221 279 344 409
#     4  10  22  41  73  96 127 177 229 272 331 411
#
# _framework density 21.537825000000002
#
# number of rings (size 3 to 8) (size 9 to 14) (size 15 to 20)
#    0.000    1.000    3.750    1.875    7.000    0.000 
#    2.250    6.875    0.000    0.000    0.000    0.000 
#    0.000    0.000    0.000    0.000    0.000    0.000 
#
# Total GULP energy -89238.509014 kJ/mol
# GULP energy per Si atom -5577.406813 kJ/mol
# Density = 2.148880 g / cm^3
# Si number density = 21.537825 Si / 1000 Ang^3
#
#
#
# Elastic Constant Matrix: (Units=GPa)
#
#
# Indices 1 2 3 4 5 6 
#
# 1 76.8062 26.4976 40.6730 -14.6586 -19.8788 -3.8727
# 2 26.4976 84.0132 15.9204 3.8125 1.0335 7.8290
# 3 40.6730 15.9204 87.5622 11.9357 -20.4516 -15.9379
# 4 -14.6586 3.8125 11.9357 36.4912 4.5392 -7.0366
# 5 -19.8788 1.0335 -20.4516 4.5392 39.8216 6.0771
# 6 -3.8727 7.8290 -15.9379 -7.0366 6.0771 38.2611
#
#
#
# Elastic Compliance Matrix: (Units=1/GPa)
#
#
# Indices 1 2 3 4 5 6 
#
# 1 0.025242 -0.006684 -0.010959 0.013958 0.005392 0.001068
# 2 -0.006684 0.014716 -0.000357 -0.004585 -0.002731 -0.004246
# 3 -0.010959 -0.000357 0.020126 -0.010751 0.005412 0.004511
# 4 0.013958 -0.004585 -0.010751 0.038532 -0.003673 0.005542
# 5 0.005392 -0.002731 0.005412 -0.003673 0.031425 -0.002308
# 6 0.001068 -0.004246 0.004511 0.005542 -0.002308 0.030378
#
#
# Mechanical properties :
#
#
# Convention : Reuss Voigt Hill
#
# Bulk Modulus (GPa) = 41.51790 46.06263 43.79027
# Shear Modulus (GPa) = 24.45631 33.93416 29.19524
#
# Velocity S-wave (km/s) = 3.37338 3.97364 3.68575
# Velocity P-wave (km/s) = 5.87295 6.51816 6.20395
#
# Compressibility (1/GPa) = 0.02408599
#
# Stress axis : x y z
#
# Youngs Moduli (GPa) = 39.61621 67.95383 49.68624
#
# Poissons Ratio (x) = 0.45420 0.54449
# Poissons Ratio (y) = 0.26479 0.01772
# Poissons Ratio (z) = 0.43414 0.02423
#
# Static dielectric constant tensor:
#      x y z
#    x 1.835940 -0.008340 -0.005460 
#    y -0.008340 1.819750 0.057670 
#    z -0.005460 0.057670 1.786160 
# 
# From -- ./inp_files/405201.got.cif
#   From: 2010.05.17/outbox.cif.g08.bks.cpg/sg2_203_cif.got.tgz:405201.got - 2010.06.03 11:33:40.
