data_PCOD9028613
_publ_section_title
;
Structure prediction by ZEFSAII (Michael W. Deem and Ramdas Pophale) SiO2 
 PCOD9028613
Probable space group: P -1
;
_chemical_formula_sum "Si O2"
_cell_formula_units_Z 15
_cell_length_a 15.837604
_cell_length_b 12.131359
_cell_length_c 10.306419
_cell_angle_alpha 48.411404
_cell_angle_beta 50.132846
_cell_angle_gamma 24.558864
_cell_volume 611.120150
_symmetry_space_group_name_H-M "P -1"
_symmetry_group_IT_number 2
_symmetry_cell_setting 'triclinic'
loop_
_space_group_symop_operation_xyz
x,y,z
-x,-y,-z
loop_
_atom_site_type_symbol
_atom_site_label
_atom_site_fract_x
_atom_site_fract_y
_atom_site_fract_z
Si Si1 0.264159 0.968182 0.649015
Si Si2 0.853329 0.746359 0.847453
Si Si3 0.539936 0.151428 0.043409
Si Si4 0.500000 0.500000 0.000000
Si Si5 0.083127 0.577223 0.159991
Si Si6 0.174199 0.905811 0.146355
Si Si7 0.596354 0.820225 0.420048
Si Si8 0.990850 0.180913 0.522765
O O1 0.417749 0.912849 0.475540
O O2 0.404971 0.721742 0.804778
O O3 0.077910 0.246949 0.700937
O O4 0.159018 0.994062 0.617586
O O5 0.872047 0.628428 0.792463
O O6 0.922333 0.833751 0.677120
O O7 0.000000 0.500000 0.000000
O O8 0.627001 0.020075 0.917324
O O9 0.304137 0.395384 0.111877
O O10 0.645918 0.903528 0.216118
O O11 0.614121 0.233248 0.945058
O O12 0.259999 0.709726 0.099081
O O13 0.986772 0.793919 0.976656
O O14 0.095787 0.886081 0.347926
O O15 0.798562 0.500823 0.497214
O O16 0.500000 0.000000 0.500000
#
# Coordination Sequence:
#
# PCOD9028613 Si02
#       8
#     2   2   2   1   2   2   2   2
#     4  11  25  43  72 109 143 178 234 291 356 428
#     4  12  24  50  71 100 140 193 242 289 348 417
#     4  12  26  45  73  98 147 187 240 292 349 419
#     4  10  22  42  64 100 146 176 218 280 358 416
#     4  11  25  45  71 104 139 188 233 293 362 413
#     4  11  25  43  67 108 140 186 229 289 361 421
#     4  12  23  42  69 104 141 184 231 291 350 418
#     4  12  26  44  72 105 144 184 237 292 351 421
#
# _framework density 24.545093000000001
#
# number of rings (size 3 to 8) (size 9 to 14) (size 15 to 20)
#    0.000    0.533    4.000    4.400    3.733    3.200 
#    0.000    0.667    0.000    0.000    0.000    0.000 
#    0.000    0.000    0.000    0.000    0.000    0.000 
#
# Total GULP energy -83711.870107 kJ/mol
# GULP energy per Si atom -5580.791340 kJ/mol
# Density = 2.448923 g / cm^3
# Si number density = 24.545093 Si / 1000 Ang^3
#
#
#
# Elastic Constant Matrix: (Units=GPa)
#
#
# Indices 1 2 3 4 5 6 
#
# 1 88.6108 25.6483 30.3120 -5.5397 -24.6608 -3.0717
# 2 25.6483 90.2831 14.3632 -10.2469 -6.9224 -4.9238
# 3 30.3120 14.3632 158.0850 -0.5651 -25.1447 -0.3026
# 4 -5.5397 -10.2469 -0.5651 42.2829 -3.9081 -0.1569
# 5 -24.6608 -6.9224 -25.1447 -3.9081 35.6607 4.9065
# 6 -3.0717 -4.9238 -0.3026 -0.1569 4.9065 35.3741
#
#
#
# Elastic Compliance Matrix: (Units=1/GPa)
#
#
# Indices 1 2 3 4 5 6 
#
# 1 0.015368 -0.003245 -0.001137 0.002087 0.009485 -0.000433
# 2 -0.003245 0.012444 -0.000514 0.002579 -0.000111 0.001473
# 3 -0.001137 -0.000514 0.007286 0.000226 0.004374 -0.000714
# 4 0.002087 0.002579 0.000226 0.024999 0.004845 -0.000019
# 5 0.009485 -0.000111 0.004374 0.004845 0.038816 -0.004517
# 6 -0.000433 0.001473 -0.000714 -0.000019 -0.004517 0.029057
#
#
# Mechanical properties :
#
#
# Convention : Reuss Voigt Hill
#
# Bulk Modulus (GPa) = 39.51399 53.06952 46.29176
# Shear Modulus (GPa) = 34.20017 40.44057 37.32037
#
# Velocity S-wave (km/s) = 3.73682 4.06347 3.90357
# Velocity P-wave (km/s) = 5.89508 6.60938 6.26242
#
# Compressibility (1/GPa) = 0.02530749
#
# Stress axis : x y z
#
# Youngs Moduli (GPa) = 65.06828 80.35760 137.25770
#
# Poissons Ratio (x) = 0.26073 0.15603
# Poissons Ratio (y) = 0.21112 0.07056
# Poissons Ratio (z) = 0.07397 0.04131
#
# Static dielectric constant tensor:
#      x y z
#    x 1.779990 -0.275250 -0.014070 
#    y -0.275250 1.714150 0.046740 
#    z -0.014070 0.046740 2.033750 
# 
# From -- ./inp_files/465780.got.cif
#   From: 2010.05.17/outbox.cif.g08.bks.cpg/sg2_233_cif.got.tgz:465780.got - 2010.06.03 11:33:40.
