data_PCOD9028404
_publ_section_title
;
Structure prediction by ZEFSAII (Michael W. Deem and Ramdas Pophale) SiO2 
 PCOD9028404
Probable space group: P -1
;
_chemical_formula_sum "Si O2"
_cell_formula_units_Z 16
_cell_length_a 10.166044
_cell_length_b 13.741458
_cell_length_c 12.823656
_cell_angle_alpha 146.615419
_cell_angle_beta 122.774688
_cell_angle_gamma 71.779741
_cell_volume 790.330290
_symmetry_space_group_name_H-M "P -1"
_symmetry_group_IT_number 2
_symmetry_cell_setting 'triclinic'
loop_
_space_group_symop_operation_xyz
x,y,z
-x,-y,-z
loop_
_atom_site_type_symbol
_atom_site_label
_atom_site_fract_x
_atom_site_fract_y
_atom_site_fract_z
Si Si1 0.411055 0.154804 0.798130
Si Si2 0.801082 0.617600 0.992130
Si Si3 0.048330 0.584853 0.482458
Si Si4 0.672692 0.477504 0.592287
Si Si5 0.770138 0.302156 0.015120
Si Si6 0.178380 0.772013 0.264933
Si Si7 0.502027 0.932738 0.822940
Si Si8 0.149931 0.931974 0.967542
O O1 0.575488 0.263183 0.903770
O O2 0.302091 0.966795 0.528228
O O3 0.467860 0.084670 0.868460
O O4 0.306231 0.289824 0.901237
O O5 0.745222 0.606678 0.837340
O O6 0.779343 0.408465 0.834129
O O7 0.991036 0.737851 0.188978
O O8 0.190977 0.511584 0.428413
O O9 0.000000 0.500000 0.500000
O O10 0.108078 0.801603 0.730028
O O11 0.887696 0.509930 0.274622
O O12 0.500000 0.500000 0.500000
O O13 0.630385 0.265158 0.422891
O O14 0.816355 0.239879 0.868144
O O15 0.812773 0.181452 0.019063
O O16 0.679699 0.915539 0.851526
O O17 0.500000 0.000000 0.000000
O O18 0.000000 0.000000 0.000000
#
# Coordination Sequence:
#
# PCOD9028404 Si02
#       8
#     2   2   2   2   2   2   2   2
#     4  11  24  44  65  95 130 170 218 273 325 382
#     4  11  25  42  70  96 127 172 217 270 327 386
#     4  10  22  42  61  91 131 171 207 268 322 387
#     4  12  24  40  69  97 130 174 217 270 333 386
#     4  10  23  42  66  88 132 172 213 269 319 388
#     4  11  23  47  65  95 132 167 225 265 321 391
#     4  11  22  39  62  95 130 165 216 272 321 389
#     4  10  23  39  61  95 130 171 213 261 330 390
#
# _framework density 20.244700000000002
#
# number of rings (size 3 to 8) (size 9 to 14) (size 15 to 20)
#    0.000    1.250    3.750    1.500    7.000    1.500 
#    2.250    0.000    0.000    0.000    0.000    0.000 
#    0.000    0.000    0.000    0.000    0.000    0.000 
#
# Total GULP energy -89354.563298 kJ/mol
# GULP energy per Si atom -5584.660206 kJ/mol
# Density = 2.019862 g / cm^3
# Si number density = 20.244700 Si / 1000 Ang^3
#
#
#
# Elastic Constant Matrix: (Units=GPa)
#
#
# Indices 1 2 3 4 5 6 
#
# 1 159.4940 18.1922 52.6190 8.5316 4.3787 -14.4702
# 2 18.1922 23.4941 9.9037 -6.1661 4.1171 -7.3987
# 3 52.6190 9.9037 108.8777 -18.0828 5.4947 -8.0981
# 4 8.5316 -6.1661 -18.0828 20.7102 1.9858 -3.5806
# 5 4.3787 4.1171 5.4947 1.9858 29.2308 0.7126
# 6 -14.4702 -7.3987 -8.0981 -3.5806 0.7126 31.9198
#
#
#
# Elastic Compliance Matrix: (Units=1/GPa)
#
#
# Indices 1 2 3 4 5 6 
#
# 1 0.009850 -0.008738 -0.006132 -0.012273 0.001755 -0.000532
# 2 -0.008738 0.061780 0.005332 0.030342 -0.010831 0.015357
# 3 -0.006132 0.005332 0.015303 0.018648 -0.004086 0.004521
# 4 -0.012273 0.030342 0.018648 0.082520 -0.011930 0.015723
# 5 0.001755 -0.010831 -0.004086 -0.011930 0.037172 -0.004920
# 6 -0.000532 0.015357 0.004521 0.015723 -0.004920 0.037668
#
#
# Mechanical properties :
#
#
# Convention : Reuss Voigt Hill
#
# Bulk Modulus (GPa) = 14.73717 50.36618 32.55167
# Shear Modulus (GPa) = 17.48331 30.44888 23.96610
#
# Velocity S-wave (km/s) = 2.94189 3.88241 3.44440
# Velocity P-wave (km/s) = 4.33993 6.71045 5.65089
#
# Compressibility (1/GPa) = 0.06785565
#
# Stress axis : x y z
#
# Youngs Moduli (GPa) = 101.52731 16.18641 65.34785
#
# Poissons Ratio (x) = 0.14144 0.40070
# Poissons Ratio (y) = 0.88716 -0.34841
# Poissons Ratio (z) = 0.62255 -0.08630
#
# Static dielectric constant tensor:
#      x y z
#    x 1.706870 0.003770 0.045310 
#    y 0.003770 1.725580 0.009200 
#    z 0.045310 0.009200 1.744890 
# 
# From -- ./inp_files/400151.got.cif
#   From: 2010.05.17/outbox.cif.g08.bks.cpg/sg2_201_cif.got.tgz:400151.got - 2010.06.03 11:33:40.
