data_PCOD9028325
_publ_section_title
;
Structure prediction by ZEFSAII (Michael W. Deem and Ramdas Pophale) SiO2 
 PCOD9028325
Probable space group: P -1
;
_chemical_formula_sum "Si O2"
_cell_formula_units_Z 14
_cell_length_a 21.331485
_cell_length_b 9.209185
_cell_length_c 9.446145
_cell_angle_alpha 130.625543
_cell_angle_beta 151.856525
_cell_angle_gamma 50.773864
_cell_volume 655.465120
_symmetry_space_group_name_H-M "P -1"
_symmetry_group_IT_number 2
_symmetry_cell_setting 'triclinic'
loop_
_space_group_symop_operation_xyz
x,y,z
-x,-y,-z
loop_
_atom_site_type_symbol
_atom_site_label
_atom_site_fract_x
_atom_site_fract_y
_atom_site_fract_z
Si Si1 0.314611 0.052142 0.371004
Si Si2 0.388997 0.617668 0.256129
Si Si3 0.926868 0.850384 0.847347
Si Si4 0.846965 0.594308 0.276390
Si Si5 0.624874 0.539244 0.181297
Si Si6 0.091634 0.735087 0.368787
Si Si7 0.152091 0.158804 0.837485
O O1 0.182318 0.038410 0.191943
O O2 0.373989 0.232380 0.664300
O O3 0.401429 0.842279 0.419765
O O4 0.266438 0.106188 0.150115
O O5 0.500000 0.500000 0.500000
O O6 0.245059 0.569184 0.989540
O O7 0.402384 0.533793 0.073524
O O8 0.851826 0.728071 0.509997
O O9 0.028202 0.722204 0.077953
O O10 0.000000 0.000000 0.000000
O O11 0.807548 0.717827 0.134523
O O12 0.000000 0.500000 0.500000
O O13 0.773044 0.421760 0.444779
O O14 0.500000 0.500000 0.000000
O O15 0.979531 0.732868 0.268682
O O16 0.123275 0.953902 0.588187
#
# Coordination Sequence:
#
# PCOD9028325 Si02
#       7
#     2   2   2   2   2   2   2
#     4  11  26  49  72 101 144 189 243 297 358 437
#     4  12  29  52  72 104 149 191 244 303 368 436
#     4  11  22  40  71 109 144 185 231 304 363 423
#     4  12  25  42  72 112 147 186 242 303 367 426
#     4  12  28  47  72 106 143 195 246 293 359 444
#     4  10  22  43  69 109 143 183 243 297 358 431
#     4  10  22  41  77 102 143 190 234 299 367 426
#
# _framework density 21.358879999999999
#
# number of rings (size 3 to 8) (size 9 to 14) (size 15 to 20)
#    0.000    0.857    4.286    1.714    6.000    4.571 
#    0.000    0.000    0.000    0.000    0.000    0.000 
#    0.000    0.000    0.000    0.000    0.000    0.000 
#
# Total GULP energy -78334.308402 kJ/mol
# GULP energy per Si atom -5595.307743 kJ/mol
# Density = 2.131027 g / cm^3
# Si number density = 21.358880 Si / 1000 Ang^3
#
#
#
# Elastic Constant Matrix: (Units=GPa)
#
#
# Indices 1 2 3 4 5 6 
#
# 1 108.4623 57.3149 35.7084 -5.7265 -16.7232 17.1053
# 2 57.3149 169.0079 74.9806 11.1155 -14.1797 0.7226
# 3 35.7084 74.9806 38.4047 -19.3661 1.1757 -8.8170
# 4 -5.7265 11.1155 -19.3661 39.3196 14.6291 1.8304
# 5 -16.7232 -14.1797 1.1757 14.6291 33.5909 -3.8855
# 6 17.1053 0.7226 -8.8170 1.8304 -3.8855 14.8363
#
#
#
# Elastic Compliance Matrix: (Units=1/GPa)
#
#
# Indices 1 2 3 4 5 6 
#
# 1 0.013127 -0.009241 0.008623 0.010698 -0.003697 -0.011848
# 2 -0.009241 0.000004 0.017534 0.009077 -0.007072 0.018102
# 3 0.008623 0.017534 -0.037128 -0.029534 0.023179 -0.023147
# 4 0.010698 0.009077 -0.029534 0.010590 0.001980 -0.031116
# 5 -0.003697 -0.007072 0.023179 0.001980 0.026161 0.024989
# 6 -0.011848 0.018102 -0.023147 -0.031116 0.024989 0.076809
#
#
# Mechanical properties :
#
#
# Convention : Reuss Voigt Hill
#
# Bulk Modulus (GPa) = 101.67184 72.43144 87.05164
# Shear Modulus (GPa) = 84.73319 27.40741 56.07030
#
# Velocity S-wave (km/s) = 6.30534 3.58604 5.12918
# Velocity P-wave (km/s) = 10.03567 7.15063 8.71339
#
# Compressibility (1/GPa) = 0.00983557
#
# Stress axis : x y z
#
# Youngs Moduli (GPa) = 76.17698 253162.72552 -26.93371
#
# Poissons Ratio (x) = 2339.35269 0.23225
# Poissons Ratio (y) = 0.70391 0.47225
# Poissons Ratio (z) = -0.65687 -4438.90125
#
# Static dielectric constant tensor:
#      x y z
#    x 1.765550 -0.012690 -0.020890 
#    y -0.012690 1.780840 0.009860 
#    z -0.020890 0.009860 1.782230 
# 
# From -- ./inp_files/241849.got.cif
#   From: 2010.05.17/outbox.cif.g08.bks.cpg/sg2_121_cif.got.tgz:241849.got - 2010.06.03 11:33:40.
