data_PCOD9028000
_publ_section_title
;
Structure prediction by ZEFSAII (Michael W. Deem and Ramdas Pophale) SiO2 
 PCOD9028000
Probable space group: P -1
;
_chemical_formula_sum "Si O2"
_cell_formula_units_Z 16
_cell_length_a 9.652977
_cell_length_b 9.780974
_cell_length_c 20.451470
_cell_angle_alpha 59.132059
_cell_angle_beta 27.320715
_cell_angle_gamma 58.173712
_cell_volume 748.069725
_symmetry_space_group_name_H-M "P -1"
_symmetry_group_IT_number 2
_symmetry_cell_setting 'triclinic'
loop_
_space_group_symop_operation_xyz
x,y,z
-x,-y,-z
loop_
_atom_site_type_symbol
_atom_site_label
_atom_site_fract_x
_atom_site_fract_y
_atom_site_fract_z
Si Si1 0.220840 0.195808 0.500948
Si Si2 0.338839 0.223287 0.289143
Si Si3 0.315826 0.023009 0.892939
Si Si4 0.824341 0.987051 0.902899
Si Si5 0.462869 0.644998 0.283330
Si Si6 0.397675 0.138339 0.575139
Si Si7 0.202219 0.635881 0.869583
Si Si8 0.641122 0.351929 0.522218
O O1 0.323389 0.192655 0.381882
O O2 0.351298 0.251927 0.501883
O O3 0.872283 0.282345 0.621833
O O4 0.312257 0.004899 0.525230
O O5 0.430385 0.068111 0.241771
O O6 0.615833 0.324255 0.151654
O O7 0.011189 0.315583 0.379471
O O8 0.349728 0.209376 0.843893
O O9 0.290322 0.947533 0.993492
O O10 0.000000 0.000000 0.000000
O O11 0.008206 0.801510 0.880889
O O12 0.076425 0.078212 0.741176
O O13 0.500000 0.000000 0.000000
O O14 0.559471 0.467509 0.255623
O O15 0.462253 0.629297 0.364811
O O16 0.502906 0.210774 0.579881
O O17 0.000000 0.500000 0.000000
O O18 0.500000 0.500000 0.500000
#
# Coordination Sequence:
#
# PCOD9028000 Si02
#       8
#     2   2   2   2   2   2   2   2
#     4  10  22  41  70  95 133 179 220 285 338 408
#     4  11  24  44  70  99 134 178 235 274 340 415
#     4  12  21  43  69  97 131 181 229 277 331 408
#     4  12  26  44  71 103 136 183 230 284 335 410
#     4  11  24  40  70  95 136 180 226 277 350 401
#     4  11  23  43  65 102 141 171 234 282 341 407
#     4  12  25  45  68 103 135 179 230 282 334 410
#     4  11  27  41  65 101 139 177 221 292 349 398
#
# _framework density 21.388379
#
# number of rings (size 3 to 8) (size 9 to 14) (size 15 to 20)
#    0.000    0.750    3.750    3.000    3.500    5.000 
#    0.000    0.000    0.000    4.500    0.000    0.000 
#    0.000    0.000    0.000    0.000    0.000    0.000 
#
# Total GULP energy -89171.114592 kJ/mol
# GULP energy per Si atom -5573.194662 kJ/mol
# Density = 2.133970 g / cm^3
# Si number density = 21.388379 Si / 1000 Ang^3
#
#
#
# Elastic Constant Matrix: (Units=GPa)
#
#
# Indices 1 2 3 4 5 6 
#
# 1 169.9499 39.7665 41.2160 21.2811 -5.1306 -5.7892
# 2 39.7665 87.0694 36.4531 19.5169 0.0964 8.7074
# 3 41.2160 36.4531 79.4669 12.4452 -3.0502 -12.6736
# 4 21.2811 19.5169 12.4452 32.6589 -1.0912 -1.0351
# 5 -5.1306 0.0964 -3.0502 -1.0912 38.0813 3.6576
# 6 -5.7892 8.7074 -12.6736 -1.0351 3.6576 40.6938
#
#
#
# Elastic Compliance Matrix: (Units=1/GPa)
#
#
# Indices 1 2 3 4 5 6 
#
# 1 0.007260 -0.001739 -0.002433 -0.002726 0.000660 0.000519
# 2 -0.001739 0.017369 -0.007022 -0.006784 -0.000431 -0.006285
# 3 -0.002433 -0.007022 0.018320 -0.000968 0.000477 0.006795
# 4 -0.002726 -0.006784 -0.000968 0.036887 0.000470 0.001658
# 5 0.000660 -0.000431 0.000477 0.000470 0.026598 -0.002044
# 6 0.000519 -0.006285 0.006795 0.001658 -0.002044 0.028334
#
#
# Mechanical properties :
#
#
# Convention : Reuss Voigt Hill
#
# Bulk Modulus (GPa) = 48.63356 63.48418 56.05887
# Shear Modulus (GPa) = 30.48606 36.89016 33.68811
#
# Velocity S-wave (km/s) = 3.77949 4.15755 3.97302
# Velocity P-wave (km/s) = 6.46790 7.26588 6.87847
#
# Compressibility (1/GPa) = 0.02056193
#
# Stress axis : x y z
#
# Youngs Moduli (GPa) = 137.74332 57.57460 54.58405
#
# Poissons Ratio (x) = 0.10011 0.13279
# Poissons Ratio (y) = 0.23950 0.38329
# Poissons Ratio (z) = 0.33511 0.40429
#
# Static dielectric constant tensor:
#      x y z
#    x 1.889240 0.185260 0.016160 
#    y 0.185260 1.928940 -0.047710 
#    z 0.016160 -0.047710 1.985100 
# 
# From -- ./inp_files/587877.got.cif
#   From: 2010.05.17/outbox.cif.g08.bks.cpg/sg2_294_cif.got.tgz:587877.got - 2010.06.03 11:33:40.
