data_PCOD9028719
_publ_section_title
;
Structure prediction by ZEFSAII (Michael W. Deem and Ramdas Pophale) SiO2 
 PCOD9028719
Probable space group: P -1
;
_chemical_formula_sum "Si O2"
_cell_formula_units_Z 14
_cell_length_a 25.011955
_cell_length_b 9.534498
_cell_length_c 18.824747
_cell_angle_alpha 33.947436
_cell_angle_beta 161.219402
_cell_angle_gamma 154.678568
_cell_volume 606.813585
_symmetry_space_group_name_H-M "P -1"
_symmetry_group_IT_number 2
_symmetry_cell_setting 'triclinic'
loop_
_space_group_symop_operation_xyz
x,y,z
-x,-y,-z
loop_
_atom_site_type_symbol
_atom_site_label
_atom_site_fract_x
_atom_site_fract_y
_atom_site_fract_z
Si Si1 0.629654 0.782541 0.984246
Si Si2 0.277881 0.121166 0.391011
Si Si3 0.636909 0.189800 0.479853
Si Si4 0.778997 0.288856 0.765270
Si Si5 0.199848 0.500457 0.759078
Si Si6 0.455512 0.888136 0.158724
Si Si7 0.807393 0.758151 0.989686
O O1 0.463142 0.702441 0.745134
O O2 0.685428 0.087571 0.972048
O O3 0.500000 0.500000 0.000000
O O4 0.811615 0.775746 0.183426
O O5 0.500000 0.500000 0.500000
O O6 0.335134 0.002069 0.579875
O O7 0.229603 0.880929 0.367351
O O8 0.060177 0.057593 0.160116
O O9 0.768046 0.403763 0.625621
O O10 0.418007 0.821550 0.385634
O O11 0.000000 0.500000 0.000000
O O12 0.714097 0.935443 0.816366
O O13 0.206426 0.425218 0.880481
O O14 0.000000 0.500000 0.500000
O O15 0.430287 0.847318 0.873727
O O16 0.317733 0.518389 0.111993
#
# Coordination Sequence:
#
# PCOD9028719 Si02
#       7
#     2   2   2   2   2   2   2
#     4   9  20  42  71  96 136 179 221 280 344 409
#     4  11  23  41  65  95 135 178 224 280 337 404
#     4  10  22  42  64  95 133 175 227 272 339 405
#     4  11  24  42  66  98 138 182 227 279 338 403
#     4  11  21  44  70 101 135 176 229 285 341 412
#     4  10  23  42  69  96 138 176 221 281 343 403
#     4  12  24  42  67 102 135 179 229 281 342 400
#
# _framework density 23.071335999999999
#
# number of rings (size 3 to 8) (size 9 to 14) (size 15 to 20)
#    0.000    1.429    2.857    2.143    0.000    5.714 
#    0.000    0.714    0.000    0.000    0.000    0.000 
#    0.000    0.000    0.000    0.000    0.000    0.000 
#
# Total GULP energy -78177.838489 kJ/mol
# GULP energy per Si atom -5584.131321 kJ/mol
# Density = 2.301882 g / cm^3
# Si number density = 23.071336 Si / 1000 Ang^3
#
#
#
# Elastic Constant Matrix: (Units=GPa)
#
#
# Indices 1 2 3 4 5 6 
#
# 1 118.8281 21.2960 56.1535 -1.1156 -17.9973 -9.5904
# 2 21.2960 72.5114 24.5906 4.1307 -11.1025 -14.3930
# 3 56.1535 24.5906 94.2175 -6.9657 -10.4078 -5.9963
# 4 -1.1156 4.1307 -6.9657 40.7417 0.0225 0.4671
# 5 -17.9973 -11.1025 -10.4078 0.0225 46.2486 -11.5647
# 6 -9.5904 -14.3930 -5.9963 0.4671 -11.5647 47.7527
#
#
#
# Elastic Compliance Matrix: (Units=1/GPa)
#
#
# Indices 1 2 3 4 5 6 
#
# 1 0.012478 -0.000189 -0.006857 -0.000843 0.003903 0.002542
# 2 -0.000189 0.017086 -0.003642 -0.002429 0.004662 0.005808
# 3 -0.006857 -0.003642 0.015817 0.002892 -0.000121 -0.000546
# 4 -0.000843 -0.002429 0.002892 0.025273 -0.000499 -0.000906
# 5 0.003903 0.004662 -0.000121 -0.000499 0.026375 0.008566
# 6 0.002542 0.005808 -0.000546 -0.000906 0.008566 0.025217
#
#
# Mechanical properties :
#
#
# Convention : Reuss Voigt Hill
#
# Bulk Modulus (GPa) = 41.65738 54.40412 48.03075
# Shear Modulus (GPa) = 32.97620 39.18306 36.07963
#
# Velocity S-wave (km/s) = 3.78473 4.12557 3.95882
# Velocity P-wave (km/s) = 6.09869 6.80630 6.46219
#
# Compressibility (1/GPa) = 0.02400535
#
# Stress axis : x y z
#
# Youngs Moduli (GPa) = 80.14015 58.52574 63.22457
#
# Poissons Ratio (x) = 0.01107 0.43353
# Poissons Ratio (y) = 0.01516 0.23025
# Poissons Ratio (z) = 0.54952 0.21314
#
# Static dielectric constant tensor:
#      x y z
#    x 1.891040 0.013830 -0.023510 
#    y 0.013830 1.902220 -0.019450 
#    z -0.023510 -0.019450 1.845030 
# 
# From -- ./inp_files/37033.got.cif
#   From: 2010.05.17/outbox.cif.g08.bks.cpg/sg2_19_cif.got.tgz:37033.got - 2010.06.03 11:33:40.
