data_PCOD9028256
_publ_section_title
;
Structure prediction by ZEFSAII (Michael W. Deem and Ramdas Pophale) SiO2 
 PCOD9028256
Probable space group: P -1
;
_chemical_formula_sum "Si O2"
_cell_formula_units_Z 14
_cell_length_a 11.699302
_cell_length_b 10.901750
_cell_length_c 5.487968
_cell_angle_alpha 67.393244
_cell_angle_beta 104.552689
_cell_angle_gamma 69.697456
_cell_volume 542.936047
_symmetry_space_group_name_H-M "P -1"
_symmetry_group_IT_number 2
_symmetry_cell_setting 'triclinic'
loop_
_space_group_symop_operation_xyz
x,y,z
-x,-y,-z
loop_
_atom_site_type_symbol
_atom_site_label
_atom_site_fract_x
_atom_site_fract_y
_atom_site_fract_z
Si Si1 0.308236 0.602784 0.443060
Si Si2 0.639002 0.718737 0.441210
Si Si3 0.075374 0.773608 0.485711
Si Si4 0.406939 0.924076 0.471530
Si Si5 0.195760 0.171145 0.852789
Si Si6 0.327554 0.730310 0.854167
Si Si7 0.874847 0.552296 0.074392
O O1 0.327494 0.434079 0.569628
O O2 0.148629 0.734356 0.289298
O O3 0.368293 0.625216 0.711132
O O4 0.358316 0.638720 0.190642
O O5 0.486520 0.805145 0.389149
O O6 0.685897 0.825114 0.244098
O O7 0.735551 0.658428 0.776343
O O8 0.162902 0.826606 0.652285
O O9 0.121936 0.602370 0.734555
O O10 0.914169 0.856604 0.323674
O O11 0.392136 0.837953 0.761708
O O12 0.500000 0.000000 0.500000
O O13 0.262342 0.050091 0.196277
O O14 0.116912 0.343227 0.788741
O O15 0.000000 0.500000 0.000000
#
# Coordination Sequence:
#
# PCOD9028256 Si02
#       7
#     2   2   2   2   2   2   2
#     4  10  22  45  75 113 138 185 240 317 366 411
#     4  12  23  43  73 103 148 188 241 297 358 439
#     4  10  22  41  73 112 139 178 241 310 370 408
#     4  12  29  50  68 100 146 206 243 285 362 451
#     4  12  24  42  70 106 147 190 236 293 363 444
#     4  10  25  47  74 108 144 187 250 301 368 429
#     4  12  21  39  73 110 142 183 239 310 366 412
#
# _framework density 25.785727999999999
#
# number of rings (size 3 to 8) (size 9 to 14) (size 15 to 20)
#    0.857    0.000    5.714    1.714    0.000    4.000 
#    0.000    0.714    0.000    0.000    0.000    0.000 
#    0.000    0.000    0.000    0.000    0.000    0.000 
#
# Total GULP energy -78387.579141 kJ/mol
# GULP energy per Si atom -5599.112796 kJ/mol
# Density = 2.572704 g / cm^3
# Si number density = 25.785728 Si / 1000 Ang^3
#
#
#
# Elastic Constant Matrix: (Units=GPa)
#
#
# Indices 1 2 3 4 5 6 
#
# 1 121.6101 36.8554 34.6962 1.0624 -24.3421 10.4331
# 2 36.8554 76.7440 18.5472 8.9824 -5.1943 16.0856
# 3 34.6962 18.5472 114.6131 6.0469 -24.5455 3.4997
# 4 1.0624 8.9824 6.0469 25.8887 -6.6313 4.3122
# 5 -24.3421 -5.1943 -24.5455 -6.6313 51.7409 5.7655
# 6 10.4331 16.0856 3.4997 4.3122 5.7655 35.1453
#
#
#
# Elastic Compliance Matrix: (Units=1/GPa)
#
#
# Indices 1 2 3 4 5 6 
#
# 1 0.011183 -0.004531 -0.001760 0.003072 0.004611 -0.002204
# 2 -0.004531 0.017175 -0.001187 -0.004799 -0.000956 -0.005652
# 3 -0.001760 -0.001187 0.010347 -0.000848 0.003909 -0.000502
# 4 0.003072 -0.004799 -0.000848 0.042887 0.006613 -0.004978
# 5 0.004611 -0.000956 0.003909 0.006613 0.024793 -0.006199
# 6 -0.002204 -0.005652 -0.000502 -0.004978 -0.006199 0.033372
#
#
# Mechanical properties :
#
#
# Convention : Reuss Voigt Hill
#
# Bulk Modulus (GPa) = 42.10356 54.79607 48.44982
# Shear Modulus (GPa) = 30.74496 37.41288 34.07892
#
# Velocity S-wave (km/s) = 3.45675 3.81322 3.63935
# Velocity P-wave (km/s) = 5.68295 6.37842 6.04070
#
# Compressibility (1/GPa) = 0.02375096
#
# Stress axis : x y z
#
# Youngs Moduli (GPa) = 89.41799 58.22517 96.64767
#
# Poissons Ratio (x) = 0.26382 0.17006
# Poissons Ratio (y) = 0.40515 0.11468
# Poissons Ratio (z) = 0.15733 0.06909
#
# Static dielectric constant tensor:
#      x y z
#    x 2.140580 -0.003380 -0.176090 
#    y -0.003380 2.080160 0.012600 
#    z -0.176090 0.012600 2.565730 
# 
# From -- ./inp_files/68617.got.cif
#   From: 2010.05.17/outbox.cif.g08.bks.cpg/sg2_35_cif.got.tgz:68617.got - 2010.06.03 11:33:40.
