data_PCOD9028981
_publ_section_title
;
Structure prediction by ZEFSAII (Michael W. Deem and Ramdas Pophale) SiO2 
 PCOD9028981
Probable space group: P -1
;
_chemical_formula_sum "Si O2"
_cell_formula_units_Z 14
_cell_length_a 14.485203
_cell_length_b 9.568738
_cell_length_c 5.164247
_cell_angle_alpha 102.523125
_cell_angle_beta 68.094105
_cell_angle_gamma 77.555840
_cell_volume 612.615232
_symmetry_space_group_name_H-M "P -1"
_symmetry_group_IT_number 2
_symmetry_cell_setting 'triclinic'
loop_
_space_group_symop_operation_xyz
x,y,z
-x,-y,-z
loop_
_atom_site_type_symbol
_atom_site_label
_atom_site_fract_x
_atom_site_fract_y
_atom_site_fract_z
Si Si1 0.540267 0.643082 0.457088
Si Si2 0.231149 0.869401 0.183655
Si Si3 0.766030 0.621518 0.016995
Si Si4 0.543633 0.318954 0.939999
Si Si5 0.896152 0.144623 0.192430
Si Si6 0.190044 0.213144 0.456219
Si Si7 0.960904 0.368859 0.875233
O O1 0.500000 0.500000 0.500000
O O2 0.656078 0.601161 0.202685
O O3 0.464338 0.746240 0.361120
O O4 0.530548 0.716500 0.779549
O O5 0.340781 0.742319 0.087232
O O6 0.146981 0.849432 0.471207
O O7 0.239793 0.034303 0.296660
O O8 0.190521 0.865309 0.932957
O O9 0.789129 0.728077 0.260409
O O10 0.769290 0.698460 0.770344
O O11 0.857831 0.459628 0.859328
O O12 0.500000 0.500000 0.000000
O O13 0.927342 0.285804 0.115345
O O14 0.000000 0.000000 0.000000
O O15 0.062513 0.256560 0.579629
O O16 0.000000 0.500000 0.000000
#
# Coordination Sequence:
#
# PCOD9028981 Si02
#       7
#     2   2   2   2   2   2   2
#     4  10  22  42  65  98 131 167 232 292 330 394
#     4  12  26  44  71 100 140 184 227 285 346 405
#     4  11  24  42  71  99 137 187 222 280 349 404
#     4  10  23  41  66  94 135 166 225 293 332 386
#     4  12  26  44  71 104 141 181 231 279 348 417
#     4  11  24  45  65 100 144 181 224 273 346 424
#     4  10  25  43  69 103 144 177 229 277 343 415
#
# _framework density 22.852846
#
# number of rings (size 3 to 8) (size 9 to 14) (size 15 to 20)
#    0.000    1.143    1.429    3.429   10.000    2.286 
#    0.000    4.286    0.000    0.000    0.000    0.000 
#    0.000    0.000    0.000    0.000    0.000    0.000 
#
# Total GULP energy -78287.822795 kJ/mol
# GULP energy per Si atom -5591.987343 kJ/mol
# Density = 2.280083 g / cm^3
# Si number density = 22.852846 Si / 1000 Ang^3
#
#
#
# Elastic Constant Matrix: (Units=GPa)
#
#
# Indices 1 2 3 4 5 6 
#
# 1 81.7405 11.2711 1.9870 3.6299 -11.2844 -22.1168
# 2 11.2711 99.4537 2.5030 2.4040 -7.4768 -8.5676
# 3 1.9870 2.5030 87.2214 -21.5382 -4.2754 -11.0166
# 4 3.6299 2.4040 -21.5382 36.2480 -6.5856 -3.3092
# 5 -11.2844 -7.4768 -4.2754 -6.5856 53.6288 0.1684
# 6 -22.1168 -8.5676 -11.0166 -3.3092 0.1684 36.5948
#
#
#
# Elastic Compliance Matrix: (Units=1/GPa)
#
#
# Indices 1 2 3 4 5 6 
#
# 1 0.015289 -0.000717 0.001200 0.000689 0.003268 0.009481
# 2 -0.000717 0.010407 -0.000027 -0.000225 0.001264 0.001969
# 3 0.001200 -0.000027 0.014703 0.009636 0.002585 0.006005
# 4 0.000689 -0.000225 0.009636 0.034775 0.005132 0.006385
# 5 0.003268 0.001264 0.002585 0.005132 0.020336 0.003420
# 6 0.009481 0.001969 0.006005 0.006385 0.003420 0.035887
#
#
# Mechanical properties :
#
#
# Convention : Reuss Voigt Hill
#
# Bulk Modulus (GPa) = 24.20689 33.32643 28.76666
# Shear Modulus (GPa) = 34.66061 42.13793 38.39927
#
# Velocity S-wave (km/s) = 3.89869 4.29870 4.10357
# Velocity P-wave (km/s) = 5.55715 6.26523 5.92178
#
# Compressibility (1/GPa) = 0.04131055
#
# Stress axis : x y z
#
# Youngs Moduli (GPa) = 65.40476 96.08954 68.01266
#
# Poissons Ratio (x) = 0.06891 -0.08162
# Poissons Ratio (y) = 0.04691 0.00186
# Poissons Ratio (z) = -0.07849 0.00263
#
# Static dielectric constant tensor:
#      x y z
#    x 1.967790 0.032540 0.075920 
#    y 0.032540 1.837360 0.070800 
#    z 0.075920 0.070800 1.960980 
# 
# From -- ./inp_files/90258.got.cif
#   From: 2010.05.17/outbox.cif.g08.bks.cpg/sg2_46_cif.got.tgz:90258.got - 2010.06.03 11:33:40.
