data_PCOD9028605
_publ_section_title
;
Structure prediction by ZEFSAII (Michael W. Deem and Ramdas Pophale) SiO2 
 PCOD9028605
Probable space group: P -1
;
_chemical_formula_sum "Si O2"
_cell_formula_units_Z 16
_cell_length_a 20.267717
_cell_length_b 10.773273
_cell_length_c 8.370241
_cell_angle_alpha 76.648067
_cell_angle_beta 138.932867
_cell_angle_gamma 135.181576
_cell_volume 638.579922
_symmetry_space_group_name_H-M "P -1"
_symmetry_group_IT_number 2
_symmetry_cell_setting 'triclinic'
loop_
_space_group_symop_operation_xyz
x,y,z
-x,-y,-z
loop_
_atom_site_type_symbol
_atom_site_label
_atom_site_fract_x
_atom_site_fract_y
_atom_site_fract_z
Si Si1 0.273901 0.372347 0.256916
Si Si2 0.345708 0.027127 0.602989
Si Si3 0.949688 0.325219 0.257715
Si Si4 0.322684 0.176001 0.232806
Si Si5 0.718505 0.707778 0.352689
Si Si6 0.670156 0.202245 0.631285
Si Si7 0.299641 0.594032 0.654479
Si Si8 0.049992 0.796981 0.372436
O O1 0.251736 0.241999 0.116445
O O2 0.491714 0.630130 0.587370
O O3 0.221096 0.255518 0.364982
O O4 0.149315 0.358495 0.983998
O O5 0.385422 0.191970 0.516829
O O6 0.348574 0.915084 0.516947
O O7 0.155642 0.852744 0.396316
O O8 0.501821 0.176143 0.974573
O O9 0.950705 0.301812 0.454049
O O10 0.150521 0.522363 0.491992
O O11 0.847786 0.344312 0.009774
O O12 0.827109 0.080570 0.029886
O O13 0.755874 0.612697 0.364079
O O14 0.828029 0.949228 0.427574
O O15 0.500000 0.500000 0.000000
O O16 0.500000 0.000000 0.500000
O O17 0.687497 0.353482 0.523828
#
# Coordination Sequence:
#
# PCOD9028605 Si02
#       8
#     2   2   2   2   2   2   2   2
#     4  11  23  38  67 100 145 193 236 284 352 424
#     4  11  24  44  71 101 140 182 236 296 350 423
#     4  11  26  45  70 103 143 188 237 297 346 420
#     4  10  22  42  63  99 144 191 240 284 348 416
#     4  12  24  39  71 106 150 184 231 285 352 427
#     4  11  27  50  76  98 138 188 240 299 354 416
#     4  12  25  46  71 108 141 189 239 287 354 422
#     4  12  24  43  69 108 145 189 233 289 360 415
#
# _framework density 25.055595
#
# number of rings (size 3 to 8) (size 9 to 14) (size 15 to 20)
#    0.000    0.750    2.500    4.125    7.000    4.000 
#    0.000    1.250    0.000    0.000    0.000    0.000 
#    0.000    0.000    0.000    0.000    0.000    0.000 
#
# Total GULP energy -89758.393723 kJ/mol
# GULP energy per Si atom -5609.899608 kJ/mol
# Density = 2.499857 g / cm^3
# Si number density = 25.055595 Si / 1000 Ang^3
#
#
#
# Elastic Constant Matrix: (Units=GPa)
#
#
# Indices 1 2 3 4 5 6 
#
# 1 111.3694 34.6067 28.3420 -12.7310 15.4493 -2.2202
# 2 34.6067 114.5882 27.4736 -17.1610 -1.5878 10.3883
# 3 28.3420 27.4736 108.6006 -21.1687 7.0106 -1.1939
# 4 -12.7310 -17.1610 -21.1687 42.7850 4.0448 -6.0384
# 5 15.4493 -1.5878 7.0106 4.0448 39.8741 -1.2266
# 6 -2.2202 10.3883 -1.1939 -6.0384 -1.2266 46.9638
#
#
#
# Elastic Compliance Matrix: (Units=1/GPa)
#
#
# Indices 1 2 3 4 5 6 
#
# 1 0.011103 -0.002871 -0.001488 0.002003 -0.004319 0.001267
# 2 -0.002871 0.010519 -0.001624 0.002106 0.001536 -0.002193
# 3 -0.001488 -0.001624 0.011060 0.004714 -0.001876 0.001127
# 4 0.002003 0.002106 0.004714 0.028006 -0.004262 0.003238
# 5 -0.004319 0.001536 -0.001876 -0.004262 0.027563 -0.000420
# 6 0.001267 -0.002193 0.001127 0.003238 -0.000420 0.022272
#
#
# Mechanical properties :
#
#
# Convention : Reuss Voigt Hill
#
# Bulk Modulus (GPa) = 48.27529 57.26697 52.77113
# Shear Modulus (GPa) = 38.64123 42.20031 40.42077
#
# Velocity S-wave (km/s) = 3.93137 4.10843 4.02088
# Velocity P-wave (km/s) = 6.31796 6.73879 6.53176
#
# Compressibility (1/GPa) = 0.02071453
#
# Stress axis : x y z
#
# Youngs Moduli (GPa) = 90.06240 95.06550 90.41785
#
# Poissons Ratio (x) = 0.27296 0.13456
# Poissons Ratio (y) = 0.25859 0.14688
# Poissons Ratio (z) = 0.13403 0.15443
#
# Static dielectric constant tensor:
#      x y z
#    x 1.966070 -0.065830 -0.014110 
#    y -0.065830 2.019040 0.013770 
#    z -0.014110 0.013770 1.912670 
# 
# From -- ./inp_files/319202.got.cif
#   From: 2010.05.17/outbox.cif.g08.bks.cpg/sg2_160_cif.got.tgz:319202.got - 2010.06.03 11:33:40.
