data_PCOD9028673
_publ_section_title
;
Structure prediction by ZEFSAII (Michael W. Deem and Ramdas Pophale) SiO2 
 PCOD9028673
Probable space group: P -1
;
_chemical_formula_sum "Si O2"
_cell_formula_units_Z 15
_cell_length_a 15.457721
_cell_length_b 15.240369
_cell_length_c 9.263613
_cell_angle_alpha 109.169502
_cell_angle_beta 93.556355
_cell_angle_gamma 25.380638
_cell_volume 720.031538
_symmetry_space_group_name_H-M "P -1"
_symmetry_group_IT_number 2
_symmetry_cell_setting 'triclinic'
loop_
_space_group_symop_operation_xyz
x,y,z
-x,-y,-z
loop_
_atom_site_type_symbol
_atom_site_label
_atom_site_fract_x
_atom_site_fract_y
_atom_site_fract_z
Si Si1 0.902241 0.699319 0.551229
Si Si2 0.857842 0.047416 0.474174
Si Si3 0.887853 0.400562 0.734812
Si Si4 0.388049 0.568715 0.880144
Si Si5 0.212117 0.209445 0.850656
Si Si6 0.325312 0.986945 0.021754
Si Si7 0.500000 0.000000 0.500000
Si Si8 0.148864 0.967539 0.871452
O O1 0.663398 0.919016 0.547253
O O2 0.000000 0.500000 0.500000
O O3 0.091127 0.564250 0.394251
O O4 0.832046 0.826500 0.754682
O O5 0.608129 0.293805 0.674716
O O6 0.794006 0.106781 0.330477
O O7 0.000000 0.000000 0.500000
O O8 0.035045 0.782688 0.382244
O O9 0.613859 0.684558 0.922917
O O10 0.080893 0.252923 0.785615
O O11 0.291504 0.748203 0.863731
O O12 0.500000 0.500000 0.000000
O O13 0.146102 0.750883 0.987994
O O14 0.300433 0.091197 0.953815
O O15 0.419256 0.042735 0.677230
O O16 0.000000 0.500000 0.000000
O O17 0.227860 0.989065 0.945453
#
# Coordination Sequence:
#
# PCOD9028673 Si02
#       8
#     2   2   2   2   2   2   1   2
#     4  11  25  44  67 100 136 185 233 290 354 413
#     4  12  24  46  73 100 145 188 236 294 352 429
#     4  11  26  43  67 104 138 186 235 286 363 420
#     4  11  25  46  73 101 144 183 236 291 357 421
#     4  11  23  44  67  98 136 184 231 288 350 415
#     4  12  25  43  71 101 144 178 239 290 349 428
#     4  10  22  42  64  92 130 172 226 274 344 404
#     4  11  26  45  69 108 135 190 233 292 362 415
#
# _framework density 20.832421
#
# number of rings (size 3 to 8) (size 9 to 14) (size 15 to 20)
#    0.000    0.800    2.667    4.400    1.867    2.667 
#    9.600    0.000    0.000    0.000    0.000    0.000 
#    0.000    0.000    0.000    0.000    0.000    0.000 
#
# Total GULP energy -83681.545443 kJ/mol
# GULP energy per Si atom -5578.769696 kJ/mol
# Density = 2.078501 g / cm^3
# Si number density = 20.832421 Si / 1000 Ang^3
#
#
#
# Elastic Constant Matrix: (Units=GPa)
#
#
# Indices 1 2 3 4 5 6 
#
# 1 63.5360 -8.9351 -8.6633 2.7867 12.7060 -3.9189
# 2 -8.9351 50.1576 6.2941 -2.3244 2.9160 2.7998
# 3 -8.6633 6.2941 93.7698 -11.9025 9.1668 -4.2988
# 4 2.7867 -2.3244 -11.9025 40.9852 0.7173 2.4133
# 5 12.7060 2.9160 9.1668 0.7173 34.2293 1.4548
# 6 -3.9189 2.7998 -4.2988 2.4133 1.4548 35.0500
#
#
#
# Elastic Compliance Matrix: (Units=1/GPa)
#
#
# Indices 1 2 3 4 5 6 
#
# 1 0.018224 0.003258 0.002282 -0.000398 -0.007747 0.002406
# 2 0.003258 0.020890 -0.000786 0.000862 -0.002739 -0.001347
# 3 0.002282 -0.000786 0.011812 0.003201 -0.004084 0.001716
# 4 -0.000398 0.000862 0.003201 0.025511 -0.001257 -0.001425
# 5 -0.007747 -0.002739 -0.004084 -0.001257 0.033548 -0.002454
# 6 0.002406 -0.001347 0.001716 -0.001425 -0.002454 0.029318
#
#
# Mechanical properties :
#
#
# Convention : Reuss Voigt Hill
#
# Bulk Modulus (GPa) = 16.54689 20.53944 18.54316
# Shear Modulus (GPa) = 33.34683 36.63740 34.99212
#
# Velocity S-wave (km/s) = 4.00524 4.19820 4.10285
# Velocity P-wave (km/s) = 5.41750 5.77760 5.60045
#
# Compressibility (1/GPa) = 0.06043432
#
# Stress axis : x y z
#
# Youngs Moduli (GPa) = 54.87400 47.86880 84.65826
#
# Poissons Ratio (x) = -0.15594 -0.19321
# Poissons Ratio (y) = -0.17876 0.06652
# Poissons Ratio (z) = -0.12523 0.03761
#
# Static dielectric constant tensor:
#      x y z
#    x 1.715440 0.009020 -0.012360 
#    y 0.009020 1.758620 0.006520 
#    z -0.012360 0.006520 1.715220 
# 
# From -- ./inp_files/315612.got.cif
#   From: 2010.05.17/outbox.cif.g08.bks.cpg/sg2_158_cif.got.tgz:315612.got - 2010.06.03 11:33:40.
