data_PCOD9028694
_publ_section_title
;
Structure prediction by ZEFSAII (Michael W. Deem and Ramdas Pophale) SiO2 
 PCOD9028694
Probable space group: P -1
;
_chemical_formula_sum "Si O2"
_cell_formula_units_Z 12
_cell_length_a 6.308822
_cell_length_b 4.729752
_cell_length_c 14.656664
_cell_angle_alpha 85.892235
_cell_angle_beta 76.198578
_cell_angle_gamma 101.098020
_cell_volume 413.590324
_symmetry_space_group_name_H-M "P -1"
_symmetry_group_IT_number 2
_symmetry_cell_setting 'triclinic'
loop_
_space_group_symop_operation_xyz
x,y,z
-x,-y,-z
loop_
_atom_site_type_symbol
_atom_site_label
_atom_site_fract_x
_atom_site_fract_y
_atom_site_fract_z
Si Si1 0.140727 0.909788 0.070013
Si Si2 0.000000 0.500000 0.500000
Si Si3 0.545001 0.714033 0.830517
Si Si4 0.776843 0.979513 0.241694
Si Si5 0.500000 0.500000 0.000000
Si Si6 0.066559 0.395975 0.328257
Si Si7 0.287137 0.113729 0.550428
O O1 0.272453 0.665323 0.039691
O O2 0.974417 0.867988 0.174359
O O3 0.339326 0.174599 0.083479
O O4 0.000000 0.000000 0.000000
O O5 0.907847 0.328389 0.616677
O O6 0.237348 0.374838 0.491095
O O7 0.707195 0.650485 0.737461
O O8 0.412773 0.939589 0.801796
O O9 0.408934 0.432872 0.900538
O O10 0.693861 0.808308 0.346096
O O11 0.898617 0.292424 0.265545
O O12 0.916107 0.187504 0.429592
O O13 0.500000 0.000000 0.500000
#
# Coordination Sequence:
#
# PCOD9028694 Si02
#       7
#     2   1   2   2   1   2   2
#     4   9  19  38  60  94 131 178 232 277 351 417
#     4  12  22  40  68  96 124 184 232 276 358 418
#     4   9  18  41  62  87 132 183 215 290 352 393
#     4   9  20  39  62  85 136 181 213 297 354 393
#     4   8  18  36  60  90 130 178 226 286 336 414
#     4   9  22  41  61  92 136 172 226 293 342 418
#     4  10  22  42  64  93 135 177 228 293 344 418
#
# _framework density 29.014215
#
# number of rings (size 3 to 8) (size 9 to 14) (size 15 to 20)
#    2.000    0.667    0.000    1.500    0.000    2.000 
#    3.000    1.667    0.000    0.000    0.000    0.000 
#    0.000    0.000    0.000    0.000    0.000    0.000 
#
# Total GULP energy -66858.041860 kJ/mol
# GULP energy per Si atom -5571.503488 kJ/mol
# Density = 2.894818 g / cm^3
# Si number density = 29.014215 Si / 1000 Ang^3
#
#
#
# Elastic Constant Matrix: (Units=GPa)
#
#
# Indices 1 2 3 4 5 6 
#
# 1 129.1654 86.7850 95.0844 7.6634 -6.3135 -27.4548
# 2 86.7850 153.9070 74.9242 18.2656 2.9021 -35.6668
# 3 95.0844 74.9242 241.6385 30.9554 -33.2886 -27.2247
# 4 7.6634 18.2656 30.9554 61.6974 -17.1772 -2.5886
# 5 -6.3135 2.9021 -33.2886 -17.1772 67.4838 -0.0873
# 6 -27.4548 -35.6668 -27.2247 -2.5886 -0.0873 54.5555
#
#
#
# Elastic Compliance Matrix: (Units=1/GPa)
#
#
# Indices 1 2 3 4 5 6 
#
# 1 0.015393 -0.006616 -0.004086 0.002237 0.000281 0.001488
# 2 -0.006616 0.011780 -0.000530 -0.002818 -0.002099 0.003970
# 3 -0.004086 -0.000530 0.006577 -0.001936 0.002393 0.000792
# 4 0.002237 -0.002818 -0.001936 0.018866 0.004177 -0.000781
# 5 0.000281 -0.002099 0.002393 0.004177 0.017179 0.000189
# 6 0.001488 0.003970 0.000792 -0.000781 0.000189 0.022033
#
#
# Mechanical properties :
#
#
# Convention : Reuss Voigt Hill
#
# Bulk Modulus (GPa) = 88.60533 115.36644 101.98589
# Shear Modulus (GPa) = 42.35335 54.60851 48.48093
#
# Velocity S-wave (km/s) = 3.82481 4.34306 4.09214
# Velocity P-wave (km/s) = 7.07887 8.06213 7.58645
#
# Compressibility (1/GPa) = 0.01128600
#
# Stress axis : x y z
#
# Youngs Moduli (GPa) = 64.96664 84.88621 152.03609
#
# Poissons Ratio (x) = 0.56165 0.62117
# Poissons Ratio (y) = 0.42985 0.08059
# Poissons Ratio (z) = 0.26543 0.04499
#
# Static dielectric constant tensor:
#      x y z
#    x 2.415340 0.201180 0.140350 
#    y 0.201180 2.451840 0.021760 
#    z 0.140350 0.021760 2.502620 
# 
# From -- ./inp_files/86092.got.cif
#   From: 2010.05.17/outbox.cif.g08.bks.cpg/sg2_44_cif.got.tgz:86092.got - 2010.06.03 11:33:40.
