data_PCOD9028721
_publ_section_title
;
Structure prediction by ZEFSAII (Michael W. Deem and Ramdas Pophale) SiO2 
 PCOD9028721
Probable space group: P -1
;
_chemical_formula_sum "Si O2"
_cell_formula_units_Z 14
_cell_length_a 12.635190
_cell_length_b 5.370713
_cell_length_c 9.584844
_cell_angle_alpha 106.869361
_cell_angle_beta 106.611941
_cell_angle_gamma 97.936497
_cell_volume 578.873956
_symmetry_space_group_name_H-M "P -1"
_symmetry_group_IT_number 2
_symmetry_cell_setting 'triclinic'
loop_
_space_group_symop_operation_xyz
x,y,z
-x,-y,-z
loop_
_atom_site_type_symbol
_atom_site_label
_atom_site_fract_x
_atom_site_fract_y
_atom_site_fract_z
Si Si1 0.802727 0.851067 0.507119
Si Si2 0.318336 0.816561 0.869972
Si Si3 0.692503 0.292042 0.837193
Si Si4 0.124102 0.525600 0.290902
Si Si5 0.574192 0.796372 0.538692
Si Si6 0.910780 0.481390 0.336932
Si Si7 0.464336 0.363673 0.111524
O O1 0.835437 0.681840 0.623723
O O2 0.666348 0.784377 0.451318
O O3 0.859587 0.741363 0.378647
O O4 0.846221 0.167432 0.592518
O O5 0.202784 0.753487 0.730894
O O6 0.424803 0.740227 0.818894
O O7 0.288429 0.669961 0.984264
O O8 0.365118 0.113804 0.988879
O O9 0.802757 0.441411 0.816717
O O10 0.589534 0.433730 0.789367
O O11 0.650360 0.979165 0.721545
O O12 0.986832 0.449912 0.227182
O O13 0.500000 0.500000 0.500000
O O14 0.500000 0.000000 0.500000
O O15 0.000000 0.500000 0.500000
O O16 0.500000 0.500000 0.000000
#
# Coordination Sequence:
#
# PCOD9028721 Si02
#       7
#     2   2   2   2   2   2   2
#     4  10  22  42  64  95 137 179 228 285 351 407
#     4  10  22  42  71  96 137 184 227 287 356 411
#     4  10  23  40  65  96 143 174 231 283 355 420
#     4  10  22  43  67  96 133 183 227 290 343 409
#     4  11  24  38  65 102 135 182 226 285 349 411
#     4  10  23  45  69  98 135 182 243 290 343 412
#     4   9  21  42  62  99 135 177 225 277 348 428
#
# _framework density 24.184882999999999
#
# number of rings (size 3 to 8) (size 9 to 14) (size 15 to 20)
#    0.000    2.000    0.000    2.143    8.000    2.857 
#   20.571    0.714    0.000    0.000    0.000    0.000 
#    0.000    0.000    0.000    0.000    0.000    0.000 
#
# Total GULP energy -78170.266629 kJ/mol
# GULP energy per Si atom -5583.590473 kJ/mol
# Density = 2.412984 g / cm^3
# Si number density = 24.184883 Si / 1000 Ang^3
#
#
#
# Elastic Constant Matrix: (Units=GPa)
#
#
# Indices 1 2 3 4 5 6 
#
# 1 181.0973 38.2592 22.1132 15.5255 10.2949 -13.6031
# 2 38.2592 119.3299 17.9761 12.2137 10.1496 -11.0186
# 3 22.1132 17.9761 73.7349 13.0855 10.9907 -6.4238
# 4 15.5255 12.2137 13.0855 34.7253 3.1778 -1.3009
# 5 10.2949 10.1496 10.9907 3.1778 44.4872 11.6537
# 6 -13.6031 -11.0186 -6.4238 -1.3009 11.6537 33.0626
#
#
#
# Elastic Compliance Matrix: (Units=1/GPa)
#
#
# Indices 1 2 3 4 5 6 
#
# 1 0.006333 -0.001373 -0.000812 -0.001818 -0.001459 0.002433
# 2 -0.001373 0.009675 -0.000943 -0.002097 -0.002351 0.003222
# 3 -0.000812 -0.000943 0.015816 -0.004748 -0.004133 0.003694
# 4 -0.001818 -0.002097 -0.004748 0.032088 0.000077 -0.001134
# 5 -0.001459 -0.002351 -0.004133 0.000077 0.027477 -0.011868
# 6 0.002433 0.003222 0.003694 -0.001134 -0.011868 0.037177
#
#
# Mechanical properties :
#
#
# Convention : Reuss Voigt Hill
#
# Bulk Modulus (GPa) = 39.11558 58.98434 49.04996
# Shear Modulus (GPa) = 34.88094 42.17591 38.52842
#
# Velocity S-wave (km/s) = 3.80183 4.18053 3.99567
# Velocity P-wave (km/s) = 5.95656 6.90972 6.45077
#
# Compressibility (1/GPa) = 0.02556526
#
# Stress axis : x y z
#
# Youngs Moduli (GPa) = 157.91057 103.36294 63.22598
#
# Poissons Ratio (x) = 0.14194 0.05137
# Poissons Ratio (y) = 0.21685 0.05965
# Poissons Ratio (z) = 0.12829 0.09752
#
# Static dielectric constant tensor:
#      x y z
#    x 2.108520 0.361420 -0.349990 
#    y 0.361420 3.062300 -1.171720 
#    z -0.349990 -1.171720 3.161930 
# 
# From -- ./inp_files/367985.got.cif
#   From: 2010.05.17/outbox.cif.g08.bks.cpg/sg2_184_cif.got.tgz:367985.got - 2010.06.03 11:33:40.
