data_PCOD9028128
_publ_section_title
;
Structure prediction by ZEFSAII (Michael W. Deem and Ramdas Pophale) SiO2 
 PCOD9028128
Probable space group: P -1
;
_chemical_formula_sum "Si O2"
_cell_formula_units_Z 14
_cell_length_a 7.280999
_cell_length_b 23.758073
_cell_length_c 7.989197
_cell_angle_alpha 43.301632
_cell_angle_beta 125.008429
_cell_angle_gamma 142.914129
_cell_volume 571.469831
_symmetry_space_group_name_H-M "P -1"
_symmetry_group_IT_number 2
_symmetry_cell_setting 'triclinic'
loop_
_space_group_symop_operation_xyz
x,y,z
-x,-y,-z
loop_
_atom_site_type_symbol
_atom_site_label
_atom_site_fract_x
_atom_site_fract_y
_atom_site_fract_z
Si Si1 0.107793 0.998122 0.247768
Si Si2 0.841823 0.084913 0.044079
Si Si3 0.831542 0.794405 0.749384
Si Si4 0.215553 0.292947 0.558537
Si Si5 0.804957 0.430845 0.712268
Si Si6 0.372489 0.781701 0.775871
Si Si7 0.427920 0.577025 0.843242
O O1 0.448390 0.104836 0.265230
O O2 0.923439 0.010531 0.252021
O O3 0.982881 0.877324 0.489840
O O4 0.000000 0.000000 0.000000
O O5 0.891972 0.146479 0.105716
O O6 0.061117 0.179683 0.817230
O O7 0.500000 0.000000 0.000000
O O8 0.597282 0.794874 0.728995
O O9 0.647327 0.664791 0.911219
O O10 0.473122 0.392398 0.608358
O O11 0.440055 0.334809 0.430142
O O12 0.927497 0.267587 0.379767
O O13 0.000000 0.500000 0.500000
O O14 0.069968 0.507376 0.825261
O O15 0.723782 0.314653 0.939457
O O16 0.500000 0.500000 0.000000
#
# Coordination Sequence:
#
# PCOD9028128 Si02
#       7
#     2   2   2   2   2   2   2
#     4  11  23  41  68 101 138 178 221 284 346 413
#     4  11  22  42  66 102 142 172 221 281 346 412
#     4  11  24  42  68 102 138 177 230 285 343 405
#     4  11  21  43  70  96 134 184 221 278 339 405
#     4  10  22  41  71  94 135 184 232 280 330 400
#     4  11  22  44  70 100 142 176 225 288 343 404
#     4  11  24  45  68  95 137 185 233 282 333 401
#
# _framework density 24.498232000000002
#
# number of rings (size 3 to 8) (size 9 to 14) (size 15 to 20)
#    0.000    1.143    4.286    4.286    2.000    1.714 
#    0.000    8.571    0.000    0.000    0.000    0.000 
#    0.000    0.000    0.000    0.000    0.000    0.000 
#
# Total GULP energy -77964.101177 kJ/mol
# GULP energy per Si atom -5568.864370 kJ/mol
# Density = 2.444247 g / cm^3
# Si number density = 24.498232 Si / 1000 Ang^3
#
#
#
# Elastic Constant Matrix: (Units=GPa)
#
#
# Indices 1 2 3 4 5 6 
#
# 1 57.4810 54.4309 16.0818 1.9912 -1.1764 7.6618
# 2 54.4309 273.4606 63.1656 7.1890 12.9793 18.8552
# 3 16.0818 63.1656 128.0390 -12.9891 -14.6314 3.2224
# 4 1.9912 7.1890 -12.9891 49.4180 10.8937 3.2962
# 5 -1.1764 12.9793 -14.6314 10.8937 28.1938 3.0037
# 6 7.6618 18.8552 3.2224 3.2962 3.0037 43.4740
#
#
#
# Elastic Compliance Matrix: (Units=1/GPa)
#
#
# Indices 1 2 3 4 5 6 
#
# 1 0.021918 -0.004277 -0.000304 -0.000928 0.003313 -0.002144
# 2 -0.004277 0.005356 -0.002539 -0.000386 -0.003696 -0.001096
# 3 -0.000304 -0.002539 0.009926 0.001754 0.005641 -0.000104
# 4 -0.000928 -0.000386 0.001754 0.022520 -0.007547 -0.000985
# 5 0.003313 -0.003696 0.005641 -0.007547 0.043346 -0.001822
# 6 -0.002144 -0.001096 -0.000104 -0.000985 -0.001822 0.024064
#
#
# Mechanical properties :
#
#
# Convention : Reuss Voigt Hill
#
# Bulk Modulus (GPa) = 43.55641 80.70412 62.13027
# Shear Modulus (GPa) = 33.55178 45.90398 39.72788
#
# Velocity S-wave (km/s) = 3.70477 4.33340 4.03136
# Velocity P-wave (km/s) = 6.00986 7.61920 6.86187
#
# Compressibility (1/GPa) = 0.02295873
#
# Stress axis : x y z
#
# Youngs Moduli (GPa) = 45.62382 186.71269 100.74583
#
# Poissons Ratio (x) = 0.79865 0.03067
# Poissons Ratio (y) = 0.19515 0.25578
# Poissons Ratio (z) = 0.01389 0.47404
#
# Static dielectric constant tensor:
#      x y z
#    x 1.996690 -0.059780 0.005280 
#    y -0.059780 2.104610 0.244330 
#    z 0.005280 0.244330 1.878420 
# 
# From -- ./inp_files/227346.got.cif
#   From: 2010.05.17/outbox.cif.g08.bks.cpg/sg2_114_cif.got.tgz:227346.got - 2010.06.03 11:33:40.
