data_PCOD9028410
_publ_section_title
;
Structure prediction by ZEFSAII (Michael W. Deem and Ramdas Pophale) SiO2 
 PCOD9028410
Probable space group: P -1
;
_chemical_formula_sum "Si O2"
_cell_formula_units_Z 16
_cell_length_a 17.747307
_cell_length_b 22.814917
_cell_length_c 5.542010
_cell_angle_alpha 109.441749
_cell_angle_beta 70.894457
_cell_angle_gamma 161.123751
_cell_volume 684.026016
_symmetry_space_group_name_H-M "P -1"
_symmetry_group_IT_number 2
_symmetry_cell_setting 'triclinic'
loop_
_space_group_symop_operation_xyz
x,y,z
-x,-y,-z
loop_
_atom_site_type_symbol
_atom_site_label
_atom_site_fract_x
_atom_site_fract_y
_atom_site_fract_z
Si Si1 0.386879 0.232007 0.525424
Si Si2 0.183311 0.821176 0.012489
Si Si3 0.662734 0.579231 0.263720
Si Si4 0.458139 0.916824 0.623955
Si Si5 0.239746 0.240422 0.952160
Si Si6 0.357798 0.604446 0.002321
Si Si7 0.066951 0.906125 0.588203
Si Si8 0.442195 0.116755 0.820856
O O1 0.236018 0.182175 0.685560
O O2 0.528338 0.345074 0.285696
O O3 0.219569 0.050181 0.418067
O O4 0.531436 0.321086 0.741200
O O5 0.278299 0.820591 0.852699
O O6 0.314931 0.972969 0.933066
O O7 0.906780 0.613720 0.996746
O O8 0.290402 0.910743 0.284815
O O9 0.500000 0.500000 0.500000
O O10 0.749510 0.688788 0.114722
O O11 0.879273 0.724028 0.408478
O O12 0.481238 0.404739 0.068343
O O13 0.392939 0.804867 0.415166
O O14 0.500000 0.000000 0.500000
O O15 0.048887 0.119611 0.184521
O O16 0.402035 0.709802 0.028493
O O17 0.230294 0.991022 0.719421
#
# Coordination Sequence:
#
# PCOD9028410 Si02
#       8
#     2   2   2   2   2   2   2   2
#     4  11  27  45  64 100 139 184 237 292 345 412
#     4  10  23  46  75 101 141 183 223 285 350 418
#     4   9  21  38  60  92 125 171 233 291 348 406
#     4   9  21  44  73 107 135 178 232 274 348 423
#     4  10  22  42  61  92 129 182 239 285 349 407
#     4  11  28  46  69 107 144 182 239 285 349 416
#     4  10  23  41  67  93 135 179 233 290 348 409
#     4  10  24  44  69 105 139 180 230 287 348 417
#
# _framework density 23.390923000000001
#
# number of rings (size 3 to 8) (size 9 to 14) (size 15 to 20)
#    0.000    2.000    0.000    0.375   14.000    5.000 
#    0.000    5.625    0.000    0.000    0.000    0.000 
#    0.000    0.000    0.000    0.000    0.000    0.000 
#
# Total GULP energy -89177.803038 kJ/mol
# GULP energy per Si atom -5573.612690 kJ/mol
# Density = 2.333768 g / cm^3
# Si number density = 23.390923 Si / 1000 Ang^3
#
#
#
# Elastic Constant Matrix: (Units=GPa)
#
#
# Indices 1 2 3 4 5 6 
#
# 1 77.6092 17.0245 23.1117 8.6786 -5.6444 -6.5526
# 2 17.0245 62.5169 17.0076 -6.1162 0.8265 -6.7926
# 3 23.1117 17.0076 88.3449 -0.0834 -8.1707 -8.0036
# 4 8.6786 -6.1162 -0.0834 29.6340 -4.0964 4.2603
# 5 -5.6444 0.8265 -8.1707 -4.0964 50.0928 9.5131
# 6 -6.5526 -6.7926 -8.0036 4.2603 9.5131 28.1926
#
#
#
# Elastic Compliance Matrix: (Units=1/GPa)
#
#
# Indices 1 2 3 4 5 6 
#
# 1 0.015475 -0.003649 -0.003086 -0.005615 0.000353 0.002571
# 2 -0.003649 0.018384 -0.002457 0.004298 -0.001269 0.002663
# 3 -0.003086 -0.002457 0.012900 0.000381 0.001487 0.001794
# 4 -0.005615 0.004298 0.000381 0.037835 0.003813 -0.007166
# 5 0.000353 -0.001269 0.001487 0.003813 0.022064 -0.007823
# 6 0.002571 0.002663 0.001794 -0.007166 -0.007823 0.040941
#
#
# Mechanical properties :
#
#
# Convention : Reuss Voigt Hill
#
# Bulk Modulus (GPa) = 35.24092 38.08427 36.66259
# Shear Modulus (GPa) = 28.49966 33.00570 30.75268
#
# Velocity S-wave (km/s) = 3.49436 3.76047 3.62985
# Velocity P-wave (km/s) = 5.60174 5.93058 5.76850
#
# Compressibility (1/GPa) = 0.02837611
#
# Stress axis : x y z
#
# Youngs Moduli (GPa) = 64.62006 54.39401 77.52033
#
# Poissons Ratio (x) = 0.19850 0.23919
# Poissons Ratio (y) = 0.23582 0.19044
# Poissons Ratio (z) = 0.19939 0.13363
#
# Static dielectric constant tensor:
#      x y z
#    x 1.946380 -0.029270 -0.038100 
#    y -0.029270 1.942130 -0.012600 
#    z -0.038100 -0.012600 1.995150 
# 
# From -- ./inp_files/112693.got.cif
#   From: 2010.05.17/outbox.cif.g08.bks.cpg/sg2_57_cif.got.tgz:112693.got - 2010.06.03 11:33:40.
