data_PCOD9028863
_publ_section_title
;
Structure prediction by ZEFSAII (Michael W. Deem and Ramdas Pophale) SiO2 
 PCOD9028863
Probable space group: P -1
;
_chemical_formula_sum "Si O2"
_cell_formula_units_Z 14
_cell_length_a 10.058352
_cell_length_b 12.645919
_cell_length_c 9.591983
_cell_angle_alpha 95.294562
_cell_angle_beta 40.597474
_cell_angle_gamma 122.639649
_cell_volume 545.122813
_symmetry_space_group_name_H-M "P -1"
_symmetry_group_IT_number 2
_symmetry_cell_setting 'triclinic'
loop_
_space_group_symop_operation_xyz
x,y,z
-x,-y,-z
loop_
_atom_site_type_symbol
_atom_site_label
_atom_site_fract_x
_atom_site_fract_y
_atom_site_fract_z
Si Si1 0.143074 0.365321 0.682929
Si Si2 0.371302 0.860097 0.316663
Si Si3 0.324817 0.054781 0.487948
Si Si4 0.691165 0.542733 0.133786
Si Si5 0.776893 0.735714 0.847733
Si Si6 0.507724 0.824499 0.927579
Si Si7 0.281270 0.657307 0.589811
O O1 0.373861 0.379131 0.417274
O O2 0.155609 0.349729 0.835843
O O3 0.300376 0.539438 0.557652
O O4 0.818761 0.263416 0.871960
O O5 0.554702 0.915922 0.037094
O O6 0.350475 0.741941 0.400288
O O7 0.026450 0.767038 0.561483
O O8 0.484663 0.999101 0.340345
O O9 0.993979 0.899401 0.778757
O O10 0.503767 0.204075 0.454972
O O11 0.299124 0.084077 0.351997
O O12 0.650143 0.605269 0.043040
O O13 0.942554 0.554338 0.890182
O O14 0.552487 0.722230 0.937086
#
# Coordination Sequence:
#
# PCOD9028863 Si02
#       7
#     2   2   2   2   2   2   2
#     4  11  25  39  68  94 127 165 213 252 318 370
#     4   9  23  39  65  94 126 164 207 255 320 363
#     4  10  22  42  65  92 127 164 213 256 310 372
#     4  10  22  44  60  96 124 166 214 255 305 376
#     4   9  23  41  65  92 127 163 211 255 318 366
#     4  12  22  43  64  96 131 162 204 265 311 375
#     4  11  21  44  65  93 127 168 207 261 308 372
#
# _framework density 25.682283999999999
#
# number of rings (size 3 to 8) (size 9 to 14) (size 15 to 20)
#    0.857    0.857    1.429    2.571    0.000    3.429 
#    5.143    4.286    0.000    0.000    0.000    0.000 
#    0.000    0.000    0.000    0.000    0.000    0.000 
#
# Total GULP energy -78249.791121 kJ/mol
# GULP energy per Si atom -5589.270794 kJ/mol
# Density = 2.562383 g / cm^3
# Si number density = 25.682284 Si / 1000 Ang^3
#
#
#
# Elastic Constant Matrix: (Units=GPa)
#
#
# Indices 1 2 3 4 5 6 
#
# 1 111.2933 5.3953 12.8130 -2.3710 -0.8532 -16.9905
# 2 5.3953 60.8864 -9.1380 0.4631 2.9840 2.1874
# 3 12.8130 -9.1380 63.4140 10.1384 3.2821 -9.2870
# 4 -2.3710 0.4631 10.1384 23.4655 4.9379 0.5355
# 5 -0.8532 2.9840 3.2821 4.9379 40.3434 -7.1509
# 6 -16.9905 2.1874 -9.2870 0.5355 -7.1509 39.1586
#
#
#
# Elastic Compliance Matrix: (Units=1/GPa)
#
#
# Indices 1 2 3 4 5 6 
#
# 1 0.009938 -0.001375 -0.001906 0.001550 0.001004 0.004099
# 2 -0.001375 0.017105 0.002875 -0.001364 -0.001563 -0.001137
# 3 -0.001906 0.002875 0.018402 -0.008253 -0.000125 0.003467
# 4 0.001550 -0.001364 -0.008253 0.047594 -0.005529 -0.002869
# 5 0.001004 -0.001563 -0.000125 -0.005529 0.026572 0.005421
# 6 0.004099 -0.001137 0.003467 -0.002869 0.005421 0.029231
#
#
# Mechanical properties :
#
#
# Convention : Reuss Voigt Hill
#
# Bulk Modulus (GPa) = 22.40406 28.19271 25.29838
# Shear Modulus (GPa) = 30.38954 35.69505 33.04230
#
# Velocity S-wave (km/s) = 3.44363 3.73214 3.59078
# Velocity P-wave (km/s) = 4.95519 5.43812 5.20226
#
# Compressibility (1/GPa) = 0.04463477
#
# Stress axis : x y z
#
# Youngs Moduli (GPa) = 100.62637 58.46191 54.34085
#
# Poissons Ratio (x) = 0.08038 0.10355
# Poissons Ratio (y) = 0.13834 -0.15623
# Poissons Ratio (z) = 0.19174 -0.16808
#
# Static dielectric constant tensor:
#      x y z
#    x 2.005700 0.016610 -0.014850 
#    y 0.016610 2.070670 0.034570 
#    z -0.014850 0.034570 2.015870 
# 
# From -- ./inp_files/201302.got.cif
#   From: 2010.05.17/outbox.cif.g08.bks.cpg/sg2_101_cif.got.tgz:201302.got - 2010.06.03 11:33:40.
