data_PCOD9028764
_publ_section_title
;
Structure prediction by ZEFSAII (Michael W. Deem and Ramdas Pophale) SiO2 
 PCOD9028764
Probable space group: P -1
;
_chemical_formula_sum "Si O2"
_cell_formula_units_Z 16
_cell_length_a 13.019910
_cell_length_b 16.269352
_cell_length_c 16.043699
_cell_angle_alpha 152.396033
_cell_angle_beta 31.358694
_cell_angle_gamma 129.574598
_cell_volume 711.477785
_symmetry_space_group_name_H-M "P -1"
_symmetry_group_IT_number 2
_symmetry_cell_setting 'triclinic'
loop_
_space_group_symop_operation_xyz
x,y,z
-x,-y,-z
loop_
_atom_site_type_symbol
_atom_site_label
_atom_site_fract_x
_atom_site_fract_y
_atom_site_fract_z
Si Si1 0.746426 0.194211 0.284706
Si Si2 0.907753 0.796238 0.262791
Si Si3 0.699844 0.545375 0.252765
Si Si4 0.266245 0.151514 0.753415
Si Si5 0.121984 0.600891 0.316789
Si Si6 0.721012 0.256326 0.825697
Si Si7 0.177424 0.845719 0.628064
Si Si8 0.809623 0.565144 0.618247
O O1 0.564672 0.289568 0.423304
O O2 0.659648 0.204248 0.450061
O O3 0.840670 0.351728 0.369984
O O4 0.921180 0.954214 0.939293
O O5 0.813130 0.687610 0.292298
O O6 0.769840 0.833595 0.306613
O O7 0.862150 0.012868 0.521702
O O8 0.172291 0.619801 0.911621
O O9 0.734860 0.396481 0.015440
O O10 0.500000 0.000000 0.500000
O O11 0.134884 0.033873 0.768493
O O12 0.203368 0.369742 0.029342
O O13 0.171507 0.700268 0.291834
O O14 0.247595 0.648232 0.347449
O O15 0.874291 0.672113 0.594653
O O16 0.452873 0.315603 0.061407
O O17 0.000000 0.500000 0.500000
#
# Coordination Sequence:
#
# PCOD9028764 Si02
#       8
#     2   2   2   2   2   2   2   2
#     4  10  22  42  64  98 135 179 223 274 344 401
#     4  11  23  43  68  96 131 185 225 276 342 399
#     4  10  23  43  68  95 135 177 231 279 331 407
#     4  12  26  39  66 101 135 174 223 276 339 405
#     4  12  25  44  65  99 144 170 224 281 337 402
#     4  11  25  43  71  98 135 178 230 275 341 401
#     4  11  23  39  66  97 136 177 214 278 343 404
#     4  11  24  39  65 100 138 178 217 275 339 406
#
# _framework density 22.488403000000002
#
# number of rings (size 3 to 8) (size 9 to 14) (size 15 to 20)
#    0.000    1.000    5.000    1.125    5.250    1.000 
#    0.000    0.625    0.000    7.500    0.000    0.000 
#    0.000    0.000    0.000    0.000    0.000    0.000 
#
# Total GULP energy -89132.648896 kJ/mol
# GULP energy per Si atom -5570.790556 kJ/mol
# Density = 2.243722 g / cm^3
# Si number density = 22.488403 Si / 1000 Ang^3
#
#
#
# Elastic Constant Matrix: (Units=GPa)
#
#
# Indices 1 2 3 4 5 6 
#
# 1 73.2590 11.4538 23.6111 1.9789 -9.9234 4.6629
# 2 11.4538 122.8116 38.3595 9.8848 -5.4176 1.3010
# 3 23.6111 38.3595 85.9996 24.1430 -6.6141 1.6701
# 4 1.9789 9.8848 24.1430 31.7239 5.6278 1.7766
# 5 -9.9234 -5.4176 -6.6141 5.6278 45.0414 4.6717
# 6 4.6629 1.3010 1.6701 1.7766 4.6717 24.4914
#
#
#
# Elastic Compliance Matrix: (Units=1/GPa)
#
#
# Indices 1 2 3 4 5 6 
#
# 1 0.015690 -0.000034 -0.004639 0.002248 0.002840 -0.003374
# 2 -0.000034 0.009476 -0.004224 0.000190 0.000522 -0.000322
# 3 -0.004639 -0.004224 0.018685 -0.013130 0.002828 0.000246
# 4 0.002248 0.000190 -0.013130 0.042560 -0.006585 -0.001374
# 5 0.002840 0.000522 0.002828 -0.006585 0.024645 -0.004985
# 6 -0.003374 -0.000322 0.000246 -0.001374 -0.004985 0.042524
#
#
# Mechanical properties :
#
#
# Convention : Reuss Voigt Hill
#
# Bulk Modulus (GPa) = 38.38068 47.65767 43.01918
# Shear Modulus (GPa) = 27.76848 34.16105 30.96477
#
# Velocity S-wave (km/s) = 3.51777 3.90173 3.71471
# Velocity P-wave (km/s) = 5.79686 6.44485 6.12942
#
# Compressibility (1/GPa) = 0.02605477
#
# Stress axis : x y z
#
# Youngs Moduli (GPa) = 63.73663 105.52590 53.51993
#
# Poissons Ratio (x) = 0.00359 0.24830
# Poissons Ratio (y) = 0.00217 0.22609
# Poissons Ratio (z) = 0.29570 0.44579
#
# Static dielectric constant tensor:
#      x y z
#    x 1.864440 0.084790 -0.037660 
#    y 0.084790 1.470680 -0.077860 
#    z -0.037660 -0.077860 1.873950 
# 
# From -- ./inp_files/522582.got.cif
#   From: 2010.05.17/outbox.cif.g08.bks.cpg/sg2_262_cif.got.tgz:522582.got - 2010.06.03 11:33:40.
