data_PCOD9028618
_publ_section_title
;
Structure prediction by ZEFSAII (Michael W. Deem and Ramdas Pophale) SiO2 
 PCOD9028618
Probable space group: P -1
;
_chemical_formula_sum "Si O2"
_cell_formula_units_Z 16
_cell_length_a 23.586397
_cell_length_b 6.334710
_cell_length_c 8.582166
_cell_angle_alpha 112.690449
_cell_angle_beta 55.179505
_cell_angle_gamma 140.145746
_cell_volume 671.220878
_symmetry_space_group_name_H-M "P -1"
_symmetry_group_IT_number 2
_symmetry_cell_setting 'triclinic'
loop_
_space_group_symop_operation_xyz
x,y,z
-x,-y,-z
loop_
_atom_site_type_symbol
_atom_site_label
_atom_site_fract_x
_atom_site_fract_y
_atom_site_fract_z
Si Si1 0.616210 0.770169 0.921804
Si Si2 0.140030 0.225121 0.191803
Si Si3 0.053858 0.421735 0.802034
Si Si4 0.181702 0.471341 0.845488
Si Si5 0.567262 0.094128 0.245999
Si Si6 0.361853 0.780961 0.494406
Si Si7 0.755000 0.190694 0.561221
Si Si8 0.301079 0.225003 0.902282
O O1 0.687240 0.887456 0.699920
O O2 0.500000 0.500000 0.000000
O O3 0.639948 0.667820 0.000048
O O4 0.631589 0.074634 0.033808
O O5 0.180936 0.480767 0.338276
O O6 0.151986 0.360992 0.038193
O O7 0.207874 0.163466 0.062122
O O8 0.025595 0.869799 0.277463
O O9 0.088424 0.308562 0.837183
O O10 0.158866 0.737285 0.646424
O O11 0.000000 0.500000 0.000000
O O12 0.255002 0.458182 0.648960
O O13 0.253084 0.866283 0.837110
O O14 0.576223 0.010487 0.382389
O O15 0.623653 0.472972 0.250325
O O16 0.452175 0.843476 0.301410
O O17 0.322730 0.858205 0.442741
#
# Coordination Sequence:
#
# PCOD9028618 Si02
#       8
#     2   2   2   2   2   2   2   2
#     4  12  26  45  68 104 142 185 227 288 343 417
#     4  12  23  46  72  98 140 184 229 292 343 410
#     4  11  25  45  74 105 135 185 232 287 352 417
#     4  11  22  46  68 100 138 179 236 281 350 409
#     4  11  23  44  67  95 144 182 238 276 349 406
#     4  10  22  42  64 102 136 183 228 286 338 418
#     4  11  24  46  70 104 144 175 237 285 349 410
#     4  12  21  41  74  92 138 187 228 283 340 406
#
# _framework density 23.837160000000001
#
# number of rings (size 3 to 8) (size 9 to 14) (size 15 to 20)
#    0.000    0.750    6.250    1.500    1.750    1.500 
#   11.250    3.750    0.000    0.000    0.000    0.000 
#    0.000    0.000    0.000    0.000    0.000    0.000 
#
# Total GULP energy -89316.130056 kJ/mol
# GULP energy per Si atom -5582.258129 kJ/mol
# Density = 2.378291 g / cm^3
# Si number density = 23.837160 Si / 1000 Ang^3
#
#
#
# Elastic Constant Matrix: (Units=GPa)
#
#
# Indices 1 2 3 4 5 6 
#
# 1 169.1114 30.6913 39.6133 -6.2695 -14.9573 31.6784
# 2 30.6913 84.5339 7.9790 -15.9793 -6.2396 8.0204
# 3 39.6133 7.9790 119.3551 -15.1548 -24.5183 -3.6095
# 4 -6.2695 -15.9793 -15.1548 26.2414 4.3703 -2.0685
# 5 -14.9573 -6.2396 -24.5183 4.3703 49.5962 -6.9479
# 6 31.6784 8.0204 -3.6095 -2.0685 -6.9479 34.1486
#
#
#
# Elastic Compliance Matrix: (Units=1/GPa)
#
#
# Indices 1 2 3 4 5 6 
#
# 1 0.008457 -0.002400 -0.003166 -0.001841 -0.000244 -0.007778
# 2 -0.002400 0.014318 0.001089 0.008613 0.000810 -0.000335
# 3 -0.003166 0.001089 0.011301 0.006019 0.004975 0.005252
# 4 -0.001841 0.008613 0.006019 0.046663 -0.000172 0.003113
# 5 -0.000244 0.000810 0.004975 -0.000172 0.023410 0.005314
# 6 -0.007778 -0.000335 0.005252 0.003113 0.005314 0.038402
#
#
# Mechanical properties :
#
#
# Convention : Reuss Voigt Hill
#
# Bulk Modulus (GPa) = 39.80282 58.84083 49.32183
# Shear Modulus (GPa) = 31.27374 41.64504 36.45939
#
# Velocity S-wave (km/s) = 3.62605 4.18432 3.91515
# Velocity P-wave (km/s) = 5.85363 6.93418 6.41669
#
# Compressibility (1/GPa) = 0.02512385
#
# Stress axis : x y z
#
# Youngs Moduli (GPa) = 118.23859 69.84337 88.48645
#
# Poissons Ratio (x) = 0.16762 0.28011
# Poissons Ratio (y) = 0.28377 -0.09639
# Poissons Ratio (z) = 0.37430 -0.07608
#
# Static dielectric constant tensor:
#      x y z
#    x 1.920120 0.030390 -0.007270 
#    y 0.030390 2.006590 0.072060 
#    z -0.007270 0.072060 2.003270 
# 
# From -- ./inp_files/340471.got.cif
#   From: 2010.05.17/outbox.cif.g08.bks.cpg/sg2_171_cif.got.tgz:340471.got - 2010.06.03 11:33:40.
