data_PCOD9028338
_publ_section_title
;
Structure prediction by ZEFSAII (Michael W. Deem and Ramdas Pophale) SiO2 
 PCOD9028338
Probable space group: P -1
;
_chemical_formula_sum "Si O2"
_cell_formula_units_Z 14
_cell_length_a 5.250045
_cell_length_b 19.039612
_cell_length_c 14.817883
_cell_angle_alpha 23.595113
_cell_angle_beta 68.783056
_cell_angle_gamma 74.143367
_cell_volume 545.871510
_symmetry_space_group_name_H-M "P -1"
_symmetry_group_IT_number 2
_symmetry_cell_setting 'triclinic'
loop_
_space_group_symop_operation_xyz
x,y,z
-x,-y,-z
loop_
_atom_site_type_symbol
_atom_site_label
_atom_site_fract_x
_atom_site_fract_y
_atom_site_fract_z
Si Si1 0.611397 0.153589 0.590928
Si Si2 0.605381 0.513945 0.723270
Si Si3 0.037366 0.961055 0.848322
Si Si4 0.479087 0.102533 0.250358
Si Si5 0.858127 0.490876 0.889448
Si Si6 0.748983 0.607881 0.396983
Si Si7 0.228306 0.280007 0.214584
O O1 0.588624 0.360346 0.350516
O O2 0.297514 0.051979 0.766387
O O3 0.816691 0.089950 0.709909
O O4 0.670534 0.062011 0.595498
O O5 0.481545 0.304376 0.972734
O O6 0.878808 0.517028 0.747794
O O7 0.653785 0.613234 0.505865
O O8 0.872915 0.787675 0.119192
O O9 0.198259 0.918150 0.784941
O O10 0.311852 0.106544 0.360379
O O11 0.869077 0.676001 0.724570
O O12 0.540105 0.391534 0.046824
O O13 0.023383 0.362828 0.075876
O O14 0.500000 0.500000 0.500000
O O15 0.000000 0.500000 0.500000
#
# Coordination Sequence:
#
# PCOD9028338 Si02
#       7
#     2   2   2   2   2   2   2
#     4  10  24  40  59  95 125 163 209 256 311 375
#     4  11  23  41  68  90 126 166 210 265 311 370
#     4  10  22  42  57  88 133 155 213 256 308 370
#     4   9  21  39  64  87 124 166 203 254 311 368
#     4   9  20  35  58  97 118 160 212 252 308 374
#     4  12  24  41  66  97 119 168 218 256 312 381
#     4   9  18  35  62  88 127 160 204 254 310 370
#
# _framework density 25.647061000000001
#
# number of rings (size 3 to 8) (size 9 to 14) (size 15 to 20)
#    0.857    1.143    1.429    1.714    4.000    6.857 
#    0.000    0.714    0.000    0.857    0.000    0.000 
#    0.000    0.000    0.000    0.000    0.000    0.000 
#
# Total GULP energy -78141.490934 kJ/mol
# GULP energy per Si atom -5581.535067 kJ/mol
# Density = 2.558869 g / cm^3
# Si number density = 25.647061 Si / 1000 Ang^3
#
#
#
# Elastic Constant Matrix: (Units=GPa)
#
#
# Indices 1 2 3 4 5 6 
#
# 1 164.3322 25.0778 60.7104 1.2475 28.0737 -1.2572
# 2 25.0778 115.7271 15.6399 -11.7286 -0.7367 10.8990
# 3 60.7104 15.6399 129.5110 -13.1958 5.0715 -1.8256
# 4 1.2475 -11.7286 -13.1958 53.4406 -5.5444 8.6846
# 5 28.0737 -0.7367 5.0715 -5.5444 38.1914 -7.8139
# 6 -1.2572 10.8990 -1.8256 8.6846 -7.8139 38.6311
#
#
#
# Elastic Compliance Matrix: (Units=1/GPa)
#
#
# Indices 1 2 3 4 5 6 
#
# 1 0.008905 -0.001633 -0.003950 -0.002167 -0.006418 -0.000247
# 2 -0.001633 0.009603 -0.000206 0.002728 0.001165 -0.003150
# 3 -0.003950 -0.000206 0.009791 0.002641 0.002025 0.000208
# 4 -0.002167 0.002728 0.002641 0.021142 0.003386 -0.004783
# 5 -0.006418 0.001165 0.002025 0.003386 0.032234 0.005317
# 6 -0.000247 -0.003150 0.000208 -0.004783 0.005317 0.028927
#
#
# Mechanical properties :
#
#
# Convention : Reuss Voigt Hill
#
# Bulk Modulus (GPa) = 59.80910 68.04739 63.92825
# Shear Modulus (GPa) = 39.13761 46.59542 42.86651
#
# Velocity S-wave (km/s) = 3.91065 4.26701 4.09271
# Velocity P-wave (km/s) = 6.61526 7.13206 6.87852
#
# Compressibility (1/GPa) = 0.01671986
#
# Stress axis : x y z
#
# Youngs Moduli (GPa) = 112.30069 104.13127 102.13903
#
# Poissons Ratio (x) = 0.17005 0.40345
# Poissons Ratio (y) = 0.18339 0.02107
# Poissons Ratio (z) = 0.44359 0.02148
#
# Static dielectric constant tensor:
#      x y z
#    x 2.115440 -0.046650 -0.095470 
#    y -0.046650 2.317750 0.205400 
#    z -0.095470 0.205400 2.148510 
# 
# From -- ./inp_files/485109.got.cif
#   From: 2010.05.17/outbox.cif.g08.bks.cpg/sg2_243_cif.got.tgz:485109.got - 2010.06.03 11:33:40.
