data_PCOD9028604
_publ_section_title
;
Structure prediction by ZEFSAII (Michael W. Deem and Ramdas Pophale) SiO2 
 PCOD9028604
Probable space group: P -1
;
_chemical_formula_sum "Si O2"
_cell_formula_units_Z 16
_cell_length_a 11.800625
_cell_length_b 12.111460
_cell_length_c 11.162333
_cell_angle_alpha 98.262626
_cell_angle_beta 105.597231
_cell_angle_gamma 143.798799
_cell_volume 701.825273
_symmetry_space_group_name_H-M "P -1"
_symmetry_group_IT_number 2
_symmetry_cell_setting 'triclinic'
loop_
_space_group_symop_operation_xyz
x,y,z
-x,-y,-z
loop_
_atom_site_type_symbol
_atom_site_label
_atom_site_fract_x
_atom_site_fract_y
_atom_site_fract_z
Si Si1 0.064275 0.831288 0.772062
Si Si2 0.552275 0.836216 0.714599
Si Si3 0.915296 0.337855 0.854310
Si Si4 0.803890 0.995419 0.405176
Si Si5 0.325003 0.680651 0.369595
Si Si6 0.691181 0.659196 0.263287
Si Si7 0.200410 0.185379 0.195578
Si Si8 0.608693 0.362216 0.103115
O O1 0.906821 0.601856 0.755922
O O2 0.910503 0.817133 0.746549
O O3 0.095747 0.836064 0.640753
O O4 0.343736 0.086401 0.943180
O O5 0.392088 0.732000 0.536267
O O6 0.726783 0.874111 0.742074
O O7 0.388537 0.667335 0.759170
O O8 0.742578 0.098890 0.829692
O O9 0.758089 0.270294 0.696663
O O10 0.159717 0.489614 0.884147
O O11 0.000000 0.500000 0.000000
O O12 0.571015 0.846303 0.391706
O O13 0.713503 0.809783 0.275962
O O14 0.036845 0.153130 0.579241
O O15 0.465776 0.456618 0.264128
O O16 0.615711 0.503095 0.119519
O O17 0.000000 0.000000 0.000000
#
# Coordination Sequence:
#
# PCOD9028604 Si02
#       8
#     2   2   2   2   2   2   2   2
#     4  12  24  40  71 103 139 186 222 286 347 410
#     4  11  26  46  72 102 139 187 226 290 342 411
#     4  12  28  48  75  99 137 187 236 292 339 405
#     4  11  25  40  65 104 141 180 229 279 346 414
#     4  12  27  47  70 103 145 184 233 281 345 410
#     4  10  22  42  63  99 144 179 224 285 338 415
#     4  11  22  42  70 103 145 178 226 280 354 412
#     4  11  25  46  68 104 136 178 239 283 341 413
#
# _framework density 22.797696999999999
#
# number of rings (size 3 to 8) (size 9 to 14) (size 15 to 20)
#    0.000    0.750    3.750    4.125    5.250    6.000 
#    0.000    0.000    0.000    0.000    0.000    0.000 
#    0.000    0.000    0.000    0.000    0.000    0.000 
#
# Total GULP energy -89575.369791 kJ/mol
# GULP energy per Si atom -5598.460612 kJ/mol
# Density = 2.274581 g / cm^3
# Si number density = 22.797697 Si / 1000 Ang^3
#
#
#
# Elastic Constant Matrix: (Units=GPa)
#
#
# Indices 1 2 3 4 5 6 
#
# 1 63.1510 35.3267 2.6228 9.0628 -7.0814 12.3832
# 2 35.3267 101.9446 9.8037 14.5200 -8.7848 0.7200
# 3 2.6228 9.8037 62.3563 7.5832 3.3019 6.4288
# 4 9.0628 14.5200 7.5832 43.5365 -2.1515 -0.5236
# 5 -7.0814 -8.7848 3.3019 -2.1515 26.3705 -2.4017
# 6 12.3832 0.7200 6.4288 -0.5236 -2.4017 44.1544
#
#
#
# Elastic Compliance Matrix: (Units=1/GPa)
#
#
# Indices 1 2 3 4 5 6 
#
# 1 0.021455 -0.006936 0.000935 -0.002258 0.002610 -0.005925
# 2 -0.006936 0.012944 -0.001811 -0.002400 0.002673 0.002115
# 3 0.000935 -0.001811 0.017074 -0.002747 -0.002980 -0.002913
# 4 -0.002258 -0.002400 -0.002747 0.024789 0.001090 0.001426
# 5 0.002610 0.002673 -0.002980 0.001090 0.040143 0.001855
# 6 -0.005925 0.002115 -0.002913 0.001426 0.001855 0.024817
#
#
# Mechanical properties :
#
#
# Convention : Reuss Voigt Hill
#
# Bulk Modulus (GPa) = 27.89427 35.88426 31.88927
# Shear Modulus (GPa) = 29.62134 34.79220 32.20677
#
# Velocity S-wave (km/s) = 3.60851 3.91081 3.76269
# Velocity P-wave (km/s) = 5.44278 6.01390 5.73546
#
# Compressibility (1/GPa) = 0.03584965
#
# Stress axis : x y z
#
# Youngs Moduli (GPa) = 46.60936 77.25394 58.56697
#
# Poissons Ratio (x) = 0.53586 -0.05478
# Poissons Ratio (y) = 0.32330 0.10607
# Poissons Ratio (z) = -0.04360 0.13991
#
# Static dielectric constant tensor:
#      x y z
#    x 1.804990 -0.026380 -0.023730 
#    y -0.026380 1.859710 -0.005660 
#    z -0.023730 -0.005660 1.889460 
# 
# From -- ./inp_files/428417.got.cif
#   From: 2010.05.17/outbox.cif.g08.bks.cpg/sg2_215_cif.got.tgz:428417.got - 2010.06.03 11:33:40.
