data_PCOD9028688
_publ_section_title
;
Structure prediction by ZEFSAII (Michael W. Deem and Ramdas Pophale) SiO2 
 PCOD9028688
Probable space group: P -1
;
_chemical_formula_sum "Si O2"
_cell_formula_units_Z 16
_cell_length_a 12.665593
_cell_length_b 18.782975
_cell_length_c 8.272300
_cell_angle_alpha 103.235229
_cell_angle_beta 52.080639
_cell_angle_gamma 144.754062
_cell_volume 717.035841
_symmetry_space_group_name_H-M "P -1"
_symmetry_group_IT_number 2
_symmetry_cell_setting 'triclinic'
loop_
_space_group_symop_operation_xyz
x,y,z
-x,-y,-z
loop_
_atom_site_type_symbol
_atom_site_label
_atom_site_fract_x
_atom_site_fract_y
_atom_site_fract_z
Si Si1 0.058548 0.110673 0.936404
Si Si2 0.989082 0.619382 0.556443
Si Si3 0.589445 0.703315 0.985103
Si Si4 0.571720 0.968211 0.791719
Si Si5 0.772988 0.175087 0.263455
Si Si6 0.409856 0.135797 0.008526
Si Si7 0.759516 0.678729 0.303268
Si Si8 0.861222 0.707430 0.577535
O O1 0.198822 0.207397 0.019648
O O2 0.280698 0.255374 0.674241
O O3 0.000000 0.000000 0.000000
O O4 0.770989 0.984061 0.035081
O O5 0.109637 0.711666 0.657078
O O6 0.261044 0.719882 0.262062
O O7 0.732702 0.441230 0.732357
O O8 0.839768 0.612906 0.591567
O O9 0.668412 0.816596 0.881875
O O10 0.608983 0.638973 0.828801
O O11 0.339319 0.844071 0.808901
O O12 0.638962 0.929558 0.813008
O O13 0.853631 0.129382 0.519714
O O14 0.500000 0.000000 0.000000
O O15 0.500000 0.000000 0.500000
O O16 0.039520 0.254900 0.993933
O O17 0.500000 0.500000 0.500000
O O18 0.920860 0.751348 0.357793
#
# Coordination Sequence:
#
# PCOD9028688 Si02
#       8
#     2   2   2   2   2   2   2   2
#     4  10  22  42  64  93 132 177 221 264 329 404
#     4  12  23  42  69  97 131 170 220 275 328 396
#     4  11  26  43  62  99 136 172 211 272 342 395
#     4  12  21  41  66  95 122 166 223 274 314 384
#     4  12  23  39  68 100 127 170 229 280 323 394
#     4  11  23  45  68  93 129 177 223 267 326 400
#     4  12  23  40  64  98 136 171 216 281 341 392
#     4  12  23  39  67  94 132 165 215 269 333 385
#
# _framework density 22.314088000000002
#
# number of rings (size 3 to 8) (size 9 to 14) (size 15 to 20)
#    0.000    0.500    5.000    3.750    1.750    0.500 
#    0.000    0.625    0.000    0.000    0.000    0.000 
#    0.000    0.000    0.000    0.000    0.000    0.000 
#
# Total GULP energy -89130.787336 kJ/mol
# GULP energy per Si atom -5570.674209 kJ/mol
# Density = 2.226330 g / cm^3
# Si number density = 22.314088 Si / 1000 Ang^3
#
#
#
# Elastic Constant Matrix: (Units=GPa)
#
#
# Indices 1 2 3 4 5 6 
#
# 1 150.8851 36.0237 -3.3224 -2.2112 22.2960 -19.1072
# 2 36.0237 57.9894 12.9474 -16.0201 8.6710 -6.2394
# 3 -3.3224 12.9474 72.4834 -21.0286 0.1614 -7.9239
# 4 -2.2112 -16.0201 -21.0286 30.5763 0.1470 11.6659
# 5 22.2960 8.6710 0.1614 0.1470 28.8586 -5.8459
# 6 -19.1072 -6.2394 -7.9239 11.6659 -5.8459 31.0277
#
#
#
# Elastic Compliance Matrix: (Units=1/GPa)
#
#
# Indices 1 2 3 4 5 6 
#
# 1 0.009304 -0.005800 0.000980 -0.003731 -0.004338 0.005399
# 2 -0.005800 0.024993 -0.001289 0.013625 -0.004056 -0.004762
# 3 0.000980 -0.001289 0.017361 0.011143 -0.000421 0.000509
# 4 -0.003731 0.013625 0.011143 0.054151 -0.005207 -0.018052
# 5 -0.004338 -0.004056 -0.000421 -0.005207 0.040464 0.005987
# 6 0.005399 -0.004762 0.000509 -0.018052 0.005987 0.042642
#
#
# Mechanical properties :
#
#
# Convention : Reuss Voigt Hill
#
# Bulk Modulus (GPa) = 25.35430 41.40612 33.38021
# Shear Modulus (GPa) = 23.33419 33.80646 28.57032
#
# Velocity S-wave (km/s) = 3.23726 3.89656 3.58211
# Velocity P-wave (km/s) = 5.03590 6.23222 5.66572
#
# Compressibility (1/GPa) = 0.03944104
#
# Stress axis : x y z
#
# Youngs Moduli (GPa) = 107.48256 40.01075 57.60104
#
# Poissons Ratio (x) = 0.23204 -0.05644
# Poissons Ratio (y) = 0.62335 0.07424
# Poissons Ratio (z) = -0.10532 0.05157
#
# Static dielectric constant tensor:
#      x y z
#    x 1.875690 -0.025560 -0.060580 
#    y -0.025560 1.946000 0.019640 
#    z -0.060580 0.019640 1.900060 
# 
# From -- ./inp_files/279492.got.cif
#   From: 2010.05.17/outbox.cif.g08.bks.cpg/sg2_140_cif.got.tgz:279492.got - 2010.06.03 11:33:40.
