data_PCOD9028762
_publ_section_title
;
Structure prediction by ZEFSAII (Michael W. Deem and Ramdas Pophale) SiO2 
 PCOD9028762
Probable space group: P -1
;
_chemical_formula_sum "Si O2"
_cell_formula_units_Z 13
_cell_length_a 12.329539
_cell_length_b 5.401737
_cell_length_c 7.385310
_cell_angle_alpha 84.024380
_cell_angle_beta 95.357695
_cell_angle_gamma 75.958921
_cell_volume 470.978783
_symmetry_space_group_name_H-M "P -1"
_symmetry_group_IT_number 2
_symmetry_cell_setting 'triclinic'
loop_
_space_group_symop_operation_xyz
x,y,z
-x,-y,-z
loop_
_atom_site_type_symbol
_atom_site_label
_atom_site_fract_x
_atom_site_fract_y
_atom_site_fract_z
Si Si1 0.550073 0.298534 0.361589
Si Si2 0.141031 0.246457 0.037651
Si Si3 0.897846 0.369520 0.524162
Si Si4 0.630661 0.960949 0.729171
Si Si5 0.033177 0.932386 0.786348
Si Si6 0.500000 0.000000 0.000000
Si Si7 0.712755 0.598907 0.234758
O O1 0.500000 0.500000 0.500000
O O2 0.607583 0.055750 0.515690
O O3 0.642405 0.388156 0.256509
O O4 0.452629 0.229305 0.227987
O O5 0.241019 0.156302 0.202963
O O6 0.027239 0.281639 0.133746
O O7 0.190417 0.430183 0.899962
O O8 0.120060 0.023868 0.919566
O O9 0.930357 0.194047 0.719901
O O10 0.780154 0.569168 0.440382
O O11 0.000000 0.500000 0.500000
O O12 0.907360 0.155058 0.386052
O O13 0.573955 0.155065 0.864269
O O14 0.380347 0.148166 0.861832
#
# Coordination Sequence:
#
# PCOD9028762 Si02
#       7
#     2   2   2   2   2   1   2
#     4  11  23  44  66  97 131 185 224 278 333 419
#     4  10  22  44  66 101 134 180 216 291 335 398
#     4  11  23  44  70 104 130 187 225 277 338 418
#     4  10  23  43  68  95 137 174 230 277 344 400
#     4  10  23  45  70  98 143 169 233 280 341 398
#     4  10  22  42  64  98 134 174 222 284 324 406
#     4  11  23  41  70  97 141 174 232 272 343 398
#
# _framework density 27.602096
#
# number of rings (size 3 to 8) (size 9 to 14) (size 15 to 20)
#    0.000    1.538    3.077    0.923    0.000    6.769 
#    5.538    0.000    0.000    0.000    0.000    0.000 
#    0.000    0.000    0.000    0.000    0.000    0.000 
#
# Total GULP energy -72459.574855 kJ/mol
# GULP energy per Si atom -5573.813450 kJ/mol
# Density = 2.753927 g / cm^3
# Si number density = 27.602096 Si / 1000 Ang^3
#
#
#
# Elastic Constant Matrix: (Units=GPa)
#
#
# Indices 1 2 3 4 5 6 
#
# 1 194.9592 61.0114 55.4970 -8.1553 20.7814 30.5502
# 2 61.0114 67.9847 41.7039 -16.5404 12.4963 12.6597
# 3 55.4970 41.7039 153.3882 -18.4461 31.5712 14.7428
# 4 -8.1553 -16.5404 -18.4461 49.4424 3.3861 -7.8542
# 5 20.7814 12.4963 31.5712 3.3861 66.6352 -10.1861
# 6 30.5502 12.6597 14.7428 -7.8542 -10.1861 56.4492
#
#
#
# Elastic Compliance Matrix: (Units=1/GPa)
#
#
# Indices 1 2 3 4 5 6 
#
# 1 0.007817 -0.006062 -0.000779 -0.001431 -0.001334 -0.003108
# 2 -0.006062 0.023953 -0.003255 0.005788 -0.001460 -0.000699
# 3 -0.000779 -0.003255 0.008841 0.002090 -0.003675 -0.001530
# 4 -0.001431 0.005788 0.002090 0.023148 -0.002547 0.001692
# 5 -0.001334 -0.001460 -0.003675 -0.002547 0.018326 0.004962
# 6 -0.003108 -0.000699 -0.001530 0.001692 0.004962 0.021084
#
#
# Mechanical properties :
#
#
# Convention : Reuss Voigt Hill
#
# Bulk Modulus (GPa) = 48.97468 81.41740 65.19604
# Shear Modulus (GPa) = 38.41128 51.71336 45.06232
#
# Velocity S-wave (km/s) = 3.73447 4.33313 4.04489
# Velocity P-wave (km/s) = 6.03131 7.38888 6.74434
#
# Compressibility (1/GPa) = 0.02041871
#
# Stress axis : x y z
#
# Youngs Moduli (GPa) = 127.91884 41.74825 113.10649
#
# Poissons Ratio (x) = 0.25308 0.08811
# Poissons Ratio (y) = 0.77544 0.36822
# Poissons Ratio (z) = 0.09965 0.13591
#
# Static dielectric constant tensor:
#      x y z
#    x 2.055380 -0.032930 0.066440 
#    y -0.032930 2.128620 -0.205050 
#    z 0.066440 -0.205050 2.078030 
# 
# From -- ./inp_files/87184.got.cif
#   From: 2010.05.17/outbox.cif.g08.bks.cpg/sg2_44_cif.got.tgz:87184.got - 2010.06.03 11:33:40.
