data_PCOD9028026
_publ_section_title
;
Structure prediction by ZEFSAII (Michael W. Deem and Ramdas Pophale) SiO2 
 PCOD9028026
Probable space group: P -1
;
_chemical_formula_sum "Si O2"
_cell_formula_units_Z 16
_cell_length_a 9.099074
_cell_length_b 7.745469
_cell_length_c 15.393300
_cell_angle_alpha 53.239645
_cell_angle_beta 113.738192
_cell_angle_gamma 89.891454
_cell_volume 750.728990
_symmetry_space_group_name_H-M "P -1"
_symmetry_group_IT_number 2
_symmetry_cell_setting 'triclinic'
loop_
_space_group_symop_operation_xyz
x,y,z
-x,-y,-z
loop_
_atom_site_type_symbol
_atom_site_label
_atom_site_fract_x
_atom_site_fract_y
_atom_site_fract_z
Si Si1 0.166808 0.060009 0.501906
Si Si2 0.766655 0.279263 0.877480
Si Si3 0.029757 0.466259 0.620993
Si Si4 0.406437 0.385623 0.710363
Si Si5 0.838221 0.671967 0.860650
Si Si6 0.514464 0.002814 0.291059
Si Si7 0.029936 0.949456 0.172424
Si Si8 0.397341 0.845061 0.479593
O O1 0.329282 0.946374 0.638369
O O2 0.113110 0.329221 0.426342
O O3 0.217801 0.977646 0.441402
O O4 0.000000 0.000000 0.500000
O O5 0.568530 0.320377 0.830905
O O6 0.802424 0.519361 0.821387
O O7 0.828307 0.173225 0.829610
O O8 0.875137 0.107191 0.028538
O O9 0.219532 0.472313 0.680864
O O10 0.000000 0.500000 0.500000
O O11 0.016350 0.232469 0.725111
O O12 0.418715 0.161161 0.724914
O O13 0.432516 0.587246 0.596529
O O14 0.652908 0.776364 0.831869
O O15 0.902211 0.886534 0.802073
O O16 0.000000 0.500000 0.000000
O O17 0.443710 0.858464 0.387057
O O18 0.500000 0.000000 0.500000
#
# Coordination Sequence:
#
# PCOD9028026 Si02
#       8
#     2   2   2   2   2   2   2   2
#     4  11  23  42  60  93 138 177 224 271 339 411
#     4  10  22  44  72  97 128 171 236 285 329 391
#     4  12  27  43  63  96 141 184 213 271 351 407
#     4  12  23  41  62  94 138 176 219 277 335 411
#     4  10  22  41  70  98 126 168 226 292 333 381
#     4  11  23  38  65  95 130 177 226 278 339 395
#     4  10  24  44  69  99 129 177 229 284 334 396
#     4  10  23  37  61  96 124 176 227 276 329 391
#
# _framework density 21.312618000000001
#
# number of rings (size 3 to 8) (size 9 to 14) (size 15 to 20)
#    0.000    1.250    3.750    1.875    7.000    0.500 
#    0.000    0.000    0.000    1.500    0.000    0.000 
#    0.000    0.000    0.000    0.000    0.000    0.000 
#
# Total GULP energy -89259.365033 kJ/mol
# GULP energy per Si atom -5578.710315 kJ/mol
# Density = 2.126411 g / cm^3
# Si number density = 21.312618 Si / 1000 Ang^3
#
#
#
# Elastic Constant Matrix: (Units=GPa)
#
#
# Indices 1 2 3 4 5 6 
#
# 1 101.5013 6.5002 48.0063 -0.9618 25.0074 15.4769
# 2 6.5002 97.2022 38.2974 -7.4253 5.9472 5.7283
# 3 48.0063 38.2974 86.2209 -3.4783 16.0622 10.7525
# 4 -0.9618 -7.4253 -3.4783 29.0986 3.7364 3.6943
# 5 25.0074 5.9472 16.0622 3.7364 45.4200 -4.7660
# 6 15.4769 5.7283 10.7525 3.6943 -4.7660 43.8328
#
#
#
# Elastic Compliance Matrix: (Units=1/GPa)
#
#
# Indices 1 2 3 4 5 6 
#
# 1 0.016087 0.003064 -0.008324 0.001845 -0.006986 -0.004954
# 2 0.003064 0.013255 -0.007038 0.003003 -0.001337 -0.001486
# 3 -0.008324 -0.007038 0.019861 0.000682 -0.001707 -0.001256
# 4 0.001845 0.003003 0.000682 0.036554 -0.005166 -0.004853
# 5 -0.006986 -0.001337 -0.001707 -0.005166 0.027750 0.006513
# 6 -0.004954 -0.001486 -0.001256 -0.004853 0.006513 0.026183
#
#
# Mechanical properties :
#
#
# Convention : Reuss Voigt Hill
#
# Bulk Modulus (GPa) = 40.63972 52.28136 46.46054
# Shear Modulus (GPa) = 28.98748 36.47833 32.73291
#
# Velocity S-wave (km/s) = 3.69197 4.14162 3.92324
# Velocity P-wave (km/s) = 6.10606 6.88873 6.50917
#
# Compressibility (1/GPa) = 0.02460647
#
# Stress axis : x y z
#
# Youngs Moduli (GPa) = 62.16190 75.44533 50.34929
#
# Poissons Ratio (x) = -0.23119 0.41913
# Poissons Ratio (y) = -0.19048 0.35436
# Poissons Ratio (z) = 0.51746 0.53099
#
# Static dielectric constant tensor:
#      x y z
#    x 1.711090 0.018370 0.146620 
#    y 0.018370 1.794060 -0.030300 
#    z 0.146620 -0.030300 1.690260 
# 
# From -- ./inp_files/555951.got.cif
#   From: 2010.05.17/outbox.cif.g08.bks.cpg/sg2_278_cif.got.tgz:555951.got - 2010.06.03 11:33:40.
