data_PCOD9028023
_publ_section_title
;
Structure prediction by ZEFSAII (Michael W. Deem and Ramdas Pophale) SiO2 
 PCOD9028023
Probable space group: P -1
;
_chemical_formula_sum "Si O2"
_cell_formula_units_Z 16
_cell_length_a 8.697880
_cell_length_b 26.460332
_cell_length_c 9.023214
_cell_angle_alpha 138.977116
_cell_angle_beta 109.266037
_cell_angle_gamma 39.794614
_cell_volume 701.537122
_symmetry_space_group_name_H-M "P -1"
_symmetry_group_IT_number 2
_symmetry_cell_setting 'triclinic'
loop_
_space_group_symop_operation_xyz
x,y,z
-x,-y,-z
loop_
_atom_site_type_symbol
_atom_site_label
_atom_site_fract_x
_atom_site_fract_y
_atom_site_fract_z
Si Si1 0.068294 0.567056 0.317266
Si Si2 0.049460 0.888265 0.763776
Si Si3 0.451774 0.279057 0.672922
Si Si4 0.242695 0.116294 0.547655
Si Si5 0.633877 0.099656 0.587555
Si Si6 0.388836 0.560250 0.933409
Si Si7 0.201643 0.827953 0.020559
Si Si8 0.346579 0.485711 0.495735
O O1 0.307883 0.529445 0.241815
O O2 0.053574 0.585234 0.527663
O O3 0.753150 0.698887 0.432755
O O4 0.224089 0.424125 0.009880
O O5 0.346961 0.759844 0.473174
O O6 0.799439 0.935314 0.702592
O O7 0.104145 0.847938 0.865166
O O8 0.000000 0.000000 0.000000
O O9 0.639119 0.159038 0.587052
O O10 0.353185 0.155175 0.607513
O O11 0.500000 0.000000 0.500000
O O12 0.895906 0.272252 0.823351
O O13 0.668536 0.137196 0.829781
O O14 0.921056 0.934098 0.277307
O O15 0.299806 0.518577 0.725636
O O16 0.500000 0.500000 0.000000
O O17 0.439333 0.671336 0.799880
O O18 0.500000 0.500000 0.500000
#
# Coordination Sequence:
#
# PCOD9028023 Si02
#       8
#     2   2   2   2   2   2   2   2
#     4  10  22  41  70  97 137 182 233 283 344 422
#     4  12  25  47  71 105 144 185 230 304 357 425
#     4  11  22  44  72 100 135 185 235 285 355 420
#     4  12  28  44  72 108 145 187 239 295 360 426
#     4  11  25  45  75  99 146 186 235 291 362 428
#     4  11  23  45  69  98 143 184 230 293 356 412
#     4  11  24  45  73 104 141 189 239 292 357 424
#     4  10  23  40  68 101 137 183 234 287 346 422
#
# _framework density 22.807061999999998
#
# number of rings (size 3 to 8) (size 9 to 14) (size 15 to 20)
#    0.000    1.000    3.750    2.250    5.250    3.500 
#    2.250    1.250    0.000    0.000    0.000    0.000 
#    0.000    0.000    0.000    0.000    0.000    0.000 
#
# Total GULP energy -89195.397319 kJ/mol
# GULP energy per Si atom -5574.712332 kJ/mol
# Density = 2.275515 g / cm^3
# Si number density = 22.807062 Si / 1000 Ang^3
#
#
#
# Elastic Constant Matrix: (Units=GPa)
#
#
# Indices 1 2 3 4 5 6 
#
# 1 64.3028 28.0645 8.2632 -21.2411 0.2695 -21.2711
# 2 28.0645 185.7619 42.2501 -41.8648 1.6412 -17.0421
# 3 8.2632 42.2501 71.9334 -20.1083 11.7574 -11.6168
# 4 -21.2411 -41.8648 -20.1083 38.7620 -8.9166 11.0853
# 5 0.2695 1.6412 11.7574 -8.9166 23.9474 0.0521
# 6 -21.2711 -17.0421 -11.6168 11.0853 0.0521 37.1247
#
#
#
# Elastic Compliance Matrix: (Units=1/GPa)
#
#
# Indices 1 2 3 4 5 6 
#
# 1 0.022258 -0.000564 0.001824 0.010301 0.002706 0.009985
# 2 -0.000564 0.007795 -0.003048 0.007353 0.003706 0.000101
# 3 0.001824 -0.003048 0.018597 0.004500 -0.007276 0.004132
# 4 0.010301 0.007353 0.004500 0.045865 0.014255 -0.003029
# 5 0.002706 0.003706 -0.007276 0.014255 0.050361 -0.003352
# 6 0.009985 0.000101 0.004132 -0.003029 -0.003352 0.034906
#
#
# Mechanical properties :
#
#
# Convention : Reuss Voigt Hill
#
# Bulk Modulus (GPa) = 22.18546 53.23928 37.71237
# Shear Modulus (GPa) = 25.20410 36.19484 30.69947
#
# Velocity S-wave (km/s) = 3.32791 3.98804 3.67284
# Velocity P-wave (km/s) = 4.95129 6.67832 5.87857
#
# Compressibility (1/GPa) = 0.04507458
#
# Stress axis : x y z
#
# Youngs Moduli (GPa) = 44.92858 128.28383 53.77309
#
# Poissons Ratio (x) = 0.07233 -0.09809
# Poissons Ratio (y) = 0.02533 0.16389
# Poissons Ratio (z) = -0.08196 0.39098
#
# Static dielectric constant tensor:
#      x y z
#    x 1.868880 -0.011650 0.024320 
#    y -0.011650 1.911500 -0.058110 
#    z 0.024320 -0.058110 1.913040 
# 
# From -- ./inp_files/227764.got.cif
#   From: 2010.05.17/outbox.cif.g08.bks.cpg/sg2_114_cif.got.tgz:227764.got - 2010.06.03 11:33:40.
