data_PCOD9028344
_publ_section_title
;
Structure prediction by ZEFSAII (Michael W. Deem and Ramdas Pophale) SiO2 
 PCOD9028344
Probable space group: P -1
;
_chemical_formula_sum "Si O2"
_cell_formula_units_Z 13
_cell_length_a 19.691619
_cell_length_b 12.841322
_cell_length_c 9.243397
_cell_angle_alpha 36.804056
_cell_angle_beta 139.856599
_cell_angle_gamma 154.507689
_cell_volume 594.723908
_symmetry_space_group_name_H-M "P -1"
_symmetry_group_IT_number 2
_symmetry_cell_setting 'triclinic'
loop_
_space_group_symop_operation_xyz
x,y,z
-x,-y,-z
loop_
_atom_site_type_symbol
_atom_site_label
_atom_site_fract_x
_atom_site_fract_y
_atom_site_fract_z
Si Si1 0.925502 0.568347 0.385907
Si Si2 0.832508 0.790702 0.265486
Si Si3 0.666621 0.063548 0.071939
Si Si4 0.670425 0.253481 0.560580
Si Si5 0.163061 0.069874 0.584758
Si Si6 0.000000 0.000000 0.000000
Si Si7 0.709573 0.435784 0.928921
O O1 0.809342 0.368866 0.547084
O O2 0.046203 0.867968 0.297209
O O3 0.000000 0.500000 0.500000
O O4 0.818316 0.565397 0.107996
O O5 0.685869 0.479999 0.349459
O O6 0.799786 0.888659 0.228448
O O7 0.896182 0.926064 0.063190
O O8 0.972745 0.847298 0.503982
O O9 0.761278 0.003877 0.281241
O O10 0.478581 0.789008 0.094473
O O11 0.685459 0.186113 0.815239
O O12 0.729383 0.274507 0.061755
O O13 0.500000 0.000000 0.500000
O O14 0.234793 0.335724 0.334479
#
# Coordination Sequence:
#
# PCOD9028344 Si02
#       7
#     2   2   2   2   2   1   2
#     4  11  25  40  70  95 127 173 217 268 333 386
#     4  10  23  41  66  96 132 168 217 278 319 390
#     4  11  25  41  69  93 132 179 214 268 339 389
#     4  11  23  45  64  96 134 170 216 276 330 387
#     4  11  23  43  67  97 131 172 220 269 329 389
#     4  10  22  42  58  96 132 158 214 272 312 382
#     4  11  23  45  63  97 135 168 223 274 317 403
#
# _framework density 21.858882999999999
#
# number of rings (size 3 to 8) (size 9 to 14) (size 15 to 20)
#    0.000    1.231    4.615    0.462    6.462    0.615 
#    0.000    2.308    0.000    0.000    0.000    0.000 
#    0.000    0.000    0.000    0.000    0.000    0.000 
#
# Total GULP energy -72429.799678 kJ/mol
# GULP energy per Si atom -5571.523052 kJ/mol
# Density = 2.180913 g / cm^3
# Si number density = 21.858883 Si / 1000 Ang^3
#
#
#
# Elastic Constant Matrix: (Units=GPa)
#
#
# Indices 1 2 3 4 5 6 
#
# 1 118.0551 -6.6906 33.8250 0.6973 -0.6938 0.1350
# 2 -6.6906 48.7073 21.3571 -9.1280 -15.6241 2.4483
# 3 33.8250 21.3571 64.7443 -11.4444 -20.7197 1.6182
# 4 0.6973 -9.1280 -11.4444 33.9618 -4.9044 -10.4070
# 5 -0.6938 -15.6241 -20.7197 -4.9044 52.5549 1.0586
# 6 0.1350 2.4483 1.6182 -10.4070 1.0586 19.2245
#
#
#
# Elastic Compliance Matrix: (Units=1/GPa)
#
#
# Indices 1 2 3 4 5 6 
#
# 1 0.011051 0.004012 -0.008198 -0.002577 -0.002110 -0.001177
# 2 0.004012 0.027520 -0.008554 0.005097 0.005345 -0.000348
# 3 -0.008198 -0.008554 0.026897 0.009239 0.008747 0.003403
# 4 -0.002577 0.005097 0.009239 0.041534 0.008585 0.020602
# 5 -0.002110 0.005345 0.008747 0.008585 0.024800 0.001880
# 6 -0.001177 -0.000348 0.003403 0.020602 0.001880 0.062832
#
#
# Mechanical properties :
#
#
# Convention : Reuss Voigt Hill
#
# Bulk Modulus (GPa) = 25.00760 36.49885 30.75322
# Shear Modulus (GPa) = 21.41834 33.34927 27.38381
#
# Velocity S-wave (km/s) = 3.13365 3.91021 3.54327
# Velocity P-wave (km/s) = 4.95563 6.09262 5.55330
#
# Compressibility (1/GPa) = 0.03998785
#
# Stress axis : x y z
#
# Youngs Moduli (GPa) = 90.48809 36.33755 37.17826
#
# Poissons Ratio (x) = -0.14579 0.30480
# Poissons Ratio (y) = -0.36306 0.31802
# Poissons Ratio (z) = 0.74186 0.31083
#
# Static dielectric constant tensor:
#      x y z
#    x 1.727920 0.052060 0.001630 
#    y 0.052060 1.569600 0.064690 
#    z 0.001630 0.064690 1.733320 
# 
# From -- ./inp_files/151419.got.cif
#   From: 2010.05.17/outbox.cif.g08.bks.cpg/sg2_76_cif.got.tgz:151419.got - 2010.06.03 11:33:40.
