data_PCOD9028858
_publ_section_title
;
Structure prediction by ZEFSAII (Michael W. Deem and Ramdas Pophale) SiO2 
 PCOD9028858
Probable space group: P -1
;
_chemical_formula_sum "Si O2"
_cell_formula_units_Z 16
_cell_length_a 9.292319
_cell_length_b 11.366508
_cell_length_c 23.007481
_cell_angle_alpha 161.523637
_cell_angle_beta 107.144293
_cell_angle_gamma 81.502832
_cell_volume 662.522080
_symmetry_space_group_name_H-M "P -1"
_symmetry_group_IT_number 2
_symmetry_cell_setting 'triclinic'
loop_
_space_group_symop_operation_xyz
x,y,z
-x,-y,-z
loop_
_atom_site_type_symbol
_atom_site_label
_atom_site_fract_x
_atom_site_fract_y
_atom_site_fract_z
Si Si1 0.863922 0.396974 0.644536
Si Si2 0.212219 0.956052 0.912761
Si Si3 0.801716 0.892784 0.508985
Si Si4 0.971319 0.888375 0.651183
Si Si5 0.431441 0.456260 0.276989
Si Si6 0.256032 0.106629 0.711115
Si Si7 0.426915 0.092770 0.897397
Si Si8 0.323346 0.474090 0.486609
O O1 0.693150 0.443779 0.651312
O O2 0.017838 0.812614 0.835729
O O3 0.893636 0.272349 0.654834
O O4 0.835484 0.014805 0.419023
O O5 0.224381 0.526075 0.722987
O O6 0.275986 0.086342 0.915811
O O7 0.337547 0.287594 0.126428
O O8 0.879088 0.854710 0.562013
O O9 0.613390 0.834531 0.470105
O O10 0.838889 0.930781 0.700051
O O11 0.000000 0.500000 0.500000
O O12 0.156138 0.195967 0.794103
O O13 0.470781 0.095641 0.140125
O O14 0.258432 0.673936 0.522870
O O15 0.441693 0.456253 0.893179
O O16 0.363661 0.790337 0.693694
O O17 0.500000 0.500000 0.500000
#
# Coordination Sequence:
#
# PCOD9028858 Si02
#       8
#     2   2   2   2   2   2   2   2
#     4  12  23  38  62 100 126 165 209 258 316 361
#     4  11  22  40  60  89 129 172 203 258 306 379
#     4  11  21  40  65  86 127 165 216 250 307 384
#     4  10  22  42  65  92 120 166 212 257 310 372
#     4  11  23  38  59  92 133 166 203 261 314 363
#     4  11  23  39  67  93 126 166 216 252 302 387
#     4  11  22  42  63  91 126 169 213 249 313 378
#     4  11  22  43  67  92 123 162 209 266 320 358
#
# _framework density 24.150138999999999
#
# number of rings (size 3 to 8) (size 9 to 14) (size 15 to 20)
#    0.000    1.000    3.750    5.250    1.750    0.000 
#    0.000    0.625    0.000    0.000    0.000    0.000 
#    0.000    0.000    0.000    0.000    0.000    0.000 
#
# Total GULP energy -89294.270621 kJ/mol
# GULP energy per Si atom -5580.891914 kJ/mol
# Density = 2.409517 g / cm^3
# Si number density = 24.150139 Si / 1000 Ang^3
#
#
#
# Elastic Constant Matrix: (Units=GPa)
#
#
# Indices 1 2 3 4 5 6 
#
# 1 176.1016 32.4636 8.7362 7.6762 31.0627 33.8418
# 2 32.4636 76.5842 14.2186 -4.1869 11.8175 31.8721
# 3 8.7362 14.2186 36.9426 -2.3501 15.9771 13.5566
# 4 7.6762 -4.1869 -2.3501 31.2723 8.0888 8.4920
# 5 31.0627 11.8175 15.9771 8.0888 38.6948 7.0837
# 6 33.8418 31.8721 13.5566 8.4920 7.0837 43.0739
#
#
#
# Elastic Compliance Matrix: (Units=1/GPa)
#
#
# Indices 1 2 3 4 5 6 
#
# 1 0.007940 -0.000151 0.003761 0.001918 -0.007088 -0.006523
# 2 -0.000151 0.021274 0.000993 0.008963 -0.005587 -0.016784
# 3 0.003761 0.000993 0.040786 0.011608 -0.019740 -0.015569
# 4 0.001918 0.008963 0.011608 0.042173 -0.014646 -0.017698
# 5 -0.007088 -0.005587 -0.019740 -0.014646 0.042282 0.011849
# 6 -0.006523 -0.016784 -0.015569 -0.017698 0.011849 0.047200
#
#
# Mechanical properties :
#
#
# Convention : Reuss Voigt Hill
#
# Bulk Modulus (GPa) = 12.62505 44.49614 28.56059
# Shear Modulus (GPa) = 22.84663 38.22220 30.53441
#
# Velocity S-wave (km/s) = 3.07909 3.98262 3.55964
# Velocity P-wave (km/s) = 4.22849 6.29390 5.36159
#
# Compressibility (1/GPa) = 0.07920764
#
# Stress axis : x y z
#
# Youngs Moduli (GPa) = 125.94696 47.00538 24.51813
#
# Poissons Ratio (x) = 0.00709 -0.09222
# Poissons Ratio (y) = 0.01900 -0.02435
# Poissons Ratio (z) = -0.47374 -0.04668
#
# Static dielectric constant tensor:
#      x y z
#    x 2.027850 0.019490 0.009570 
#    y 0.019490 1.967330 0.000980 
#    z 0.009570 0.000980 1.945740 
# 
# From -- ./inp_files/184875.got.cif
#   From: 2010.05.17/outbox.cif.g08.bks.cpg/sg2_93_cif.got.tgz:184875.got - 2010.06.03 11:33:40.
