data_PCOD9028025
_publ_section_title
;
Structure prediction by ZEFSAII (Michael W. Deem and Ramdas Pophale) SiO2 
 PCOD9028025
Probable space group: P -1
;
_chemical_formula_sum "Si O2"
_cell_formula_units_Z 14
_cell_length_a 23.745903
_cell_length_b 7.921430
_cell_length_c 8.686699
_cell_angle_alpha 53.334054
_cell_angle_beta 150.396313
_cell_angle_gamma 135.400424
_cell_volume 565.627286
_symmetry_space_group_name_H-M "P -1"
_symmetry_group_IT_number 2
_symmetry_cell_setting 'triclinic'
loop_
_space_group_symop_operation_xyz
x,y,z
-x,-y,-z
loop_
_atom_site_type_symbol
_atom_site_label
_atom_site_fract_x
_atom_site_fract_y
_atom_site_fract_z
Si Si1 0.586542 0.335965 0.961709
Si Si2 0.733711 0.150602 0.198393
Si Si3 0.039930 0.813110 0.777334
Si Si4 0.977847 0.275646 0.860267
Si Si5 0.466234 0.712003 0.787729
Si Si6 0.685165 0.794617 0.764587
Si Si7 0.218695 0.458802 0.122637
O O1 0.649101 0.621725 0.921873
O O2 0.447380 0.225388 0.604380
O O3 0.680860 0.257226 0.147256
O O4 0.568190 0.257945 0.135957
O O5 0.836746 0.090765 0.555693
O O6 0.807434 0.353137 0.137343
O O7 0.600075 0.938876 0.928738
O O8 0.983861 0.539712 0.733882
O O9 0.005830 0.786151 0.892371
O O10 0.000000 0.000000 0.500000
O O11 0.197096 0.943061 0.066273
O O12 0.093389 0.300622 0.013271
O O13 0.344537 0.620422 0.437304
O O14 0.500000 0.500000 0.000000
O O15 0.738879 0.681357 0.823045
#
# Coordination Sequence:
#
# PCOD9028025 Si02
#       7
#     2   2   2   2   2   2   2
#     4  10  22  41  70  97 140 181 231 280 352 410
#     4  11  25  47  69  97 143 185 226 286 350 416
#     4  11  25  45  71 103 141 186 237 285 346 418
#     4  11  27  46  72 103 142 186 236 284 351 418
#     4  12  25  42  68 107 137 178 235 286 347 415
#     4  10  22  43  69 101 137 182 231 286 346 415
#     4  11  25  45  70 103 141 180 231 288 351 412
#
# _framework density 24.751282
#
# number of rings (size 3 to 8) (size 9 to 14) (size 15 to 20)
#    0.000    1.143    1.429    3.857    8.000    1.714 
#    0.000    0.000    0.000    0.000    0.000    0.000 
#    0.000    0.000    0.000    0.000    0.000    0.000 
#
# Total GULP energy -78477.765865 kJ/mol
# GULP energy per Si atom -5605.554705 kJ/mol
# Density = 2.469495 g / cm^3
# Si number density = 24.751282 Si / 1000 Ang^3
#
#
#
# Elastic Constant Matrix: (Units=GPa)
#
#
# Indices 1 2 3 4 5 6 
#
# 1 74.3354 17.3784 38.9407 -13.4240 16.3713 21.5211
# 2 17.3784 5.5192 -32.2389 -17.5075 8.5967 -5.7232
# 3 38.9407 -32.2389 76.6609 -2.1767 0.2707 -12.8503
# 4 -13.4240 -17.5075 -2.1767 54.0570 7.2281 -0.3537
# 5 16.3713 8.5967 0.2707 7.2281 34.2657 0.0061
# 6 21.5211 -5.7232 -12.8503 -0.3537 0.0061 26.2871
#
#
#
# Elastic Compliance Matrix: (Units=1/GPa)
#
#
# Indices 1 2 3 4 5 6 
#
# 1 0.014820 0.023166 0.001623 0.013310 -0.015712 -0.006114
# 2 0.023166 -0.006366 -0.019274 0.004081 -0.010174 -0.029717
# 3 0.001623 -0.019274 0.003236 -0.006457 0.005398 -0.004031
# 4 0.013310 0.004081 -0.006457 0.024452 -0.012487 -0.012833
# 5 -0.015712 -0.010174 0.005398 -0.012487 0.041832 0.013109
# 6 -0.006114 -0.029717 -0.004031 -0.012833 0.013109 0.034431
#
#
# Mechanical properties :
#
#
# Convention : Reuss Voigt Hill
#
# Bulk Modulus (GPa) = 44.01300 22.74178 33.37739
# Shear Modulus (GPa) = 45.89297 31.75098 38.82198
#
# Velocity S-wave (km/s) = 4.31067 3.58551 3.96470
# Velocity P-wave (km/s) = 6.52661 5.13315 5.87136
#
# Compressibility (1/GPa) = 0.02272056
#
# Stress axis : x y z
#
# Youngs Moduli (GPa) = 67.47447 -157.08278 308.97633
#
# Poissons Ratio (x) = 3.63904 -0.50140
# Poissons Ratio (y) = -1.56314 5.95530
# Poissons Ratio (z) = -0.10950 -3.02766
#
# Static dielectric constant tensor:
#      x y z
#    x 1.886300 -0.016420 0.006720 
#    y -0.016420 2.021430 0.000070 
#    z 0.006720 0.000070 1.927440 
# 
# From -- ./inp_files/352090.got.cif
#   From: 2010.05.17/outbox.cif.g08.bks.cpg/sg2_177_cif.got.tgz:352090.got - 2010.06.03 11:33:40.
