data_PCOD9028650
_publ_section_title
;
Structure prediction by ZEFSAII (Michael W. Deem and Ramdas Pophale) SiO2 
 PCOD9028650
Probable space group: P -1
;
_chemical_formula_sum "Si O2"
_cell_formula_units_Z 14
_cell_length_a 13.943427
_cell_length_b 7.812477
_cell_length_c 13.821659
_cell_angle_alpha 124.036996
_cell_angle_beta 32.292514
_cell_angle_gamma 104.661469
_cell_volume 578.393511
_symmetry_space_group_name_H-M "P -1"
_symmetry_group_IT_number 2
_symmetry_cell_setting 'triclinic'
loop_
_space_group_symop_operation_xyz
x,y,z
-x,-y,-z
loop_
_atom_site_type_symbol
_atom_site_label
_atom_site_fract_x
_atom_site_fract_y
_atom_site_fract_z
Si Si1 0.522111 0.926219 0.614078
Si Si2 0.802874 0.490884 0.122046
Si Si3 0.937241 0.270853 0.735609
Si Si4 0.092404 0.003745 0.026488
Si Si5 0.363187 0.178517 0.306194
Si Si6 0.533525 0.308483 0.019007
Si Si7 0.784441 0.176205 0.510063
O O1 0.602755 0.735990 0.399093
O O2 0.277214 0.059287 0.873229
O O3 0.607809 0.775905 0.593424
O O4 0.633727 0.083221 0.567751
O O5 0.812056 0.259589 0.090051
O O6 0.834316 0.453708 0.969400
O O7 0.000000 0.500000 0.000000
O O8 0.118499 0.289855 0.532298
O O9 0.757471 0.282434 0.827802
O O10 0.059007 0.020946 0.611094
O O11 0.000000 0.000000 0.000000
O O12 0.918000 0.177850 0.305619
O O13 0.478842 0.255558 0.156593
O O14 0.462872 0.893392 0.116064
O O15 0.354636 0.575731 0.239916
#
# Coordination Sequence:
#
# PCOD9028650 Si02
#       7
#     2   2   2   2   2   2   2
#     4  11  23  43  63  88 128 169 201 253 320 360
#     4  11  20  41  64  89 125 166 201 252 310 373
#     4  10  22  42  64  90 130 161 206 255 310 370
#     4  11  25  38  60  95 125 160 209 253 307 372
#     4  10  22  42  66  91 123 162 211 253 312 373
#     4  11  24  41  66  94 122 164 210 262 305 360
#     4  10  24  42  60  94 127 160 214 253 301 381
#
# _framework density 24.204974
#
# number of rings (size 3 to 8) (size 9 to 14) (size 15 to 20)
#    0.000    1.429    4.286    2.571    4.000    5.143 
#    0.000    6.429    0.000    0.000    0.000    0.000 
#    0.000    0.000    0.000    0.000    0.000    0.000 
#
# Total GULP energy -78463.801907 kJ/mol
# GULP energy per Si atom -5604.557279 kJ/mol
# Density = 2.414988 g / cm^3
# Si number density = 24.204974 Si / 1000 Ang^3
#
#
#
# Elastic Constant Matrix: (Units=GPa)
#
#
# Indices 1 2 3 4 5 6 
#
# 1 74.1004 18.3058 46.0370 -3.1257 -6.5038 8.3835
# 2 18.3058 83.8503 50.3111 5.1560 -10.0724 1.5595
# 3 46.0370 50.3111 162.5673 -17.0508 1.9124 10.6938
# 4 -3.1257 5.1560 -17.0508 41.1991 10.2388 -1.8472
# 5 -6.5038 -10.0724 1.9124 10.2388 43.6275 -3.3209
# 6 8.3835 1.5595 10.6938 -1.8472 -3.3209 20.7098
#
#
#
# Elastic Compliance Matrix: (Units=1/GPa)
#
#
# Indices 1 2 3 4 5 6 
#
# 1 0.017123 -0.000502 -0.004592 -0.001384 0.002642 -0.004222
# 2 -0.000502 0.016475 -0.005777 -0.005756 0.005509 0.002316
# 3 -0.004592 -0.005777 0.010051 0.005380 -0.003954 -0.003050
# 4 -0.001384 -0.005756 0.005380 0.029246 -0.008678 -0.000567
# 5 0.002642 0.005509 -0.003954 -0.008678 0.027111 0.004131
# 6 -0.004222 0.002316 -0.003050 -0.000567 0.004131 0.052008
#
#
# Mechanical properties :
#
#
# Convention : Reuss Voigt Hill
#
# Bulk Modulus (GPa) = 45.64895 61.09175 53.37035
# Shear Modulus (GPa) = 27.61523 34.83158 31.22340
#
# Velocity S-wave (km/s) = 3.38137 3.79756 3.59550
# Velocity P-wave (km/s) = 5.84339 6.67254 6.27168
#
# Compressibility (1/GPa) = 0.02190631
#
# Stress axis : x y z
#
# Youngs Moduli (GPa) = 58.39932 60.69913 99.49040
#
# Poissons Ratio (x) = 0.03046 0.45690
# Poissons Ratio (y) = 0.02931 0.57479
# Poissons Ratio (z) = 0.26819 0.35068
#
# Static dielectric constant tensor:
#      x y z
#    x 1.874960 -0.029140 0.013980 
#    y -0.029140 1.959660 0.008950 
#    z 0.013980 0.008950 1.922480 
# 
# From -- ./inp_files/236797.got.cif
#   From: 2010.05.17/outbox.cif.g08.bks.cpg/sg2_119_cif.got.tgz:236797.got - 2010.06.03 11:33:40.
