data_PCOD9028538
_publ_section_title
;
Structure prediction by ZEFSAII (Michael W. Deem and Ramdas Pophale) SiO2 
 PCOD9028538
Probable space group: P -1
;
_chemical_formula_sum "Si O2"
_cell_formula_units_Z 16
_cell_length_a 25.034172
_cell_length_b 9.169101
_cell_length_c 9.328113
_cell_angle_alpha 48.830289
_cell_angle_beta 149.308128
_cell_angle_gamma 130.577705
_cell_volume 802.605761
_symmetry_space_group_name_H-M "P -1"
_symmetry_group_IT_number 2
_symmetry_cell_setting 'triclinic'
loop_
_space_group_symop_operation_xyz
x,y,z
-x,-y,-z
loop_
_atom_site_type_symbol
_atom_site_label
_atom_site_fract_x
_atom_site_fract_y
_atom_site_fract_z
Si Si1 0.519682 0.278882 0.206302
Si Si2 0.905578 0.729539 0.296372
Si Si3 0.929944 0.429204 0.022901
Si Si4 0.225993 0.685561 0.741611
Si Si5 0.389135 0.891512 0.743263
Si Si6 0.338638 0.911572 0.127073
Si Si7 0.225176 0.963364 0.115824
Si Si8 0.990494 0.768774 0.146037
O O1 0.578282 0.243979 0.217665
O O2 0.592504 0.225027 0.540628
O O3 0.413547 0.101692 0.098457
O O4 0.500000 0.500000 0.000000
O O5 0.800721 0.551377 0.180184
O O6 0.000217 0.687337 0.641887
O O7 0.948101 0.721848 0.238546
O O8 0.868127 0.926525 0.128257
O O9 0.916757 0.620377 0.960207
O O10 0.823258 0.273302 0.833167
O O11 0.000000 0.500000 0.000000
O O12 0.310633 0.781990 0.755220
O O13 0.109592 0.734511 0.419241
O O14 0.267618 0.774208 0.934091
O O15 0.321954 0.024352 0.412858
O O16 0.500000 0.000000 0.000000
O O17 0.269828 0.993219 0.038027
O O18 0.000000 0.000000 0.000000
#
# Coordination Sequence:
#
# PCOD9028538 Si02
#       8
#     2   2   2   2   2   2   2   2
#     4  10  23  43  65  88 126 166 218 267 324 372
#     4  11  23  40  65  95 127 167 210 259 319 387
#     4  11  22  40  63  92 130 163 209 265 314 382
#     4  11  22  41  64  92 128 165 211 258 321 379
#     4  11  23  43  63  91 127 167 209 268 310 380
#     4  10  22  42  63  91 128 167 209 272 317 378
#     4  11  23  40  64  94 129 166 213 256 326 378
#     4  11  23  42  65  94 129 169 209 258 320 387
#
# _framework density 19.935067
#
# number of rings (size 3 to 8) (size 9 to 14) (size 15 to 20)
#    0.000    1.250    1.250    6.375    1.750    2.000 
#    6.750    1.250    0.000    0.000    0.000    0.000 
#    0.000    0.000    0.000    0.000    0.000    0.000 
#
# Total GULP energy -89344.271748 kJ/mol
# GULP energy per Si atom -5584.016984 kJ/mol
# Density = 1.988969 g / cm^3
# Si number density = 19.935067 Si / 1000 Ang^3
#
#
#
# Elastic Constant Matrix: (Units=GPa)
#
#
# Indices 1 2 3 4 5 6 
#
# 1 135.5710 24.4817 11.2804 -1.4205 -1.6364 12.1490
# 2 24.4817 103.1243 33.4994 -0.6943 2.8756 -7.8258
# 3 11.2804 33.4994 45.5162 3.4893 -3.9443 -9.3688
# 4 -1.4205 -0.6943 3.4893 37.5681 -3.8666 5.4220
# 5 -1.6364 2.8756 -3.9443 -3.8666 32.1188 4.8426
# 6 12.1490 -7.8258 -9.3688 5.4220 4.8426 26.8889
#
#
#
# Elastic Compliance Matrix: (Units=1/GPa)
#
#
# Indices 1 2 3 4 5 6 
#
# 1 0.008384 -0.001836 -0.001845 0.001387 0.001360 -0.005490
# 2 -0.001836 0.013360 -0.009261 0.000495 -0.002649 0.001869
# 3 -0.001845 -0.009261 0.031780 -0.004303 0.002673 0.009598
# 4 0.001387 0.000495 -0.004303 0.028750 0.004247 -0.008544
# 5 0.001360 -0.002649 0.002673 0.004247 0.033384 -0.007323
# 6 -0.005490 0.001869 0.009598 -0.008544 -0.007323 0.046600
#
#
# Mechanical properties :
#
#
# Convention : Reuss Voigt Hill
#
# Bulk Modulus (GPa) = 36.17844 46.97048 41.57446
# Shear Modulus (GPa) = 25.33484 33.64517 29.49000
#
# Velocity S-wave (km/s) = 3.56879 4.11267 3.85034
# Velocity P-wave (km/s) = 5.93037 6.79448 6.37707
#
# Compressibility (1/GPa) = 0.02764077
#
# Stress axis : x y z
#
# Youngs Moduli (GPa) = 119.27146 74.84842 31.46601
#
# Poissons Ratio (x) = 0.13744 0.05805
# Poissons Ratio (y) = 0.21902 0.29140
# Poissons Ratio (z) = 0.22004 0.69316
#
# Static dielectric constant tensor:
#      x y z
#    x 1.679660 0.013210 0.000280 
#    y 0.013210 1.725400 -0.009810 
#    z 0.000280 -0.009810 1.762860 
# 
# From -- ./inp_files/202866.got.cif
#   From: 2010.05.17/outbox.cif.g08.bks.cpg/sg2_102_cif.got.tgz:202866.got - 2010.06.03 11:33:40.
