data_PCOD9028583
_publ_section_title
;
Structure prediction by ZEFSAII (Michael W. Deem and Ramdas Pophale) SiO2 
 PCOD9028583
Probable space group: P -1
;
_chemical_formula_sum "Si O2"
_cell_formula_units_Z 12
_cell_length_a 5.693929
_cell_length_b 8.849801
_cell_length_c 11.730259
_cell_angle_alpha 71.961128
_cell_angle_beta 66.009020
_cell_angle_gamma 55.383815
_cell_volume 441.987013
_symmetry_space_group_name_H-M "P -1"
_symmetry_group_IT_number 2
_symmetry_cell_setting 'triclinic'
loop_
_space_group_symop_operation_xyz
x,y,z
-x,-y,-z
loop_
_atom_site_type_symbol
_atom_site_label
_atom_site_fract_x
_atom_site_fract_y
_atom_site_fract_z
Si Si1 0.426305 0.031254 0.336711
Si Si2 0.958266 0.338862 0.488514
Si Si3 0.428994 0.696255 0.109099
Si Si4 0.643653 0.641598 0.315742
Si Si5 0.558298 0.318495 0.148365
Si Si6 0.197082 0.068009 0.117196
O O1 0.551816 0.169610 0.265454
O O2 0.257314 0.059701 0.241527
O O3 0.205180 0.126277 0.464400
O O4 0.638615 0.809658 0.346967
O O5 0.868258 0.434146 0.358273
O O6 0.678492 0.336708 0.598750
O O7 0.000000 0.500000 0.500000
O O8 0.653117 0.669360 0.173115
O O9 0.370408 0.528406 0.175009
O O10 0.145262 0.898124 0.135126
O O11 0.536560 0.686446 0.961124
O O12 0.908300 0.254905 0.092047
O O13 0.500000 0.000000 0.000000
#
# Coordination Sequence:
#
# PCOD9028583 Si02
#       6
#     2   2   2   2   2   2
#     4  11  24  41  66  97 128 172 211 265 326 380
#     4  11  24  45  67  94 127 169 221 270 322 377
#     4  10  22  42  63  96 130 174 206 267 318 382
#     4  10  24  44  66  93 131 168 219 267 319 383
#     4  11  23  40  64  98 136 166 218 258 322 391
#     4  11  23  42  63  96 134 171 210 262 320 388
#
# _framework density 27.150120000000001
#
# number of rings (size 3 to 8) (size 9 to 14) (size 15 to 20)
#    0.000    1.333    1.667    3.000    0.000    6.667 
#   12.000    0.000    0.000    0.000    0.000    0.000 
#    0.000    0.000    0.000    0.000    0.000    0.000 
#
# Total GULP energy -67109.352640 kJ/mol
# GULP energy per Si atom -5592.446053 kJ/mol
# Density = 2.708832 g / cm^3
# Si number density = 27.150120 Si / 1000 Ang^3
#
#
#
# Elastic Constant Matrix: (Units=GPa)
#
#
# Indices 1 2 3 4 5 6 
#
# 1 36.3207 4.8180 11.5019 9.8363 -15.3060 4.5518
# 2 4.8180 152.7272 7.0066 11.6845 -9.2831 10.1636
# 3 11.5019 7.0066 71.4949 3.9755 7.4600 1.2003
# 4 9.8363 11.6845 3.9755 53.0088 11.6291 6.9547
# 5 -15.3060 -9.2831 7.4600 11.6291 47.3936 -7.5561
# 6 4.5518 10.1636 1.2003 6.9547 -7.5561 47.6195
#
#
#
# Elastic Compliance Matrix: (Units=1/GPa)
#
#
# Indices 1 2 3 4 5 6 
#
# 1 0.039878 0.000925 -0.007686 -0.010817 0.016998 0.000461
# 2 0.000925 0.006902 -0.000923 -0.001972 0.002134 -0.000912
# 3 -0.007686 -0.000923 0.015819 0.001774 -0.005689 -0.000629
# 4 -0.010817 -0.001972 0.001774 0.024008 -0.010653 -0.003786
# 5 0.016998 0.002134 -0.005689 -0.010653 0.031247 0.004577
# 6 0.000461 -0.000912 -0.000629 -0.003786 0.004577 0.022445
#
#
# Mechanical properties :
#
#
# Convention : Reuss Voigt Hill
#
# Bulk Modulus (GPa) = 21.17242 34.13287 27.65265
# Shear Modulus (GPa) = 29.16952 45.41879 37.29415
#
# Velocity S-wave (km/s) = 3.28133 4.09452 3.71027
# Velocity P-wave (km/s) = 4.70865 5.91208 5.34434
#
# Compressibility (1/GPa) = 0.04723125
#
# Stress axis : x y z
#
# Youngs Moduli (GPa) = 25.07625 144.88365 63.21330
#
# Poissons Ratio (x) = -0.13395 0.48586
# Poissons Ratio (y) = -0.02318 0.05834
# Poissons Ratio (z) = 0.19274 0.13371
#
# Static dielectric constant tensor:
#      x y z
#    x 2.214260 0.073640 -0.034500 
#    y 0.073640 2.127360 -0.047030 
#    z -0.034500 -0.047030 2.062360 
# 
# From -- ./inp_files/26857.got.cif
#   From: 2010.05.17/outbox.cif.g08.bks.cpg/sg2_14_cif.got.tgz:26857.got - 2010.06.03 11:33:40.
