data_PCOD9028553
_publ_section_title
;
Structure prediction by ZEFSAII (Michael W. Deem and Ramdas Pophale) SiO2 
 PCOD9028553
Probable space group: P -1
;
_chemical_formula_sum "Si O2"
_cell_formula_units_Z 14
_cell_length_a 11.622010
_cell_length_b 11.533062
_cell_length_c 11.222013
_cell_angle_alpha 142.472085
_cell_angle_beta 45.593396
_cell_angle_gamma 140.573674
_cell_volume 566.944701
_symmetry_space_group_name_H-M "P -1"
_symmetry_group_IT_number 2
_symmetry_cell_setting 'triclinic'
loop_
_space_group_symop_operation_xyz
x,y,z
-x,-y,-z
loop_
_atom_site_type_symbol
_atom_site_label
_atom_site_fract_x
_atom_site_fract_y
_atom_site_fract_z
Si Si1 0.720100 0.663337 0.487799
Si Si2 0.336727 0.931428 0.465125
Si Si3 0.688360 0.512963 0.908125
Si Si4 0.163775 0.456798 0.935863
Si Si5 0.954720 0.187341 0.223411
Si Si6 0.362275 0.986698 0.227855
Si Si7 0.783777 0.308035 0.225597
O O1 0.500000 0.500000 0.500000
O O2 0.735190 0.899481 0.683291
O O3 0.778237 0.534220 0.434786
O O4 0.819005 0.649479 0.284452
O O5 0.336281 0.720901 0.241849
O O6 0.152323 0.868655 0.621330
O O7 0.500000 0.000000 0.500000
O O8 0.350133 0.050936 0.428667
O O9 0.753932 0.621242 0.078082
O O10 0.840744 0.604573 0.767938
O O11 0.500000 0.500000 0.000000
O O12 0.957733 0.375884 0.067714
O O13 0.270877 0.724590 0.061917
O O14 0.829282 0.219609 0.241096
O O15 0.000000 0.000000 0.000000
O O16 0.587281 0.121808 0.161397
#
# Coordination Sequence:
#
# PCOD9028553 Si02
#       7
#     2   2   2   2   2   2   2
#     4  10  23  42  68  94 125 170 214 262 319 378
#     4  11  21  38  63  89 128 164 205 268 310 381
#     4  10  23  38  61  93 126 166 211 260 325 374
#     4  10  23  42  64  92 133 162 211 270 311 381
#     4  11  23  38  63  93 127 167 210 258 319 379
#     4  10  23  42  66  95 126 169 212 255 333 372
#     4  10  22  42  63  93 128 165 212 263 313 379
#
# _framework density 24.693764999999999
#
# number of rings (size 3 to 8) (size 9 to 14) (size 15 to 20)
#    0.000    1.714    1.429    1.714    8.000    2.857 
#    0.000    2.857    3.143    0.000    0.000    0.000 
#    0.000    0.000    0.000    0.000    0.000    0.000 
#
# Total GULP energy -78189.949171 kJ/mol
# GULP energy per Si atom -5584.996369 kJ/mol
# Density = 2.463756 g / cm^3
# Si number density = 24.693765 Si / 1000 Ang^3
#
#
#
# Elastic Constant Matrix: (Units=GPa)
#
#
# Indices 1 2 3 4 5 6 
#
# 1 106.0500 35.2265 32.8770 -15.6536 -28.5846 -10.5950
# 2 35.2265 100.1262 20.2753 -4.7286 -6.8085 -1.3182
# 3 32.8770 20.2753 84.3648 2.3325 -21.6445 -13.8214
# 4 -15.6536 -4.7286 2.3325 42.1091 -9.4191 -5.2003
# 5 -28.5846 -6.8085 -21.6445 -9.4191 40.5069 0.3178
# 6 -10.5950 -1.3182 -13.8214 -5.2003 0.3178 37.2866
#
#
#
# Elastic Compliance Matrix: (Units=1/GPa)
#
#
# Indices 1 2 3 4 5 6 
#
# 1 0.016416 -0.004110 -0.001751 0.009048 0.012022 0.005030
# 2 -0.004110 0.011630 -0.001991 -0.000796 -0.002182 -0.001587
# 3 -0.001751 -0.001991 0.015610 0.000433 0.006830 0.005220
# 4 0.009048 -0.000796 0.000433 0.030895 0.013613 0.006896
# 5 0.012022 -0.002182 0.006830 0.013613 0.039561 0.007432
# 6 0.005030 -0.001587 0.005220 0.006896 0.007432 0.031026
#
#
# Mechanical properties :
#
#
# Convention : Reuss Voigt Hill
#
# Bulk Modulus (GPa) = 35.77686 51.92206 43.84946
# Shear Modulus (GPa) = 29.38419 37.45801 33.42110
#
# Velocity S-wave (km/s) = 3.45330 3.89897 3.68288
# Velocity P-wave (km/s) = 5.51544 6.42972 5.99005
#
# Compressibility (1/GPa) = 0.02795103
#
# Stress axis : x y z
#
# Youngs Moduli (GPa) = 60.91529 85.98673 64.06163
#
# Poissons Ratio (x) = 0.35340 0.11220
# Poissons Ratio (y) = 0.25035 0.12756
# Poissons Ratio (z) = 0.10669 0.17121
#
# Static dielectric constant tensor:
#      x y z
#    x 2.340380 -0.260300 0.097500 
#    y -0.260300 2.218270 -0.031600 
#    z 0.097500 -0.031600 1.937070 
# 
# From -- ./inp_files/181856.got.cif
#   From: 2010.05.17/outbox.cif.g08.bks.cpg/sg2_91_cif.got.tgz:181856.got - 2010.06.03 11:33:40.
