data_PCOD9028949
_publ_section_title
;
Structure prediction by ZEFSAII (Michael W. Deem and Ramdas Pophale) SiO2 
 PCOD9028949
Probable space group: P -1
;
_chemical_formula_sum "Si O2"
_cell_formula_units_Z 16
_cell_length_a 11.318964
_cell_length_b 13.365918
_cell_length_c 9.474828
_cell_angle_alpha 118.247335
_cell_angle_beta 135.929331
_cell_angle_gamma 45.307322
_cell_volume 707.279100
_symmetry_space_group_name_H-M "P -1"
_symmetry_group_IT_number 2
_symmetry_cell_setting 'triclinic'
loop_
_space_group_symop_operation_xyz
x,y,z
-x,-y,-z
loop_
_atom_site_type_symbol
_atom_site_label
_atom_site_fract_x
_atom_site_fract_y
_atom_site_fract_z
Si Si1 0.754823 0.988580 0.058261
Si Si2 0.842431 0.648622 0.543585
Si Si3 0.710957 0.345694 0.608505
Si Si4 0.196706 0.926602 0.405647
Si Si5 0.255413 0.066999 0.309326
Si Si6 0.063864 0.553461 0.956476
Si Si7 0.125466 0.171508 0.688387
Si Si8 0.643296 0.709830 0.145046
O O1 0.748963 0.887586 0.095279
O O2 0.566394 0.152510 0.004598
O O3 0.964637 0.972204 0.268581
O O4 0.775547 0.935180 0.883307
O O5 0.875539 0.771756 0.642327
O O6 0.636371 0.703912 0.306159
O O7 0.000000 0.500000 0.500000
O O8 0.877153 0.620173 0.722794
O O9 0.500000 0.500000 0.500000
O O10 0.660332 0.239043 0.549673
O O11 0.874454 0.266770 0.564981
O O12 0.856469 0.358449 0.852913
O O13 0.205559 0.972452 0.287051
O O14 0.222516 0.027684 0.590002
O O15 0.500000 0.000000 0.500000
O O16 0.268705 0.430136 0.960696
O O17 0.000000 0.500000 0.000000
O O18 0.180538 0.265002 0.721014
#
# Coordination Sequence:
#
# PCOD9028949 Si02
#       8
#     2   2   2   2   2   2   2   2
#     4  11  23  39  66  99 133 170 229 273 337 393
#     4  10  22  42  65  96 135 168 220 282 334 391
#     4  11  25  44  66 102 138 174 226 275 339 401
#     4  11  25  44  68  97 139 176 216 284 342 393
#     4  12  23  43  69  97 132 174 228 275 330 405
#     4  11  24  42  69  94 136 181 226 278 335 395
#     4  11  22  44  66  98 132 179 221 280 327 400
#     4  11  22  42  67  99 129 178 227 276 331 397
#
# _framework density 22.621901999999999
#
# number of rings (size 3 to 8) (size 9 to 14) (size 15 to 20)
#    0.000    1.000    3.750    3.750    3.500    1.000 
#    0.000    0.000    0.000    3.000    0.000    0.000 
#    0.000    0.000    0.000    0.000    0.000    0.000 
#
# Total GULP energy -89276.536332 kJ/mol
# GULP energy per Si atom -5579.783521 kJ/mol
# Density = 2.257041 g / cm^3
# Si number density = 22.621902 Si / 1000 Ang^3
#
#
#
# Elastic Constant Matrix: (Units=GPa)
#
#
# Indices 1 2 3 4 5 6 
#
# 1 44.4761 13.8614 13.8992 -11.6660 -13.5356 6.3744
# 2 13.8614 135.7798 21.6863 -0.8447 -5.1376 -2.4744
# 3 13.8992 21.6863 75.8500 -6.9246 -30.1643 -1.1113
# 4 -11.6660 -0.8447 -6.9246 55.1636 -2.7811 0.6977
# 5 -13.5356 -5.1376 -30.1643 -2.7811 36.6060 -5.0349
# 6 6.3744 -2.4744 -1.1113 0.6977 -5.0349 32.5168
#
#
#
# Elastic Compliance Matrix: (Units=1/GPa)
#
#
# Indices 1 2 3 4 5 6 
#
# 1 0.028748 -0.002600 0.000086 0.006622 0.010236 -0.004388
# 2 -0.002600 0.007990 -0.002677 -0.000874 -0.002011 0.000734
# 3 0.000086 -0.002677 0.021497 0.003547 0.018085 0.003238
# 4 0.006622 -0.000874 0.003547 0.020306 0.006703 -0.000641
# 5 0.010236 -0.002011 0.018085 0.006703 0.047001 0.005592
# 6 -0.004388 0.000734 0.003238 -0.000641 0.005592 0.032660
#
#
# Mechanical properties :
#
#
# Convention : Reuss Voigt Hill
#
# Bulk Modulus (GPa) = 20.89712 39.44441 30.17077
# Shear Modulus (GPa) = 27.09524 38.63455 32.86489
#
# Velocity S-wave (km/s) = 3.46460 4.13708 3.81568
# Velocity P-wave (km/s) = 5.02615 6.34782 5.72525
#
# Compressibility (1/GPa) = 0.04785348
#
# Stress axis : x y z
#
# Youngs Moduli (GPa) = 34.78463 125.16188 46.51874
#
# Poissons Ratio (x) = 0.32543 -0.00401
# Poissons Ratio (y) = 0.09044 0.12452
# Poissons Ratio (z) = -0.00300 0.33504
#
# Static dielectric constant tensor:
#      x y z
#    x 1.763430 -0.029870 0.050080 
#    y -0.029870 1.902480 -0.018060 
#    z 0.050080 -0.018060 1.801250 
# 
# From -- ./inp_files/262838.got.cif
#   From: 2010.05.17/outbox.cif.g08.bks.cpg/sg2_132_cif.got.tgz:262838.got - 2010.06.03 11:33:40.
