data_PCOD9028360
_publ_section_title
;
Structure prediction by ZEFSAII (Michael W. Deem and Ramdas Pophale) SiO2 
 PCOD9028360
Probable space group: P -1
;
_chemical_formula_sum "Si O2"
_cell_formula_units_Z 16
_cell_length_a 17.566815
_cell_length_b 7.862757
_cell_length_c 5.314042
_cell_angle_alpha 69.183336
_cell_angle_beta 69.437647
_cell_angle_gamma 78.313985
_cell_volume 639.832629
_symmetry_space_group_name_H-M "P -1"
_symmetry_group_IT_number 2
_symmetry_cell_setting 'triclinic'
loop_
_space_group_symop_operation_xyz
x,y,z
-x,-y,-z
loop_
_atom_site_type_symbol
_atom_site_label
_atom_site_fract_x
_atom_site_fract_y
_atom_site_fract_z
Si Si1 0.860624 0.536249 0.234006
Si Si2 0.595145 0.050888 0.070632
Si Si3 0.759368 0.994012 0.732008
Si Si4 0.736404 0.618045 0.740749
Si Si5 0.212962 0.747238 0.829482
Si Si6 0.977523 0.697650 0.720655
Si Si7 0.428930 0.183311 0.283547
Si Si8 0.923543 0.040463 0.818925
O O1 0.803054 0.656178 0.426850
O O2 0.807415 0.369981 0.329502
O O3 0.946158 0.452817 0.295763
O O4 0.894906 0.600109 0.890226
O O5 0.524311 0.213425 0.114534
O O6 0.580743 0.908657 0.385029
O O7 0.689716 0.088329 0.944710
O O8 0.584176 0.958884 0.856763
O O9 0.742892 0.088223 0.430056
O O10 0.850374 0.016724 0.712654
O O11 0.744943 0.780740 0.846321
O O12 0.643019 0.655756 0.737810
O O13 0.752709 0.414788 0.940386
O O14 0.128298 0.847950 0.971567
O O15 0.003980 0.842459 0.414346
O O16 0.962385 0.832712 0.911648
#
# Coordination Sequence:
#
# PCOD9028360 Si02
#       8
#     2   2   2   2   2   2   2   2
#     4  11  23  43  58  92 126 169 221 273 332 395
#     4   9  20  39  67 102 135 173 222 272 328 402
#     4  11  24  41  68  95 129 175 215 273 336 399
#     4  11  24  41  68  95 129 175 215 273 336 399
#     4  12  24  42  63  94 130 172 220 278 325 402
#     4  10  22  42  60  84 128 168 222 274 330 394
#     4   9  20  39  67 102 135 173 222 272 328 402
#     4  11  23  43  58  92 126 169 221 273 332 395
#
# _framework density 25.006540000000001
#
# number of rings (size 3 to 8) (size 9 to 14) (size 15 to 20)
#    0.000    1.500    2.500    1.500    8.750    1.000 
#    9.000    0.625    0.000    3.000    0.000    0.000 
#    0.000    0.000    0.000    0.000    0.000    0.000 
#
# Total GULP energy -89238.019363 kJ/mol
# GULP energy per Si atom -5577.376210 kJ/mol
# Density = 2.494962 g / cm^3
# Si number density = 25.006540 Si / 1000 Ang^3
#
#
#
# Elastic Constant Matrix: (Units=GPa)
#
#
# Indices 1 2 3 4 5 6 
#
# 1 83.6695 47.3282 44.7487 6.8344 -17.2581 -42.9046
# 2 47.3282 101.1434 34.9832 0.7621 -22.2165 -25.4312
# 3 44.7487 34.9832 115.4916 15.2411 -19.9155 -20.4819
# 4 6.8344 0.7621 15.2411 30.7702 -7.6534 -13.1284
# 5 -17.2581 -22.2165 -19.9155 -7.6534 44.2582 21.8024
# 6 -42.9046 -25.4312 -20.4819 -13.1284 21.8024 51.7414
#
#
#
# Elastic Compliance Matrix: (Units=1/GPa)
#
#
# Indices 1 2 3 4 5 6 
#
# 1 0.029080 -0.006989 -0.006877 0.004984 -0.004883 0.021279
# 2 -0.006989 0.014512 -0.001334 0.002827 0.004664 -0.000439
# 3 -0.006877 -0.001334 0.012267 -0.005525 0.003336 -0.004310
# 4 0.004984 0.002827 -0.005525 0.039901 0.001446 0.012850
# 5 -0.004883 0.004664 0.003336 0.001446 0.031318 -0.013266
# 6 0.021279 -0.000439 -0.004310 0.012850 -0.013266 0.043900
#
#
# Mechanical properties :
#
#
# Convention : Reuss Voigt Hill
#
# Bulk Modulus (GPa) = 39.27874 61.60272 50.44073
# Shear Modulus (GPa) = 23.82503 36.90359 30.36431
#
# Velocity S-wave (km/s) = 3.09002 3.84573 3.48840
# Velocity P-wave (km/s) = 5.33596 6.66390 6.03656
#
# Compressibility (1/GPa) = 0.02545907
#
# Stress axis : x y z
#
# Youngs Moduli (GPa) = 34.38812 68.91067 81.51703
#
# Poissons Ratio (x) = 0.48161 0.56056
# Poissons Ratio (y) = 0.24034 0.10877
# Poissons Ratio (z) = 0.23647 0.09195
#
# Static dielectric constant tensor:
#      x y z
#    x 2.109790 0.006550 0.037840 
#    y 0.006550 2.032050 -0.030980 
#    z 0.037840 -0.030980 1.956280 
# 
# From -- ./inp_files/115952.got.cif
#   From: 2010.05.17/outbox.cif.g08.bks.cpg/sg2_58_cif.got.tgz:115952.got - 2010.06.03 11:33:40.
