data_PCOD9028590
_publ_section_title
;
Structure prediction by ZEFSAII (Michael W. Deem and Ramdas Pophale) SiO2 
 PCOD9028590
Probable space group: P -1
;
_chemical_formula_sum "Si O2"
_cell_formula_units_Z 16
_cell_length_a 26.862762
_cell_length_b 8.004129
_cell_length_c 9.281968
_cell_angle_alpha 109.116712
_cell_angle_beta 139.516304
_cell_angle_gamma 41.164705
_cell_volume 698.649758
_symmetry_space_group_name_H-M "P -1"
_symmetry_group_IT_number 2
_symmetry_cell_setting 'triclinic'
loop_
_space_group_symop_operation_xyz
x,y,z
-x,-y,-z
loop_
_atom_site_type_symbol
_atom_site_label
_atom_site_fract_x
_atom_site_fract_y
_atom_site_fract_z
Si Si1 0.890927 0.441691 0.808015
Si Si2 0.567771 0.690372 0.508086
Si Si3 0.916731 0.279342 0.283215
Si Si4 0.835155 0.216513 0.803440
Si Si5 0.624633 0.369129 0.809067
Si Si6 0.413734 0.671790 0.002996
Si Si7 0.894971 0.654318 0.148403
Si Si8 0.162356 0.337419 0.559224
O O1 0.855745 0.309571 0.741228
O O2 0.830114 0.606925 0.569264
O O3 0.841145 0.657742 0.888510
O O4 0.054396 0.145945 0.077168
O O5 0.679987 0.482112 0.570614
O O6 0.642923 0.482254 0.760160
O O7 0.463085 0.746339 0.228658
O O8 0.500000 0.000000 0.500000
O O9 0.957176 0.385154 0.314354
O O10 0.805547 0.570601 0.227913
O O11 0.882319 0.222850 0.056583
O O12 0.000000 0.000000 0.500000
O O13 0.500000 0.500000 0.500000
O O14 0.582755 0.490458 0.915601
O O15 0.764925 0.997257 0.022956
O O16 0.500000 0.500000 0.000000
O O17 0.262910 0.987815 0.707406
O O18 0.010221 0.567028 0.322927
#
# Coordination Sequence:
#
# PCOD9028590 Si02
#       8
#     2   2   2   2   2   2   2   2
#     4  10  23  38  66  97 133 168 211 283 330 394
#     4  11  25  45  72  93 130 189 234 264 329 420
#     4  11  22  39  64  98 135 166 215 280 334 391
#     4  10  22  42  63  97 132 170 222 268 338 397
#     4  10  24  44  68  94 134 180 227 273 332 412
#     4  11  27  45  65 101 137 173 221 289 341 390
#     4  11  24  41  69  99 129 178 228 265 334 408
#     4  12  23  41  66  96 133 169 224 276 335 387
#
# _framework density 22.901316999999999
#
# number of rings (size 3 to 8) (size 9 to 14) (size 15 to 20)
#    0.000    1.250    2.500    2.250   10.500    0.000 
#    0.000    3.750    0.000    0.000    0.000    0.000 
#    0.000    0.000    0.000    0.000    0.000    0.000 
#
# Total GULP energy -89242.563999 kJ/mol
# GULP energy per Si atom -5577.660250 kJ/mol
# Density = 2.284919 g / cm^3
# Si number density = 22.901317 Si / 1000 Ang^3
#
#
#
# Elastic Constant Matrix: (Units=GPa)
#
#
# Indices 1 2 3 4 5 6 
#
# 1 135.6212 19.3601 50.8304 -11.0053 -38.3183 -18.7948
# 2 19.3601 58.5035 3.2286 -6.0277 -13.7597 -13.1647
# 3 50.8304 3.2286 74.2260 -14.1050 -19.7210 -2.1626
# 4 -11.0053 -6.0277 -14.1050 36.9624 -14.0924 -2.6174
# 5 -38.3183 -13.7597 -19.7210 -14.0924 49.3423 5.5963
# 6 -18.7948 -13.1647 -2.1626 -2.6174 5.5963 35.6634
#
#
#
# Elastic Compliance Matrix: (Units=1/GPa)
#
#
# Indices 1 2 3 4 5 6 
#
# 1 0.013208 -0.000088 -0.005376 0.005727 0.009085 0.005597
# 2 -0.000088 0.021599 0.003372 0.008720 0.008957 0.007365
# 3 -0.005376 0.003372 0.021050 0.010024 0.008138 -0.000853
# 4 0.005727 0.008720 0.010024 0.043020 0.022437 0.006481
# 5 0.009085 0.008957 0.008138 0.022437 0.039014 0.004112
# 6 0.005597 0.007365 -0.000853 0.006481 0.004112 0.033487
#
#
# Mechanical properties :
#
#
# Convention : Reuss Voigt Hill
#
# Bulk Modulus (GPa) = 19.35270 46.13211 32.74241
# Shear Modulus (GPa) = 25.93558 37.38905 31.66231
#
# Velocity S-wave (km/s) = 3.36890 4.04495 3.72231
# Velocity P-wave (km/s) = 4.85814 6.48098 5.72733
#
# Compressibility (1/GPa) = 0.05167238
#
# Stress axis : x y z
#
# Youngs Moduli (GPa) = 75.71070 46.29950 47.50691
#
# Poissons Ratio (x) = 0.00408 0.25541
# Poissons Ratio (y) = 0.00666 -0.16021
# Poissons Ratio (z) = 0.40704 -0.15613
#
# Static dielectric constant tensor:
#      x y z
#    x 1.912640 0.019570 0.040620 
#    y 0.019570 1.913950 0.009390 
#    z 0.040620 0.009390 1.887550 
# 
# From -- ./inp_files/332893.got.cif
#   From: 2010.05.17/outbox.cif.g08.bks.cpg/sg2_167_cif.got.tgz:332893.got - 2010.06.03 11:33:40.
