data_PCOD9028292
_publ_section_title
;
Structure prediction by ZEFSAII (Michael W. Deem and Ramdas Pophale) SiO2 
 PCOD9028292
Probable space group: P -1
;
_chemical_formula_sum "Si O2"
_cell_formula_units_Z 14
_cell_length_a 12.366072
_cell_length_b 18.194136
_cell_length_c 8.942777
_cell_angle_alpha 145.773388
_cell_angle_beta 129.543802
_cell_angle_gamma 31.316350
_cell_volume 571.259703
_symmetry_space_group_name_H-M "P -1"
_symmetry_group_IT_number 2
_symmetry_cell_setting 'triclinic'
loop_
_space_group_symop_operation_xyz
x,y,z
-x,-y,-z
loop_
_atom_site_type_symbol
_atom_site_label
_atom_site_fract_x
_atom_site_fract_y
_atom_site_fract_z
Si Si1 0.556636 0.851378 0.607770
Si Si2 0.870642 0.767673 0.204842
Si Si3 0.048497 0.825709 0.680610
Si Si4 0.304059 0.327158 0.882758
Si Si5 0.436052 0.688547 0.670992
Si Si6 0.361892 0.492801 0.774206
Si Si7 0.888903 0.846575 0.879541
O O1 0.553396 0.825555 0.383049
O O2 0.594660 0.686619 0.441111
O O3 0.748568 0.818191 0.740833
O O4 0.324510 0.076907 0.819655
O O5 0.786387 0.724984 0.182687
O O6 0.920307 0.871804 0.499820
O O7 0.103622 0.544722 0.996422
O O8 0.290962 0.674733 0.587076
O O9 0.975321 0.780028 0.671024
O O10 0.000000 0.000000 0.000000
O O11 0.436172 0.322785 0.107341
O O12 0.567659 0.551421 0.411416
O O13 0.263053 0.920085 0.849418
O O14 0.109384 0.700459 0.918601
O O15 0.500000 0.500000 0.000000
#
# Coordination Sequence:
#
# PCOD9028292 Si02
#       7
#     2   2   2   2   2   2   2
#     4  12  25  47  73 103 149 184 230 298 348 422
#     4  11  23  41  71 110 139 176 236 290 356 413
#     4  10  22  41  74 107 141 179 232 294 353 412
#     4  11  24  43  77 111 135 180 239 298 351 418
#     4  11  26  47  75 104 146 186 232 301 356 416
#     4  12  32  48  68 104 145 195 241 284 360 428
#     4  11  24  48  74 105 141 186 242 289 354 420
#
# _framework density 24.507241
#
# number of rings (size 3 to 8) (size 9 to 14) (size 15 to 20)
#    0.000    0.857    2.857    3.429   10.000    3.429 
#    0.000    0.000    0.000    0.000    0.000    0.000 
#    0.000    0.000    0.000    0.000    0.000    0.000 
#
# Total GULP energy -78384.085107 kJ/mol
# GULP energy per Si atom -5598.863222 kJ/mol
# Density = 2.445146 g / cm^3
# Si number density = 24.507241 Si / 1000 Ang^3
#
#
#
# Elastic Constant Matrix: (Units=GPa)
#
#
# Indices 1 2 3 4 5 6 
#
# 1 116.6797 51.4163 46.4658 -20.9137 14.5611 -10.3802
# 2 51.4163 171.2684 49.2139 9.4836 12.7384 -37.0457
# 3 46.4658 49.2139 106.2539 -11.7905 4.6624 -16.6147
# 4 -20.9137 9.4836 -11.7905 47.2254 -4.8198 8.7931
# 5 14.5611 12.7384 4.6624 -4.8198 45.1150 -0.8888
# 6 -10.3802 -37.0457 -16.6147 8.7931 -0.8888 49.9235
#
#
#
# Elastic Compliance Matrix: (Units=1/GPa)
#
#
# Indices 1 2 3 4 5 6 
#
# 1 0.012524 -0.003323 -0.003554 0.005484 -0.002191 -0.002049
# 2 -0.003323 0.009313 -0.002381 -0.005293 -0.001752 0.006328
# 3 -0.003554 -0.002381 0.012447 0.001842 0.000756 0.001325
# 4 0.005484 -0.005293 0.001842 0.026626 0.002244 -0.006824
# 5 -0.002191 -0.001752 0.000756 0.002244 0.023500 -0.001481
# 6 -0.002049 0.006328 0.001325 -0.006824 -0.001481 0.025917
#
#
# Mechanical properties :
#
#
# Convention : Reuss Voigt Hill
#
# Bulk Modulus (GPa) = 63.41758 76.48822 69.95290
# Shear Modulus (GPa) = 37.28607 44.92650 41.10629
#
# Velocity S-wave (km/s) = 3.90478 4.28623 4.09994
# Velocity P-wave (km/s) = 6.80169 7.46819 7.14272
#
# Compressibility (1/GPa) = 0.01576850
#
# Stress axis : x y z
#
# Youngs Moduli (GPa) = 79.84725 107.37959 80.34093
#
# Poissons Ratio (x) = 0.35678 0.28550
# Poissons Ratio (y) = 0.26530 0.19132
# Poissons Ratio (z) = 0.28375 0.25571
#
# Static dielectric constant tensor:
#      x y z
#    x 1.927660 0.020150 0.003840 
#    y 0.020150 2.076870 0.048160 
#    z 0.003840 0.048160 1.934770 
# 
# From -- ./inp_files/263403.got.cif
#   From: 2010.05.17/outbox.cif.g08.bks.cpg/sg2_132_cif.got.tgz:263403.got - 2010.06.03 11:33:40.
