data_PCOD9028036
_publ_section_title
;
Structure prediction by ZEFSAII (Michael W. Deem and Ramdas Pophale) SiO2 
 PCOD9028036
Probable space group: P -1
;
_chemical_formula_sum "Si O2"
_cell_formula_units_Z 16
_cell_length_a 9.485563
_cell_length_b 9.417298
_cell_length_c 13.931227
_cell_angle_alpha 78.902698
_cell_angle_beta 67.929956
_cell_angle_gamma 39.146420
_cell_volume 717.579015
_symmetry_space_group_name_H-M "P -1"
_symmetry_group_IT_number 2
_symmetry_cell_setting 'triclinic'
loop_
_space_group_symop_operation_xyz
x,y,z
-x,-y,-z
loop_
_atom_site_type_symbol
_atom_site_label
_atom_site_fract_x
_atom_site_fract_y
_atom_site_fract_z
Si Si1 0.161107 0.211798 0.588470
Si Si2 0.437570 0.280895 0.530617
Si Si3 0.643377 0.872590 0.079518
Si Si4 0.769596 0.248921 0.955202
Si Si5 0.990893 0.811812 0.913760
Si Si6 0.382785 0.395660 0.751447
Si Si7 0.270387 0.997222 0.784862
Si Si8 0.620206 0.509352 0.665657
O O1 0.231169 0.325453 0.536265
O O2 0.885767 0.370697 0.636278
O O3 0.315726 0.990254 0.511117
O O4 0.263651 0.110186 0.682464
O O5 0.393906 0.344707 0.644321
O O6 0.436509 0.418381 0.441595
O O7 0.608709 0.746371 0.159417
O O8 0.602492 0.023643 0.153245
O O9 0.909992 0.723873 0.997346
O O10 0.500000 0.000000 0.000000
O O11 0.500000 0.500000 0.000000
O O12 0.848208 0.214422 0.050231
O O13 0.772892 0.085852 0.929731
O O14 0.988722 0.169891 0.855501
O O15 0.133852 0.663243 0.802870
O O16 0.586437 0.366835 0.719617
O O17 0.427079 0.747219 0.741758
#
# Coordination Sequence:
#
# PCOD9028036 Si02
#       8
#     2   2   2   2   2   2   2   2
#     4  10  22  43  74 104 141 188 237 292 361 439
#     4  10  23  46  70 106 146 181 238 299 359 441
#     4  11  26  46  67 101 145 195 239 291 362 431
#     4  10  22  41  70  98 137 183 238 294 346 423
#     4  10  24  43  64 101 137 184 242 290 346 429
#     4  12  24  47  69 103 151 186 229 317 357 408
#     4  10  22  45  71 103 140 188 244 292 351 441
#     4  11  24  43  77 108 136 186 244 296 368 427
#
# _framework density 22.297196
#
# number of rings (size 3 to 8) (size 9 to 14) (size 15 to 20)
#    0.000    1.500    2.500    1.125    3.500    1.500 
#    4.500    0.625    0.000    0.000    0.000    0.000 
#    0.000    0.000    0.000    0.000    0.000    0.000 
#
# Total GULP energy -89262.999476 kJ/mol
# GULP energy per Si atom -5578.937467 kJ/mol
# Density = 2.224645 g / cm^3
# Si number density = 22.297196 Si / 1000 Ang^3
#
#
#
# Elastic Constant Matrix: (Units=GPa)
#
#
# Indices 1 2 3 4 5 6 
#
# 1 108.1147 58.9375 55.5370 -0.3526 -11.5146 10.2430
# 2 58.9375 90.7794 70.2006 13.8240 1.2221 6.6505
# 3 55.5370 70.2006 170.9978 11.0810 10.0390 11.2903
# 4 -0.3526 13.8240 11.0810 42.1774 4.2660 -9.6890
# 5 -11.5146 1.2221 10.0390 4.2660 51.5797 -2.7353
# 6 10.2430 6.6505 11.2903 -9.6890 -2.7353 29.7312
#
#
#
# Elastic Compliance Matrix: (Units=1/GPa)
#
#
# Indices 1 2 3 4 5 6 
#
# 1 0.015704 -0.009375 -0.001564 0.002911 0.003716 -0.001429
# 2 -0.009375 0.022559 -0.005621 -0.006306 -0.001109 -0.001839
# 3 -0.001564 -0.005621 0.008969 -0.000796 -0.002005 -0.002053
# 4 0.002911 -0.006306 -0.000796 0.028366 -0.000868 0.009874
# 5 0.003716 -0.001109 -0.002005 -0.000868 0.020777 0.001358
# 6 -0.001429 -0.001839 -0.002053 0.009874 0.001358 0.038661
#
#
# Mechanical properties :
#
#
# Convention : Reuss Voigt Hill
#
# Bulk Modulus (GPa) = 70.86560 82.13801 76.50181
# Shear Modulus (GPa) = 28.92517 37.04544 32.98530
#
# Velocity S-wave (km/s) = 3.60565 4.08050 3.85040
# Velocity P-wave (km/s) = 7.01324 7.68885 7.35880
#
# Compressibility (1/GPa) = 0.01411122
#
# Stress axis : x y z
#
# Youngs Moduli (GPa) = 63.67777 44.32795 111.49924
#
# Poissons Ratio (x) = 0.41556 0.17441
# Poissons Ratio (y) = 0.59696 0.62679
# Poissons Ratio (z) = 0.09960 0.24919
#
# Static dielectric constant tensor:
#      x y z
#    x 1.883450 0.019710 -0.042410 
#    y 0.019710 1.930410 -0.052880 
#    z -0.042410 -0.052880 1.839160 
# 
# From -- ./inp_files/494848.got.cif
#   From: 2010.05.17/outbox.cif.g08.bks.cpg/sg2_248_cif.got.tgz:494848.got - 2010.06.03 11:33:40.
