data_PCOD9028914
_publ_section_title
;
Structure prediction by ZEFSAII (Michael W. Deem and Ramdas Pophale) SiO2 
 PCOD9028914
Probable space group: P -1
;
_chemical_formula_sum "Si O2"
_cell_formula_units_Z 16
_cell_length_a 21.394738
_cell_length_b 8.590511
_cell_length_c 8.098106
_cell_angle_alpha 54.614052
_cell_angle_beta 149.509766
_cell_angle_gamma 124.388522
_cell_volume 607.839906
_symmetry_space_group_name_H-M "P -1"
_symmetry_group_IT_number 2
_symmetry_cell_setting 'triclinic'
loop_
_space_group_symop_operation_xyz
x,y,z
-x,-y,-z
loop_
_atom_site_type_symbol
_atom_site_label
_atom_site_fract_x
_atom_site_fract_y
_atom_site_fract_z
Si Si1 0.194553 0.215431 0.438988
Si Si2 0.379439 0.623871 0.871640
Si Si3 0.620449 0.110652 0.616847
Si Si4 0.633350 0.494336 0.557378
Si Si5 0.273758 0.881518 0.685858
Si Si6 0.745648 0.836666 0.839847
Si Si7 0.889323 0.647730 0.519737
Si Si8 0.990681 0.375729 0.718301
O O1 0.298800 0.394008 0.514947
O O2 0.108112 0.217157 0.400065
O O3 0.273097 0.041814 0.725276
O O4 0.091818 0.235442 0.051302
O O5 0.401148 0.761260 0.675347
O O6 0.384760 0.769233 0.954063
O O7 0.241173 0.498717 0.649601
O O8 0.486083 0.491999 0.207181
O O9 0.672251 0.283207 0.759656
O O10 0.500000 0.000000 0.500000
O O11 0.690369 0.943874 0.802373
O O12 0.674890 0.634740 0.722036
O O13 0.146963 0.738836 0.514520
O O14 0.252491 0.007858 0.396529
O O15 0.868680 0.773663 0.235547
O O16 0.998745 0.528124 0.796554
O O17 0.000000 0.500000 0.500000
#
# Coordination Sequence:
#
# PCOD9028914 Si02
#       8
#     2   2   2   2   2   2   2   2
#     4  11  23  41  69 100 129 176 223 277 335 397
#     4  10  22  42  65  94 135 180 218 277 330 393
#     4  11  23  38  64  96 133 176 227 278 321 399
#     4  11  23  44  68  94 140 181 225 270 343 393
#     4   9  22  44  68  95 135 172 220 280 330 404
#     4  10  24  44  63  99 135 177 223 278 331 397
#     4  11  23  44  66  95 135 172 223 277 333 395
#     4  11  23  45  71  96 131 174 222 274 342 401
#
# _framework density 26.322724000000001
#
# number of rings (size 3 to 8) (size 9 to 14) (size 15 to 20)
#    0.000    1.500    1.250    3.375    1.750    6.500 
#    6.750    1.250    0.000    0.000    0.000    0.000 
#    0.000    0.000    0.000    0.000    0.000    0.000 
#
# Total GULP energy -89408.923947 kJ/mol
# GULP energy per Si atom -5588.057747 kJ/mol
# Density = 2.626281 g / cm^3
# Si number density = 26.322724 Si / 1000 Ang^3
#
#
#
# Elastic Constant Matrix: (Units=GPa)
#
#
# Indices 1 2 3 4 5 6 
#
# 1 114.6405 43.5097 16.7109 -13.2252 9.3038 -26.4653
# 2 43.5097 129.5899 13.6384 -24.5281 5.6281 -13.5910
# 3 16.7109 13.6384 75.0497 -21.6492 9.2165 -7.2916
# 4 -13.2252 -24.5281 -21.6492 32.2504 -4.6051 9.5881
# 5 9.3038 5.6281 9.2165 -4.6051 38.9373 -9.7346
# 6 -26.4653 -13.5910 -7.2916 9.5881 -9.7346 55.1534
#
#
#
# Elastic Compliance Matrix: (Units=1/GPa)
#
#
# Indices 1 2 3 4 5 6 
#
# 1 0.011160 -0.003144 -0.001448 -0.000174 -0.000822 0.004275
# 2 -0.003144 0.009978 0.000883 0.006922 -0.000121 -0.000158
# 3 -0.001448 0.000883 0.017010 0.011317 -0.002635 -0.000661
# 4 -0.000174 0.006922 0.011317 0.045259 0.000552 -0.004652
# 5 -0.000822 -0.000121 -0.002635 0.000552 0.027585 0.004000
# 6 0.004275 -0.000158 -0.000661 -0.004652 0.004000 0.021571
#
#
# Mechanical properties :
#
#
# Convention : Reuss Voigt Hill
#
# Bulk Modulus (GPa) = 32.53969 51.88869 42.21419
# Shear Modulus (GPa) = 33.28332 41.62964 37.45648
#
# Velocity S-wave (km/s) = 3.55974 3.98113 3.77632
# Velocity P-wave (km/s) = 5.41150 6.39436 5.92335
#
# Compressibility (1/GPa) = 0.03073170
#
# Stress axis : x y z
#
# Youngs Moduli (GPa) = 89.60182 100.21925 58.78793
#
# Poissons Ratio (x) = 0.31507 0.08512
# Poissons Ratio (y) = 0.28169 -0.05191
# Poissons Ratio (z) = 0.12973 -0.08850
#
# Static dielectric constant tensor:
#      x y z
#    x 2.166950 -0.154980 -0.101290 
#    y -0.154980 2.247910 0.134590 
#    z -0.101290 0.134590 2.211980 
# 
# From -- ./inp_files/343468.got.cif
#   From: 2010.05.17/outbox.cif.g08.bks.cpg/sg2_172_cif.got.tgz:343468.got - 2010.06.03 11:33:40.
