data_PCOD9028929
_publ_section_title
;
Structure prediction by ZEFSAII (Michael W. Deem and Ramdas Pophale) SiO2 
 PCOD9028929
Probable space group: P -1
;
_chemical_formula_sum "Si O2"
_cell_formula_units_Z 14
_cell_length_a 8.742215
_cell_length_b 9.127113
_cell_length_c 15.177636
_cell_angle_alpha 36.054150
_cell_angle_beta 76.100726
_cell_angle_gamma 82.887978
_cell_volume 686.615831
_symmetry_space_group_name_H-M "P -1"
_symmetry_group_IT_number 2
_symmetry_cell_setting 'triclinic'
loop_
_space_group_symop_operation_xyz
x,y,z
-x,-y,-z
loop_
_atom_site_type_symbol
_atom_site_label
_atom_site_fract_x
_atom_site_fract_y
_atom_site_fract_z
Si Si1 0.953667 0.278446 0.360541
Si Si2 0.673605 0.465537 0.416429
Si Si3 0.717143 0.543199 0.699706
Si Si4 0.332553 0.173399 0.601485
Si Si5 0.155915 0.629661 0.865735
Si Si6 0.464194 0.387626 0.964144
Si Si7 0.476184 0.861316 0.163606
O O1 0.815123 0.343682 0.412215
O O2 0.899400 0.318342 0.250017
O O3 0.115104 0.449127 0.281236
O O4 0.000000 0.000000 0.500000
O O5 0.523144 0.248346 0.552937
O O6 0.724864 0.622102 0.421911
O O7 0.603180 0.675436 0.262520
O O8 0.698950 0.771776 0.524408
O O9 0.584622 0.507576 0.812671
O O10 0.685966 0.314418 0.746278
O O11 0.245059 0.892867 0.765572
O O12 0.289107 0.441892 0.935898
O O13 0.000000 0.500000 0.000000
O O14 0.500000 0.500000 0.000000
O O15 0.475369 0.092640 0.115240
O O16 0.500000 0.000000 0.000000
#
# Coordination Sequence:
#
# PCOD9028929 Si02
#       7
#     2   2   2   2   2   2   2
#     4  12  25  43  66 102 137 175 224 281 340 399
#     4  10  23  42  72  97 129 176 230 282 333 398
#     4  10  22  42  65  95 133 179 222 271 339 397
#     4  10  22  45  66  97 131 175 231 275 335 404
#     4  12  26  44  65 101 140 179 222 281 343 398
#     4  11  23  42  71 100 136 179 223 280 337 407
#     4   9  19  41  63  93 126 172 226 264 332 397
#
# _framework density 20.389858
#
# number of rings (size 3 to 8) (size 9 to 14) (size 15 to 20)
#    0.000    1.429    1.429    4.286    2.000    4.000 
#    7.714    4.286    0.000    0.000    0.000    0.000 
#    0.000    0.000    0.000    0.000    0.000    0.000 
#
# Total GULP energy -78082.432470 kJ/mol
# GULP energy per Si atom -5577.316605 kJ/mol
# Density = 2.034345 g / cm^3
# Si number density = 20.389858 Si / 1000 Ang^3
#
#
#
# Elastic Constant Matrix: (Units=GPa)
#
#
# Indices 1 2 3 4 5 6 
#
# 1 128.8024 64.1226 50.2145 0.1928 -3.6392 -21.7450
# 2 64.1226 132.9323 46.7267 4.2457 -12.6023 -13.4215
# 3 50.2145 46.7267 116.2184 2.3528 -5.4449 -16.5248
# 4 0.1928 4.2457 2.3528 36.5683 6.9437 0.3142
# 5 -3.6392 -12.6023 -5.4449 6.9437 43.3164 5.2070
# 6 -21.7450 -13.4215 -16.5248 0.3142 5.2070 37.6132
#
#
#
# Elastic Compliance Matrix: (Units=1/GPa)
#
#
# Indices 1 2 3 4 5 6 
#
# 1 0.011696 -0.004396 -0.002773 0.000834 -0.001277 0.004144
# 2 -0.004396 0.010744 -0.002270 -0.001597 0.002736 -0.000070
# 3 -0.002773 -0.002270 0.011083 -0.000511 0.000291 0.002420
# 4 0.000834 -0.001597 -0.000511 0.028517 -0.005048 0.000148
# 5 -0.001277 0.002736 0.000291 -0.005048 0.024987 -0.003051
# 6 0.004144 -0.000070 0.002420 0.000148 -0.003051 0.030442
#
#
# Mechanical properties :
#
#
# Convention : Reuss Voigt Hill
#
# Bulk Modulus (GPa) = 68.28315 77.78675 73.03495
# Shear Modulus (GPa) = 35.40313 37.95887 36.68100
#
# Velocity S-wave (km/s) = 4.17143 4.31937 4.24604
# Velocity P-wave (km/s) = 7.53409 7.94409 7.74180
#
# Compressibility (1/GPa) = 0.01464490
#
# Stress axis : x y z
#
# Youngs Moduli (GPa) = 85.49937 93.07202 90.22427
#
# Poissons Ratio (x) = 0.40916 0.25023
# Poissons Ratio (y) = 0.37587 0.20480
# Poissons Ratio (z) = 0.23712 0.21126
#
# Static dielectric constant tensor:
#      x y z
#    x 1.707150 0.021720 0.010250 
#    y 0.021720 1.779890 -0.023730 
#    z 0.010250 -0.023730 1.825550 
# 
# From -- ./inp_files/491827.got.cif
#   From: 2010.05.17/outbox.cif.g08.bks.cpg/sg2_246_cif.got.tgz:491827.got - 2010.06.03 11:33:40.
