data_PCOD9028597
_publ_section_title
;
Structure prediction by ZEFSAII (Michael W. Deem and Ramdas Pophale) SiO2 
 PCOD9028597
Probable space group: P -1
;
_chemical_formula_sum "Si O2"
_cell_formula_units_Z 12
_cell_length_a 7.412355
_cell_length_b 11.834542
_cell_length_c 6.376355
_cell_angle_alpha 104.609538
_cell_angle_beta 60.255068
_cell_angle_gamma 97.340824
_cell_volume 469.943002
_symmetry_space_group_name_H-M "P -1"
_symmetry_group_IT_number 2
_symmetry_cell_setting 'triclinic'
loop_
_space_group_symop_operation_xyz
x,y,z
-x,-y,-z
loop_
_atom_site_type_symbol
_atom_site_label
_atom_site_fract_x
_atom_site_fract_y
_atom_site_fract_z
Si Si1 0.781758 0.051579 0.725494
Si Si2 0.957539 0.780250 0.080618
Si Si3 0.661747 0.450036 0.710168
Si Si4 0.909305 0.602562 0.329806
Si Si5 0.779033 0.808433 0.779024
Si Si6 0.505592 0.793130 0.284270
O O1 0.650522 0.105135 0.637293
O O2 0.851555 0.155146 0.890267
O O3 0.697243 0.936852 0.836400
O O4 0.000000 0.000000 0.500000
O O5 0.940881 0.642334 0.087973
O O6 0.723359 0.833097 0.278836
O O7 0.965344 0.803954 0.838760
O O8 0.729271 0.523623 0.498835
O O9 0.586034 0.322543 0.616011
O O10 0.874449 0.434479 0.711155
O O11 0.500000 0.500000 0.000000
O O12 0.857339 0.731469 0.510041
O O13 0.590878 0.749272 0.986224
#
# Coordination Sequence:
#
# PCOD9028597 Si02
#       6
#     2   2   2   2   2   2
#     4  12  21  41  66  92 136 171 210 274 323 384
#     4  10  23  40  66  97 128 170 220 264 328 385
#     4  11  21  42  69  95 133 170 215 278 322 380
#     4  11  22  43  70  93 132 176 213 271 331 381
#     4  10  22  42  63  98 131 168 222 262 322 394
#     4  10  23  40  63  97 127 169 222 258 327 388
#
# _framework density 25.535015000000001
#
# number of rings (size 3 to 8) (size 9 to 14) (size 15 to 20)
#    1.000    0.333    5.000    1.000    0.000    1.333 
#    0.000   12.500    0.000    0.000    0.000    0.000 
#    0.000    0.000    0.000    0.000    0.000    0.000 
#
# Total GULP energy -66949.820907 kJ/mol
# GULP energy per Si atom -5579.151742 kJ/mol
# Density = 2.547690 g / cm^3
# Si number density = 25.535015 Si / 1000 Ang^3
#
#
#
# Elastic Constant Matrix: (Units=GPa)
#
#
# Indices 1 2 3 4 5 6 
#
# 1 109.3731 33.6627 6.8274 0.5842 -7.9651 -23.4681
# 2 33.6627 157.7804 16.9806 -41.5105 1.2445 -8.6354
# 3 6.8274 16.9806 55.6086 -5.1043 -13.8207 -8.0491
# 4 0.5842 -41.5105 -5.1043 31.0734 -5.2235 1.9983
# 5 -7.9651 1.2445 -13.8207 -5.2235 30.1409 -0.6840
# 6 -23.4681 -8.6354 -8.0491 1.9983 -0.6840 41.1797
#
#
#
# Elastic Compliance Matrix: (Units=1/GPa)
#
#
# Indices 1 2 3 4 5 6 
#
# 1 0.011793 -0.003513 0.000870 -0.004682 0.002995 0.006431
# 2 -0.003513 0.011097 -0.001601 0.014742 0.000418 -0.000696
# 3 0.000870 -0.001601 0.022035 0.003029 0.011027 0.004504
# 4 -0.004682 0.014742 0.003029 0.054048 0.008876 -0.001460
# 5 0.002995 0.000418 0.011027 0.008876 0.040642 0.004194
# 6 0.006431 -0.000696 0.004504 -0.001460 0.004194 0.028824
#
#
# Mechanical properties :
#
#
# Convention : Reuss Voigt Hill
#
# Bulk Modulus (GPa) = 27.44379 48.63372 38.03875
# Shear Modulus (GPa) = 26.44505 38.16489 32.30497
#
# Velocity S-wave (km/s) = 3.22163 3.87021 3.56072
# Velocity P-wave (km/s) = 4.96078 6.24969 5.64216
#
# Compressibility (1/GPa) = 0.03643812
#
# Stress axis : x y z
#
# Youngs Moduli (GPa) = 84.79597 90.11520 45.38165
#
# Poissons Ratio (x) = 0.31659 -0.03950
# Poissons Ratio (y) = 0.29790 0.07265
# Poissons Ratio (z) = -0.07381 0.14426
#
# Static dielectric constant tensor:
#      x y z
#    x 1.990840 -0.013000 0.039410 
#    y -0.013000 2.202580 -0.181370 
#    z 0.039410 -0.181370 2.247560 
# 
# From -- ./inp_files/179748.got.cif
#   From: 2010.05.17/outbox.cif.g08.bks.cpg/sg2_90_cif.got.tgz:179748.got - 2010.06.03 11:33:40.
