data_PCOD9028881
_publ_section_title
;
Structure prediction by ZEFSAII (Michael W. Deem and Ramdas Pophale) SiO2 
 PCOD9028881
Probable space group: P -1
;
_chemical_formula_sum "Si O2"
_cell_formula_units_Z 16
_cell_length_a 8.909300
_cell_length_b 17.943740
_cell_length_c 10.321331
_cell_angle_alpha 24.409841
_cell_angle_beta 73.829794
_cell_angle_gamma 75.747383
_cell_volume 654.802952
_symmetry_space_group_name_H-M "P -1"
_symmetry_group_IT_number 2
_symmetry_cell_setting 'triclinic'
loop_
_space_group_symop_operation_xyz
x,y,z
-x,-y,-z
loop_
_atom_site_type_symbol
_atom_site_label
_atom_site_fract_x
_atom_site_fract_y
_atom_site_fract_z
Si Si1 0.102634 0.714702 0.929526
Si Si2 0.491396 0.769187 0.135262
Si Si3 0.340104 0.555757 0.286121
Si Si4 0.194939 0.111253 0.235913
Si Si5 0.746664 0.937950 0.234611
Si Si6 0.148420 0.631580 0.759504
Si Si7 0.074429 0.037036 0.093173
Si Si8 0.420933 0.397923 0.058919
O O1 0.175296 0.662206 0.857797
O O2 0.915836 0.733620 0.927655
O O3 0.159514 0.921463 0.614740
O O4 0.166015 0.584009 0.231356
O O5 0.373532 0.645921 0.273769
O O6 0.593169 0.644382 0.401727
O O7 0.622748 0.848193 0.880263
O O8 0.394920 0.927968 0.970680
O O9 0.450122 0.648692 0.003659
O O10 0.132626 0.090076 0.136658
O O11 0.676381 0.774974 0.593725
O O12 0.828438 0.867475 0.195753
O O13 0.888745 0.042711 0.108181
O O14 0.112877 0.824920 0.403402
O O15 0.296359 0.537463 0.811237
O O16 0.000000 0.500000 0.000000
O O17 0.500000 0.500000 0.000000
#
# Coordination Sequence:
#
# PCOD9028881 Si02
#       8
#     2   2   2   2   2   2   2   2
#     4  10  22  42  65  93 130 170 220 265 319 396
#     4  11  26  43  66  96 129 175 215 275 329 382
#     4  11  25  45  63  94 135 169 221 268 327 394
#     4  10  23  40  66  97 124 172 218 270 324 385
#     4  11  24  44  67  96 130 176 215 273 326 388
#     4  11  22  41  64  98 134 173 216 265 323 392
#     4  10  23  42  66  94 134 171 218 265 328 391
#     4  12  25  41  69 100 130 175 219 269 328 387
#
# _framework density 24.434833000000001
#
# number of rings (size 3 to 8) (size 9 to 14) (size 15 to 20)
#    0.000    1.250    2.500    2.250    5.250    4.000 
#    0.000    0.000    0.000    0.000    0.000    0.000 
#    0.000    0.000    0.000    0.000    0.000    0.000 
#
# Total GULP energy -89568.512485 kJ/mol
# GULP energy per Si atom -5598.032030 kJ/mol
# Density = 2.437922 g / cm^3
# Si number density = 24.434833 Si / 1000 Ang^3
#
#
#
# Elastic Constant Matrix: (Units=GPa)
#
#
# Indices 1 2 3 4 5 6 
#
# 1 89.1527 12.3354 20.8573 -16.6271 17.5605 -15.8158
# 2 12.3354 58.6070 8.3632 1.9263 1.8983 -7.1407
# 3 20.8573 8.3632 75.8633 3.8528 13.2571 -12.4380
# 4 -16.6271 1.9263 3.8528 25.3108 -10.6909 6.0392
# 5 17.5605 1.8983 13.2571 -10.6909 42.6355 3.0778
# 6 -15.8158 -7.1407 -12.4380 6.0392 3.0778 43.6159
#
#
#
# Elastic Compliance Matrix: (Units=1/GPa)
#
#
# Indices 1 2 3 4 5 6 
#
# 1 0.015098 -0.002503 -0.003220 0.008479 -0.003210 0.003199
# 2 -0.002503 0.018124 -0.000580 -0.003838 -0.000737 0.002478
# 3 -0.003220 -0.000580 0.016477 -0.008421 -0.006247 0.005043
# 4 0.008479 -0.003838 -0.008421 0.054388 0.013544 -0.008442
# 5 -0.003210 -0.000737 -0.006247 0.013544 0.030661 -0.007105
# 6 0.003199 0.002478 0.005043 -0.008442 -0.007105 0.027601
#
#
# Mechanical properties :
#
#
# Convention : Reuss Voigt Hill
#
# Bulk Modulus (GPa) = 26.95946 34.08166 30.52056
# Shear Modulus (GPa) = 26.69228 34.45023 30.57125
#
# Velocity S-wave (km/s) = 3.30871 3.75891 3.54097
# Velocity P-wave (km/s) = 5.06497 5.72866 5.40701
#
# Compressibility (1/GPa) = 0.03709273
#
# Stress axis : x y z
#
# Youngs Moduli (GPa) = 66.23559 55.17449 60.69075
#
# Poissons Ratio (x) = 0.13811 0.19542
# Poissons Ratio (y) = 0.16580 0.03520
# Poissons Ratio (z) = 0.21328 0.03200
#
# Static dielectric constant tensor:
#      x y z
#    x 1.964310 0.019450 -0.007130 
#    y 0.019450 1.946910 0.015000 
#    z -0.007130 0.015000 1.944780 
# 
# From -- ./inp_files/209384.got.cif
#   From: 2010.05.17/outbox.cif.g08.bks.cpg/sg2_105_cif.got.tgz:209384.got - 2010.06.03 11:33:40.
