data_PCOD9028711
_publ_section_title
;
Structure prediction by ZEFSAII (Michael W. Deem and Ramdas Pophale) SiO2 
 PCOD9028711
Probable space group: P -1
;
_chemical_formula_sum "Si O2"
_cell_formula_units_Z 13
_cell_length_a 11.064609
_cell_length_b 8.806331
_cell_length_c 5.260724
_cell_angle_alpha 96.742051
_cell_angle_beta 90.853771
_cell_angle_gamma 97.516441
_cell_volume 504.440400
_symmetry_space_group_name_H-M "P -1"
_symmetry_group_IT_number 2
_symmetry_cell_setting 'triclinic'
loop_
_space_group_symop_operation_xyz
x,y,z
-x,-y,-z
loop_
_atom_site_type_symbol
_atom_site_label
_atom_site_fract_x
_atom_site_fract_y
_atom_site_fract_z
Si Si1 0.779003 0.111951 0.053346
Si Si2 0.973423 0.676977 0.037970
Si Si3 0.183651 0.330757 0.465810
Si Si4 0.445992 0.873335 0.275154
Si Si5 0.651340 0.355908 0.409415
Si Si6 0.500000 0.500000 0.000000
Si Si7 0.318386 0.205582 0.854128
O O1 0.713481 0.211392 0.278473
O O2 0.905416 0.207180 0.992764
O O3 0.783063 0.937288 0.104147
O O4 0.685612 0.105431 0.816512
O O5 0.880021 0.700172 0.811441
O O6 0.915370 0.697337 0.315766
O O7 0.000000 0.500000 0.000000
O O8 0.241815 0.508519 0.505511
O O9 0.288604 0.235586 0.559961
O O10 0.426874 0.696777 0.351060
O O11 0.559529 0.871804 0.094180
O O12 0.500000 0.000000 0.500000
O O13 0.560497 0.410251 0.212913
O O14 0.363671 0.376631 0.994785
#
# Coordination Sequence:
#
# PCOD9028711 Si02
#       7
#     2   2   2   2   2   1   2
#     4  12  25  44  71 101 145 188 240 297 357 439
#     4  12  26  48  77 104 146 191 252 296 362 428
#     4  11  28  47  74 108 143 195 242 308 358 426
#     4  12  24  41  72 106 141 187 239 299 365 441
#     4  11  23  41  69 103 140 190 240 289 369 427
#     4  10  22  42  64  94 150 172 228 298 356 432
#     4  11  25  45  69 108 143 187 239 300 369 431
#
# _framework density 25.771129999999999
#
# number of rings (size 3 to 8) (size 9 to 14) (size 15 to 20)
#    0.000    0.615    4.615    2.769    2.154    7.385 
#    0.000    0.000    0.000    0.000    0.000    0.000 
#    0.000    0.000    0.000    0.000    0.000    0.000 
#
# Total GULP energy -72537.515459 kJ/mol
# GULP energy per Si atom -5579.808881 kJ/mol
# Density = 2.571247 g / cm^3
# Si number density = 25.771130 Si / 1000 Ang^3
#
#
#
# Elastic Constant Matrix: (Units=GPa)
#
#
# Indices 1 2 3 4 5 6 
#
# 1 101.9528 56.6681 29.1461 -0.7477 9.6030 35.3544
# 2 56.6681 202.4465 51.4965 -14.3272 17.5692 45.8313
# 3 29.1461 51.4965 95.3960 -8.2529 19.7367 13.1026
# 4 -0.7477 -14.3272 -8.2529 43.9215 6.6920 -1.0479
# 5 9.6030 17.5692 19.7367 6.6920 43.6103 -2.5411
# 6 35.3544 45.8313 13.1026 -1.0479 -2.5411 68.2206
#
#
#
# Elastic Compliance Matrix: (Units=1/GPa)
#
#
# Indices 1 2 3 4 5 6 
#
# 1 0.013473 -0.001959 -0.002092 -0.000712 -0.001432 -0.005329
# 2 -0.001959 0.007136 -0.002198 0.002100 -0.001969 -0.003398
# 3 -0.002092 -0.002198 0.013648 0.002606 -0.005243 -0.000216
# 4 -0.000712 0.002100 0.002606 0.024774 -0.005750 -0.001376
# 5 -0.001432 -0.001969 -0.005243 -0.005750 0.027528 0.004009
# 6 -0.005329 -0.003398 -0.000216 -0.001376 0.004009 0.019872
#
#
# Mechanical properties :
#
#
# Convention : Reuss Voigt Hill
#
# Bulk Modulus (GPa) = 45.95866 74.93519 60.44693
# Shear Modulus (GPa) = 39.62571 48.64945 44.13758
#
# Velocity S-wave (km/s) = 3.92548 4.34954 4.14294
# Velocity P-wave (km/s) = 6.19822 7.37326 6.81113
#
# Compressibility (1/GPa) = 0.02175868
#
# Stress axis : x y z
#
# Youngs Moduli (GPa) = 74.22350 140.14200 73.27056
#
# Poissons Ratio (x) = 0.27451 0.15331
# Poissons Ratio (y) = 0.14539 0.16103
# Poissons Ratio (z) = 0.15530 0.30799
#
# Static dielectric constant tensor:
#      x y z
#    x 2.134550 -0.021740 -0.082930 
#    y -0.021740 2.000440 -0.067510 
#    z -0.082930 -0.067510 1.980130 
# 
# From -- ./inp_files/23111.got.cif
#   From: 2010.05.17/outbox.cif.g08.bks.cpg/sg2_12_cif.got.tgz:23111.got - 2010.06.03 11:33:40.
