data_PCOD9028879
_publ_section_title
;
Structure prediction by ZEFSAII (Michael W. Deem and Ramdas Pophale) SiO2 
 PCOD9028879
Probable space group: P -1
;
_chemical_formula_sum "Si O2"
_cell_formula_units_Z 16
_cell_length_a 11.829394
_cell_length_b 13.368354
_cell_length_c 14.902954
_cell_angle_alpha 131.639681
_cell_angle_beta 29.659626
_cell_angle_gamma 109.452404
_cell_volume 654.186023
_symmetry_space_group_name_H-M "P -1"
_symmetry_group_IT_number 2
_symmetry_cell_setting 'triclinic'
loop_
_space_group_symop_operation_xyz
x,y,z
-x,-y,-z
loop_
_atom_site_type_symbol
_atom_site_label
_atom_site_fract_x
_atom_site_fract_y
_atom_site_fract_z
Si Si1 0.247055 0.613110 0.165260
Si Si2 0.607553 0.056753 0.727250
Si Si3 0.796815 0.029402 0.768970
Si Si4 0.714464 0.523430 0.240455
Si Si5 0.104877 0.372197 0.138947
Si Si6 0.806784 0.980786 0.935187
Si Si7 0.838754 0.252850 0.118023
Si Si8 0.305192 0.580218 0.406823
O O1 0.118782 0.514660 0.175011
O O2 0.996269 0.817475 0.486421
O O3 0.500000 0.500000 0.000000
O O4 0.446632 0.578094 0.922328
O O5 0.956580 0.947263 0.397382
O O6 0.572354 0.118969 0.892412
O O7 0.417587 0.211973 0.877348
O O8 0.460173 0.966994 0.783197
O O9 0.686878 0.058877 0.964305
O O10 0.821638 0.333435 0.082448
O O11 0.501623 0.639257 0.542560
O O12 0.481534 0.609198 0.370350
O O13 0.000000 0.500000 0.000000
O O14 0.013950 0.289065 0.083506
O O15 0.861520 0.461804 0.440605
O O16 0.055403 0.765737 0.637837
O O17 0.965707 0.054955 0.904014
#
# Coordination Sequence:
#
# PCOD9028879 Si02
#       8
#     2   2   2   2   2   2   2   2
#     4  12  22  41  66  91 129 168 214 269 316 375
#     4  10  23  40  62  91 127 165 213 265 317 375
#     4  11  24  41  62  96 129 166 217 265 319 379
#     4  10  22  42  65  93 128 167 213 259 314 376
#     4  10  22  43  65  93 126 166 215 268 322 379
#     4  11  23  43  64  93 133 171 209 261 323 382
#     4  10  24  43  67  97 131 168 214 263 320 388
#     4  10  23  39  63  95 125 168 216 256 322 381
#
# _framework density 24.457877
#
# number of rings (size 3 to 8) (size 9 to 14) (size 15 to 20)
#    0.000    1.500    2.500    1.125    0.000   13.000 
#    0.000    4.375    0.000    0.000    0.000    0.000 
#    0.000    0.000    0.000    0.000    0.000    0.000 
#
# Total GULP energy -89484.781071 kJ/mol
# GULP energy per Si atom -5592.798817 kJ/mol
# Density = 2.440221 g / cm^3
# Si number density = 24.457877 Si / 1000 Ang^3
#
#
#
# Elastic Constant Matrix: (Units=GPa)
#
#
# Indices 1 2 3 4 5 6 
#
# 1 83.4346 24.3734 20.6123 5.5950 -14.5398 -4.8002
# 2 24.3734 131.9261 35.2110 1.4498 -0.5375 14.1099
# 3 20.6123 35.2110 58.8737 -11.6160 -10.9926 4.6159
# 4 5.5950 1.4498 -11.6160 34.9407 1.0741 2.0412
# 5 -14.5398 -0.5375 -10.9926 1.0741 38.9233 -1.8562
# 6 -4.8002 14.1099 4.6159 2.0412 -1.8562 36.3349
#
#
#
# Elastic Compliance Matrix: (Units=1/GPa)
#
#
# Indices 1 2 3 4 5 6 
#
# 1 0.014909 -0.001944 -0.004296 -0.004095 0.004621 0.003736
# 2 -0.001944 0.009833 -0.005709 -0.001727 -0.002316 -0.003371
# 3 -0.004296 -0.005709 0.024768 0.009108 0.004976 -0.001754
# 4 -0.004095 -0.001727 0.009108 0.032543 -0.000016 -0.002857
# 5 0.004621 -0.002316 0.004976 -0.000016 0.028904 0.002355
# 6 0.003736 -0.003371 -0.001754 -0.002857 0.002355 0.029828
#
#
# Mechanical properties :
#
#
# Convention : Reuss Voigt Hill
#
# Bulk Modulus (GPa) = 39.04250 48.29198 43.66724
# Shear Modulus (GPa) = 28.86519 34.97561 31.92040
#
# Velocity S-wave (km/s) = 3.43913 3.78568 3.61656
# Velocity P-wave (km/s) = 5.63631 6.23669 5.94409
#
# Compressibility (1/GPa) = 0.02561311
#
# Stress axis : x y z
#
# Youngs Moduli (GPa) = 67.07248 101.69865 40.37516
#
# Poissons Ratio (x) = 0.19768 0.17343
# Poissons Ratio (y) = 0.13037 0.23050
# Poissons Ratio (z) = 0.28811 0.58060
#
# Static dielectric constant tensor:
#      x y z
#    x 2.004980 0.002140 0.021960 
#    y 0.002140 1.964720 0.002890 
#    z 0.021960 0.002890 1.957060 
# 
# From -- ./inp_files/522404.got.cif
#   From: 2010.05.17/outbox.cif.g08.bks.cpg/sg2_262_cif.got.tgz:522404.got - 2010.06.03 11:33:40.
