data_PCOD9028991
_publ_section_title
;
Structure prediction by ZEFSAII (Michael W. Deem and Ramdas Pophale) SiO2 
 PCOD9028991
Probable space group: P -1
;
_chemical_formula_sum "Si O2"
_cell_formula_units_Z 16
_cell_length_a 13.875967
_cell_length_b 8.417632
_cell_length_c 14.940463
_cell_angle_alpha 125.121243
_cell_angle_beta 29.782202
_cell_angle_gamma 125.951583
_cell_volume 692.235101
_symmetry_space_group_name_H-M "P -1"
_symmetry_group_IT_number 2
_symmetry_cell_setting 'triclinic'
loop_
_space_group_symop_operation_xyz
x,y,z
-x,-y,-z
loop_
_atom_site_type_symbol
_atom_site_label
_atom_site_fract_x
_atom_site_fract_y
_atom_site_fract_z
Si Si1 0.643446 0.565199 0.990361
Si Si2 0.632846 0.132621 0.865376
Si Si3 0.978303 0.085103 0.675339
Si Si4 0.546833 0.157434 0.641608
Si Si5 0.001895 0.303755 0.377043
Si Si6 0.485827 0.605581 0.435258
Si Si7 0.873858 0.587119 0.206488
Si Si8 0.448166 0.140164 0.317387
O O1 0.634505 0.351447 0.967833
O O2 0.861125 0.646322 0.803162
O O3 0.500000 0.500000 0.000000
O O4 0.570825 0.708683 0.163008
O O5 0.859891 0.116947 0.692665
O O6 0.533450 0.040313 0.823393
O O7 0.500000 0.000000 0.000000
O O8 0.965832 0.249404 0.814873
O O9 0.213259 0.121470 0.490271
O O10 0.912050 0.859421 0.689857
O O11 0.531696 0.239737 0.579727
O O12 0.778172 0.215740 0.499911
O O13 0.483531 0.936787 0.666757
O O14 0.000000 0.500000 0.500000
O O15 0.703987 0.686108 0.329868
O O16 0.278172 0.553586 0.644636
O O17 0.518833 0.375753 0.313926
O O18 0.000000 0.500000 0.000000
#
# Coordination Sequence:
#
# PCOD9028991 Si02
#       8
#     2   2   2   2   2   2   2   2
#     4  12  22  38  58  93 142 177 216 266 328 407
#     4  12  24  36  64  99 136 176 217 272 340 412
#     4  10  24  42  64  97 132 174 227 271 338 406
#     4  11  24  41  65 100 135 178 223 277 340 402
#     4  11  23  39  63  94 141 177 213 274 332 402
#     4  10  24  45  72  97 129 178 232 280 342 401
#     4  10  24  46  71  97 131 175 233 289 331 396
#     4  10  22  42  65  98 138 174 217 278 336 408
#
# _framework density 23.113534999999999
#
# number of rings (size 3 to 8) (size 9 to 14) (size 15 to 20)
#    0.000    1.250    2.500    2.625    8.750    0.000 
#    0.000   10.000    0.000    8.250    0.000    0.000 
#    0.000    0.000    0.000    0.000    0.000    0.000 
#
# Total GULP energy -89124.385711 kJ/mol
# GULP energy per Si atom -5570.274107 kJ/mol
# Density = 2.306093 g / cm^3
# Si number density = 23.113535 Si / 1000 Ang^3
#
#
#
# Elastic Constant Matrix: (Units=GPa)
#
#
# Indices 1 2 3 4 5 6 
#
# 1 111.3825 27.4131 -1.2412 3.8404 6.0109 -15.8067
# 2 27.4131 119.3316 15.8685 13.8335 -2.2122 -6.9477
# 3 -1.2412 15.8685 121.6507 11.5268 10.8327 1.6656
# 4 3.8404 13.8335 11.5268 34.3195 2.8029 1.1719
# 5 6.0109 -2.2122 10.8327 2.8029 32.7508 2.0835
# 6 -15.8067 -6.9477 1.6656 1.1719 2.0835 37.1667
#
#
#
# Elastic Compliance Matrix: (Units=1/GPa)
#
#
# Indices 1 2 3 4 5 6 
#
# 1 0.010249 -0.002195 0.000591 -0.000400 -0.002450 0.004072
# 2 -0.002195 0.009506 -0.001100 -0.003381 0.001641 0.000907
# 3 0.000591 -0.001100 0.008853 -0.002355 -0.002902 -0.000114
# 4 -0.000400 -0.003381 -0.002355 0.031552 -0.001976 -0.001581
# 5 -0.002450 0.001641 -0.002902 -0.001976 0.032373 -0.002358
# 6 0.004072 0.000907 -0.000114 -0.001581 -0.002358 0.028994
#
#
# Mechanical properties :
#
#
# Convention : Reuss Voigt Hill
#
# Bulk Modulus (GPa) = 43.10559 48.49397 45.79978
# Shear Modulus (GPa) = 37.12823 41.53568 39.33196
#
# Velocity S-wave (km/s) = 4.01227 4.24374 4.12962
# Velocity P-wave (km/s) = 6.33675 6.71109 6.52660
#
# Compressibility (1/GPa) = 0.02319885
#
# Stress axis : x y z
#
# Youngs Moduli (GPa) = 97.57332 105.19877 112.95613
#
# Poissons Ratio (x) = 0.23091 -0.06677
# Poissons Ratio (y) = 0.21417 0.12431
# Poissons Ratio (z) = -0.05768 0.11577
#
# Static dielectric constant tensor:
#      x y z
#    x 1.904570 -0.113490 -0.077120 
#    y -0.113490 1.902950 0.050190 
#    z -0.077120 0.050190 2.153310 
# 
# From -- ./inp_files/397328.got.cif
#   From: 2010.05.17/outbox.cif.g08.bks.cpg/sg2_199_cif.got.tgz:397328.got - 2010.06.03 11:33:40.
