data_PCOD9028755
_publ_section_title
;
Structure prediction by ZEFSAII (Michael W. Deem and Ramdas Pophale) SiO2 
 PCOD9028755
Probable space group: P -1
;
_chemical_formula_sum "Si O2"
_cell_formula_units_Z 14
_cell_length_a 10.624414
_cell_length_b 8.134210
_cell_length_c 8.658447
_cell_angle_alpha 58.944949
_cell_angle_beta 106.187425
_cell_angle_gamma 118.453387
_cell_volume 563.051138
_symmetry_space_group_name_H-M "P -1"
_symmetry_group_IT_number 2
_symmetry_cell_setting 'triclinic'
loop_
_space_group_symop_operation_xyz
x,y,z
-x,-y,-z
loop_
_atom_site_type_symbol
_atom_site_label
_atom_site_fract_x
_atom_site_fract_y
_atom_site_fract_z
Si Si1 0.923031 0.690955 0.149877
Si Si2 0.718834 0.898966 0.105914
Si Si3 0.148163 0.325312 0.194596
Si Si4 0.457705 0.457306 0.236476
Si Si5 0.676671 0.278951 0.379706
Si Si6 0.787746 0.291133 0.740985
Si Si7 0.271638 0.104556 0.535112
O O1 0.837901 0.830334 0.103422
O O2 0.818473 0.454162 0.269454
O O3 0.073287 0.740182 0.259921
O O4 0.954768 0.713386 0.966261
O O5 0.568612 0.695207 0.159270
O O6 0.761555 0.951414 0.272853
O O7 0.705975 0.089209 0.916990
O O8 0.307336 0.417318 0.124283
O O9 0.154222 0.499671 0.235869
O O10 0.143097 0.121950 0.383209
O O11 0.541835 0.326111 0.259552
O O12 0.392158 0.340094 0.432987
O O13 0.696405 0.308731 0.556801
O O14 0.670058 0.054964 0.441050
#
# Coordination Sequence:
#
# PCOD9028755 Si02
#       7
#     2   2   2   2   2   2   2
#     4  11  24  45  64  92 128 168 216 257 308 373
#     4  11  23  41  67  93 129 167 207 262 315 372
#     4  10  23  42  67  91 130 163 209 263 312 369
#     4   9  23  43  66  92 131 158 213 259 321 369
#     4  11  23  42  67  94 126 169 207 262 316 371
#     4  12  25  42  64  96 128 169 212 256 311 377
#     4  10  22  42  64  98 127 161 207 257 322 376
#
# _framework density 24.864525
#
# number of rings (size 3 to 8) (size 9 to 14) (size 15 to 20)
#    0.857    0.571    0.000    5.571    2.000    2.857 
#    2.571    2.143    0.000    0.000    0.000    0.000 
#    0.000    0.000    0.000    0.000    0.000    0.000 
#
# Total GULP energy -78338.808280 kJ/mol
# GULP energy per Si atom -5595.629163 kJ/mol
# Density = 2.480793 g / cm^3
# Si number density = 24.864525 Si / 1000 Ang^3
#
#
#
# Elastic Constant Matrix: (Units=GPa)
#
#
# Indices 1 2 3 4 5 6 
#
# 1 69.3875 1.7230 0.1335 4.5069 3.3412 5.0188
# 2 1.7230 48.6904 -1.0878 5.1572 -7.1006 -10.3116
# 3 0.1335 -1.0878 79.7411 10.0882 -19.0261 2.9426
# 4 4.5069 5.1572 10.0882 37.9267 3.6394 -14.8811
# 5 3.3412 -7.1006 -19.0261 3.6394 38.8857 -1.7686
# 6 5.0188 -10.3116 2.9426 -14.8811 -1.7686 31.7197
#
#
#
# Elastic Compliance Matrix: (Units=1/GPa)
#
#
# Indices 1 2 3 4 5 6 
#
# 1 0.015042 -0.001312 0.000222 -0.003284 -0.001318 -0.004441
# 2 -0.001312 0.023093 0.001477 -0.000993 0.005483 0.007418
# 3 0.000222 0.001477 0.015500 -0.006561 0.008285 -0.003609
# 4 -0.003284 -0.000993 -0.006561 0.036002 -0.005688 0.017378
# 5 -0.001318 0.005483 0.008285 -0.005688 0.031431 0.000306
# 6 -0.004441 0.007418 -0.003609 0.017378 0.000306 0.043145
#
#
# Mechanical properties :
#
#
# Convention : Reuss Voigt Hill
#
# Bulk Modulus (GPa) = 18.37940 22.15071 20.26506
# Shear Modulus (GPa) = 27.53672 34.84310 31.18991
#
# Velocity S-wave (km/s) = 3.33148 3.74748 3.54558
# Velocity P-wave (km/s) = 4.71234 5.25858 4.99294
#
# Compressibility (1/GPa) = 0.05440874
#
# Stress axis : x y z
#
# Youngs Moduli (GPa) = 66.48047 43.30318 64.51473
#
# Poissons Ratio (x) = 0.05683 -0.01431
# Poissons Ratio (y) = 0.08724 -0.09530
# Poissons Ratio (z) = -0.01474 -0.06397
#
# Static dielectric constant tensor:
#      x y z
#    x 1.972290 0.022660 -0.009090 
#    y 0.022660 1.963500 0.001720 
#    z -0.009090 0.001720 1.929960 
# 
# From -- ./inp_files/237282.got.cif
#   From: 2010.05.17/outbox.cif.g08.bks.cpg/sg2_119_cif.got.tgz:237282.got - 2010.06.03 11:33:40.
