data_PCOD9028850
_publ_section_title
;
Structure prediction by ZEFSAII (Michael W. Deem and Ramdas Pophale) SiO2 
 PCOD9028850
Probable space group: P -1
;
_chemical_formula_sum "Si O2"
_cell_formula_units_Z 14
_cell_length_a 9.675688
_cell_length_b 19.078176
_cell_length_c 16.962206
_cell_angle_alpha 21.923171
_cell_angle_beta 137.662821
_cell_angle_gamma 122.526908
_cell_volume 636.425811
_symmetry_space_group_name_H-M "P -1"
_symmetry_group_IT_number 2
_symmetry_cell_setting 'triclinic'
loop_
_space_group_symop_operation_xyz
x,y,z
-x,-y,-z
loop_
_atom_site_type_symbol
_atom_site_label
_atom_site_fract_x
_atom_site_fract_y
_atom_site_fract_z
Si Si1 0.623029 0.334062 0.482203
Si Si2 0.727195 0.398718 0.639070
Si Si3 0.907164 0.518720 0.352928
Si Si4 0.944642 0.238925 0.199612
Si Si5 0.506408 0.064764 0.625399
Si Si6 0.536801 0.701306 0.801053
Si Si7 0.908235 0.815096 0.855463
O O1 0.673825 0.350487 0.579193
O O2 0.801991 0.364679 0.469835
O O3 0.646135 0.102670 0.713997
O O4 0.332004 0.544060 0.117382
O O5 0.500000 0.500000 0.500000
O O6 0.847295 0.543089 0.527808
O O7 0.955244 0.184522 0.009272
O O8 0.000000 0.500000 0.500000
O O9 0.665724 0.791002 0.959949
O O10 0.207369 0.197630 0.378973
O O11 0.928144 0.263614 0.071978
O O12 0.000000 0.000000 0.500000
O O13 0.506340 0.197762 0.410253
O O14 0.800547 0.660272 0.979438
O O15 0.326708 0.921018 0.534920
O O16 0.500000 0.500000 0.000000
#
# Coordination Sequence:
#
# PCOD9028850 Si02
#       7
#     2   2   2   2   2   2   2
#     4  11  24  41  68  94 132 173 213 269 321 386
#     4  11  22  43  66  90 127 172 217 262 323 380
#     4  10  23  42  66  91 126 177 213 262 325 385
#     4  11  22  40  68  94 132 173 212 268 325 386
#     4  11  23  40  66 101 127 165 222 264 325 388
#     4  10  23  39  66  96 125 164 212 273 325 380
#     4  10  22  42  65  91 129 168 216 263 324 384
#
# _framework density 21.997851000000001
#
# number of rings (size 3 to 8) (size 9 to 14) (size 15 to 20)
#    0.000    1.429    4.286    0.429    4.000    2.286 
#    0.000    0.000    0.000    6.000    0.000    0.000 
#    0.000    0.000    0.000    0.000    0.000    0.000 
#
# Total GULP energy -78054.887251 kJ/mol
# GULP energy per Si atom -5575.349089 kJ/mol
# Density = 2.194778 g / cm^3
# Si number density = 21.997851 Si / 1000 Ang^3
#
#
#
# Elastic Constant Matrix: (Units=GPa)
#
#
# Indices 1 2 3 4 5 6 
#
# 1 106.0932 38.2311 12.4890 5.9137 8.5045 29.0040
# 2 38.2311 127.0719 33.4624 9.5905 -13.7459 9.1895
# 3 12.4890 33.4624 66.2820 14.4169 -11.8511 10.3723
# 4 5.9137 9.5905 14.4169 33.7339 1.7151 -6.3986
# 5 8.5045 -13.7459 -11.8511 1.7151 29.4419 3.6102
# 6 29.0040 9.1895 10.3723 -6.3986 3.6102 31.7772
#
#
#
# Elastic Compliance Matrix: (Units=1/GPa)
#
#
# Indices 1 2 3 4 5 6 
#
# 1 0.014900 -0.003988 0.001678 -0.004576 -0.003567 -0.013510
# 2 -0.003988 0.010513 -0.003814 -0.000654 0.004415 0.001211
# 3 0.001678 -0.003814 0.022467 -0.011354 0.008794 -0.011047
# 4 -0.004576 -0.000654 -0.011354 0.039080 -0.007895 0.016838
# 5 -0.003567 0.004415 0.008794 -0.007895 0.041945 -0.007246
# 6 -0.013510 0.001211 -0.011047 0.016838 -0.007246 0.051269
#
#
# Mechanical properties :
#
#
# Convention : Reuss Voigt Hill
#
# Bulk Modulus (GPa) = 28.06528 51.97911 40.02219
# Shear Modulus (GPa) = 24.47379 33.34158 28.90768
#
# Velocity S-wave (km/s) = 3.33912 3.89739 3.62900
# Velocity P-wave (km/s) = 5.25853 6.62822 5.98270
#
# Compressibility (1/GPa) = 0.03563122
#
# Stress axis : x y z
#
# Youngs Moduli (GPa) = 67.11542 95.11925 44.50933
#
# Poissons Ratio (x) = 0.37934 -0.07467
# Poissons Ratio (y) = 0.26766 0.16976
# Poissons Ratio (z) = -0.11259 0.36278
#
# Static dielectric constant tensor:
#      x y z
#    x 1.539650 0.337530 0.348250 
#    y 0.337530 1.555740 -0.276460 
#    z 0.348250 -0.276460 1.501230 
# 
# From -- ./inp_files/259294.got.cif
#   From: 2010.05.17/outbox.cif.g08.bks.cpg/sg2_130_cif.got.tgz:259294.got - 2010.06.03 11:33:40.
