data_PCOD9028671
_publ_section_title
;
Structure prediction by ZEFSAII (Michael W. Deem and Ramdas Pophale) SiO2 
 PCOD9028671
Probable space group: P -1
;
_chemical_formula_sum "Si O2"
_cell_formula_units_Z 16
_cell_length_a 7.226057
_cell_length_b 15.338628
_cell_length_c 24.345023
_cell_angle_alpha 18.455976
_cell_angle_beta 72.242135
_cell_angle_gamma 71.710328
_cell_volume 810.837987
_symmetry_space_group_name_H-M "P -1"
_symmetry_group_IT_number 2
_symmetry_cell_setting 'triclinic'
loop_
_space_group_symop_operation_xyz
x,y,z
-x,-y,-z
loop_
_atom_site_type_symbol
_atom_site_label
_atom_site_fract_x
_atom_site_fract_y
_atom_site_fract_z
Si Si1 0.737242 0.238653 0.974770
Si Si2 0.579769 0.854810 0.498456
Si Si3 0.650237 0.222853 0.865819
Si Si4 0.973218 0.260719 0.720923
Si Si5 0.809364 0.848695 0.593541
Si Si6 0.423962 0.243559 0.086990
Si Si7 0.260303 0.798847 0.819881
Si Si8 0.123028 0.833330 0.337693
O O1 0.724499 0.175943 0.949080
O O2 0.837252 0.525451 0.799339
O O3 0.524303 0.286963 0.993093
O O4 0.856401 0.983926 0.145173
O O5 0.549357 0.533380 0.687232
O O6 0.739449 0.874768 0.520747
O O7 0.377987 0.018957 0.435686
O O8 0.657264 0.983461 0.359562
O O9 0.824752 0.217672 0.809337
O O10 0.500000 0.000000 0.000000
O O11 0.867726 0.240980 0.683366
O O12 0.063760 0.556732 0.538320
O O13 0.000000 0.000000 0.500000
O O14 0.598582 0.230002 0.123174
O O15 0.316706 0.963116 0.262817
O O16 0.278985 0.504863 0.962541
O O17 0.049152 0.925670 0.781313
#
# Coordination Sequence:
#
# PCOD9028671 Si02
#       8
#     2   2   2   2   2   2   2   2
#     4  11  23  43  62  94 128 157 215 260 306 380
#     4  10  22  42  64  92 128 160 212 260 305 376
#     4  11  24  41  64  91 126 169 207 258 312 368
#     4  11  24  43  62  92 127 164 216 255 301 381
#     4  10  23  41  66  93 124 167 205 262 318 363
#     4  11  24  41  67  94 124 166 204 262 320 361
#     4  11  22  44  62  96 129 155 216 259 304 380
#     4  11  24  43  66  90 126 170 208 256 312 367
#
# _framework density 19.732672999999998
#
# number of rings (size 3 to 8) (size 9 to 14) (size 15 to 20)
#    0.000    1.250    3.750    1.500    1.750    3.500 
#    0.000    0.000    0.000    0.000    0.000    0.000 
#    0.000    0.000    0.000    0.000    0.000    0.000 
#
# Total GULP energy -89417.395881 kJ/mol
# GULP energy per Si atom -5588.587243 kJ/mol
# Density = 1.968776 g / cm^3
# Si number density = 19.732673 Si / 1000 Ang^3
#
#
#
# Elastic Constant Matrix: (Units=GPa)
#
#
# Indices 1 2 3 4 5 6 
#
# 1 67.0358 26.5711 45.5587 -16.0730 -25.7481 -1.1084
# 2 26.5711 104.2276 28.2030 5.5121 -19.0860 -9.6148
# 3 45.5587 28.2030 101.4086 -17.7533 -22.7764 11.1333
# 4 -16.0730 5.5121 -17.7533 36.1627 -0.0893 -4.8135
# 5 -25.7481 -19.0860 -22.7764 -0.0893 40.9904 -7.1374
# 6 -1.1084 -9.6148 11.1333 -4.8135 -7.1374 14.8898
#
#
#
# Elastic Compliance Matrix: (Units=1/GPa)
#
#
# Indices 1 2 3 4 5 6 
#
# 1 0.033032 -0.000641 -0.010846 0.012571 0.018469 0.023071
# 2 -0.000641 0.013311 -0.004004 -0.002456 0.005932 0.013591
# 3 -0.010846 -0.004004 0.017680 0.002238 -0.001762 -0.016733
# 4 0.012571 -0.002456 0.002238 0.036687 0.010624 0.014629
# 5 0.018469 0.005932 -0.001762 0.010624 0.043138 0.030635
# 6 0.023071 0.013591 -0.016733 0.014629 0.030635 0.109579
#
#
# Mechanical properties :
#
#
# Convention : Reuss Voigt Hill
#
# Bulk Modulus (GPa) = 30.26390 52.59305 41.42848
# Shear Modulus (GPa) = 16.92501 29.89786 23.41144
#
# Velocity S-wave (km/s) = 2.93185 3.89671 3.44820
# Velocity P-wave (km/s) = 5.17989 6.85248 6.07403
#
# Compressibility (1/GPa) = 0.03304266
#
# Stress axis : x y z
#
# Youngs Moduli (GPa) = 30.27404 75.12625 56.56013
#
# Poissons Ratio (x) = 0.04813 0.61343
# Poissons Ratio (y) = 0.01940 0.22645
# Poissons Ratio (z) = 0.32834 0.30079
#
# Static dielectric constant tensor:
#      x y z
#    x 1.658830 0.002430 0.023370 
#    y 0.002430 1.720060 -0.006260 
#    z 0.023370 -0.006260 1.676080 
# 
# From -- ./inp_files/111066.got.cif
#   From: 2010.05.17/outbox.cif.g08.bks.cpg/sg2_56_cif.got.tgz:111066.got - 2010.06.03 11:33:40.
