data_PCOD9028452
_publ_section_title
;
Structure prediction by ZEFSAII (Michael W. Deem and Ramdas Pophale) SiO2 
 PCOD9028452
Probable space group: P -1
;
_chemical_formula_sum "Si O2"
_cell_formula_units_Z 15
_cell_length_a 7.275801
_cell_length_b 14.613151
_cell_length_c 15.856880
_cell_angle_alpha 27.222586
_cell_angle_beta 82.503754
_cell_angle_gamma 65.233948
_cell_volume 569.107172
_symmetry_space_group_name_H-M "P -1"
_symmetry_group_IT_number 2
_symmetry_cell_setting 'triclinic'
loop_
_space_group_symop_operation_xyz
x,y,z
-x,-y,-z
loop_
_atom_site_type_symbol
_atom_site_label
_atom_site_fract_x
_atom_site_fract_y
_atom_site_fract_z
Si Si1 0.319454 0.923241 0.750605
Si Si2 0.357687 0.082252 0.794126
Si Si3 0.787485 0.021207 0.878798
Si Si4 0.856030 0.344953 0.711795
Si Si5 0.875092 0.654290 0.705942
Si Si6 0.331162 0.866508 0.557384
Si Si7 0.500000 0.500000 0.000000
Si Si8 0.932192 0.891496 0.798260
O O1 0.537556 0.727557 0.831721
O O2 0.213623 0.770173 0.864484
O O3 0.387121 0.918922 0.845342
O O4 0.107757 0.225982 0.480024
O O5 0.597751 0.971665 0.925301
O O6 0.289472 0.347665 0.542152
O O7 0.119905 0.181766 0.779978
O O8 0.717390 0.255760 0.751793
O O9 0.836803 0.066810 0.744974
O O10 0.053806 0.759030 0.114055
O O11 0.613169 0.736139 0.637001
O O12 0.836791 0.847816 0.620157
O O13 0.056116 0.348366 0.978062
O O14 0.343000 0.669447 0.779646
O O15 0.226333 0.929291 0.417979
#
# Coordination Sequence:
#
# PCOD9028452 Si02
#       8
#     2   2   2   2   2   2   1   2
#     4  11  23  43  66  97 140 177 231 286 333 405
#     4  11  22  44  67  99 135 176 226 283 341 407
#     4  11  23  42  68 101 134 178 221 282 352 402
#     4  10  23  43  70  97 136 173 225 285 339 420
#     4  10  22  42  62  91 132 175 229 286 337 398
#     4  10  22  42  65  91 130 179 230 282 343 397
#     4  10  22  44  66  96 136 184 224 282 340 400
#     4  12  23  42  65 100 134 178 232 279 341 413
#
# _framework density 26.357073
#
# number of rings (size 3 to 8) (size 9 to 14) (size 15 to 20)
#    0.000    1.333    2.667    2.800    0.000    2.133 
#   14.400    1.333    0.000    0.000    0.000    0.000 
#    0.000    0.000    0.000    0.000    0.000    0.000 
#
# Total GULP energy -83751.657046 kJ/mol
# GULP energy per Si atom -5583.443803 kJ/mol
# Density = 2.629708 g / cm^3
# Si number density = 26.357073 Si / 1000 Ang^3
#
#
#
# Elastic Constant Matrix: (Units=GPa)
#
#
# Indices 1 2 3 4 5 6 
#
# 1 79.2610 36.8667 34.0452 17.1980 12.1354 2.2702
# 2 36.8667 126.9372 36.8115 27.2901 15.7874 27.8194
# 3 34.0452 36.8115 158.8064 23.0475 -6.7770 26.3264
# 4 17.1980 27.2901 23.0475 48.2838 11.5650 4.6083
# 5 12.1354 15.7874 -6.7770 11.5650 38.8160 3.9442
# 6 2.2702 27.8194 26.3264 4.6083 3.9442 35.1976
#
#
#
# Elastic Compliance Matrix: (Units=1/GPa)
#
#
# Indices 1 2 3 4 5 6 
#
# 1 0.016940 -0.004278 -0.003549 -0.001423 -0.004322 0.005613
# 2 -0.004278 0.012056 0.000095 -0.004171 -0.001431 -0.008618
# 3 -0.003549 0.000095 0.008778 -0.003387 0.004267 -0.006447
# 4 -0.001423 -0.004171 -0.003387 0.026483 -0.006666 0.003201
# 5 -0.004322 -0.001431 0.004267 -0.006666 0.030871 -0.004369
# 6 0.005613 -0.008618 -0.006447 0.003201 -0.004369 0.039753
#
#
# Mechanical properties :
#
#
# Convention : Reuss Voigt Hill
#
# Bulk Modulus (GPa) = 44.81860 64.49461 54.65661
# Shear Modulus (GPa) = 31.68977 41.61155 36.65066
#
# Velocity S-wave (km/s) = 3.47122 3.97767 3.73304
# Velocity P-wave (km/s) = 5.75388 6.75415 6.27398
#
# Compressibility (1/GPa) = 0.02231216
#
# Stress axis : x y z
#
# Youngs Moduli (GPa) = 59.03135 82.94680 113.92094
#
# Poissons Ratio (x) = 0.35482 0.40426
# Poissons Ratio (y) = 0.25251 -0.01086
# Poissons Ratio (z) = 0.20948 -0.00790
#
# Static dielectric constant tensor:
#      x y z
#    x 2.194000 -0.072720 0.023940 
#    y -0.072720 2.166580 -0.050050 
#    z 0.023940 -0.050050 2.112480 
# 
# From -- ./inp_files/505005.got.cif
#   From: 2010.05.17/outbox.cif.g08.bks.cpg/sg2_253_cif.got.tgz:505005.got - 2010.06.03 11:33:40.
