data_PCOD9028765
_publ_section_title
;
Structure prediction by ZEFSAII (Michael W. Deem and Ramdas Pophale) SiO2 
 PCOD9028765
Probable space group: P -1
;
_chemical_formula_sum "Si O2"
_cell_formula_units_Z 12
_cell_length_a 16.029806
_cell_length_b 11.278147
_cell_length_c 11.371563
_cell_angle_alpha 135.637731
_cell_angle_beta 30.377875
_cell_angle_gamma 153.071875
_cell_volume 457.427148
_symmetry_space_group_name_H-M "P -1"
_symmetry_group_IT_number 2
_symmetry_cell_setting 'triclinic'
loop_
_space_group_symop_operation_xyz
x,y,z
-x,-y,-z
loop_
_atom_site_type_symbol
_atom_site_label
_atom_site_fract_x
_atom_site_fract_y
_atom_site_fract_z
Si Si1 0.166485 0.365140 0.999322
Si Si2 0.784705 0.908044 0.410364
Si Si3 0.308090 0.275962 0.347243
Si Si4 0.362420 0.921023 0.440949
Si Si5 0.210504 0.448103 0.393366
Si Si6 0.049823 0.557054 0.844447
O O1 0.438927 0.641222 0.922406
O O2 0.796314 0.798556 0.203699
O O3 0.906830 0.216337 0.276735
O O4 0.111829 0.412167 0.976361
O O5 0.629748 0.959607 0.603701
O O6 0.076334 0.202978 0.299720
O O7 0.693304 0.732382 0.513679
O O8 0.371094 0.477956 0.320670
O O9 0.000000 0.000000 0.500000
O O10 0.324681 0.688900 0.343585
O O11 0.364774 0.826617 0.645837
O O12 0.990839 0.362782 0.684336
O O13 0.000000 0.500000 0.000000
#
# Coordination Sequence:
#
# PCOD9028765 Si02
#       6
#     2   2   2   2   2   2
#     4  11  22  40  67  97 131 175 219 271 327 388
#     4  11  22  41  67  97 131 174 220 271 326 390
#     4  10  22  42  66  96 131 173 222 269 320 389
#     4  11  24  43  65  97 133 173 220 269 329 395
#     4  10  22  42  64  98 136 168 217 276 327 388
#     4  11  23  44  69  95 130 177 221 270 329 396
#
# _framework density 26.233685999999999
#
# number of rings (size 3 to 8) (size 9 to 14) (size 15 to 20)
#    0.000    1.333    0.000    6.500    0.000    1.333 
#    0.000   44.167    0.000    0.000    0.000    0.000 
#    0.000    0.000    0.000    0.000    0.000    0.000 
#
# Total GULP energy -66834.236865 kJ/mol
# GULP energy per Si atom -5569.519739 kJ/mol
# Density = 2.617398 g / cm^3
# Si number density = 26.233686 Si / 1000 Ang^3
#
#
#
# Elastic Constant Matrix: (Units=GPa)
#
#
# Indices 1 2 3 4 5 6 
#
# 1 209.0226 35.9785 44.0030 -9.6473 -25.8545 -20.9969
# 2 35.9785 60.4320 33.4623 -21.6065 -9.0047 9.6664
# 3 44.0030 33.4623 119.0377 -36.5725 -12.0109 14.0696
# 4 -9.6473 -21.6065 -36.5725 18.3420 6.7192 -0.4765
# 5 -25.8545 -9.0047 -12.0109 6.7192 60.0548 -0.5903
# 6 -20.9969 9.6664 14.0696 -0.4765 -0.5903 46.1035
#
#
#
# Elastic Compliance Matrix: (Units=1/GPa)
#
#
# Indices 1 2 3 4 5 6 
#
# 1 0.008714 -0.011005 -0.009630 -0.028618 0.003465 0.008963
# 2 -0.011005 0.047617 0.021865 0.094841 -0.004040 -0.020740
# 3 -0.009630 0.021865 0.037052 0.095660 -0.004350 -0.019344
# 4 -0.028618 0.094841 0.095660 0.347135 -0.018384 -0.058759
# 5 0.003465 -0.004040 -0.004350 -0.018384 0.018762 0.003803
# 6 0.008963 -0.020740 -0.019344 -0.058759 0.003803 0.035465
#
#
# Mechanical properties :
#
#
# Convention : Reuss Voigt Hill
#
# Bulk Modulus (GPa) = 10.43376 68.37556 39.40466
# Shear Modulus (GPa) = 9.53777 43.23664 26.38720
#
# Velocity S-wave (km/s) = 1.90882 4.06413 3.17496
# Velocity P-wave (km/s) = 2.97388 6.93855 5.33795
#
# Compressibility (1/GPa) = 0.09584268
#
# Stress axis : x y z
#
# Youngs Moduli (GPa) = 114.76032 21.00096 26.98945
#
# Poissons Ratio (x) = 0.23111 0.25990
# Poissons Ratio (y) = 1.26292 -0.59012
# Poissons Ratio (z) = 1.10510 -0.45918
#
# Static dielectric constant tensor:
#      x y z
#    x 2.112640 -0.062930 0.075300 
#    y -0.062930 2.276130 -0.054700 
#    z 0.075300 -0.054700 2.106360 
# 
# From -- ./inp_files/247406.got.cif
#   From: 2010.05.17/outbox.cif.g08.bks.cpg/sg2_124_cif.got.tgz:247406.got - 2010.06.03 11:33:40.
