data_PCOD9028302
_publ_section_title
;
Structure prediction by ZEFSAII (Michael W. Deem and Ramdas Pophale) SiO2 
 PCOD9028302
Probable space group: P -1
;
_chemical_formula_sum "Si O2"
_cell_formula_units_Z 16
_cell_length_a 9.184042
_cell_length_b 16.955154
_cell_length_c 8.114257
_cell_angle_alpha 61.758612
_cell_angle_beta 47.393860
_cell_angle_gamma 40.087851
_cell_volume 596.203528
_symmetry_space_group_name_H-M "P -1"
_symmetry_group_IT_number 2
_symmetry_cell_setting 'triclinic'
loop_
_space_group_symop_operation_xyz
x,y,z
-x,-y,-z
loop_
_atom_site_type_symbol
_atom_site_label
_atom_site_fract_x
_atom_site_fract_y
_atom_site_fract_z
Si Si1 0.791568 0.975087 0.655931
Si Si2 0.374083 0.201624 0.568704
Si Si3 0.287735 0.730525 0.383564
Si Si4 0.197449 0.315180 0.945934
Si Si5 0.423849 0.494486 0.800822
Si Si6 0.536889 0.341101 0.192376
Si Si7 0.417593 0.921438 0.945817
Si Si8 0.042803 0.134408 0.814359
O O1 0.683349 0.077565 0.499094
O O2 0.753928 0.037350 0.795695
O O3 0.066486 0.832002 0.582853
O O4 0.558703 0.973374 0.811733
O O5 0.228908 0.252474 0.810215
O O6 0.371351 0.301634 0.394477
O O7 0.221718 0.169608 0.618048
O O8 0.151004 0.819066 0.238724
O O9 0.586551 0.672597 0.253358
O O10 0.345525 0.612322 0.395084
O O11 0.117658 0.573071 0.898030
O O12 0.333402 0.223270 0.088721
O O13 0.466573 0.583542 0.735529
O O14 0.445540 0.424569 0.016816
O O15 0.842330 0.215996 0.038815
O O16 0.236272 0.992352 0.855585
#
# Coordination Sequence:
#
# PCOD9028302 Si02
#       8
#     2   2   2   2   2   2   2   2
#     4   9  21  42  66 105 137 168 233 277 347 406
#     4  10  22  41  75 101 126 183 233 287 329 413
#     4  11  25  42  66 102 146 173 220 292 342 403
#     4  11  23  42  67 100 138 182 229 276 341 407
#     4  10  23  47  64  98 141 181 229 283 335 403
#     4  10  22  43  76  96 129 185 239 279 330 410
#     4   9  21  40  73  95 135 187 215 286 335 408
#     4  10  22  45  68 106 138 171 231 284 345 398
#
# _framework density 26.836473000000002
#
# number of rings (size 3 to 8) (size 9 to 14) (size 15 to 20)
#    0.000    2.000    1.250    1.125    3.500    4.000 
#    6.750    2.500    0.000    0.000    0.000    0.000 
#    0.000    0.000    0.000    0.000    0.000    0.000 
#
# Total GULP energy -89544.441524 kJ/mol
# GULP energy per Si atom -5596.527595 kJ/mol
# Density = 2.677539 g / cm^3
# Si number density = 26.836473 Si / 1000 Ang^3
#
#
#
# Elastic Constant Matrix: (Units=GPa)
#
#
# Indices 1 2 3 4 5 6 
#
# 1 124.9385 28.0814 41.7538 5.4648 -5.0217 -9.8872
# 2 28.0814 130.5288 42.6050 15.4315 10.7914 -25.3960
# 3 41.7538 42.6050 76.4423 -6.6445 5.3846 -4.5568
# 4 5.4648 15.4315 -6.6445 56.6711 -1.1747 0.4186
# 5 -5.0217 10.7914 5.3846 -1.1747 26.1545 -1.0513
# 6 -9.8872 -25.3960 -4.5568 0.4186 -1.0513 44.8686
#
#
#
# Elastic Compliance Matrix: (Units=1/GPa)
#
#
# Indices 1 2 3 4 5 6 
#
# 1 0.010313 -0.000034 -0.005877 -0.001621 0.003201 0.001747
# 2 -0.000034 0.011593 -0.006196 -0.003995 -0.003457 0.005881
# 3 -0.005877 -0.006196 0.020158 0.004584 -0.002631 -0.002859
# 4 -0.001621 -0.003995 0.004584 0.019469 0.001175 -0.002307
# 5 0.003201 -0.003457 -0.002631 0.001175 0.040847 -0.000573
# 6 0.001747 0.005881 -0.002859 -0.002307 -0.000573 0.025719
#
#
# Mechanical properties :
#
#
# Convention : Reuss Voigt Hill
#
# Bulk Modulus (GPa) = 56.01698 61.86556 58.94127
# Shear Modulus (GPa) = 31.59284 40.17014 35.88149
#
# Velocity S-wave (km/s) = 3.43481 3.87311 3.66053
# Velocity P-wave (km/s) = 6.05387 6.56537 6.31480
#
# Compressibility (1/GPa) = 0.01785173
#
# Stress axis : x y z
#
# Youngs Moduli (GPa) = 96.96212 86.25635 49.60689
#
# Poissons Ratio (x) = 0.00291 0.29153
# Poissons Ratio (y) = 0.00327 0.30738
# Poissons Ratio (z) = 0.56982 0.53446
#
# Static dielectric constant tensor:
#      x y z
#    x 2.058640 0.026200 0.024120 
#    y 0.026200 2.093570 -0.045390 
#    z 0.024120 -0.045390 2.213990 
# 
# From -- ./inp_files/277536.got.cif
#   From: 2010.05.17/outbox.cif.g08.bks.cpg/sg2_139_cif.got.tgz:277536.got - 2010.06.03 11:33:40.
