data_PCOD9028368
_publ_section_title
;
Structure prediction by ZEFSAII (Michael W. Deem and Ramdas Pophale) SiO2 
 PCOD9028368
Probable space group: P -1
;
_chemical_formula_sum "Si O2"
_cell_formula_units_Z 16
_cell_length_a 11.259728
_cell_length_b 15.760332
_cell_length_c 10.850014
_cell_angle_alpha 68.400546
_cell_angle_beta 73.969169
_cell_angle_gamma 135.320661
_cell_volume 715.430188
_symmetry_space_group_name_H-M "P -1"
_symmetry_group_IT_number 2
_symmetry_cell_setting 'triclinic'
loop_
_space_group_symop_operation_xyz
x,y,z
-x,-y,-z
loop_
_atom_site_type_symbol
_atom_site_label
_atom_site_fract_x
_atom_site_fract_y
_atom_site_fract_z
Si Si1 0.255765 0.386185 0.821285
Si Si2 0.378785 0.711815 0.212620
Si Si3 0.886764 0.858874 0.715892
Si Si4 0.772607 0.458025 0.379313
Si Si5 0.201622 0.403866 0.107811
Si Si6 0.844047 0.314572 0.388688
Si Si7 0.164700 0.131671 0.010043
Si Si8 0.659764 0.051945 0.090277
O O1 0.379975 0.548336 0.610163
O O2 0.369283 0.359392 0.803927
O O3 0.260965 0.431949 0.930896
O O4 0.905131 0.142331 0.017431
O O5 0.295730 0.615481 0.422534
O O6 0.105780 0.512623 0.306289
O O7 0.653046 0.835665 0.024708
O O8 0.489530 0.888325 0.115475
O O9 0.934672 0.784576 0.709824
O O10 0.529042 0.631586 0.950300
O O11 0.007345 0.958275 0.766067
O O12 0.000000 0.000000 0.500000
O O13 0.881767 0.282832 0.875714
O O14 0.722881 0.334000 0.377869
O O15 0.989157 0.345367 0.231558
O O16 0.577118 0.087681 0.661008
O O17 0.000000 0.000000 0.000000
#
# Coordination Sequence:
#
# PCOD9028368 Si02
#       8
#     2   2   2   2   2   2   2   2
#     4   9  21  40  59  88 124 162 197 260 304 354
#     4  11  21  37  62  90 121 162 198 260 314 351
#     4  10  23  44  64  90 127 168 197 253 313 367
#     4   9  21  39  57  90 122 160 204 247 307 359
#     4  10  22  42  60  89 127 155 210 249 300 374
#     4  11  22  37  63  86 122 168 199 250 304 367
#     4  11  20  40  67  93 124 155 210 259 306 370
#     4   9  20  40  54  90 121 154 204 253 301 354
#
# _framework density 22.364166000000001
#
# number of rings (size 3 to 8) (size 9 to 14) (size 15 to 20)
#    0.750    1.250    2.500    1.500    0.000    5.500 
#    6.750    0.000    0.000    0.000    0.000    0.000 
#    0.000    0.000    0.000    0.000    0.000    0.000 
#
# Total GULP energy -89207.415523 kJ/mol
# GULP energy per Si atom -5575.463470 kJ/mol
# Density = 2.231326 g / cm^3
# Si number density = 22.364166 Si / 1000 Ang^3
#
#
#
# Elastic Constant Matrix: (Units=GPa)
#
#
# Indices 1 2 3 4 5 6 
#
# 1 49.4240 4.0506 5.2116 7.7716 19.8604 -19.0841
# 2 4.0506 94.6138 30.4251 9.3542 11.9726 -13.3130
# 3 5.2116 30.4251 58.4563 -14.7276 15.3449 -20.5748
# 4 7.7716 9.3542 -14.7276 24.1111 1.3693 -7.8588
# 5 19.8604 11.9726 15.3449 1.3693 38.0671 -4.6903
# 6 -19.0841 -13.3130 -20.5748 -7.8588 -4.6903 44.1540
#
#
#
# Elastic Compliance Matrix: (Units=1/GPa)
#
#
# Indices 1 2 3 4 5 6 
#
# 1 0.032879 0.001093 0.006435 -0.001032 -0.018153 0.015427
# 2 0.001093 0.016138 -0.014256 -0.016720 0.000177 -0.004262
# 3 0.006435 -0.014256 0.048674 0.042948 -0.016708 0.027034
# 4 -0.001032 -0.016720 0.042948 0.084404 -0.011056 0.028374
# 5 -0.018153 0.000177 -0.016708 -0.011056 0.041195 -0.013170
# 6 0.015427 -0.004262 0.027034 0.028374 -0.013170 0.044279
#
#
# Mechanical properties :
#
#
# Convention : Reuss Voigt Hill
#
# Bulk Modulus (GPa) = 11.87153 31.31873 21.59513
# Shear Modulus (GPa) = 16.17586 32.12022 24.14804
#
# Velocity S-wave (km/s) = 2.69233 3.79388 3.28954
# Velocity P-wave (km/s) = 3.87100 5.76418 4.90971
#
# Compressibility (1/GPa) = 0.08423511
#
# Stress axis : x y z
#
# Youngs Moduli (GPa) = 30.41486 61.96671 20.54469
#
# Poissons Ratio (x) = -0.06773 -0.13221
# Poissons Ratio (y) = -0.03324 0.29288
# Poissons Ratio (z) = -0.19572 0.88338
#
# Static dielectric constant tensor:
#      x y z
#    x 1.912160 0.023200 -0.018330 
#    y 0.023200 1.856420 -0.018080 
#    z -0.018330 -0.018080 1.805470 
# 
# From -- ./inp_files/431301.got.cif
#   From: 2010.05.17/outbox.cif.g08.bks.cpg/sg2_216_cif.got.tgz:431301.got - 2010.06.03 11:33:40.
