data_PCOD9028559
_publ_section_title
;
Structure prediction by ZEFSAII (Michael W. Deem and Ramdas Pophale) SiO2 
 PCOD9028559
Probable space group: P -1
;
_chemical_formula_sum "Si O2"
_cell_formula_units_Z 16
_cell_length_a 13.544111
_cell_length_b 9.220119
_cell_length_c 9.127962
_cell_angle_alpha 48.690245
_cell_angle_beta 86.066331
_cell_angle_gamma 65.139549
_cell_volume 739.481842
_symmetry_space_group_name_H-M "P -1"
_symmetry_group_IT_number 2
_symmetry_cell_setting 'triclinic'
loop_
_space_group_symop_operation_xyz
x,y,z
-x,-y,-z
loop_
_atom_site_type_symbol
_atom_site_label
_atom_site_fract_x
_atom_site_fract_y
_atom_site_fract_z
Si Si1 0.120876 0.330812 0.530132
Si Si2 0.884231 0.007610 0.457814
Si Si3 0.049153 0.247949 0.102957
Si Si4 0.245847 0.856561 0.174634
Si Si5 0.312806 0.171084 0.862814
Si Si6 0.590696 0.539845 0.379754
Si Si7 0.693992 0.512620 0.109102
Si Si8 0.187471 0.596295 0.115088
O O1 0.107810 0.135966 0.586842
O O2 0.216378 0.243892 0.702271
O O3 0.157378 0.448728 0.323813
O O4 0.000000 0.500000 0.500000
O O5 0.869832 0.885722 0.680503
O O6 0.783437 0.254583 0.291057
O O7 0.000000 0.000000 0.500000
O O8 0.134278 0.094807 0.067182
O O9 0.000000 0.500000 0.000000
O O10 0.929847 0.260808 0.061158
O O11 0.339292 0.929249 0.074006
O O12 0.291686 0.669471 0.423824
O O13 0.217543 0.747890 0.112966
O O14 0.404823 0.232442 0.744967
O O15 0.271281 0.334055 0.900688
O O16 0.500000 0.500000 0.500000
O O17 0.588930 0.536710 0.203614
O O18 0.707961 0.545168 0.914679
#
# Coordination Sequence:
#
# PCOD9028559 Si02
#       8
#     2   2   2   2   2   2   2   2
#     4  12  25  39  60  96 140 186 223 265 322 398
#     4  12  23  35  59  89 136 176 218 262 321 388
#     4  12  23  37  58  95 134 180 217 253 322 402
#     4  12  24  42  68  98 136 177 219 276 337 397
#     4  10  23  43  66  93 134 166 230 271 333 397
#     4  10  24  47  74  95 127 171 230 288 341 393
#     4  10  22  42  63  94 129 170 227 270 337 391
#     4  12  23  39  63  93 141 179 218 271 330 398
#
# _framework density 21.636771
#
# number of rings (size 3 to 8) (size 9 to 14) (size 15 to 20)
#    0.750    0.000    5.000    3.375    1.750    0.500 
#    0.000    0.625    0.000    1.500    0.000    0.000 
#    0.000    0.000    0.000    0.000    0.000    0.000 
#
# Total GULP energy -89073.907356 kJ/mol
# GULP energy per Si atom -5567.119210 kJ/mol
# Density = 2.158752 g / cm^3
# Si number density = 21.636771 Si / 1000 Ang^3
#
#
#
# Elastic Constant Matrix: (Units=GPa)
#
#
# Indices 1 2 3 4 5 6 
#
# 1 82.2439 58.1282 7.4275 13.2590 -27.1972 11.7713
# 2 58.1282 154.4219 23.4798 22.9355 -15.4318 31.7345
# 3 7.4275 23.4798 87.1775 11.7823 -27.2383 5.4136
# 4 13.2590 22.9355 11.7823 43.7802 0.3653 -10.8901
# 5 -27.1972 -15.4318 -27.2383 0.3653 37.1873 0.7774
# 6 11.7713 31.7345 5.4136 -10.8901 0.7774 39.9056
#
#
#
# Elastic Compliance Matrix: (Units=1/GPa)
#
#
# Indices 1 2 3 4 5 6 
#
# 1 0.025146 -0.005861 0.007836 -0.008468 0.021918 -0.006557
# 2 -0.005861 0.011652 -0.001275 -0.006240 -0.000134 -0.009064
# 3 0.007836 -0.001275 0.018669 -0.008512 0.019096 -0.006525
# 4 -0.008468 -0.006240 -0.008512 0.035742 -0.015758 0.018675
# 5 0.021918 -0.000134 0.019096 -0.015758 0.057308 -0.014366
# 6 -0.006557 -0.009064 -0.006525 0.018675 -0.014366 0.040463
#
#
# Mechanical properties :
#
#
# Convention : Reuss Voigt Hill
#
# Bulk Modulus (GPa) = 17.58509 55.76824 36.67667
# Shear Modulus (GPa) = 24.20895 39.82846 32.01871
#
# Velocity S-wave (km/s) = 3.34860 4.29508 3.85103
# Velocity P-wave (km/s) = 4.80581 7.10124 6.06315
#
# Compressibility (1/GPa) = 0.05686636
#
# Stress axis : x y z
#
# Youngs Moduli (GPa) = 39.76826 85.82152 53.56553
#
# Poissons Ratio (x) = 0.50304 -0.41974
# Poissons Ratio (y) = 0.23310 0.06828
# Poissons Ratio (z) = -0.31163 0.10939
#
# Static dielectric constant tensor:
#      x y z
#    x 1.909010 -0.261660 -0.453800 
#    y -0.261660 2.433910 1.293030 
#    z -0.453800 1.293030 4.344240 
# 
# From -- ./inp_files/294514.got.cif
#   From: 2010.05.17/outbox.cif.g08.bks.cpg/sg2_148_cif.got.tgz:294514.got - 2010.06.03 11:33:40.
