data_PCOD9028610
_publ_section_title
;
Structure prediction by ZEFSAII (Michael W. Deem and Ramdas Pophale) SiO2 
 PCOD9028610
Probable space group: P -1
;
_chemical_formula_sum "Si O2"
_cell_formula_units_Z 15
_cell_length_a 14.734366
_cell_length_b 15.313500
_cell_length_c 8.453740
_cell_angle_alpha 86.135646
_cell_angle_beta 93.777481
_cell_angle_gamma 159.775857
_cell_volume 657.877291
_symmetry_space_group_name_H-M "P -1"
_symmetry_group_IT_number 2
_symmetry_cell_setting 'triclinic'
loop_
_space_group_symop_operation_xyz
x,y,z
-x,-y,-z
loop_
_atom_site_type_symbol
_atom_site_label
_atom_site_fract_x
_atom_site_fract_y
_atom_site_fract_z
Si Si1 0.940881 0.219922 0.212123
Si Si2 0.752844 0.764497 0.831255
Si Si3 0.757021 0.246294 0.106047
Si Si4 0.294796 0.411985 0.635899
Si Si5 0.707342 0.261385 0.438128
Si Si6 0.006786 0.853084 0.064153
Si Si7 0.537283 0.285272 0.590034
Si Si8 0.000000 0.000000 0.500000
O O1 0.839965 0.228042 0.190581
O O2 0.232619 0.484846 0.286148
O O3 0.735615 0.981907 0.325232
O O4 0.929125 0.166845 0.043823
O O5 0.489128 0.520882 0.731915
O O6 0.976545 0.971347 0.697488
O O7 0.802968 0.731643 0.960821
O O8 0.764805 0.870257 0.905304
O O9 0.703558 0.260670 0.247391
O O10 0.000000 0.500000 0.000000
O O11 0.500000 0.000000 0.000000
O O12 0.110628 0.285340 0.766121
O O13 0.478931 0.648408 0.540595
O O14 0.135246 0.217285 0.510112
O O15 0.627820 0.281068 0.505469
O O16 0.000000 0.500000 0.500000
O O17 0.500000 0.000000 0.500000
#
# Coordination Sequence:
#
# PCOD9028610 Si02
#       8
#     2   2   2   2   2   2   2   1
#     4  12  27  49  70 109 147 189 241 298 368 428
#     4  10  22  44  68  96 138 187 237 295 367 426
#     4  12  26  45  76 109 146 192 238 295 366 434
#     4  11  25  42  72 102 137 189 246 299 364 427
#     4  12  23  49  74 104 147 194 241 292 361 442
#     4  10  25  43  68  99 142 180 238 299 368 423
#     4  12  27  46  75 105 145 191 245 299 357 437
#     4  10  22  42  64 100 132 178 246 286 356 426
#
# _framework density 22.800605000000001
#
# number of rings (size 3 to 8) (size 9 to 14) (size 15 to 20)
#    0.000    0.800    2.667    3.200    9.333    1.067 
#    2.400    0.000    0.000    0.000    0.000    0.000 
#    0.000    0.000    0.000    0.000    0.000    0.000 
#
# Total GULP energy -83751.406101 kJ/mol
# GULP energy per Si atom -5583.427073 kJ/mol
# Density = 2.274871 g / cm^3
# Si number density = 22.800605 Si / 1000 Ang^3
#
#
#
# Elastic Constant Matrix: (Units=GPa)
#
#
# Indices 1 2 3 4 5 6 
#
# 1 21.2696 19.2330 8.1187 11.9708 -12.1982 -12.4043
# 2 19.2330 150.4690 46.5074 -2.2526 0.3140 -7.7009
# 3 8.1187 46.5074 111.1018 4.3647 -29.7243 -12.0992
# 4 11.9708 -2.2526 4.3647 47.5505 -3.0937 10.1947
# 5 -12.1982 0.3140 -29.7243 -3.0937 49.7057 7.8791
# 6 -12.4043 -7.7009 -12.0992 10.1947 7.8791 32.8365
#
#
#
# Elastic Compliance Matrix: (Units=1/GPa)
#
#
# Indices 1 2 3 4 5 6 
#
# 1 0.141301 -0.020382 0.015187 -0.049216 0.030990 0.062038
# 2 -0.020382 0.010847 -0.006085 0.007475 -0.006969 -0.008047
# 3 0.015187 -0.006085 0.014537 -0.006734 0.010578 0.009219
# 4 -0.049216 0.007475 -0.006734 0.040165 -0.008954 -0.029642
# 5 0.030990 -0.006969 0.010578 -0.008954 0.032102 0.009047
# 6 0.062038 -0.008047 0.009219 -0.029642 0.009047 0.062431
#
#
# Mechanical properties :
#
#
# Convention : Reuss Voigt Hill
#
# Bulk Modulus (GPa) = 6.93846 47.83985 27.38916
# Shear Modulus (GPa) = 13.44143 39.95063 26.69603
#
# Velocity S-wave (km/s) = 2.43064 4.19044 3.42548
# Velocity P-wave (km/s) = 3.30561 6.66636 5.26153
#
# Compressibility (1/GPa) = 0.14412417
#
# Stress axis : x y z
#
# Youngs Moduli (GPa) = 7.07710 92.19480 68.79036
#
# Poissons Ratio (x) = 1.87907 -1.04471
# Poissons Ratio (y) = 0.14424 0.41862
# Poissons Ratio (z) = -0.10748 0.56104
#
# Static dielectric constant tensor:
#      x y z
#    x 1.915400 0.115250 0.005900 
#    y 0.115250 1.969810 -0.013390 
#    z 0.005900 -0.013390 1.864840 
# 
# From -- ./inp_files/313378.got.cif
#   From: 2010.05.17/outbox.cif.g08.bks.cpg/sg2_157_cif.got.tgz:313378.got - 2010.06.03 11:33:40.
