data_PCOD9028789
_publ_section_title
;
Structure prediction by ZEFSAII (Michael W. Deem and Ramdas Pophale) SiO2 
 PCOD9028789
Probable space group: P -1
;
_chemical_formula_sum "Si O2"
_cell_formula_units_Z 14
_cell_length_a 21.815463
_cell_length_b 5.475141
_cell_length_c 5.003935
_cell_angle_alpha 82.375100
_cell_angle_beta 107.314319
_cell_angle_gamma 67.971506
_cell_volume 508.390371
_symmetry_space_group_name_H-M "P -1"
_symmetry_group_IT_number 2
_symmetry_cell_setting 'triclinic'
loop_
_space_group_symop_operation_xyz
x,y,z
-x,-y,-z
loop_
_atom_site_type_symbol
_atom_site_label
_atom_site_fract_x
_atom_site_fract_y
_atom_site_fract_z
Si Si1 0.291931 0.534308 0.887860
Si Si2 0.185495 0.061612 0.953322
Si Si3 0.900064 0.201755 0.953123
Si Si4 0.485683 0.941835 0.238030
Si Si5 0.258250 0.297808 0.363788
Si Si6 0.938302 0.406933 0.477233
Si Si7 0.563653 0.474838 0.883728
O O1 0.221990 0.814941 0.824699
O O2 0.280816 0.341668 0.681193
O O3 0.306352 0.371781 0.209454
O O4 0.356679 0.612321 0.908476
O O5 0.123907 0.039032 0.057989
O O6 0.139633 0.332804 0.686205
O O7 0.246486 0.054816 0.237816
O O8 0.933308 0.206167 0.277907
O O9 0.946221 0.258431 0.786775
O O10 0.822360 0.462650 0.801097
O O11 0.438932 0.773853 0.250324
O O12 0.464776 0.225143 0.356606
O O13 0.500000 0.500000 0.000000
O O14 0.553104 0.867446 0.130008
O O15 0.000000 0.500000 0.500000
#
# Coordination Sequence:
#
# PCOD9028789 Si02
#       7
#     2   2   2   2   2   2   2
#     4  11  25  42  69 102 135 182 241 288 363 437
#     4  10  24  46  72  98 145 190 235 304 361 428
#     4  10  22  42  65 100 136 182 238 281 357 429
#     4  10  22  42  68  94 136 180 223 285 358 429
#     4  10  23  43  67  99 136 180 234 292 352 425
#     4  11  24  41  68 104 141 182 236 294 353 431
#     4  10  24  46  69 106 141 186 239 302 368 445
#
# _framework density 27.537896
#
# number of rings (size 3 to 8) (size 9 to 14) (size 15 to 20)
#    0.000    1.714    0.000    3.429    2.000   16.000 
#    0.000    0.000    3.143    2.571    0.000    0.000 
#    0.000    0.000    0.000    0.000    0.000    0.000 
#
# Total GULP energy -78142.798692 kJ/mol
# GULP energy per Si atom -5581.628478 kJ/mol
# Density = 2.747522 g / cm^3
# Si number density = 27.537896 Si / 1000 Ang^3
#
#
#
# Elastic Constant Matrix: (Units=GPa)
#
#
# Indices 1 2 3 4 5 6 
#
# 1 134.0419 43.6826 58.3261 5.1795 17.4350 21.4787
# 2 43.6826 105.7531 28.4401 -0.2912 8.0376 20.3449
# 3 58.3261 28.4401 127.8642 10.4655 0.2632 5.2553
# 4 5.1795 -0.2912 10.4655 42.2416 9.2934 5.8659
# 5 17.4350 8.0376 0.2632 9.2934 50.3262 4.0744
# 6 21.4787 20.3449 5.2553 5.8659 4.0744 45.0114
#
#
#
# Elastic Compliance Matrix: (Units=1/GPa)
#
#
# Indices 1 2 3 4 5 6 
#
# 1 0.011176 -0.002482 -0.004472 0.000943 -0.003342 -0.003509
# 2 -0.002482 0.011723 -0.001431 0.001513 -0.000956 -0.004058
# 3 -0.004472 -0.001431 0.010326 -0.002720 0.002085 0.001741
# 4 0.000943 0.001513 -0.002720 0.025867 -0.005029 -0.003732
# 5 -0.003342 -0.000956 0.002085 -0.005029 0.022063 0.000442
# 6 -0.003509 -0.004058 0.001741 -0.003732 0.000442 0.025969
#
#
# Mechanical properties :
#
#
# Convention : Reuss Voigt Hill
#
# Bulk Modulus (GPa) = 60.76774 69.83961 65.30367
# Shear Modulus (GPa) = 38.64680 43.32987 40.98833
#
# Velocity S-wave (km/s) = 3.75027 3.97099 3.86221
# Velocity P-wave (km/s) = 6.39277 6.81479 6.60715
#
# Compressibility (1/GPa) = 0.01645610
#
# Stress axis : x y z
#
# Youngs Moduli (GPa) = 89.48067 85.29919 96.84609
#
# Poissons Ratio (x) = 0.21170 0.43308
# Poissons Ratio (y) = 0.22208 0.13854
# Poissons Ratio (z) = 0.40015 0.12202
#
# Static dielectric constant tensor:
#      x y z
#    x 2.141030 -0.007360 -0.013990 
#    y -0.007360 2.496920 -0.011020 
#    z -0.013990 -0.011020 2.280270 
# 
# From -- ./inp_files/121009.got.cif
#   From: 2010.05.17/outbox.cif.g08.bks.cpg/sg2_61_cif.got.tgz:121009.got - 2010.06.03 11:33:40.
