data_PCOD9028992
_publ_section_title
;
Structure prediction by ZEFSAII (Michael W. Deem and Ramdas Pophale) SiO2 
 PCOD9028992
Probable space group: P -1
;
_chemical_formula_sum "Si O2"
_cell_formula_units_Z 16
_cell_length_a 7.820972
_cell_length_b 8.622344
_cell_length_c 12.397412
_cell_angle_alpha 76.469699
_cell_angle_beta 127.933209
_cell_angle_gamma 108.610883
_cell_volume 624.113547
_symmetry_space_group_name_H-M "P -1"
_symmetry_group_IT_number 2
_symmetry_cell_setting 'triclinic'
loop_
_space_group_symop_operation_xyz
x,y,z
-x,-y,-z
loop_
_atom_site_type_symbol
_atom_site_label
_atom_site_fract_x
_atom_site_fract_y
_atom_site_fract_z
Si Si1 0.682450 0.350911 0.420594
Si Si2 0.627559 0.458909 0.830853
Si Si3 0.845751 0.531724 0.677175
Si Si4 0.987389 0.863281 0.428382
Si Si5 0.790445 0.871430 0.693541
Si Si6 0.180826 0.022961 0.946968
Si Si7 0.457090 0.112517 0.839384
Si Si8 0.243527 0.407040 0.934316
O O1 0.587072 0.464357 0.281671
O O2 0.733066 0.448157 0.537905
O O3 0.897836 0.286092 0.478444
O O4 0.471565 0.194923 0.377163
O O5 0.714354 0.446015 0.746054
O O6 0.593141 0.286407 0.905365
O O7 0.795909 0.576385 0.956020
O O8 0.849259 0.722788 0.669379
O O9 0.085884 0.493398 0.789735
O O10 0.723176 0.823755 0.312246
O O11 0.130637 0.958926 0.368490
O O12 0.000000 0.000000 0.500000
O O13 0.937838 0.909907 0.853703
O O14 0.301130 0.998674 0.883559
O O15 0.189445 0.214472 0.920247
O O16 0.351038 0.976501 0.107484
O O17 0.500000 0.500000 0.000000
#
# Coordination Sequence:
#
# PCOD9028992 Si02
#       8
#     2   2   2   2   2   2   2   2
#     4  11  26  47  70 100 141 188 236 282 344 413
#     4  11  24  44  70 101 139 180 240 284 338 413
#     4  11  25  46  71  99 140 191 234 284 344 407
#     4  11  26  40  66 100 139 178 230 285 348 409
#     4  10  22  45  71  95 136 185 227 284 342 407
#     4  10  22  43  68 100 137 179 222 280 357 407
#     4  10  22  42  65  98 138 177 223 282 342 411
#     4  12  25  42  70 103 140 184 230 289 348 416
#
# _framework density 25.636358000000001
#
# number of rings (size 3 to 8) (size 9 to 14) (size 15 to 20)
#    0.000    1.250    1.250    4.500    8.750    1.500 
#    0.000    3.125    0.000    0.000    0.000    0.000 
#    0.000    0.000    0.000    0.000    0.000    0.000 
#
# Total GULP energy -89422.619235 kJ/mol
# GULP energy per Si atom -5588.913702 kJ/mol
# Density = 2.557801 g / cm^3
# Si number density = 25.636358 Si / 1000 Ang^3
#
#
#
# Elastic Constant Matrix: (Units=GPa)
#
#
# Indices 1 2 3 4 5 6 
#
# 1 100.3583 16.5334 41.3907 9.2402 11.8769 -7.9865
# 2 16.5334 101.1889 31.5614 5.9302 8.3587 1.4777
# 3 41.3907 31.5614 116.3200 6.3223 35.4929 -9.0412
# 4 9.2402 5.9302 6.3223 48.5553 -0.8729 2.4781
# 5 11.8769 8.3587 35.4929 -0.8729 41.7262 -7.5474
# 6 -7.9865 1.4777 -9.0412 2.4781 -7.5474 44.6933
#
#
#
# Elastic Compliance Matrix: (Units=1/GPa)
#
#
# Indices 1 2 3 4 5 6 
#
# 1 0.011949 -0.000664 -0.003963 -0.001748 0.000339 0.001510
# 2 -0.000664 0.010914 -0.002822 -0.000786 0.000211 -0.000971
# 3 -0.003963 -0.002822 0.013944 -0.000926 -0.010087 0.000554
# 4 -0.001748 -0.000786 -0.000926 0.021244 0.001639 -0.001375
# 5 0.000339 0.000211 -0.010087 0.001639 0.033076 0.003508
# 6 0.001510 -0.000971 0.000554 -0.001375 0.003508 0.023457
#
#
# Mechanical properties :
#
#
# Convention : Reuss Voigt Hill
#
# Bulk Modulus (GPa) = 45.64361 55.20421 50.42391
# Shear Modulus (GPa) = 36.55358 42.22041 39.38699
#
# Velocity S-wave (km/s) = 3.78014 4.06260 3.92391
# Velocity P-wave (km/s) = 6.07417 6.60201 6.34358
#
# Compressibility (1/GPa) = 0.02190887
#
# Stress axis : x y z
#
# Youngs Moduli (GPa) = 83.68895 91.62485 71.71462
#
# Poissons Ratio (x) = 0.06083 0.28420
# Poissons Ratio (y) = 0.05557 0.20240
# Poissons Ratio (z) = 0.33165 0.25860
#
# Static dielectric constant tensor:
#      x y z
#    x 2.219990 0.167820 0.072470 
#    y 0.167820 2.212440 0.120000 
#    z 0.072470 0.120000 2.186170 
# 
# From -- ./inp_files/494978.got.cif
#   From: 2010.05.17/outbox.cif.g08.bks.cpg/sg2_248_cif.got.tgz:494978.got - 2010.06.03 11:33:40.
