data_PCOD9028375
_publ_section_title
;
Structure prediction by ZEFSAII (Michael W. Deem and Ramdas Pophale) SiO2 
 PCOD9028375
Probable space group: P -1
;
_chemical_formula_sum "Si O2"
_cell_formula_units_Z 16
_cell_length_a 13.342426
_cell_length_b 25.778530
_cell_length_c 12.786023
_cell_angle_alpha 36.530212
_cell_angle_beta 35.033709
_cell_angle_gamma 17.680140
_cell_volume 759.774073
_symmetry_space_group_name_H-M "P -1"
_symmetry_group_IT_number 2
_symmetry_cell_setting 'triclinic'
loop_
_space_group_symop_operation_xyz
x,y,z
-x,-y,-z
loop_
_atom_site_type_symbol
_atom_site_label
_atom_site_fract_x
_atom_site_fract_y
_atom_site_fract_z
Si Si1 0.072444 0.217782 0.256929
Si Si2 0.885711 0.498967 0.496073
Si Si3 0.964278 0.005699 0.146014
Si Si4 0.807800 0.264939 0.838439
Si Si5 0.855928 0.464854 0.178001
Si Si6 0.615149 0.854263 0.467782
Si Si7 0.474254 0.350548 0.640560
Si Si8 0.406114 0.558256 0.867505
O O1 0.092769 0.292822 0.194478
O O2 0.740408 0.307042 0.438819
O O3 0.972746 0.286234 0.112458
O O4 0.379986 0.017613 0.331087
O O5 0.751101 0.598205 0.340829
O O6 0.548295 0.593093 0.669981
O O7 0.000000 0.500000 0.500000
O O8 0.179280 0.305487 0.518029
O O9 0.634529 0.089660 0.328944
O O10 0.923297 0.124364 0.018738
O O11 0.295440 0.817428 0.220268
O O12 0.000000 0.000000 0.000000
O O13 0.506235 0.379126 0.827332
O O14 0.637095 0.395039 0.864425
O O15 0.112623 0.191717 0.646876
O O16 0.771506 0.488046 0.334180
O O17 0.000000 0.500000 0.000000
O O18 0.500000 0.500000 0.000000
#
# Coordination Sequence:
#
# PCOD9028375 Si02
#       8
#     2   2   2   2   2   2   2   2
#     4   9  21  42  62  89 128 170 213 263 327 387
#     4  10  23  43  66  92 124 170 223 266 329 384
#     4  11  23  42  65 100 133 170 218 262 324 390
#     4  10  23  43  61  96 135 169 215 263 326 390
#     4  11  23  38  63  94 127 172 214 259 321 392
#     4  10  24  44  66  93 133 174 213 269 325 382
#     4  10  22  42  60  91 128 170 215 259 326 392
#     4   9  20  41  65  90 124 170 217 272 327 380
#
# _framework density 21.058890999999999
#
# number of rings (size 3 to 8) (size 9 to 14) (size 15 to 20)
#    0.000    2.000    1.250    1.125    5.250    1.500 
#    2.250    3.125    0.000    0.000    0.000    0.000 
#    0.000    0.000    0.000    0.000    0.000    0.000 
#
# Total GULP energy -89240.521164 kJ/mol
# GULP energy per Si atom -5577.532573 kJ/mol
# Density = 2.101096 g / cm^3
# Si number density = 21.058891 Si / 1000 Ang^3
#
#
#
# Elastic Constant Matrix: (Units=GPa)
#
#
# Indices 1 2 3 4 5 6 
#
# 1 147.4235 34.2392 49.7949 -6.1232 3.6419 -17.2378
# 2 34.2392 85.3275 43.1309 -15.3741 -0.1566 -12.6567
# 3 49.7949 43.1309 96.1127 -14.7491 -0.0166 -17.1625
# 4 -6.1232 -15.3741 -14.7491 37.5741 -4.0885 -3.6284
# 5 3.6419 -0.1566 -0.0166 -4.0885 42.2717 -5.5619
# 6 -17.2378 -12.6567 -17.1625 -3.6284 -5.5619 13.9901
#
#
#
# Elastic Compliance Matrix: (Units=1/GPa)
#
#
# Indices 1 2 3 4 5 6 
#
# 1 0.008765 -0.001003 -0.002814 0.000575 0.000172 0.006657
# 2 -0.001003 0.017141 -0.003987 0.006710 0.002385 0.012068
# 3 -0.002814 -0.003987 0.017974 0.007075 0.003304 0.018125
# 4 0.000575 0.006710 0.007075 0.035653 0.007046 0.027506
# 5 0.000172 0.002385 0.003304 0.007046 0.026822 0.018913
# 6 0.006657 0.012068 0.018125 0.027506 0.018913 0.127486
#
#
# Mechanical properties :
#
#
# Convention : Reuss Voigt Hill
#
# Bulk Modulus (GPa) = 35.37153 64.79932 50.08542
# Shear Modulus (GPa) = 19.31449 32.21376 25.76412
#
# Velocity S-wave (km/s) = 3.03176 3.91538 3.50155
# Velocity P-wave (km/s) = 5.39336 7.16084 6.33900
#
# Compressibility (1/GPa) = 0.02827132
#
# Stress axis : x y z
#
# Youngs Moduli (GPa) = 114.09548 58.33969 55.63548
#
# Poissons Ratio (x) = 0.05854 0.15653
# Poissons Ratio (y) = 0.11449 0.22183
# Poissons Ratio (z) = 0.32101 0.23261
#
# Static dielectric constant tensor:
#      x y z
#    x 1.833170 -0.021300 0.022260 
#    y -0.021300 1.803130 -0.007340 
#    z 0.022260 -0.007340 1.846570 
# 
# From -- ./inp_files/439244.got.cif
#   From: 2010.05.17/outbox.cif.g08.bks.cpg/sg2_220_cif.got.tgz:439244.got - 2010.06.03 11:33:40.
