data_PCOD9028750
_publ_section_title
;
Structure prediction by ZEFSAII (Michael W. Deem and Ramdas Pophale) SiO2 
 PCOD9028750
Probable space group: P -1
;
_chemical_formula_sum "Si O2"
_cell_formula_units_Z 12
_cell_length_a 5.031838
_cell_length_b 5.351052
_cell_length_c 21.943188
_cell_angle_alpha 68.874908
_cell_angle_beta 122.942044
_cell_angle_gamma 96.300952
_cell_volume 459.702998
_symmetry_space_group_name_H-M "P -1"
_symmetry_group_IT_number 2
_symmetry_cell_setting 'triclinic'
loop_
_space_group_symop_operation_xyz
x,y,z
-x,-y,-z
loop_
_atom_site_type_symbol
_atom_site_label
_atom_site_fract_x
_atom_site_fract_y
_atom_site_fract_z
Si Si1 0.220045 0.411010 0.743665
Si Si2 0.664385 0.897082 0.449493
Si Si3 0.859855 0.571184 0.810337
Si Si4 0.271602 0.773901 0.938137
Si Si5 0.295686 0.926421 0.103073
Si Si6 0.403681 0.429591 0.408228
O O1 0.479445 0.624609 0.748426
O O2 0.034975 0.460608 0.780472
O O3 0.951989 0.428861 0.657719
O O4 0.456837 0.135186 0.803901
O O5 0.635362 0.666922 0.415255
O O6 0.556619 0.736975 0.509297
O O7 0.450666 0.180581 0.388557
O O8 0.000000 0.000000 0.500000
O O9 0.073236 0.775712 0.849507
O O10 0.863688 0.347792 0.885133
O O11 0.494378 0.012216 0.933350
O O12 0.984895 0.838291 0.943713
O O13 0.500000 0.500000 0.000000
#
# Coordination Sequence:
#
# PCOD9028750 Si02
#       6
#     2   2   2   2   2   2
#     4  10  22  45  64  92 128 177 210 272 339 378
#     4  10  22  42  64  97 136 166 230 270 325 401
#     4  10  23  43  61  92 130 158 220 268 314 401
#     4  12  24  40  67  93 124 173 212 268 337 388
#     4  10  22  43  58  94 127 158 217 268 315 398
#     4  10  23  41  64  99 128 179 219 274 331 397
#
# _framework density 26.103808000000001
#
# number of rings (size 3 to 8) (size 9 to 14) (size 15 to 20)
#    1.000    0.667    1.667    2.000    2.333    4.000 
#    0.000    0.000    0.000    0.000    0.000    0.000 
#    0.000    0.000    0.000    0.000    0.000    0.000 
#
# Total GULP energy -66897.265915 kJ/mol
# GULP energy per Si atom -5574.772160 kJ/mol
# Density = 2.604439 g / cm^3
# Si number density = 26.103808 Si / 1000 Ang^3
#
#
#
# Elastic Constant Matrix: (Units=GPa)
#
#
# Indices 1 2 3 4 5 6 
#
# 1 135.1558 44.5250 30.5938 -5.1722 7.0828 8.3290
# 2 44.5250 131.4209 32.2051 -0.1331 10.3166 30.7905
# 3 30.5938 32.2051 106.4509 -7.0028 30.7394 3.6773
# 4 -5.1722 -0.1331 -7.0028 24.7681 1.6991 2.9673
# 5 7.0828 10.3166 30.7394 1.6991 53.9939 5.6606
# 6 8.3290 30.7905 3.6773 2.9673 5.6606 22.3632
#
#
#
# Elastic Compliance Matrix: (Units=1/GPa)
#
#
# Indices 1 2 3 4 5 6 
#
# 1 0.008660 -0.002647 -0.001693 0.001242 0.000245 0.000471
# 2 -0.002647 0.013107 -0.002946 0.000631 0.001281 -0.016984
# 3 -0.001693 -0.002946 0.012895 0.003292 -0.007071 0.003920
# 4 0.001242 0.000631 0.003292 0.042576 -0.002783 -0.006818
# 5 0.000245 0.001281 -0.007071 -0.002783 0.023001 -0.006145
# 6 0.000471 -0.016984 0.003920 -0.006818 -0.006145 0.069741
#
#
# Mechanical properties :
#
#
# Convention : Reuss Voigt Hill
#
# Bulk Modulus (GPa) = 49.78015 65.29728 57.53871
# Shear Modulus (GPa) = 26.14376 37.93860 32.04118
#
# Velocity S-wave (km/s) = 3.16813 3.81645 3.50730
# Velocity P-wave (km/s) = 5.70037 6.67002 6.20417
#
# Compressibility (1/GPa) = 0.02008833
#
# Stress axis : x y z
#
# Youngs Moduli (GPa) = 115.47393 76.29284 77.54988
#
# Poissons Ratio (x) = 0.20198 0.13132
# Poissons Ratio (y) = 0.30571 0.22848
# Poissons Ratio (z) = 0.19554 0.22477
#
# Static dielectric constant tensor:
#      x y z
#    x 2.059420 -0.075000 0.005730 
#    y -0.075000 2.167500 0.038910 
#    z 0.005730 0.038910 2.075980 
# 
# From -- ./inp_files/8381.got.cif
#   From: 2010.05.17/outbox.cif.g08.bks.cpg/sg2_5_cif.got.tgz:8381.got - 2010.06.03 11:33:40.
