data_PCOD9028921
_publ_section_title
;
Structure prediction by ZEFSAII (Michael W. Deem and Ramdas Pophale) SiO2 
 PCOD9028921
Probable space group: P -1
;
_chemical_formula_sum "Si O2"
_cell_formula_units_Z 14
_cell_length_a 9.003434
_cell_length_b 7.002235
_cell_length_c 20.348500
_cell_angle_alpha 54.307755
_cell_angle_beta 36.052429
_cell_angle_gamma 49.486340
_cell_volume 569.103625
_symmetry_space_group_name_H-M "P -1"
_symmetry_group_IT_number 2
_symmetry_cell_setting 'triclinic'
loop_
_space_group_symop_operation_xyz
x,y,z
-x,-y,-z
loop_
_atom_site_type_symbol
_atom_site_label
_atom_site_fract_x
_atom_site_fract_y
_atom_site_fract_z
Si Si1 0.260170 0.169097 0.504475
Si Si2 0.551979 0.779723 0.117357
Si Si3 0.246186 0.198059 0.817452
Si Si4 0.859426 0.688161 0.892315
Si Si5 0.734470 0.062109 0.262949
Si Si6 0.089664 0.558757 0.317602
Si Si7 0.849013 0.989991 0.622609
O O1 0.092940 0.419773 0.555393
O O2 0.500000 0.000000 0.500000
O O3 0.426259 0.164679 0.379485
O O4 0.040719 0.039292 0.598766
O O5 0.717706 0.809616 0.115483
O O6 0.353319 0.624174 0.227531
O O7 0.359144 0.067549 0.111830
O O8 0.733900 0.662644 0.012352
O O9 0.231510 0.979315 0.818990
O O10 0.971467 0.440426 0.857436
O O11 0.542674 0.196106 0.690415
O O12 0.123449 0.753984 0.799656
O O13 0.900353 0.787161 0.292114
O O14 0.157778 0.289374 0.313085
O O15 0.000000 0.000000 0.500000
#
# Coordination Sequence:
#
# PCOD9028921 Si02
#       7
#     2   2   2   2   2   2   2
#     4  10  22  42  65  95 129 179 220 271 336 395
#     4  10  23  50  72  97 132 188 222 282 344 395
#     4  12  25  41  69 102 138 173 229 283 334 398
#     4  10  25  48  70  97 140 174 234 278 338 405
#     4  10  24  41  67 105 129 180 227 281 337 398
#     4  10  24  44  68  94 141 178 227 277 337 404
#     4  12  26  42  63 105 136 179 226 273 343 404
#
# _framework density 24.600090999999999
#
# number of rings (size 3 to 8) (size 9 to 14) (size 15 to 20)
#    0.000    1.429    2.857    0.429    6.000    3.429 
#    2.571    2.143    0.000    0.000    0.000    0.000 
#    0.000    0.000    0.000    0.000    0.000    0.000 
#
# Total GULP energy -78328.894421 kJ/mol
# GULP energy per Si atom -5594.921030 kJ/mol
# Density = 2.454410 g / cm^3
# Si number density = 24.600091 Si / 1000 Ang^3
#
#
#
# Elastic Constant Matrix: (Units=GPa)
#
#
# Indices 1 2 3 4 5 6 
#
# 1 60.7387 15.2051 -13.8160 5.1915 9.7087 -3.3286
# 2 15.2051 92.0847 40.1603 34.6849 15.6461 -4.6013
# 3 -13.8160 40.1603 101.6234 26.3260 13.7513 -9.5778
# 4 5.1915 34.6849 26.3260 42.5043 -2.9615 -3.0126
# 5 9.7087 15.6461 13.7513 -2.9615 24.4721 13.1409
# 6 -3.3286 -4.6013 -9.5778 -3.0126 13.1409 31.9336
#
#
#
# Elastic Compliance Matrix: (Units=1/GPa)
#
#
# Indices 1 2 3 4 5 6 
#
# 1 0.024818 0.000390 0.011031 -0.010886 -0.026001 0.015624
# 2 0.000390 0.022351 0.000351 -0.019320 -0.022860 0.010951
# 3 0.011031 0.000351 0.020295 -0.014877 -0.026911 0.016958
# 4 -0.010886 -0.019320 -0.014877 0.051309 0.042541 -0.021046
# 5 -0.026001 -0.022860 -0.026911 0.042541 0.117411 -0.058377
# 6 0.015624 0.010951 0.016958 -0.021046 -0.058377 0.061645
#
#
# Mechanical properties :
#
#
# Convention : Reuss Voigt Hill
#
# Bulk Modulus (GPa) = 10.98806 37.50506 24.24656
# Shear Modulus (GPa) = 16.41381 33.97515 25.19448
#
# Velocity S-wave (km/s) = 2.58587 3.72035 3.20373
# Velocity P-wave (km/s) = 3.65951 5.80807 4.85416
#
# Compressibility (1/GPa) = 0.09100790
#
# Stress axis : x y z
#
# Youngs Moduli (GPa) = 40.29264 44.74109 49.27330
#
# Poissons Ratio (x) = -0.01745 -0.54354
# Poissons Ratio (y) = -0.01572 -0.01728
# Poissons Ratio (z) = -0.44447 -0.01569
#
# Static dielectric constant tensor:
#      x y z
#    x 1.999590 -0.049680 0.051140 
#    y -0.049680 1.930310 -0.013910 
#    z 0.051140 -0.013910 1.938510 
# 
# From -- ./inp_files/139473.got.cif
#   From: 2010.05.17/outbox.cif.g08.bks.cpg/sg2_70_cif.got.tgz:139473.got - 2010.06.03 11:33:40.
