data_PCOD9028079
_publ_section_title
;
Structure prediction by ZEFSAII (Michael W. Deem and Ramdas Pophale) SiO2 
 PCOD9028079
Probable space group: P -1
;
_chemical_formula_sum "Si O2"
_cell_formula_units_Z 14
_cell_length_a 8.791704
_cell_length_b 5.597919
_cell_length_c 16.035265
_cell_angle_alpha 86.897321
_cell_angle_beta 51.560936
_cell_angle_gamma 85.509184
_cell_volume 616.227718
_symmetry_space_group_name_H-M "P -1"
_symmetry_group_IT_number 2
_symmetry_cell_setting 'triclinic'
loop_
_space_group_symop_operation_xyz
x,y,z
-x,-y,-z
loop_
_atom_site_type_symbol
_atom_site_label
_atom_site_fract_x
_atom_site_fract_y
_atom_site_fract_z
Si Si1 0.775674 0.463969 0.754579
Si Si2 0.461572 0.744406 0.562611
Si Si3 0.989331 0.190011 0.258445
Si Si4 0.874207 0.256512 0.039252
Si Si5 0.862780 0.082994 0.620039
Si Si6 0.300818 0.868652 0.070822
Si Si7 0.511784 0.804077 0.728827
O O1 0.934327 0.548520 0.763205
O O2 0.881224 0.351008 0.639885
O O3 0.669969 0.282625 0.851739
O O4 0.622849 0.655951 0.766341
O O5 0.500000 0.500000 0.500000
O O6 0.559996 0.711912 0.620594
O O7 0.238084 0.788802 0.664092
O O8 0.500000 0.000000 0.500000
O O9 0.057408 0.067228 0.324668
O O10 0.113125 0.049608 0.148925
O O11 0.712460 0.218346 0.167812
O O12 0.753038 0.267137 0.992765
O O13 0.000000 0.500000 0.000000
O O14 0.000000 0.000000 0.000000
O O15 0.632292 0.047071 0.685040
O O16 0.000000 0.000000 0.500000
O O17 0.500000 0.000000 0.000000
#
# Coordination Sequence:
#
# PCOD9028079 Si02
#       7
#     2   2   2   2   2   2   2
#     4  10  24  43  75 104 145 190 252 312 371 442
#     4  12  30  48  76 105 151 201 244 302 378 447
#     4  10  24  43  68 107 138 192 246 304 366 453
#     4  12  30  49  77 112 157 206 248 313 385 448
#     4  10  22  41  71 101 144 184 247 310 375 431
#     4  11  25  47  78 107 151 197 260 313 384 446
#     4  11  27  46  72 110 147 192 255 310 367 462
#
# _framework density 22.718874
#
# number of rings (size 3 to 8) (size 9 to 14) (size 15 to 20)
#    0.000    1.143    0.000    4.286   18.000    2.286 
#    0.000    0.000    0.000    0.000    0.000    0.000 
#    0.000    0.000    0.000    0.000    0.000    0.000 
#
# Total GULP energy -78013.767469 kJ/mol
# GULP energy per Si atom -5572.411962 kJ/mol
# Density = 2.266716 g / cm^3
# Si number density = 22.718874 Si / 1000 Ang^3
#
#
#
# Elastic Constant Matrix: (Units=GPa)
#
#
# Indices 1 2 3 4 5 6 
#
# 1 92.4720 26.2078 41.3809 -1.1162 2.7377 15.7121
# 2 26.2078 94.8347 48.9079 3.4176 -7.8194 17.7118
# 3 41.3809 48.9079 147.8817 7.2768 2.1503 19.4260
# 4 -1.1162 3.4176 7.2768 30.2343 8.6614 3.8484
# 5 2.7377 -7.8194 2.1503 8.6614 45.1781 8.2937
# 6 15.7121 17.7118 19.4260 3.8484 8.2937 30.2668
#
#
#
# Elastic Compliance Matrix: (Units=1/GPa)
#
#
# Indices 1 2 3 4 5 6 
#
# 1 0.013248 -0.001573 -0.002710 0.002025 -0.000540 -0.004327
# 2 -0.001573 0.014335 -0.003470 -0.001224 0.004137 -0.006323
# 3 -0.002710 -0.003470 0.009024 -0.001560 -0.000180 -0.002107
# 4 0.002025 -0.001224 -0.001560 0.035860 -0.006760 -0.002041
# 5 -0.000540 0.004137 -0.000180 -0.006760 0.025694 -0.008206
# 6 -0.004327 -0.006323 -0.002107 -0.002041 -0.008206 0.042846
#
#
# Mechanical properties :
#
#
# Convention : Reuss Voigt Hill
#
# Bulk Modulus (GPa) = 47.39092 63.13127 55.26109
# Shear Modulus (GPa) = 30.57189 35.71530 33.14359
#
# Velocity S-wave (km/s) = 3.67230 3.96922 3.82364
# Velocity P-wave (km/s) = 6.23587 6.98960 6.62347
#
# Compressibility (1/GPa) = 0.02110109
#
# Stress axis : x y z
#
# Youngs Moduli (GPa) = 75.48099 69.75918 110.81072
#
# Poissons Ratio (x) = 0.10971 0.30035
# Poissons Ratio (y) = 0.11871 0.38453
# Poissons Ratio (z) = 0.20459 0.24208
#
# Static dielectric constant tensor:
#      x y z
#    x 1.850740 0.061420 0.041770 
#    y 0.061420 1.936050 0.117730 
#    z 0.041770 0.117730 1.706010 
# 
# From -- ./inp_files/28372.got.cif
#   From: 2010.05.17/outbox.cif.g08.bks.cpg/sg2_15_cif.got.tgz:28372.got - 2010.06.03 11:33:40.
