data_PCOD9028443
_publ_section_title
;
Structure prediction by ZEFSAII (Michael W. Deem and Ramdas Pophale) SiO2 
 PCOD9028443
Probable space group: P -1
;
_chemical_formula_sum "Si O2"
_cell_formula_units_Z 13
_cell_length_a 6.835936
_cell_length_b 9.518344
_cell_length_c 12.175419
_cell_angle_alpha 115.702202
_cell_angle_beta 57.195041
_cell_angle_gamma 117.840078
_cell_volume 571.137815
_symmetry_space_group_name_H-M "P -1"
_symmetry_group_IT_number 2
_symmetry_cell_setting 'triclinic'
loop_
_space_group_symop_operation_xyz
x,y,z
-x,-y,-z
loop_
_atom_site_type_symbol
_atom_site_label
_atom_site_fract_x
_atom_site_fract_y
_atom_site_fract_z
Si Si1 0.972878 0.807245 0.828597
Si Si2 0.971817 0.816043 0.479993
Si Si3 0.719604 0.610633 0.293698
Si Si4 0.787185 0.333469 0.478109
Si Si5 0.500000 0.000000 0.000000
Si Si6 0.451966 0.244838 0.234855
Si Si7 0.046276 0.181827 0.911528
O O1 0.707801 0.772620 0.836374
O O2 0.137888 0.723560 0.680459
O O3 0.084600 0.003104 0.848468
O O4 0.927592 0.754607 0.950125
O O5 0.924087 0.696267 0.349770
O O6 0.736221 0.761716 0.613054
O O7 0.190911 0.797968 0.482346
O O8 0.000000 0.000000 0.500000
O O9 0.658460 0.417005 0.232335
O O10 0.785069 0.699955 0.187729
O O11 0.528149 0.362058 0.574579
O O12 0.000000 0.500000 0.500000
O O13 0.476878 0.920333 0.853703
O O14 0.766861 0.134887 0.938588
#
# Coordination Sequence:
#
# PCOD9028443 Si02
#       7
#     2   2   2   2   1   2   2
#     4   9  20  43  63  90 136 175 222 272 344 404
#     4  11  24  43  68 103 141 179 229 282 336 412
#     4  12  24  43  71 103 136 172 237 287 338 402
#     4  11  23  43  70 102 136 181 219 285 353 394
#     4  10  22  42  62  90 136 172 218 266 346 396
#     4  10  22  42  66  97 133 178 227 283 332 412
#     4  10  23  41  65  96 129 181 223 280 334 407
#
# _framework density 22.761582000000001
#
# number of rings (size 3 to 8) (size 9 to 14) (size 15 to 20)
#    0.000    1.538    3.077    3.231    2.154    3.692 
#   13.846    0.000    0.000    0.000    0.000    0.000 
#    0.000    0.000    0.000    0.000    0.000    0.000 
#
# Total GULP energy -72458.642747 kJ/mol
# GULP energy per Si atom -5573.741750 kJ/mol
# Density = 2.270978 g / cm^3
# Si number density = 22.761582 Si / 1000 Ang^3
#
#
#
# Elastic Constant Matrix: (Units=GPa)
#
#
# Indices 1 2 3 4 5 6 
#
# 1 57.0856 6.1448 8.6009 4.0242 11.9322 -0.5067
# 2 6.1448 75.7668 44.4086 17.1310 23.1288 3.5726
# 3 8.6009 44.4086 141.1915 5.0066 39.7969 -2.8178
# 4 4.0242 17.1310 5.0066 28.0792 3.4807 -4.7208
# 5 11.9322 23.1288 39.7969 3.4807 33.5942 -1.7480
# 6 -0.5067 3.5726 -2.8178 -4.7208 -1.7480 24.4506
#
#
#
# Elastic Compliance Matrix: (Units=1/GPa)
#
#
# Indices 1 2 3 4 5 6 
#
# 1 0.019209 0.001119 0.000947 -0.002685 -0.008477 -0.000781
# 2 0.001119 0.021411 -0.003742 -0.012463 -0.009759 -0.006641
# 3 0.000947 -0.003742 0.011360 0.001762 -0.011327 0.001406
# 4 -0.002685 -0.012463 0.001762 0.044691 0.003380 0.010839
# 5 -0.008477 -0.009759 -0.011327 0.003380 0.052793 0.004372
# 6 -0.000781 -0.006641 0.001406 0.010839 0.004372 0.044420
#
#
# Mechanical properties :
#
#
# Convention : Reuss Voigt Hill
#
# Bulk Modulus (GPa) = 20.56470 43.59471 32.07971
# Shear Modulus (GPa) = 23.42509 31.55076 27.48793
#
# Velocity S-wave (km/s) = 3.21152 3.72713 3.47889
# Velocity P-wave (km/s) = 4.77559 6.14136 5.50103
#
# Compressibility (1/GPa) = 0.04862701
#
# Stress axis : x y z
#
# Youngs Moduli (GPa) = 52.05970 46.70430 88.02647
#
# Poissons Ratio (x) = -0.05225 -0.08337
# Poissons Ratio (y) = -0.05824 0.32943
# Poissons Ratio (z) = -0.04931 0.17478
#
# Static dielectric constant tensor:
#      x y z
#    x 1.554480 0.260010 0.231360 
#    y 0.260010 1.662630 -0.126530 
#    z 0.231360 -0.126530 1.735530 
# 
# From -- ./inp_files/377073.got.cif
#   From: 2010.05.17/outbox.cif.g08.bks.cpg/sg2_189_cif.got.tgz:377073.got - 2010.06.03 11:33:40.
