data_PCOD9028920
_publ_section_title
;
Structure prediction by ZEFSAII (Michael W. Deem and Ramdas Pophale) SiO2 
 PCOD9028920
Probable space group: P -1
;
_chemical_formula_sum "Si O2"
_cell_formula_units_Z 16
_cell_length_a 11.355264
_cell_length_b 10.216536
_cell_length_c 15.715714
_cell_angle_alpha 82.461291
_cell_angle_beta 121.023833
_cell_angle_gamma 144.363464
_cell_volume 744.029362
_symmetry_space_group_name_H-M "P -1"
_symmetry_group_IT_number 2
_symmetry_cell_setting 'triclinic'
loop_
_space_group_symop_operation_xyz
x,y,z
-x,-y,-z
loop_
_atom_site_type_symbol
_atom_site_label
_atom_site_fract_x
_atom_site_fract_y
_atom_site_fract_z
Si Si1 0.742895 0.539857 0.649396
Si Si2 0.943992 0.760942 0.310049
Si Si3 0.197850 0.652253 0.979831
Si Si4 0.216242 0.873577 0.228515
Si Si5 0.712050 0.982685 0.074808
Si Si6 0.608945 0.025179 0.451991
Si Si7 0.712418 0.844451 0.912160
Si Si8 0.838162 0.816724 0.538273
O O1 0.588925 0.269896 0.612582
O O2 0.871082 0.695012 0.593109
O O3 0.491974 0.432635 0.582445
O O4 0.983400 0.757445 0.790123
O O5 0.600472 0.474074 0.203295
O O6 0.085321 0.838612 0.265306
O O7 0.076843 0.767991 0.427687
O O8 0.057221 0.998106 0.363123
O O9 0.314652 0.897747 0.990365
O O10 0.004154 0.430109 0.850943
O O11 0.000000 0.500000 0.000000
O O12 0.463062 0.774188 0.070591
O O13 0.520578 0.059772 0.346458
O O14 0.237745 0.988367 0.146070
O O15 0.681518 0.853382 0.999670
O O16 0.500000 0.000000 0.500000
O O17 0.000000 0.000000 0.000000
O O18 0.000000 0.000000 0.500000
#
# Coordination Sequence:
#
# PCOD9028920 Si02
#       8
#     2   2   2   2   2   2   2   2
#     4  10  22  42  65  95 129 167 220 272 334 393
#     4  10  24  45  63  97 133 175 229 279 341 402
#     4  11  22  41  66  96 132 169 223 280 341 397
#     4  11  22  44  66  96 137 175 224 284 343 396
#     4  11  24  41  67  98 133 177 222 281 332 405
#     4   9  20  41  71  92 125 171 218 288 339 388
#     4  12  28  41  66 100 141 188 229 267 333 418
#     4  10  24  42  67  94 129 175 222 278 329 399
#
# _framework density 21.504529000000002
#
# number of rings (size 3 to 8) (size 9 to 14) (size 15 to 20)
#    0.000    1.500    3.750    0.000    3.500    6.000 
#    0.000    0.000    0.000    0.000    0.000    0.000 
#    0.000    0.000    0.000    0.000    0.000    0.000 
#
# Total GULP energy -89236.601711 kJ/mol
# GULP energy per Si atom -5577.287607 kJ/mol
# Density = 2.145558 g / cm^3
# Si number density = 21.504529 Si / 1000 Ang^3
#
#
#
# Elastic Constant Matrix: (Units=GPa)
#
#
# Indices 1 2 3 4 5 6 
#
# 1 84.3143 25.9578 48.3525 7.1807 0.3286 12.2185
# 2 25.9578 59.3134 16.7927 6.2332 10.3514 12.0851
# 3 48.3525 16.7927 136.9514 30.1870 17.2927 5.2278
# 4 7.1807 6.2332 30.1870 39.5896 -1.5973 5.2332
# 5 0.3286 10.3514 17.2927 -1.5973 38.3433 -1.9698
# 6 12.2185 12.0851 5.2278 5.2332 -1.9698 24.7548
#
#
#
# Elastic Compliance Matrix: (Units=1/GPa)
#
#
# Indices 1 2 3 4 5 6 
#
# 1 0.018032 -0.006138 -0.006812 0.003717 0.004478 -0.004895
# 2 -0.006138 0.022369 0.001179 -0.002512 -0.007042 -0.008169
# 3 -0.006812 0.001179 0.012179 -0.008688 -0.006034 0.001571
# 4 0.003717 -0.002512 -0.008688 0.032520 0.005652 -0.005199
# 5 0.004478 -0.007042 -0.006034 0.005652 0.031094 0.003781
# 6 -0.004895 -0.008169 0.001571 -0.005199 0.003781 0.047869
#
#
# Mechanical properties :
#
#
# Convention : Reuss Voigt Hill
#
# Bulk Modulus (GPa) = 34.43617 51.42057 42.92837
# Shear Modulus (GPa) = 25.34420 33.16926 29.25673
#
# Velocity S-wave (km/s) = 3.43673 3.93164 3.69249
# Velocity P-wave (km/s) = 5.63883 6.67636 6.17941
#
# Compressibility (1/GPa) = 0.02903924
#
# Stress axis : x y z
#
# Youngs Moduli (GPa) = 55.45809 44.70377 82.10742
#
# Poissons Ratio (x) = 0.27438 0.55929
# Poissons Ratio (y) = 0.34038 -0.09679
# Poissons Ratio (z) = 0.37776 -0.05270
#
# Static dielectric constant tensor:
#      x y z
#    x 1.805820 0.022280 0.043310 
#    y 0.022280 1.880290 -0.011500 
#    z 0.043310 -0.011500 1.803540 
# 
# From -- ./inp_files/427691.got.cif
#   From: 2010.05.17/outbox.cif.g08.bks.cpg/sg2_214_cif.got.tgz:427691.got - 2010.06.03 11:33:40.
