data_PCOD9028587
_publ_section_title
;
Structure prediction by ZEFSAII (Michael W. Deem and Ramdas Pophale) SiO2 
 PCOD9028587
Probable space group: P -1
;
_chemical_formula_sum "Si O2"
_cell_formula_units_Z 14
_cell_length_a 5.248449
_cell_length_b 20.885814
_cell_length_c 5.995287
_cell_angle_alpha 63.869275
_cell_angle_beta 100.167334
_cell_angle_gamma 75.014640
_cell_volume 537.052760
_symmetry_space_group_name_H-M "P -1"
_symmetry_group_IT_number 2
_symmetry_cell_setting 'triclinic'
loop_
_space_group_symop_operation_xyz
x,y,z
-x,-y,-z
loop_
_atom_site_type_symbol
_atom_site_label
_atom_site_fract_x
_atom_site_fract_y
_atom_site_fract_z
Si Si1 0.361655 0.037644 0.143103
Si Si2 0.420518 0.605871 0.254191
Si Si3 0.413943 0.881145 0.638245
Si Si4 0.662602 0.681658 0.481713
Si Si5 0.062310 0.432231 0.935813
Si Si6 0.849106 0.170659 0.697993
Si Si7 0.075239 0.257966 0.925681
O O1 0.541242 0.089567 0.156040
O O2 0.388960 0.961087 0.398457
O O3 0.037315 0.092623 0.977167
O O4 0.500000 0.000000 0.000000
O O5 0.673861 0.575118 0.166751
O O6 0.216224 0.559889 0.257912
O O7 0.204266 0.696004 0.050195
O O8 0.514117 0.620781 0.493978
O O9 0.184896 0.855614 0.519832
O O10 0.702203 0.806557 0.790271
O O11 0.852852 0.644543 0.779072
O O12 0.456946 0.769293 0.368939
O O13 0.801425 0.684528 0.259283
O O14 0.000000 0.500000 0.000000
O O15 0.010874 0.222481 0.738905
#
# Coordination Sequence:
#
# PCOD9028587 Si02
#       7
#     2   2   2   2   2   2   2
#     4  10  23  42  61  94 136 185 241 291 358 429
#     4  11  25  49  73 106 148 189 239 293 361 427
#     4  10  22  42  63  96 135 181 235 301 353 417
#     4  11  26  46  75 103 144 184 242 300 359 432
#     4  12  28  47  75 110 147 192 240 290 361 433
#     4  10  23  40  68  95 132 180 237 291 358 420
#     4  10  23  46  69 107 135 185 242 295 359 426
#
# _framework density 26.068203
#
# number of rings (size 3 to 8) (size 9 to 14) (size 15 to 20)
#    0.000    1.429    1.429    1.714    8.000    2.857 
#    7.714    0.000    0.000    0.000    0.000    0.000 
#    0.000    0.000    0.000    0.000    0.000    0.000 
#
# Total GULP energy -77955.627386 kJ/mol
# GULP energy per Si atom -5568.259099 kJ/mol
# Density = 2.600887 g / cm^3
# Si number density = 26.068203 Si / 1000 Ang^3
#
#
#
# Elastic Constant Matrix: (Units=GPa)
#
#
# Indices 1 2 3 4 5 6 
#
# 1 130.1106 80.8096 47.5386 2.7393 49.8101 -15.8919
# 2 80.8096 440.7261 15.8302 -45.3551 315.9076 -112.6917
# 3 47.5386 15.8302 84.8368 -2.5060 -1.2443 6.2546
# 4 2.7393 -45.3551 -2.5060 64.0258 -55.3212 47.1386
# 5 49.8101 315.9076 -1.2443 -55.3212 363.5024 -116.4169
# 6 -15.8919 -112.6917 6.2546 47.1386 -116.4169 98.8331
#
#
#
# Elastic Compliance Matrix: (Units=1/GPa)
#
#
# Indices 1 2 3 4 5 6 
#
# 1 0.011339 -0.001742 -0.006261 -0.003292 0.000025 0.001832
# 2 -0.001742 0.006596 -0.000484 -0.000939 -0.005083 0.001731
# 3 -0.006261 -0.000484 0.015756 0.003731 0.000822 -0.003367
# 4 -0.003292 -0.000939 0.003731 0.025566 0.001088 -0.012749
# 5 0.000025 -0.005083 0.000822 0.001088 0.008504 0.003654
# 6 0.001832 0.001731 -0.003367 -0.012749 0.003654 0.022984
#
#
# Mechanical properties :
#
#
# Convention : Reuss Voigt Hill
#
# Bulk Modulus (GPa) = 59.82128 104.89226 82.35677
# Shear Modulus (GPa) = 44.13393 139.37193 91.75293
#
# Velocity S-wave (km/s) = 4.11909 7.31986 5.93916
# Velocity P-wave (km/s) = 6.75429 10.57192 8.87090
#
# Compressibility (1/GPa) = 0.01671646
#
# Stress axis : x y z
#
# Youngs Moduli (GPa) = 88.19194 151.61848 63.46625
#
# Poissons Ratio (x) = 0.26414 0.39734
# Poissons Ratio (y) = 0.15364 0.03074
# Poissons Ratio (z) = 0.55214 0.07344
#
# Static dielectric constant tensor:
#      x y z
#    x 2.206210 0.006250 -0.203920 
#    y 0.006250 2.127620 0.237630 
#    z -0.203920 0.237630 2.544200 
# 
# From -- ./inp_files/10410.got.cif
#   From: 2010.05.17/outbox.cif.g08.bks.cpg/sg2_6_cif.got.tgz:10410.got - 2010.06.03 11:33:40.
