data_PCOD9028669
_publ_section_title
;
Structure prediction by ZEFSAII (Michael W. Deem and Ramdas Pophale) SiO2 
 PCOD9028669
Probable space group: P -1
;
_chemical_formula_sum "Si O2"
_cell_formula_units_Z 16
_cell_length_a 8.983878
_cell_length_b 11.718890
_cell_length_c 9.802549
_cell_angle_alpha 45.037732
_cell_angle_beta 95.818389
_cell_angle_gamma 88.780448
_cell_volume 720.111844
_symmetry_space_group_name_H-M "P -1"
_symmetry_group_IT_number 2
_symmetry_cell_setting 'triclinic'
loop_
_space_group_symop_operation_xyz
x,y,z
-x,-y,-z
loop_
_atom_site_type_symbol
_atom_site_label
_atom_site_fract_x
_atom_site_fract_y
_atom_site_fract_z
Si Si1 0.633636 0.658770 0.092433
Si Si2 0.179289 0.475944 0.556496
Si Si3 0.920758 0.951781 0.670936
Si Si4 0.333067 0.526850 0.254690
Si Si5 0.528011 0.987866 0.174683
Si Si6 0.831742 0.600810 0.906597
Si Si7 0.182548 0.899975 0.957599
Si Si8 0.261679 0.824964 0.336212
O O1 0.761428 0.664850 0.214127
O O2 0.505754 0.554227 0.223824
O O3 0.552704 0.843469 0.907620
O O4 0.724100 0.571508 0.048309
O O5 0.280540 0.448854 0.454013
O O6 0.218232 0.645731 0.477052
O O7 0.000000 0.500000 0.500000
O O8 0.854364 0.787458 0.769535
O O9 0.032085 0.924101 0.835094
O O10 0.797774 0.091093 0.600746
O O11 0.000000 0.000000 0.500000
O O12 0.261079 0.437484 0.201494
O O13 0.251932 0.713054 0.097547
O O14 0.706504 0.985957 0.200373
O O15 0.439465 0.841481 0.334672
O O16 0.500000 0.000000 0.000000
O O17 0.000000 0.500000 0.000000
O O18 0.190012 0.911122 0.114805
#
# Coordination Sequence:
#
# PCOD9028669 Si02
#       8
#     2   2   2   2   2   2   2   2
#     4  11  23  42  69  95 125 173 220 263 319 381
#     4  11  25  40  67 101 132 163 214 273 319 372
#     4  12  26  41  60  96 131 167 213 267 324 373
#     4  10  22  42  65  95 128 169 217 260 320 383
#     4   9  19  40  68  93 122 163 211 263 317 384
#     4  12  24  43  67  89 133 177 217 259 321 396
#     4   9  20  41  68  89 122 167 211 264 318 380
#     4  10  22  42  64  92 126 164 214 261 318 384
#
# _framework density 22.218772000000001
#
# number of rings (size 3 to 8) (size 9 to 14) (size 15 to 20)
#    0.000    1.500    2.500    2.625    5.250    2.000 
#    2.250    0.625    0.000    0.000    0.000    0.000 
#    0.000    0.000    0.000    0.000    0.000    0.000 
#
# Total GULP energy -89367.257282 kJ/mol
# GULP energy per Si atom -5585.453580 kJ/mol
# Density = 2.216820 g / cm^3
# Si number density = 22.218772 Si / 1000 Ang^3
#
#
#
# Elastic Constant Matrix: (Units=GPa)
#
#
# Indices 1 2 3 4 5 6 
#
# 1 83.2608 60.0660 7.2905 2.3286 -15.1659 -2.7828
# 2 60.0660 127.4160 29.0048 15.2515 -19.5544 -0.8412
# 3 7.2905 29.0048 35.0040 6.8816 -15.6673 -8.2991
# 4 2.3286 15.2515 6.8816 31.2716 -1.8016 -12.7581
# 5 -15.1659 -19.5544 -15.6673 -1.8016 28.9463 6.9527
# 6 -2.7828 -0.8412 -8.2991 -12.7581 6.9527 44.6010
#
#
#
# Elastic Compliance Matrix: (Units=1/GPa)
#
#
# Indices 1 2 3 4 5 6 
#
# 1 0.020279 -0.010574 0.007702 0.003315 0.007302 0.002309
# 2 -0.010574 0.016035 -0.010803 -0.006365 0.000057 -0.004197
# 3 0.007702 -0.010803 0.046864 -0.002345 0.020734 0.005094
# 4 0.003315 -0.006365 -0.002345 0.039889 -0.004162 0.011709
# 5 0.007302 0.000057 0.020734 -0.004162 0.050515 -0.004751
# 6 0.002309 -0.004197 0.005094 0.011709 -0.004751 0.027524
#
#
# Mechanical properties :
#
#
# Convention : Reuss Voigt Hill
#
# Bulk Modulus (GPa) = 17.91177 48.71148 33.31162
# Shear Modulus (GPa) = 20.23759 30.91842 25.57801
#
# Velocity S-wave (km/s) = 3.02128 3.73439 3.39660
# Velocity P-wave (km/s) = 4.49998 6.36910 5.51431
#
# Compressibility (1/GPa) = 0.05582921
#
# Stress axis : x y z
#
# Youngs Moduli (GPa) = 49.31239 62.36306 21.33825
#
# Poissons Ratio (x) = 0.65943 -0.16435
# Poissons Ratio (y) = 0.52143 0.23051
# Poissons Ratio (z) = -0.37982 0.67370
#
# Static dielectric constant tensor:
#      x y z
#    x 1.826210 -0.024740 -0.001230 
#    y -0.024740 1.808640 0.000450 
#    z -0.001230 0.000450 1.867170 
# 
# From -- ./inp_files/184240.got.cif
#   From: 2010.05.17/outbox.cif.g08.bks.cpg/sg2_93_cif.got.tgz:184240.got - 2010.06.03 11:33:40.
