data_PCOD9028478
_publ_section_title
;
Structure prediction by ZEFSAII (Michael W. Deem and Ramdas Pophale) SiO2 
 PCOD9028478
Probable space group: P -1
;
_chemical_formula_sum "Si O2"
_cell_formula_units_Z 16
_cell_length_a 16.475385
_cell_length_b 15.334382
_cell_length_c 7.169684
_cell_angle_alpha 138.015971
_cell_angle_beta 138.860903
_cell_angle_gamma 43.591220
_cell_volume 739.375949
_symmetry_space_group_name_H-M "P -1"
_symmetry_group_IT_number 2
_symmetry_cell_setting 'triclinic'
loop_
_space_group_symop_operation_xyz
x,y,z
-x,-y,-z
loop_
_atom_site_type_symbol
_atom_site_label
_atom_site_fract_x
_atom_site_fract_y
_atom_site_fract_z
Si Si1 0.646638 0.981163 0.259443
Si Si2 0.256839 0.695232 0.776995
Si Si3 0.995395 0.927755 0.570178
Si Si4 0.280497 0.265484 0.713757
Si Si5 0.750117 0.192153 0.695892
Si Si6 0.546224 0.339043 0.253466
Si Si7 0.800287 0.787349 0.920343
Si Si8 0.149634 0.457044 0.114465
O O1 0.704911 0.867413 0.340372
O O2 0.662030 0.125590 0.557154
O O3 0.708871 0.934112 0.086970
O O4 0.500000 0.000000 0.000000
O O5 0.392348 0.675985 0.872015
O O6 0.209016 0.576146 0.424201
O O7 0.141062 0.847159 0.775886
O O8 0.252126 0.683209 0.974496
O O9 0.892025 0.061497 0.716565
O O10 0.939639 0.803946 0.232536
O O11 0.000000 0.000000 0.500000
O O12 0.227519 0.239354 0.380931
O O13 0.421306 0.288153 0.975487
O O14 0.175571 0.396452 0.853414
O O15 0.671612 0.249367 0.460224
O O16 0.500000 0.500000 0.500000
O O17 0.774295 0.672365 0.821336
O O18 0.000000 0.500000 0.000000
#
# Coordination Sequence:
#
# PCOD9028478 Si02
#       8
#     2   2   2   2   2   2   2   2
#     4  10  22  42  62  95 130 165 222 264 315 399
#     4  12  26  43  71  97 135 182 218 278 336 392
#     4  11  23  46  68  99 135 169 233 277 328 400
#     4  11  25  43  68  95 135 175 217 273 333 396
#     4  11  26  43  68  98 134 179 219 278 335 388
#     4  12  26  45  64 101 141 174 225 270 327 411
#     4  10  25  42  67  95 131 175 213 278 329 384
#     4  11  24  46  65  97 132 170 230 271 323 401
#
# _framework density 21.639872
#
# number of rings (size 3 to 8) (size 9 to 14) (size 15 to 20)
#    0.000    1.000    5.000    0.375    5.250    2.500 
#    0.000    0.000    0.000    0.000    0.000    0.000 
#    0.000    0.000    0.000    0.000    0.000    0.000 
#
# Total GULP energy -89221.523021 kJ/mol
# GULP energy per Si atom -5576.345189 kJ/mol
# Density = 2.159062 g / cm^3
# Si number density = 21.639872 Si / 1000 Ang^3
#
#
#
# Elastic Constant Matrix: (Units=GPa)
#
#
# Indices 1 2 3 4 5 6 
#
# 1 92.0587 -2.7789 23.4314 5.0898 -17.5104 -11.6479
# 2 -2.7789 50.6127 -0.1997 11.3689 -9.3006 -2.1709
# 3 23.4314 -0.1997 76.9983 3.5549 -38.6174 -12.7237
# 4 5.0898 11.3689 3.5549 23.7280 2.4244 5.6850
# 5 -17.5104 -9.3006 -38.6174 2.4244 39.2361 0.4736
# 6 -11.6479 -2.1709 -12.7237 5.6850 0.4736 31.1905
#
#
#
# Elastic Compliance Matrix: (Units=1/GPa)
#
#
# Indices 1 2 3 4 5 6 
#
# 1 0.013837 0.005100 0.002958 -0.008916 0.010748 0.008191
# 2 0.005100 0.030701 0.014590 -0.023914 0.025223 0.013969
# 3 0.002958 0.014590 0.038990 -0.023164 0.044325 0.021574
# 4 -0.008916 -0.023914 -0.023164 0.069047 -0.036393 -0.026476
# 5 0.010748 0.025223 0.044325 -0.036393 0.081783 0.029242
# 6 0.008191 0.013969 0.021574 -0.026476 0.029242 0.049275
#
#
# Mechanical properties :
#
#
# Convention : Reuss Voigt Hill
#
# Bulk Modulus (GPa) = 7.76248 28.95281 18.35764
# Shear Modulus (GPa) = 17.77596 32.11204 24.94400
#
# Velocity S-wave (km/s) = 2.86920 3.85636 3.39881
# Velocity P-wave (km/s) = 3.81724 5.76516 4.88919
#
# Compressibility (1/GPa) = 0.12882475
#
# Stress axis : x y z
#
# Youngs Moduli (GPa) = 72.26830 32.57204 25.64760
#
# Poissons Ratio (x) = -0.16613 -0.07586
# Poissons Ratio (y) = -0.36859 -0.37420
# Poissons Ratio (z) = -0.21375 -0.47522
#
# Static dielectric constant tensor:
#      x y z
#    x 1.756620 -0.062560 -0.026160 
#    y -0.062560 1.833210 0.008320 
#    z -0.026160 0.008320 1.831310 
# 
# From -- ./inp_files/76968.got.cif
#   From: 2010.05.17/outbox.cif.g08.bks.cpg/sg2_39_cif.got.tgz:76968.got - 2010.06.03 11:33:40.
