data_PCOD9028966
_publ_section_title
;
Structure prediction by ZEFSAII (Michael W. Deem and Ramdas Pophale) SiO2 
 PCOD9028966
Probable space group: P -1
;
_chemical_formula_sum "Si O2"
_cell_formula_units_Z 14
_cell_length_a 10.654702
_cell_length_b 17.997927
_cell_length_c 8.867105
_cell_angle_alpha 51.228275
_cell_angle_beta 55.867609
_cell_angle_gamma 24.817316
_cell_volume 556.291568
_symmetry_space_group_name_H-M "P -1"
_symmetry_group_IT_number 2
_symmetry_cell_setting 'triclinic'
loop_
_space_group_symop_operation_xyz
x,y,z
-x,-y,-z
loop_
_atom_site_type_symbol
_atom_site_label
_atom_site_fract_x
_atom_site_fract_y
_atom_site_fract_z
Si Si1 0.620163 0.736163 0.562042
Si Si2 0.887135 0.689914 0.909800
Si Si3 0.104443 0.848373 0.038817
Si Si4 0.759586 0.088620 0.669136
Si Si5 0.828392 0.514441 0.316640
Si Si6 0.346544 0.993502 0.685878
Si Si7 0.665389 0.504097 0.940025
O O1 0.467632 0.847604 0.366285
O O2 0.402313 0.883623 0.659877
O O3 0.657260 0.601010 0.714443
O O4 0.932279 0.619141 0.538280
O O5 0.069897 0.606944 0.736045
O O6 0.547974 0.870868 0.854627
O O7 0.012877 0.689252 0.956689
O O8 0.923128 0.566430 0.117087
O O9 0.984094 0.829235 0.251234
O O10 0.455137 0.652715 0.030253
O O11 0.947980 0.937196 0.866923
O O12 0.000000 0.000000 0.000000
O O13 0.518857 0.292468 0.649094
O O14 0.000000 0.000000 0.500000
O O15 0.500000 0.000000 0.500000
O O16 0.500000 0.500000 0.000000
#
# Coordination Sequence:
#
# PCOD9028966 Si02
#       7
#     2   2   2   2   2   2   2
#     4  10  22  42  65  97 133 172 221 278 334 400
#     4   9  19  40  66  93 122 180 225 270 326 404
#     4  12  23  45  70  95 135 186 223 277 338 395
#     4  12  21  36  64 100 132 172 215 273 340 395
#     4   9  18  36  67  90 126 170 227 266 328 395
#     4  11  23  45  70  99 129 173 238 280 325 401
#     4  11  23  42  65  96 139 174 220 271 341 403
#
# _framework density 25.166658999999999
#
# number of rings (size 3 to 8) (size 9 to 14) (size 15 to 20)
#    0.000    1.429    4.286    2.143    0.000    1.143 
#   12.857    2.143    0.000    0.000    0.000    0.000 
#    0.000    0.000    0.000    0.000    0.000    0.000 
#
# Total GULP energy -78141.748380 kJ/mol
# GULP energy per Si atom -5581.553456 kJ/mol
# Density = 2.510938 g / cm^3
# Si number density = 25.166659 Si / 1000 Ang^3
#
#
#
# Elastic Constant Matrix: (Units=GPa)
#
#
# Indices 1 2 3 4 5 6 
#
# 1 95.7488 -25.2761 24.9308 -20.8686 14.8806 -7.9095
# 2 -25.2761 76.7396 14.3690 28.1512 15.6358 -2.4847
# 3 24.9308 14.3690 98.3255 19.5914 12.0128 -5.4680
# 4 -20.8686 28.1512 19.5914 53.2058 -9.8437 14.6430
# 5 14.8806 15.6358 12.0128 -9.8437 26.7081 -17.9491
# 6 -7.9095 -2.4847 -5.4680 14.6430 -17.9491 25.3030
#
#
#
# Elastic Compliance Matrix: (Units=1/GPa)
#
#
# Indices 1 2 3 4 5 6 
#
# 1 0.016231 0.008170 -0.004349 0.002920 -0.016458 -0.008428
# 2 0.008170 0.027427 0.000346 -0.014951 -0.032265 -0.008914
# 3 -0.004349 0.000346 0.013764 -0.008752 -0.005129 0.003076
# 4 0.002920 -0.014951 -0.008752 0.037560 0.016538 -0.012452
# 5 -0.016458 -0.032265 -0.005129 0.016538 0.116840 0.063891
# 6 -0.008428 -0.008914 0.003076 -0.012452 0.063891 0.089204
#
#
# Mechanical properties :
#
#
# Convention : Reuss Voigt Hill
#
# Bulk Modulus (GPa) = 15.20791 33.20680 24.20735
# Shear Modulus (GPa) = 15.89260 38.16271 27.02766
#
# Velocity S-wave (km/s) = 2.51568 3.89832 3.28067
# Velocity P-wave (km/s) = 3.80713 5.78671 4.89797
#
# Compressibility (1/GPa) = 0.06575524
#
# Stress axis : x y z
#
# Youngs Moduli (GPa) = 61.61037 36.46003 72.65314
#
# Poissons Ratio (x) = -0.29788 0.31597
# Poissons Ratio (y) = -0.50335 -0.02510
# Poissons Ratio (z) = 0.26794 -0.01260
#
# Static dielectric constant tensor:
#      x y z
#    x 0.311950 0.653180 -0.860360 
#    y 0.653180 1.805710 0.283600 
#    z -0.860360 0.283600 1.559850 
# 
# From -- ./inp_files/216978.got.cif
#   From: 2010.05.17/outbox.cif.g08.bks.cpg/sg2_109_cif.got.tgz:216978.got - 2010.06.03 11:33:40.
