data_PCOD9028511
_publ_section_title
;
Structure prediction by ZEFSAII (Michael W. Deem and Ramdas Pophale) SiO2 
 PCOD9028511
Probable space group: P -1
;
_chemical_formula_sum "Si O2"
_cell_formula_units_Z 16
_cell_length_a 5.034740
_cell_length_b 12.615933
_cell_length_c 14.173833
_cell_angle_alpha 127.415458
_cell_angle_beta 107.146752
_cell_angle_gamma 103.479755
_cell_volume 573.697654
_symmetry_space_group_name_H-M "P -1"
_symmetry_group_IT_number 2
_symmetry_cell_setting 'triclinic'
loop_
_space_group_symop_operation_xyz
x,y,z
-x,-y,-z
loop_
_atom_site_type_symbol
_atom_site_label
_atom_site_fract_x
_atom_site_fract_y
_atom_site_fract_z
Si Si1 0.673300 0.079378 0.272557
Si Si2 0.935118 0.916850 0.345173
Si Si3 0.771068 0.317425 0.787657
Si Si4 0.738688 0.610381 0.501076
Si Si5 0.437709 0.796369 0.489612
Si Si6 0.727091 0.587102 0.979620
Si Si7 0.436036 0.660950 0.809358
Si Si8 0.181775 0.868705 0.957270
O O1 0.797841 0.977397 0.279563
O O2 0.681714 0.193606 0.416039
O O3 0.966987 0.229370 0.326289
O O4 0.327886 0.957334 0.121270
O O5 0.317541 0.018525 0.408795
O O6 0.599972 0.755576 0.254525
O O7 0.000000 0.000000 0.500000
O O8 0.805116 0.273258 0.661874
O O9 0.896403 0.501195 0.904204
O O10 0.966328 0.270437 0.852981
O O11 0.500000 0.500000 0.500000
O O12 0.593482 0.690455 0.461360
O O13 0.749315 0.483296 0.363374
O O14 0.557646 0.617335 0.893147
O O15 0.500000 0.500000 0.000000
O O16 0.205739 0.717423 0.856857
O O17 0.791024 0.803945 0.878565
O O18 0.500000 0.000000 0.000000
#
# Coordination Sequence:
#
# PCOD9028511 Si02
#       8
#     2   2   2   2   2   2   2   2
#     4  11  26  44  72 104 143 191 249 308 371 449
#     4   9  21  40  63  97 134 184 229 299 355 435
#     4  10  22  42  63 102 146 190 246 297 372 436
#     4  11  26  46  75 107 145 193 250 320 378 445
#     4  10  23  42  71 100 142 181 257 301 375 433
#     4  11  26  39  69 101 152 200 244 300 373 461
#     4  12  29  51  80 114 154 201 255 315 383 456
#     4  12  30  53  80 110 153 200 255 318 387 453
#
# _framework density 27.889254999999999
#
# number of rings (size 3 to 8) (size 9 to 14) (size 15 to 20)
#    0.000    1.250    1.250    1.875   14.000    3.500 
#    0.000    0.000    0.000    0.000    0.000    0.000 
#    0.000    0.000    0.000    0.000    0.000    0.000 
#
# Total GULP energy -89288.334084 kJ/mol
# GULP energy per Si atom -5580.520880 kJ/mol
# Density = 2.782578 g / cm^3
# Si number density = 27.889255 Si / 1000 Ang^3
#
#
#
# Elastic Constant Matrix: (Units=GPa)
#
#
# Indices 1 2 3 4 5 6 
#
# 1 85.6210 -1.4798 10.2807 5.5815 1.1900 -2.6794
# 2 -1.4798 89.1665 9.9420 -9.2074 -7.3114 10.2001
# 3 10.2807 9.9420 152.0743 -2.8817 1.7562 -5.4499
# 4 5.5815 -9.2074 -2.8817 30.2823 3.3371 2.3344
# 5 1.1900 -7.3114 1.7562 3.3371 37.7596 4.0839
# 6 -2.6794 10.2001 -5.4499 2.3344 4.0839 41.0081
#
#
#
# Elastic Compliance Matrix: (Units=1/GPa)
#
#
# Indices 1 2 3 4 5 6 
#
# 1 0.011959 -0.000069 -0.000815 -0.002342 -0.000237 0.000847
# 2 -0.000069 0.012314 -0.000890 0.003678 0.002497 -0.003644
# 3 -0.000815 -0.000890 0.006745 0.000506 -0.000624 0.001098
# 4 -0.002342 0.003678 0.000506 0.035060 -0.002034 -0.002794
# 5 -0.000237 0.002497 -0.000624 -0.002034 0.027545 -0.003347
# 6 0.000847 -0.003644 0.001098 -0.002794 -0.003347 0.025985
#
#
# Mechanical properties :
#
#
# Convention : Reuss Voigt Hill
#
# Bulk Modulus (GPa) = 36.40355 40.48307 38.44331
# Shear Modulus (GPa) = 37.78899 42.35126 40.07013
#
# Velocity S-wave (km/s) = 3.68498 3.90109 3.79457
# Velocity P-wave (km/s) = 5.58450 5.90241 5.74566
#
# Compressibility (1/GPa) = 0.02746985
#
# Stress axis : x y z
#
# Youngs Moduli (GPa) = 83.62230 81.20535 148.25423
#
# Poissons Ratio (x) = 0.00559 0.12086
# Poissons Ratio (y) = 0.00575 0.13197
# Poissons Ratio (z) = 0.06817 0.07228
#
# Static dielectric constant tensor:
#      x y z
#    x 2.321520 0.288810 0.155010 
#    y 0.288810 2.435780 -0.048980 
#    z 0.155010 -0.048980 2.126180 
# 
# From -- ./inp_files/483954.got.cif
#   From: 2010.05.17/outbox.cif.g08.bks.cpg/sg2_242_cif.got.tgz:483954.got - 2010.06.03 11:33:40.
