data_PCOD9028083
_publ_section_title
;
Structure prediction by ZEFSAII (Michael W. Deem and Ramdas Pophale) SiO2 
 PCOD9028083
Probable space group: P -1
;
_chemical_formula_sum "Si O2"
_cell_formula_units_Z 16
_cell_length_a 17.072058
_cell_length_b 22.090100
_cell_length_c 6.753485
_cell_angle_alpha 98.060938
_cell_angle_beta 99.224007
_cell_angle_gamma 156.684333
_cell_volume 673.909306
_symmetry_space_group_name_H-M "P -1"
_symmetry_group_IT_number 2
_symmetry_cell_setting 'triclinic'
loop_
_space_group_symop_operation_xyz
x,y,z
-x,-y,-z
loop_
_atom_site_type_symbol
_atom_site_label
_atom_site_fract_x
_atom_site_fract_y
_atom_site_fract_z
Si Si1 0.224223 0.957724 0.667332
Si Si2 0.245968 0.476962 0.200982
Si Si3 0.812749 0.196730 0.196466
Si Si4 0.927484 0.045153 0.162396
Si Si5 0.665709 0.752295 0.157240
Si Si6 0.771296 0.384078 0.348761
Si Si7 0.628449 0.880672 0.600166
Si Si8 0.451501 0.394912 0.354541
O O1 0.008646 0.848603 0.626941
O O2 0.227584 0.973258 0.444823
O O3 0.182555 0.858865 0.684795
O O4 0.548694 0.215483 0.999252
O O5 0.388383 0.548145 0.100375
O O6 0.433709 0.678987 0.358446
O O7 0.330189 0.494106 0.423609
O O8 0.920535 0.256626 0.044171
O O9 0.058353 0.426282 0.475241
O O10 0.500000 0.000000 0.000000
O O11 0.668180 0.816797 0.060248
O O12 0.853476 0.018093 0.907879
O O13 0.162897 0.168375 0.267016
O O14 0.618777 0.665438 0.932611
O O15 0.000000 0.000000 0.500000
O O16 0.574258 0.229189 0.392650
O O17 0.000000 0.500000 0.500000
O O18 0.500000 0.500000 0.500000
#
# Coordination Sequence:
#
# PCOD9028083 Si02
#       8
#     2   2   2   2   2   2   2   2
#     4  11  23  44  73 104 142 188 244 302 371 440
#     4  11  23  44  71 106 144 194 249 303 372 444
#     4  11  24  47  74 105 150 187 241 317 372 435
#     4  11  22  42  71 103 144 189 243 290 365 447
#     4  12  23  43  79 107 139 201 256 297 367 450
#     4  10  22  44  71  99 137 187 245 300 371 440
#     4  10  22  41  71 102 137 194 241 298 360 444
#     4  12  26  43  66 108 157 192 239 312 371 444
#
# _framework density 23.742066999999999
#
# number of rings (size 3 to 8) (size 9 to 14) (size 15 to 20)
#    0.000    1.000    5.000    1.875    0.000    1.000 
#    0.000   13.125    0.000    0.000    0.000    0.000 
#    0.000    0.000    0.000    0.000    0.000    0.000 
#
# Total GULP energy -89330.217546 kJ/mol
# GULP energy per Si atom -5583.138597 kJ/mol
# Density = 2.368803 g / cm^3
# Si number density = 23.742067 Si / 1000 Ang^3
#
#
#
# Elastic Constant Matrix: (Units=GPa)
#
#
# Indices 1 2 3 4 5 6 
#
# 1 114.2861 51.2908 34.0198 2.3043 5.1937 8.6315
# 2 51.2908 153.6511 61.3869 -17.0343 8.1344 5.3335
# 3 34.0198 61.3869 85.1947 -9.7321 -7.1853 1.1366
# 4 2.3043 -17.0343 -9.7321 38.3275 -4.7355 2.3876
# 5 5.1937 8.1344 -7.1853 -4.7355 25.1976 11.6756
# 6 8.6315 5.3335 1.1366 2.3876 11.6756 63.6227
#
#
#
# Elastic Compliance Matrix: (Units=1/GPa)
#
#
# Indices 1 2 3 4 5 6 
#
# 1 0.011065 -0.002636 -0.003054 -0.002886 -0.002541 -0.000651
# 2 -0.002636 0.010546 -0.006624 0.002601 -0.004401 0.000302
# 3 -0.003054 -0.006624 0.018907 0.003268 0.009331 -0.001203
# 4 -0.002886 0.002601 0.003268 0.029292 0.007266 -0.002318
# 5 -0.002541 -0.004401 0.009331 0.007266 0.049762 -0.008858
# 6 -0.000651 0.000302 -0.001203 -0.002318 -0.008858 0.017515
#
#
# Mechanical properties :
#
#
# Convention : Reuss Voigt Hill
#
# Bulk Modulus (GPa) = 62.93908 71.83631 67.38770
# Shear Modulus (GPa) = 29.93814 39.19184 34.56499
#
# Velocity S-wave (km/s) = 3.55487 4.06733 3.81971
# Velocity P-wave (km/s) = 6.58912 7.23742 6.92087
#
# Compressibility (1/GPa) = 0.01588838
#
# Stress axis : x y z
#
# Youngs Moduli (GPa) = 90.37416 94.82702 52.89121
#
# Poissons Ratio (x) = 0.24999 0.16155
# Poissons Ratio (y) = 0.23825 0.35035
# Poissons Ratio (z) = 0.27603 0.62813
#
# Static dielectric constant tensor:
#      x y z
#    x 2.042200 0.026030 0.128230 
#    y 0.026030 2.081390 0.087080 
#    z 0.128230 0.087080 2.171320 
# 
# From -- ./inp_files/112910.got.cif
#   From: 2010.05.17/outbox.cif.g08.bks.cpg/sg2_57_cif.got.tgz:112910.got - 2010.06.03 11:33:40.
