data_PCOD9028255
_publ_section_title
;
Structure prediction by ZEFSAII (Michael W. Deem and Ramdas Pophale) SiO2 
 PCOD9028255
Probable space group: P -1
;
_chemical_formula_sum "Si O2"
_cell_formula_units_Z 16
_cell_length_a 13.663150
_cell_length_b 8.639983
_cell_length_c 9.549443
_cell_angle_alpha 93.363818
_cell_angle_beta 145.884810
_cell_angle_gamma 89.865229
_cell_volume 629.014845
_symmetry_space_group_name_H-M "P -1"
_symmetry_group_IT_number 2
_symmetry_cell_setting 'triclinic'
loop_
_space_group_symop_operation_xyz
x,y,z
-x,-y,-z
loop_
_atom_site_type_symbol
_atom_site_label
_atom_site_fract_x
_atom_site_fract_y
_atom_site_fract_z
Si Si1 0.483442 0.748737 0.032745
Si Si2 0.555622 0.940026 0.841311
Si Si3 0.696079 0.610424 0.662993
Si Si4 0.013895 0.156392 0.118700
Si Si5 0.219489 0.461545 0.659106
Si Si6 0.080395 0.382439 0.794239
Si Si7 0.035401 0.043141 0.703512
Si Si8 0.352935 0.725787 0.376184
O O1 0.472562 0.886104 0.136886
O O2 0.634804 0.636953 0.239181
O O3 0.308613 0.633135 0.810617
O O4 0.523881 0.832325 0.935664
O O5 0.429133 0.868631 0.568203
O O6 0.755365 0.940001 0.026585
O O7 0.508933 0.680631 0.456314
O O8 0.680002 0.433209 0.580532
O O9 0.837380 0.725148 0.761069
O O10 0.773991 0.593417 0.912745
O O11 0.052973 0.093545 0.314931
O O12 0.827576 0.229758 0.900102
O O13 0.000000 0.000000 0.000000
O O14 0.160276 0.384089 0.732769
O O15 0.054355 0.485950 0.367644
O O16 0.979630 0.212278 0.688203
O O17 0.000000 0.000000 0.500000
#
# Coordination Sequence:
#
# PCOD9028255 Si02
#       8
#     2   2   2   2   2   2   2   2
#     4  10  22  42  70 113 148 202 253 309 390 462
#     4  11  23  46  74 108 158 201 245 325 396 447
#     4  11  25  52  81 111 149 211 259 322 386 462
#     4  12  27  50  81 116 151 208 264 313 395 471
#     4  10  22  41  73 111 148 197 253 315 375 475
#     4  11  22  46  72 106 154 198 252 315 390 449
#     4  12  26  48  75 112 159 200 250 323 392 461
#     4  11  26  50  79 112 158 199 262 329 377 464
#
# _framework density 25.436601
#
# number of rings (size 3 to 8) (size 9 to 14) (size 15 to 20)
#    0.000    1.000    3.750    1.125    1.750    7.000 
#    4.500    6.250    0.000    0.000    0.000    0.000 
#    0.000    0.000    0.000    0.000    0.000    0.000 
#
# Total GULP energy -89845.055487 kJ/mol
# GULP energy per Si atom -5615.315968 kJ/mol
# Density = 2.537871 g / cm^3
# Si number density = 25.436601 Si / 1000 Ang^3
#
#
#
# Elastic Constant Matrix: (Units=GPa)
#
#
# Indices 1 2 3 4 5 6 
#
# 1 69.0499 39.9666 42.5147 -12.8194 -2.3434 6.6037
# 2 39.9666 151.5790 53.3096 2.5237 2.1271 0.1324
# 3 42.5147 53.3096 123.5762 -0.7536 16.7542 3.5356
# 4 -12.8194 2.5237 -0.7536 43.1060 -10.5558 1.0881
# 5 -2.3434 2.1271 16.7542 -10.5558 29.9319 0.9368
# 6 6.6037 0.1324 3.5356 1.0881 0.9368 57.9479
#
#
#
# Elastic Compliance Matrix: (Units=1/GPa)
#
#
# Indices 1 2 3 4 5 6 
#
# 1 0.023899 -0.003866 -0.007778 0.009713 0.010006 -0.002584
# 2 -0.003866 0.008463 -0.002315 -0.001762 -0.000248 0.000600
# 3 -0.007778 -0.002315 0.012980 -0.004213 -0.009206 0.000328
# 4 0.009713 -0.001762 -0.004213 0.029513 0.013703 -0.001621
# 5 0.010006 -0.000248 -0.009206 0.013703 0.044244 -0.001551
# 6 -0.002584 0.000600 0.000328 -0.001621 -0.001551 0.017586
#
#
# Mechanical properties :
#
#
# Convention : Reuss Voigt Hill
#
# Bulk Modulus (GPa) = 57.39165 68.42076 62.90621
# Shear Modulus (GPa) = 29.34114 40.09144 34.71629
#
# Velocity S-wave (km/s) = 3.40001 3.97436 3.69835
# Velocity P-wave (km/s) = 6.16644 6.92948 6.55906
#
# Compressibility (1/GPa) = 0.01742414
#
# Stress axis : x y z
#
# Youngs Moduli (GPa) = 41.84343 118.16112 77.04322
#
# Poissons Ratio (x) = 0.45679 0.59922
# Poissons Ratio (y) = 0.16176 0.17837
# Poissons Ratio (z) = 0.32544 0.27356
#
# Static dielectric constant tensor:
#      x y z
#    x 1.994570 -0.001010 -0.015780 
#    y -0.001010 1.986850 -0.016610 
#    z -0.015780 -0.016610 1.975530 
# 
# From -- ./inp_files/447284.got.cif
#   From: 2010.05.17/outbox.cif.g08.bks.cpg/sg2_224_cif.got.tgz:447284.got - 2010.06.03 11:33:40.
