data_PCOD9028123
_publ_section_title
;
Structure prediction by ZEFSAII (Michael W. Deem and Ramdas Pophale) SiO2 
 PCOD9028123
Probable space group: P -1
;
_chemical_formula_sum "Si O2"
_cell_formula_units_Z 12
_cell_length_a 5.405242
_cell_length_b 9.872173
_cell_length_c 10.918771
_cell_angle_alpha 98.044222
_cell_angle_beta 116.129480
_cell_angle_gamma 71.475481
_cell_volume 495.993682
_symmetry_space_group_name_H-M "P -1"
_symmetry_group_IT_number 2
_symmetry_cell_setting 'triclinic'
loop_
_space_group_symop_operation_xyz
x,y,z
-x,-y,-z
loop_
_atom_site_type_symbol
_atom_site_label
_atom_site_fract_x
_atom_site_fract_y
_atom_site_fract_z
Si Si1 0.449101 0.861861 0.114326
Si Si2 0.492030 0.389515 0.324892
Si Si3 0.049768 0.132034 0.452757
Si Si4 0.681537 0.588685 0.982249
Si Si5 0.936619 0.986838 0.181229
Si Si6 0.277820 0.369635 0.517637
O O1 0.685466 0.946296 0.198798
O O2 0.209170 0.867735 0.166358
O O3 0.655234 0.714149 0.089047
O O4 0.246078 0.929853 0.962548
O O5 0.770843 0.268659 0.418299
O O6 0.460150 0.359445 0.173151
O O7 0.261549 0.363857 0.365710
O O8 0.489796 0.554319 0.370584
O O9 0.289277 0.212708 0.547905
O O10 0.074755 0.079323 0.311628
O O11 0.000000 0.000000 0.500000
O O12 0.500000 0.500000 0.000000
O O13 0.000000 0.500000 0.000000
O O14 0.000000 0.500000 0.500000
#
# Coordination Sequence:
#
# PCOD9028123 Si02
#       6
#     2   2   2   2   2   2
#     4  10  22  44  64 100 134 182 225 287 354 416
#     4  10  23  47  70  98 143 187 237 305 355 432
#     4  11  24  42  70 105 137 189 236 297 362 429
#     4  12  27  44  74 108 138 189 243 296 361 433
#     4  10  22  41  71  93 139 181 223 285 357 423
#     4   9  22  44  72  96 138 188 238 291 366 417
#
# _framework density 24.193854000000002
#
# number of rings (size 3 to 8) (size 9 to 14) (size 15 to 20)
#    0.000    1.667    1.667    1.000    7.000    3.333 
#   15.000    0.000    0.000    0.000    0.000    0.000 
#    0.000    0.000    0.000    0.000    0.000    0.000 
#
# Total GULP energy -66893.259459 kJ/mol
# GULP energy per Si atom -5574.438288 kJ/mol
# Density = 2.413879 g / cm^3
# Si number density = 24.193854 Si / 1000 Ang^3
#
#
#
# Elastic Constant Matrix: (Units=GPa)
#
#
# Indices 1 2 3 4 5 6 
#
# 1 127.9968 44.6950 12.2457 -2.4136 -12.8724 -17.0836
# 2 44.6950 130.0396 28.5454 14.4373 7.8120 14.8827
# 3 12.2457 28.5454 48.6241 5.9046 -0.0621 0.7747
# 4 -2.4136 14.4373 5.9046 33.7120 -3.6715 -6.1556
# 5 -12.8724 7.8120 -0.0621 -3.6715 29.9669 4.7319
# 6 -17.0836 14.8827 0.7747 -6.1556 4.7319 46.4535
#
#
#
# Elastic Compliance Matrix: (Units=1/GPa)
#
#
# Indices 1 2 3 4 5 6 
#
# 1 0.011168 -0.005319 -0.000365 0.004849 0.005851 0.005864
# 2 -0.005319 0.012372 -0.005043 -0.006502 -0.005346 -0.006153
# 3 -0.000365 -0.005043 0.023827 -0.001807 0.000867 0.000756
# 4 0.004849 -0.006502 -0.001807 0.035296 0.006855 0.007875
# 5 0.005851 -0.005346 0.000867 0.006855 0.037978 0.000890
# 6 0.005864 -0.006153 0.000756 0.007875 0.000890 0.026595
#
#
# Mechanical properties :
#
#
# Convention : Reuss Voigt Hill
#
# Bulk Modulus (GPa) = 38.59059 53.07032 45.83045
# Shear Modulus (GPa) = 28.19651 36.77143 32.48397
#
# Velocity S-wave (km/s) = 3.41756 3.90278 3.66820
# Velocity P-wave (km/s) = 5.61766 6.50323 6.07660
#
# Compressibility (1/GPa) = 0.02591305
#
# Stress axis : x y z
#
# Youngs Moduli (GPa) = 89.54548 80.82522 41.96956
#
# Poissons Ratio (x) = 0.42993 0.01530
# Poissons Ratio (y) = 0.47632 0.21165
# Poissons Ratio (z) = 0.03265 0.40760
#
# Static dielectric constant tensor:
#      x y z
#    x 2.107120 0.057070 0.106710 
#    y 0.057070 2.116450 0.036050 
#    z 0.106710 0.036050 2.033880 
# 
# From -- ./inp_files/60213.got.cif
#   From: 2010.05.17/outbox.cif.g08.bks.cpg/sg2_31_cif.got.tgz:60213.got - 2010.06.03 11:33:40.
