data_PCOD9028551
_publ_section_title
;
Structure prediction by ZEFSAII (Michael W. Deem and Ramdas Pophale) SiO2 
 PCOD9028551
Probable space group: P -1
;
_chemical_formula_sum "Si O2"
_cell_formula_units_Z 14
_cell_length_a 12.426516
_cell_length_b 13.939650
_cell_length_c 12.400494
_cell_angle_alpha 72.651693
_cell_angle_beta 93.379879
_cell_angle_gamma 28.532878
_cell_volume 695.664466
_symmetry_space_group_name_H-M "P -1"
_symmetry_group_IT_number 2
_symmetry_cell_setting 'triclinic'
loop_
_space_group_symop_operation_xyz
x,y,z
-x,-y,-z
loop_
_atom_site_type_symbol
_atom_site_label
_atom_site_fract_x
_atom_site_fract_y
_atom_site_fract_z
Si Si1 0.135925 0.350752 0.382653
Si Si2 0.092456 0.707078 0.872076
Si Si3 0.822764 0.007959 0.199158
Si Si4 0.124110 0.256965 0.616946
Si Si5 0.124277 0.778106 0.074791
Si Si6 0.118171 0.874063 0.670544
Si Si7 0.159486 0.293505 0.169419
O O1 0.993391 0.394939 0.443330
O O2 0.006955 0.462176 0.217406
O O3 0.086147 0.500841 0.388121
O O4 0.500000 0.000000 0.500000
O O5 0.037930 0.835800 0.730481
O O6 0.910838 0.762495 0.825806
O O7 0.001779 0.834878 0.939016
O O8 0.469090 0.351724 0.026450
O O9 0.819933 0.907445 0.299047
O O10 0.015362 0.821299 0.163579
O O11 0.973455 0.961657 0.300238
O O12 0.467249 0.010351 0.717470
O O13 0.501957 0.450850 0.201582
O O14 0.000000 0.000000 0.000000
O O15 0.000000 0.000000 0.500000
O O16 0.000000 0.500000 0.000000
#
# Coordination Sequence:
#
# PCOD9028551 Si02
#       7
#     2   2   2   2   2   2   2
#     4   9  22  42  60  84 130 167 209 258 312 371
#     4  11  23  42  64  92 131 167 209 264 316 377
#     4  11  22  41  69  89 123 171 212 258 320 381
#     4  10  22  42  63  93 124 171 212 254 319 381
#     4  11  21  43  66  88 123 170 213 256 317 381
#     4  11  25  43  64  97 129 161 215 272 321 372
#     4  11  23  39  62  95 130 163 210 263 312 375
#
# _framework density 20.124644
#
# number of rings (size 3 to 8) (size 9 to 14) (size 15 to 20)
#    0.000    1.429    4.286    0.857    4.000    3.429 
#    5.143    0.000    0.000    0.000    0.000    0.000 
#    0.000    0.000    0.000    0.000    0.000    0.000 
#
# Total GULP energy -78134.253001 kJ/mol
# GULP energy per Si atom -5581.018071 kJ/mol
# Density = 2.007884 g / cm^3
# Si number density = 20.124644 Si / 1000 Ang^3
#
#
#
# Elastic Constant Matrix: (Units=GPa)
#
#
# Indices 1 2 3 4 5 6 
#
# 1 126.0988 24.2169 37.3031 17.1440 -35.5411 3.6539
# 2 24.2169 111.7147 27.2729 26.8731 -12.8104 3.9317
# 3 37.3031 27.2729 94.4783 31.8846 -36.8597 1.1602
# 4 17.1440 26.8731 31.8846 37.5390 -8.5985 -5.8413
# 5 -35.5411 -12.8104 -36.8597 -8.5985 33.6689 -4.8096
# 6 3.6539 3.9317 1.1602 -5.8413 -4.8096 21.3308
#
#
#
# Elastic Compliance Matrix: (Units=1/GPa)
#
#
# Indices 1 2 3 4 5 6 
#
# 1 0.011720 -0.000651 0.001952 -0.003467 0.013387 0.000075
# 2 -0.000651 0.011327 0.000429 -0.008492 0.001349 -0.004021
# 3 0.001952 0.000429 0.025457 -0.017056 0.025640 -0.000687
# 4 -0.003467 -0.008492 -0.017056 0.048360 -0.011242 0.013795
# 5 0.013387 0.001349 0.025640 -0.011242 0.070823 0.008954
# 6 0.000075 -0.004021 -0.000687 0.013795 0.008954 0.053443
#
#
# Mechanical properties :
#
#
# Convention : Reuss Voigt Hill
#
# Bulk Modulus (GPa) = 19.24383 56.65305 37.94844
# Shear Modulus (GPa) = 21.27737 34.74098 28.00918
#
# Velocity S-wave (km/s) = 3.25511 4.15937 3.73471
# Velocity P-wave (km/s) = 4.86937 7.16096 6.12332
#
# Compressibility (1/GPa) = 0.05196470
#
# Stress axis : x y z
#
# Youngs Moduli (GPa) = 85.32442 88.28629 39.28131
#
# Poissons Ratio (x) = 0.05746 -0.07668
# Poissons Ratio (y) = 0.05553 -0.01685
# Poissons Ratio (z) = -0.16656 -0.03787
#
# Static dielectric constant tensor:
#      x y z
#    x 1.721970 -0.011960 -0.008750 
#    y -0.011960 1.748920 0.021560 
#    z -0.008750 0.021560 1.812510 
# 
# From -- ./inp_files/27540.got.cif
#   From: 2010.05.17/outbox.cif.g08.bks.cpg/sg2_14_cif.got.tgz:27540.got - 2010.06.03 11:33:40.
