data_PCOD9028768
_publ_section_title
;
Structure prediction by ZEFSAII (Michael W. Deem and Ramdas Pophale) SiO2 
 PCOD9028768
Probable space group: P -1
;
_chemical_formula_sum "Si O2"
_cell_formula_units_Z 15
_cell_length_a 13.592689
_cell_length_b 6.617230
_cell_length_c 11.075477
_cell_angle_alpha 97.322989
_cell_angle_beta 126.851712
_cell_angle_gamma 58.061986
_cell_volume 649.511515
_symmetry_space_group_name_H-M "P -1"
_symmetry_group_IT_number 2
_symmetry_cell_setting 'triclinic'
loop_
_space_group_symop_operation_xyz
x,y,z
-x,-y,-z
loop_
_atom_site_type_symbol
_atom_site_label
_atom_site_fract_x
_atom_site_fract_y
_atom_site_fract_z
Si Si1 0.127667 0.114164 0.285399
Si Si2 0.678925 0.698578 0.466938
Si Si3 0.597610 0.859295 0.803409
Si Si4 0.131573 0.346371 0.862102
Si Si5 0.337950 0.575094 0.345157
Si Si6 0.500000 0.000000 0.000000
Si Si7 0.945932 0.004906 0.325939
Si Si8 0.693509 0.537394 0.196646
O O1 0.238499 0.167613 0.436047
O O2 0.992525 0.381887 0.157370
O O3 0.046919 0.048152 0.318242
O O4 0.225274 0.867264 0.259158
O O5 0.714953 0.509819 0.585997
O O6 0.722645 0.564285 0.359443
O O7 0.501870 0.917955 0.345386
O O8 0.643499 0.599986 0.762734
O O9 0.495637 0.919947 0.850871
O O10 0.749106 0.820080 0.959929
O O11 0.234996 0.354453 0.833118
O O12 0.055327 0.226512 0.734018
O O13 0.500000 0.500000 0.500000
O O14 0.476580 0.257493 0.946479
O O15 0.777974 0.251830 0.208880
O O16 0.000000 0.000000 0.500000
#
# Coordination Sequence:
#
# PCOD9028768 Si02
#       8
#     2   2   2   2   2   1   2   2
#     4  11  23  40  66  93 131 171 222 266 323 388
#     4  11  22  43  66  97 130 174 222 269 327 383
#     4  10  22  44  67  93 137 169 211 277 327 387
#     4  10  22  42  64  98 138 171 212 270 336 381
#     4  12  25  43  67  99 125 174 230 268 321 393
#     4   8  18  40  62  92 126 168 204 256 338 374
#     4  11  21  38  64 101 131 173 222 262 319 395
#     4   9  19  37  64  93 132 170 208 269 319 385
#
# _framework density 23.094280000000001
#
# number of rings (size 3 to 8) (size 9 to 14) (size 15 to 20)
#    0.000    1.600    1.333    3.600    0.000    2.667 
#    9.600    6.000    0.000    0.000    0.000    0.000 
#    0.000    0.000    0.000    0.000    0.000    0.000 
#
# Total GULP energy -83567.176968 kJ/mol
# GULP energy per Si atom -5571.145131 kJ/mol
# Density = 2.304172 g / cm^3
# Si number density = 23.094280 Si / 1000 Ang^3
#
#
#
# Elastic Constant Matrix: (Units=GPa)
#
#
# Indices 1 2 3 4 5 6 
#
# 1 51.2549 21.5016 16.6624 9.5636 9.5812 -0.1400
# 2 21.5016 134.5193 22.5363 -3.6317 2.5717 -16.0882
# 3 16.6624 22.5363 69.1827 -2.7793 11.5842 -3.8220
# 4 9.5636 -3.6317 -2.7793 27.1634 -3.0786 1.8136
# 5 9.5812 2.5717 11.5842 -3.0786 31.5846 4.9659
# 6 -0.1400 -16.0882 -3.8220 1.8136 4.9659 27.2325
#
#
#
# Elastic Compliance Matrix: (Units=1/GPa)
#
#
# Indices 1 2 3 4 5 6 
#
# 1 0.025718 -0.003621 -0.004332 -0.010716 -0.006860 -0.000650
# 2 -0.003621 0.008927 -0.001768 0.002020 0.000464 0.004788
# 3 -0.004332 -0.001768 0.017105 0.002344 -0.004913 0.002074
# 4 -0.010716 0.002020 0.002344 0.042030 0.006726 -0.002558
# 5 -0.006860 0.000464 -0.004913 0.006726 0.037375 -0.007714
# 6 -0.000650 0.004788 0.002074 -0.002558 -0.007714 0.041414
#
#
# Mechanical properties :
#
#
# Convention : Reuss Voigt Hill
#
# Bulk Modulus (GPa) = 30.95225 41.81750 36.38487
# Shear Modulus (GPa) = 24.65719 30.14653 27.40186
#
# Velocity S-wave (km/s) = 3.27108 3.61691 3.44833
# Velocity P-wave (km/s) = 5.26291 5.96568 5.62528
#
# Compressibility (1/GPa) = 0.03230783
#
# Stress axis : x y z
#
# Youngs Moduli (GPa) = 38.88360 112.01809 58.46170
#
# Poissons Ratio (x) = 0.40560 0.25327
# Poissons Ratio (y) = 0.14079 0.10336
# Poissons Ratio (z) = 0.16846 0.19805
#
# Static dielectric constant tensor:
#      x y z
#    x 1.743120 0.046670 -0.086400 
#    y 0.046670 1.887840 -0.006050 
#    z -0.086400 -0.006050 1.780020 
# 
# From -- ./inp_files/409169.got.cif
#   From: 2010.05.17/outbox.cif.g08.bks.cpg/sg2_205_cif.got.tgz:409169.got - 2010.06.03 11:33:40.
