data_PCOD9028198
_publ_section_title
;
Structure prediction by ZEFSAII (Michael W. Deem and Ramdas Pophale) SiO2 
 PCOD9028198
Probable space group: P -1
;
_chemical_formula_sum "Si O2"
_cell_formula_units_Z 16
_cell_length_a 16.781845
_cell_length_b 10.041886
_cell_length_c 8.872763
_cell_angle_alpha 120.235465
_cell_angle_beta 71.982252
_cell_angle_gamma 149.919110
_cell_volume 619.290925
_symmetry_space_group_name_H-M "P -1"
_symmetry_group_IT_number 2
_symmetry_cell_setting 'triclinic'
loop_
_space_group_symop_operation_xyz
x,y,z
-x,-y,-z
loop_
_atom_site_type_symbol
_atom_site_label
_atom_site_fract_x
_atom_site_fract_y
_atom_site_fract_z
Si Si1 0.441538 0.953020 0.339166
Si Si2 0.463823 0.548209 0.406113
Si Si3 0.862508 0.992050 0.890109
Si Si4 0.291813 0.773884 0.840384
Si Si5 0.873975 0.803018 0.274097
Si Si6 0.743011 0.858769 0.212533
Si Si7 0.021177 0.708041 0.436736
Si Si8 0.822493 0.315530 0.841194
O O1 0.513302 0.238614 0.439649
O O2 0.530801 0.973715 0.190517
O O3 0.500000 0.000000 0.500000
O O4 0.254670 0.684748 0.234204
O O5 0.500000 0.500000 0.500000
O O6 0.591739 0.712863 0.288689
O O7 0.278028 0.231358 0.278778
O O8 0.972358 0.012113 0.813530
O O9 0.002785 0.345631 0.003571
O O10 0.765308 0.868762 0.030668
O O11 0.216498 0.488470 0.771658
O O12 0.164096 0.624928 0.699073
O O13 0.290312 0.870837 0.048940
O O14 0.740557 0.685375 0.188048
O O15 0.943230 0.053203 0.479989
O O16 0.916630 0.203459 0.376545
O O17 0.141986 0.785928 0.321534
#
# Coordination Sequence:
#
# PCOD9028198 Si02
#       8
#     2   2   2   2   2   2   2   2
#     4  12  28  48  73 108 152 193 240 305 375 434
#     4  12  27  48  75 107 148 195 248 300 366 441
#     4  11  25  44  75 108 143 191 244 308 359 435
#     4  11  23  42  72 103 145 188 244 298 364 433
#     4   9  21  40  70 105 139 185 246 291 363 433
#     4  10  23  42  72 102 147 181 247 296 369 419
#     4  10  22  41  72 106 140 185 244 297 368 425
#     4  11  26  47  70 107 146 190 247 298 368 436
#
# _framework density 25.835999000000001
#
# number of rings (size 3 to 8) (size 9 to 14) (size 15 to 20)
#    0.750    0.500    1.250    3.375    5.250    4.500 
#    0.000    5.000    0.000    0.000    0.000    0.000 
#    0.000    0.000    0.000    0.000    0.000    0.000 
#
# Total GULP energy -89569.550740 kJ/mol
# GULP energy per Si atom -5598.096921 kJ/mol
# Density = 2.577720 g / cm^3
# Si number density = 25.835999 Si / 1000 Ang^3
#
#
#
# Elastic Constant Matrix: (Units=GPa)
#
#
# Indices 1 2 3 4 5 6 
#
# 1 83.7559 13.8952 40.7463 5.3852 -16.3325 15.4241
# 2 13.8952 66.0532 32.8873 -6.8233 -7.2483 27.2009
# 3 40.7463 32.8873 134.6727 -2.3599 -15.1777 20.2502
# 4 5.3852 -6.8233 -2.3599 48.4561 19.9003 -6.4752
# 5 -16.3325 -7.2483 -15.1777 19.9003 49.7494 -9.5453
# 6 15.4241 27.2009 20.2502 -6.4752 -9.5453 38.0777
#
#
#
# Elastic Compliance Matrix: (Units=1/GPa)
#
#
# Indices 1 2 3 4 5 6 
#
# 1 0.015744 0.000336 -0.003730 -0.004530 0.005100 -0.004125
# 2 0.000336 0.022909 -0.003592 0.001492 -0.001046 -0.014599
# 3 -0.003730 -0.003592 0.009678 -0.000191 0.001124 -0.000821
# 4 -0.004530 0.001492 -0.000191 0.026353 -0.011391 0.002497
# 5 0.005100 -0.001046 0.001124 -0.011391 0.027085 0.002937
# 6 -0.004125 -0.014599 -0.000821 0.002497 0.002937 0.039959
#
#
# Mechanical properties :
#
#
# Convention : Reuss Voigt Hill
#
# Bulk Modulus (GPa) = 29.10608 51.05994 40.08301
# Shear Modulus (GPa) = 29.91283 40.38684 35.14983
#
# Velocity S-wave (km/s) = 3.40633 3.95802 3.69249
# Velocity P-wave (km/s) = 5.17310 6.37918 5.80753
#
# Compressibility (1/GPa) = 0.03435709
#
# Stress axis : x y z
#
# Youngs Moduli (GPa) = 63.51750 43.65190 103.32933
#
# Poissons Ratio (x) = -0.01465 0.38538
# Poissons Ratio (y) = -0.02132 0.37120
# Poissons Ratio (z) = 0.23690 0.15682
#
# Static dielectric constant tensor:
#      x y z
#    x 2.054100 -0.013620 0.058450 
#    y -0.013620 2.051620 -0.011780 
#    z 0.058450 -0.011780 2.065420 
# 
# From -- ./inp_files/332342.got.cif
#   From: 2010.05.17/outbox.cif.g08.bks.cpg/sg2_167_cif.got.tgz:332342.got - 2010.06.03 11:33:40.
