data_PCOD9028215
_publ_section_title
;
Structure prediction by ZEFSAII (Michael W. Deem and Ramdas Pophale) SiO2 
 PCOD9028215
Probable space group: P -1
;
_chemical_formula_sum "Si O2"
_cell_formula_units_Z 15
_cell_length_a 11.110678
_cell_length_b 9.230105
_cell_length_c 8.164380
_cell_angle_alpha 123.898102
_cell_angle_beta 85.317337
_cell_angle_gamma 116.219603
_cell_volume 608.005367
_symmetry_space_group_name_H-M "P -1"
_symmetry_group_IT_number 2
_symmetry_cell_setting 'triclinic'
loop_
_space_group_symop_operation_xyz
x,y,z
-x,-y,-z
loop_
_atom_site_type_symbol
_atom_site_label
_atom_site_fract_x
_atom_site_fract_y
_atom_site_fract_z
Si Si1 0.889615 0.685590 0.176491
Si Si2 0.915642 0.936477 0.801780
Si Si3 0.336180 0.021188 0.239829
Si Si4 0.500000 0.500000 0.000000
Si Si5 0.385289 0.412503 0.644394
Si Si6 0.368526 0.728482 0.639331
Si Si7 0.700871 0.338017 0.773555
Si Si8 0.909220 0.541822 0.409200
O O1 0.748496 0.649520 0.260963
O O2 0.957679 0.613145 0.264022
O O3 0.990248 0.907106 0.249113
O O4 0.831407 0.551009 0.935962
O O5 0.777879 0.959237 0.843760
O O6 0.889527 0.720459 0.607497
O O7 0.000000 0.000000 0.000000
O O8 0.374217 0.202925 0.476545
O O9 0.491236 0.081602 0.207289
O O10 0.279023 0.818791 0.217624
O O11 0.490045 0.451363 0.166204
O O12 0.431127 0.646374 0.136931
O O13 0.389123 0.539685 0.568783
O O14 0.323971 0.720890 0.451294
O O15 0.231963 0.667630 0.722220
O O16 0.000000 0.500000 0.500000
#
# Coordination Sequence:
#
# PCOD9028215 Si02
#       8
#     2   2   2   1   2   2   2   2
#     4  10  24  46  66 100 141 185 232 296 346 415
#     4  12  27  46  73 104 139 190 240 291 356 425
#     4  12  25  42  73 103 139 182 239 289 354 418
#     4  10  22  42  64  98 142 178 224 280 356 408
#     4  10  22  41  72  95 141 184 230 283 355 409
#     4  11  23  45  72 105 140 184 230 293 350 429
#     4  11  25  42  71 101 141 185 235 289 354 422
#     4  11  26  46  73 103 142 188 235 291 355 416
#
# _framework density 24.670835
#
# number of rings (size 3 to 8) (size 9 to 14) (size 15 to 20)
#    0.000    1.067    4.000    2.000    3.733    1.600 
#    2.400    6.000    0.000    0.000    0.000    0.000 
#    0.000    0.000    0.000    0.000    0.000    0.000 
#
# Total GULP energy -83508.032706 kJ/mol
# GULP energy per Si atom -5567.202180 kJ/mol
# Density = 2.461468 g / cm^3
# Si number density = 24.670835 Si / 1000 Ang^3
#
#
#
# Elastic Constant Matrix: (Units=GPa)
#
#
# Indices 1 2 3 4 5 6 
#
# 1 75.5268 49.2896 16.7173 -5.7431 16.6952 -8.9490
# 2 49.2896 114.0473 28.8099 -6.0162 20.0487 -4.3709
# 3 16.7173 28.8099 102.5258 -29.7047 16.1536 -7.3868
# 4 -5.7431 -6.0162 -29.7047 39.8984 -8.4365 10.7225
# 5 16.6952 20.0487 16.1536 -8.4365 38.6821 -2.4644
# 6 -8.9490 -4.3709 -7.3868 10.7225 -2.4644 44.7859
#
#
#
# Elastic Compliance Matrix: (Units=1/GPa)
#
#
# Indices 1 2 3 4 5 6 
#
# 1 0.019463 -0.007499 -0.000240 -0.000198 -0.004270 0.002930
# 2 -0.007499 0.013031 -0.002431 -0.001404 -0.002837 -0.000448
# 3 -0.000240 -0.002431 0.013491 0.009271 -0.002274 -0.000405
# 4 -0.000198 -0.001404 0.009271 0.034362 0.004012 -0.006654
# 5 -0.004270 -0.002837 -0.002274 0.004012 0.030941 -0.000763
# 6 0.002930 -0.000448 -0.000405 -0.006654 -0.000763 0.024354
#
#
# Mechanical properties :
#
#
# Convention : Reuss Voigt Hill
#
# Bulk Modulus (GPa) = 38.99260 53.52594 46.25927
# Shear Modulus (GPa) = 30.38951 37.82551 34.10751
#
# Velocity S-wave (km/s) = 3.51351 3.91987 3.72224
# Velocity P-wave (km/s) = 5.68323 6.49848 6.10448
#
# Compressibility (1/GPa) = 0.02564589
#
# Stress axis : x y z
#
# Youngs Moduli (GPa) = 51.37929 76.74221 74.12274
#
# Poissons Ratio (x) = 0.57545 0.01778
# Poissons Ratio (y) = 0.38527 0.18019
# Poissons Ratio (z) = 0.01233 0.18656
#
# Static dielectric constant tensor:
#      x y z
#    x 2.204420 0.048680 0.046410 
#    y 0.048680 1.900780 -0.013300 
#    z 0.046410 -0.013300 2.021610 
# 
# From -- ./inp_files/241098.got.cif
#   From: 2010.05.17/outbox.cif.g08.bks.cpg/sg2_121_cif.got.tgz:241098.got - 2010.06.03 11:33:40.
