data_PCOD9028716
_publ_section_title
;
Structure prediction by ZEFSAII (Michael W. Deem and Ramdas Pophale) SiO2 
 PCOD9028716
Probable space group: P -1
;
_chemical_formula_sum "Si O2"
_cell_formula_units_Z 12
_cell_length_a 14.432032
_cell_length_b 18.155556
_cell_length_c 11.163863
_cell_angle_alpha 149.877923
_cell_angle_beta 29.552892
_cell_angle_gamma 158.932798
_cell_volume 494.723137
_symmetry_space_group_name_H-M "P -1"
_symmetry_group_IT_number 2
_symmetry_cell_setting 'triclinic'
loop_
_space_group_symop_operation_xyz
x,y,z
-x,-y,-z
loop_
_atom_site_type_symbol
_atom_site_label
_atom_site_fract_x
_atom_site_fract_y
_atom_site_fract_z
Si Si1 0.087513 0.170567 0.550841
Si Si2 0.233029 0.655438 0.555708
Si Si3 0.497491 0.391943 0.207079
Si Si4 0.615366 0.061847 0.819454
Si Si5 0.945204 0.650603 0.459118
Si Si6 0.367731 0.079640 0.715456
O O1 0.350976 0.264483 0.315041
O O2 0.194522 0.379245 0.790167
O O3 0.836401 0.056584 0.583584
O O4 0.000000 0.000000 0.500000
O O5 0.148574 0.522880 0.583419
O O6 0.498855 0.765367 0.332780
O O7 0.000000 0.500000 0.500000
O O8 0.342748 0.876108 0.787079
O O9 0.324101 0.436790 0.423351
O O10 0.434962 0.230033 0.956254
O O11 0.824042 0.271289 0.788765
O O12 0.500000 0.000000 0.000000
O O13 0.075487 0.856729 0.682791
O O14 0.500000 0.000000 0.500000
#
# Coordination Sequence:
#
# PCOD9028716 Si02
#       6
#     2   2   2   2   2   2
#     4  10  22  42  64  95 132 173 222 271 329 401
#     4  11  23  40  64  94 133 174 219 272 336 393
#     4  10  23  41  66  95 132 177 220 270 335 394
#     4  10  24  40  64  96 129 173 220 274 332 391
#     4  10  22  43  64  93 135 170 224 274 329 398
#     4  11  23  39  63  98 132 171 220 275 327 395
#
# _framework density 24.255991000000002
#
# number of rings (size 3 to 8) (size 9 to 14) (size 15 to 20)
#    0.000    1.667    1.667    1.500    2.333    5.333 
#    0.000    0.000    0.000    0.000    0.000    0.000 
#    0.000    0.000    0.000    0.000    0.000    0.000 
#
# Total GULP energy -66834.890972 kJ/mol
# GULP energy per Si atom -5569.574248 kJ/mol
# Density = 2.420078 g / cm^3
# Si number density = 24.255991 Si / 1000 Ang^3
#
#
#
# Elastic Constant Matrix: (Units=GPa)
#
#
# Indices 1 2 3 4 5 6 
#
# 1 130.4020 58.8865 30.4928 2.8292 23.7035 -12.6133
# 2 58.8865 146.7003 38.5596 5.9280 9.2019 -30.3181
# 3 30.4928 38.5596 83.6383 2.2145 29.4759 -3.1045
# 4 2.8292 5.9280 2.2145 22.5038 5.3451 12.8046
# 5 23.7035 9.2019 29.4759 5.3451 37.0047 3.8682
# 6 -12.6133 -30.3181 -3.1045 12.8046 3.8682 71.9898
#
#
#
# Elastic Compliance Matrix: (Units=1/GPa)
#
#
# Indices 1 2 3 4 5 6 
#
# 1 0.010477 -0.003787 0.000015 0.000859 -0.005948 0.000408
# 2 -0.003787 0.010332 -0.004373 -0.005071 0.003632 0.004206
# 3 0.000015 -0.004373 0.018913 0.003163 -0.014359 -0.000814
# 4 0.000859 -0.005071 0.003163 0.053566 -0.008404 -0.010925
# 5 -0.005948 0.003632 -0.014359 -0.008404 0.042679 -0.000930
# 6 0.000408 0.004206 -0.000814 -0.010925 -0.000930 0.017692
#
#
# Mechanical properties :
#
#
# Convention : Reuss Voigt Hill
#
# Bulk Modulus (GPa) = 42.67397 68.51315 55.59356
# Shear Modulus (GPa) = 28.12784 41.81978 34.97381
#
# Velocity S-wave (km/s) = 3.40902 4.15673 3.80131
# Velocity P-wave (km/s) = 5.75557 7.16555 6.49891
#
# Compressibility (1/GPa) = 0.02343349
#
# Stress axis : x y z
#
# Youngs Moduli (GPa) = 95.44537 96.78358 52.87310
#
# Poissons Ratio (x) = 0.36649 -0.00077
# Poissons Ratio (y) = 0.36142 0.23119
# Poissons Ratio (z) = -0.00139 0.42319
#
# Static dielectric constant tensor:
#      x y z
#    x 1.991280 0.013810 0.044280 
#    y 0.013810 2.012690 -0.019250 
#    z 0.044280 -0.019250 2.078600 
# 
# From -- ./inp_files/83442.got.cif
#   From: 2010.05.17/outbox.cif.g08.bks.cpg/sg2_42_cif.got.tgz:83442.got - 2010.06.03 11:33:40.
