data_PCOD9028532
_publ_section_title
;
Structure prediction by ZEFSAII (Michael W. Deem and Ramdas Pophale) SiO2 
 PCOD9028532
Probable space group: P -1
;
_chemical_formula_sum "Si O2"
_cell_formula_units_Z 16
_cell_length_a 18.569152
_cell_length_b 8.563802
_cell_length_c 8.953539
_cell_angle_alpha 111.042031
_cell_angle_beta 134.830662
_cell_angle_gamma 97.872917
_cell_volume 761.343511
_symmetry_space_group_name_H-M "P -1"
_symmetry_group_IT_number 2
_symmetry_cell_setting 'triclinic'
loop_
_space_group_symop_operation_xyz
x,y,z
-x,-y,-z
loop_
_atom_site_type_symbol
_atom_site_label
_atom_site_fract_x
_atom_site_fract_y
_atom_site_fract_z
Si Si1 0.815734 0.473085 0.406166
Si Si2 0.380209 0.928409 0.499769
Si Si3 0.213564 0.256572 0.745869
Si Si4 0.726356 0.770611 0.843060
Si Si5 0.420971 0.267626 0.870068
Si Si6 0.349814 0.620038 0.582608
Si Si7 0.341157 0.929659 0.109152
Si Si8 0.981994 0.081482 0.156878
O O1 0.757098 0.532512 0.209229
O O2 0.752205 0.469548 0.465737
O O3 0.959846 0.674461 0.690498
O O4 0.771854 0.245336 0.220987
O O5 0.326507 0.747103 0.478278
O O6 0.320796 0.857118 0.225778
O O7 0.368492 0.104681 0.603744
O O8 0.528128 0.026040 0.734894
O O9 0.311764 0.228154 0.802265
O O10 0.075288 0.089210 0.418941
O O11 0.224588 0.257143 0.938566
O O12 0.654805 0.558563 0.574468
O O13 0.647713 0.859245 0.799405
O O14 0.843394 0.940408 0.970173
O O15 0.500000 0.500000 0.000000
O O16 0.515264 0.242538 0.093317
O O17 0.000000 0.000000 0.000000
#
# Coordination Sequence:
#
# PCOD9028532 Si02
#       8
#     2   2   2   2   2   2   2   2
#     4  10  22  42  63  90 129 166 211 261 326 368
#     4  11  25  39  63  93 142 165 209 257 332 380
#     4  10  23  39  65  96 125 167 212 265 316 377
#     4  12  24  41  70  93 128 167 227 260 317 378
#     4  12  21  39  67  97 131 171 213 256 321 387
#     4  12  23  39  65  97 129 176 205 261 319 390
#     4  11  24  42  62  96 128 171 207 274 314 384
#     4  10  22  44  68  91 124 172 215 271 318 372
#
# _framework density 21.015481000000001
#
# number of rings (size 3 to 8) (size 9 to 14) (size 15 to 20)
#    0.750    0.250    3.750    3.000    3.500    4.500 
#    0.000    0.000    0.000    2.250    0.000    0.000 
#    0.000    0.000    0.000    0.000    0.000    0.000 
#
# Total GULP energy -89389.835869 kJ/mol
# GULP energy per Si atom -5586.864742 kJ/mol
# Density = 2.096765 g / cm^3
# Si number density = 21.015481 Si / 1000 Ang^3
#
#
#
# Elastic Constant Matrix: (Units=GPa)
#
#
# Indices 1 2 3 4 5 6 
#
# 1 73.5188 7.9600 16.7983 11.9266 -16.5600 2.0230
# 2 7.9600 74.2842 4.4243 5.1904 -19.4306 4.0321
# 3 16.7983 4.4243 67.2407 8.4790 -28.0335 0.2550
# 4 11.9266 5.1904 8.4790 38.2512 -4.6140 -11.0753
# 5 -16.5600 -19.4306 -28.0335 -4.6140 40.6956 2.1158
# 6 2.0230 4.0321 0.2550 -11.0753 2.1158 22.0588
#
#
#
# Elastic Compliance Matrix: (Units=1/GPa)
#
#
# Indices 1 2 3 4 5 6 
#
# 1 0.016107 0.000501 -0.000921 -0.005617 0.005779 -0.004932
# 2 0.000501 0.016516 0.003649 -0.003664 0.010497 -0.005953
# 3 -0.000921 0.003649 0.022318 -0.004527 0.016473 -0.004694
# 4 -0.005617 -0.003664 -0.004527 0.034354 -0.004241 0.018892
# 5 0.005779 0.010497 0.016473 -0.004241 0.043266 -0.008918
# 6 -0.004932 -0.005953 -0.004694 0.018892 -0.008918 0.057269
#
#
# Mechanical properties :
#
#
# Convention : Reuss Voigt Hill
#
# Bulk Modulus (GPa) = 16.28683 30.37875 23.33279
# Shear Modulus (GPa) = 24.52939 32.59185 28.56062
#
# Velocity S-wave (km/s) = 3.42015 3.94236 3.69050
# Velocity P-wave (km/s) = 4.83356 5.93377 5.41170
#
# Compressibility (1/GPa) = 0.06139931
#
# Stress axis : x y z
#
# Youngs Moduli (GPa) = 62.08612 60.54826 44.80658
#
# Poissons Ratio (x) = -0.03031 0.04125
# Poissons Ratio (y) = -0.03108 -0.16351
# Poissons Ratio (z) = 0.05715 -0.22096
#
# Static dielectric constant tensor:
#      x y z
#    x 1.721470 0.000080 0.000810 
#    y 0.000080 1.786860 0.013070 
#    z 0.000810 0.013070 1.748750 
# 
# From -- ./inp_files/217648.got.cif
#   From: 2010.05.17/outbox.cif.g08.bks.cpg/sg2_109_cif.got.tgz:217648.got - 2010.06.03 11:33:40.
