data_PCOD9028137
_publ_section_title
;
Structure prediction by ZEFSAII (Michael W. Deem and Ramdas Pophale) SiO2 
 PCOD9028137
Probable space group: P -1
;
_chemical_formula_sum "Si O2"
_cell_formula_units_Z 16
_cell_length_a 12.568716
_cell_length_b 8.738306
_cell_length_c 9.475270
_cell_angle_alpha 85.828613
_cell_angle_beta 122.844340
_cell_angle_gamma 124.795123
_cell_volume 674.383659
_symmetry_space_group_name_H-M "P -1"
_symmetry_group_IT_number 2
_symmetry_cell_setting 'triclinic'
loop_
_space_group_symop_operation_xyz
x,y,z
-x,-y,-z
loop_
_atom_site_type_symbol
_atom_site_label
_atom_site_fract_x
_atom_site_fract_y
_atom_site_fract_z
Si Si1 0.034214 0.388410 0.784008
Si Si2 0.654739 0.733544 0.647634
Si Si3 0.112527 0.236936 0.588216
Si Si4 0.564805 0.915221 0.153428
Si Si5 0.335755 0.928632 0.466319
Si Si6 0.886129 0.216349 0.220489
Si Si7 0.042599 0.201022 0.074950
Si Si8 0.475067 0.428412 0.742260
O O1 0.841118 0.290317 0.647736
O O2 0.071272 0.283867 0.704416
O O3 0.137818 0.620047 0.812339
O O4 0.074401 0.347448 0.966536
O O5 0.792544 0.711144 0.727270
O O6 0.590348 0.659341 0.767135
O O7 0.545250 0.640621 0.432289
O O8 0.716919 0.953551 0.656736
O O9 0.302818 0.348879 0.688551
O O10 0.045982 0.306029 0.421651
O O11 0.000000 0.000000 0.500000
O O12 0.471571 0.680729 0.124072
O O13 0.607981 0.007689 0.335370
O O14 0.739650 0.015036 0.202970
O O15 0.500000 0.000000 0.000000
O O16 0.500000 0.000000 0.500000
O O17 0.911077 0.169112 0.087254
O O18 0.000000 0.000000 0.000000
#
# Coordination Sequence:
#
# PCOD9028137 Si02
#       8
#     2   2   2   2   2   2   2   2
#     4  12  27  43  68 106 137 178 229 283 343 407
#     4  10  22  43  67 100 128 181 230 279 332 403
#     4  12  21  45  72  98 131 179 232 279 335 404
#     4  11  26  43  66 101 141 181 222 280 349 408
#     4  11  25  44  66  97 141 180 227 278 343 411
#     4  12  26  44  70  98 141 181 227 284 344 404
#     4  12  25  45  72  99 136 179 236 286 335 404
#     4  10  22  41  71  96 132 176 230 278 336 402
#
# _framework density 23.725366999999999
#
# number of rings (size 3 to 8) (size 9 to 14) (size 15 to 20)
#    0.000    0.750    5.000    2.250    5.250    1.000 
#    0.000    0.625    0.000    0.000    0.000    0.000 
#    0.000    0.000    0.000    0.000    0.000    0.000 
#
# Total GULP energy -89343.357382 kJ/mol
# GULP energy per Si atom -5583.959836 kJ/mol
# Density = 2.367137 g / cm^3
# Si number density = 23.725367 Si / 1000 Ang^3
#
#
#
# Elastic Constant Matrix: (Units=GPa)
#
#
# Indices 1 2 3 4 5 6 
#
# 1 120.5680 29.7927 23.1344 -13.7291 -17.8037 16.5842
# 2 29.7927 105.4638 32.4294 -38.6502 -6.1257 8.5356
# 3 23.1344 32.4294 98.5482 -44.8281 1.5541 -6.9546
# 4 -13.7291 -38.6502 -44.8281 45.6575 -1.6286 3.5157
# 5 -17.8037 -6.1257 1.5541 -1.6286 44.3594 -7.5386
# 6 16.5842 8.5356 -6.9546 3.5157 -7.5386 31.0428
#
#
#
# Elastic Compliance Matrix: (Units=1/GPa)
#
#
# Indices 1 2 3 4 5 6 
#
# 1 0.010253 -0.001656 -0.002286 -0.000084 0.003155 -0.004758
# 2 -0.001656 0.015067 0.001547 0.014143 0.001162 -0.004231
# 3 -0.002286 0.001547 0.019082 0.019131 -0.000184 0.002859
# 4 -0.000084 0.014143 0.019131 0.053101 0.002349 -0.005002
# 5 0.003155 0.001162 -0.000184 0.002349 0.024688 0.003683
# 6 -0.004758 -0.004231 0.002859 -0.005002 0.003683 0.038021
#
#
# Mechanical properties :
#
#
# Convention : Reuss Voigt Hill
#
# Bulk Modulus (GPa) = 25.24475 55.03257 40.13866
# Shear Modulus (GPa) = 28.05761 40.16017 34.10889
#
# Velocity S-wave (km/s) = 3.44263 4.11872 3.79576
# Velocity P-wave (km/s) = 5.14449 6.77233 6.01374
#
# Compressibility (1/GPa) = 0.03961220
#
# Stress axis : x y z
#
# Youngs Moduli (GPa) = 97.53623 66.37025 52.40612
#
# Poissons Ratio (x) = 0.10990 0.11979
# Poissons Ratio (y) = 0.16151 -0.08108
# Poissons Ratio (z) = 0.22294 -0.10268
#
# Static dielectric constant tensor:
#      x y z
#    x 1.951560 0.055340 0.043110 
#    y 0.055340 2.188550 0.078650 
#    z 0.043110 0.078650 1.946100 
# 
# From -- ./inp_files/243657.got.cif
#   From: 2010.05.17/outbox.cif.g08.bks.cpg/sg2_122_cif.got.tgz:243657.got - 2010.06.03 11:33:40.
