data_PCOD9028552
_publ_section_title
;
Structure prediction by ZEFSAII (Michael W. Deem and Ramdas Pophale) SiO2 
 PCOD9028552
Probable space group: P -1
;
_chemical_formula_sum "Si O2"
_cell_formula_units_Z 16
_cell_length_a 21.517116
_cell_length_b 5.317326
_cell_length_c 8.528382
_cell_angle_alpha 56.070039
_cell_angle_beta 127.040495
_cell_angle_gamma 109.918642
_cell_volume 646.224121
_symmetry_space_group_name_H-M "P -1"
_symmetry_group_IT_number 2
_symmetry_cell_setting 'triclinic'
loop_
_space_group_symop_operation_xyz
x,y,z
-x,-y,-z
loop_
_atom_site_type_symbol
_atom_site_label
_atom_site_fract_x
_atom_site_fract_y
_atom_site_fract_z
Si Si1 0.339595 0.872314 0.776603
Si Si2 0.667423 0.137614 0.879768
Si Si3 0.086766 0.037226 0.557402
Si Si4 0.814767 0.516450 0.975272
Si Si5 0.424752 0.872919 0.581043
Si Si6 0.460413 0.272041 0.750180
Si Si7 0.949242 0.789921 0.883467
Si Si8 0.214813 0.399114 0.756015
O O1 0.375583 0.769859 0.697854
O O2 0.252767 0.734041 0.691997
O O3 0.369020 0.219359 0.681407
O O4 0.367363 0.778042 0.029619
O O5 0.618331 0.085661 0.664920
O O6 0.729228 0.403241 0.839514
O O7 0.716245 0.834050 0.099736
O O8 0.076032 0.004854 0.370008
O O9 0.136906 0.341371 0.559541
O O10 0.137771 0.782147 0.802723
O O11 0.000000 0.000000 0.500000
O O12 0.806115 0.688731 0.066353
O O13 0.869516 0.683586 0.879767
O O14 0.483813 0.600017 0.730934
O O15 0.461923 0.180160 0.602141
O O16 0.500000 0.000000 0.000000
O O17 0.000000 0.500000 0.000000
O O18 0.000000 0.000000 0.000000
#
# Coordination Sequence:
#
# PCOD9028552 Si02
#       8
#     2   2   2   2   2   2   2   2
#     4   9  22  38  69  91 137 169 221 265 333 384
#     4  10  22  43  64  97 132 172 225 276 328 397
#     4  11  23  42  66  88 131 171 217 272 349 397
#     4  10  24  42  64  92 130 169 219 284 332 405
#     4  10  23  40  71  94 135 176 221 264 329 387
#     4  10  22  43  68 100 139 176 218 271 327 392
#     4  12  27  43  65  93 124 167 218 272 335 409
#     4  10  22  42  63  93 126 171 216 280 330 396
#
# _framework density 24.759212000000002
#
# number of rings (size 3 to 8) (size 9 to 14) (size 15 to 20)
#    0.750    1.000    1.250    1.875    8.750    1.000 
#    6.750    1.250    0.000    0.000    0.000    0.000 
#    0.000    0.000    0.000    0.000    0.000    0.000 
#
# Total GULP energy -89221.619003 kJ/mol
# GULP energy per Si atom -5576.351188 kJ/mol
# Density = 2.470286 g / cm^3
# Si number density = 24.759212 Si / 1000 Ang^3
#
#
#
# Elastic Constant Matrix: (Units=GPa)
#
#
# Indices 1 2 3 4 5 6 
#
# 1 146.6305 35.5961 40.2783 7.5536 -33.9165 3.4050
# 2 35.5961 104.1458 32.2291 31.1615 -12.3017 -11.4067
# 3 40.2783 32.2291 109.6564 36.2138 -12.7291 5.0607
# 4 7.5536 31.1615 36.2138 43.9848 -8.1851 -1.5005
# 5 -33.9165 -12.3017 -12.7291 -8.1851 34.2555 -1.8752
# 6 3.4050 -11.4067 5.0607 -1.5005 -1.8752 44.6129
#
#
#
# Elastic Compliance Matrix: (Units=1/GPa)
#
#
# Indices 1 2 3 4 5 6 
#
# 1 0.010318 -0.002888 -0.003441 0.004763 0.009005 -0.000597
# 2 -0.002888 0.013700 -0.000164 -0.008949 0.000050 0.003443
# 3 -0.003441 -0.000164 0.014073 -0.011126 -0.000993 -0.001791
# 4 0.004763 -0.008949 -0.011126 0.038654 0.006614 0.000189
# 5 0.009005 0.000050 -0.000993 0.006614 0.039410 0.001317
# 6 -0.000597 0.003443 -0.001791 0.000189 0.001317 0.023606
#
#
# Mechanical properties :
#
#
# Convention : Reuss Voigt Hill
#
# Bulk Modulus (GPa) = 39.83234 64.07107 51.95171
# Shear Modulus (GPa) = 31.03368 41.39260 36.21314
#
# Velocity S-wave (km/s) = 3.54421 4.09321 3.82856
# Velocity P-wave (km/s) = 5.73335 6.94788 6.36963
#
# Compressibility (1/GPa) = 0.02510523
#
# Stress axis : x y z
#
# Youngs Moduli (GPa) = 96.92082 72.99120 71.05773
#
# Poissons Ratio (x) = 0.21083 0.24451
# Poissons Ratio (y) = 0.27995 0.01162
# Poissons Ratio (z) = 0.33350 0.01193
#
# Static dielectric constant tensor:
#      x y z
#    x 2.111830 -0.125320 0.186400 
#    y -0.125320 2.224750 -0.181780 
#    z 0.186400 -0.181780 2.137270 
# 
# From -- ./inp_files/340151.got.cif
#   From: 2010.05.17/outbox.cif.g08.bks.cpg/sg2_171_cif.got.tgz:340151.got - 2010.06.03 11:33:40.
