data_PCOD9028655
_publ_section_title
;
Structure prediction by ZEFSAII (Michael W. Deem and Ramdas Pophale) SiO2 
 PCOD9028655
Probable space group: P -1
;
_chemical_formula_sum "Si O2"
_cell_formula_units_Z 14
_cell_length_a 20.999311
_cell_length_b 11.354633
_cell_length_c 14.604959
_cell_angle_alpha 32.776526
_cell_angle_beta 21.045874
_cell_angle_gamma 41.881714
_cell_volume 662.404975
_symmetry_space_group_name_H-M "P -1"
_symmetry_group_IT_number 2
_symmetry_cell_setting 'triclinic'
loop_
_space_group_symop_operation_xyz
x,y,z
-x,-y,-z
loop_
_atom_site_type_symbol
_atom_site_label
_atom_site_fract_x
_atom_site_fract_y
_atom_site_fract_z
Si Si1 0.886296 0.384534 0.517397
Si Si2 0.870043 0.366590 0.339978
Si Si3 0.826608 0.845702 0.377683
Si Si4 0.497217 0.475434 0.316908
Si Si5 0.374532 0.087288 0.037570
Si Si6 0.541628 0.990511 0.232178
Si Si7 0.134585 0.366470 0.358576
O O1 0.940479 0.412656 0.319271
O O2 0.826423 0.604348 0.492717
O O3 0.046445 0.329391 0.401229
O O4 0.714144 0.185493 0.889405
O O5 0.679514 0.449330 0.534340
O O6 0.814803 0.096287 0.580446
O O7 0.000000 0.500000 0.000000
O O8 0.855437 0.836176 0.455131
O O9 0.643600 0.930132 0.549463
O O10 0.000000 0.000000 0.000000
O O11 0.447531 0.229078 0.582967
O O12 0.589398 0.653253 0.154271
O O13 0.660129 0.496548 0.011990
O O14 0.448832 0.064849 0.851583
O O15 0.500000 0.000000 0.000000
O O16 0.000000 0.500000 0.500000
#
# Coordination Sequence:
#
# PCOD9028655 Si02
#       7
#     2   2   2   2   2   2   2
#     4  10  23  41  63  91 125 163 208 265 310 360
#     4  10  23  43  65  95 126 163 209 260 314 365
#     4  11  23  41  64  90 124 168 210 254 313 378
#     4  11  23  40  63  91 125 167 208 253 309 376
#     4   9  20  38  61  85 120 164 205 250 303 367
#     4  11  22  39  61  93 126 163 210 258 312 367
#     4  10  22  42  64  91 123 162 210 256 308 373
#
# _framework density 21.135107000000001
#
# number of rings (size 3 to 8) (size 9 to 14) (size 15 to 20)
#    0.000    1.714    0.000    5.143    0.000   10.286 
#    0.000    7.143    0.000    0.000    0.000    3.000 
#    0.000    0.000    0.000    0.000    0.000    0.000 
#
# Total GULP energy -78166.043643 kJ/mol
# GULP energy per Si atom -5583.288832 kJ/mol
# Density = 2.108700 g / cm^3
# Si number density = 21.135107 Si / 1000 Ang^3
#
#
#
# Elastic Constant Matrix: (Units=GPa)
#
#
# Indices 1 2 3 4 5 6 
#
# 1 123.4063 16.3243 40.6664 -5.1043 8.5301 -9.9983
# 2 16.3243 76.0601 27.3329 -14.7481 -0.8382 -2.7299
# 3 40.6664 27.3329 126.6842 3.6264 26.2008 -3.3385
# 4 -5.1043 -14.7481 3.6264 41.2487 -6.4773 -1.1291
# 5 8.5301 -0.8382 26.2008 -6.4773 32.4958 -1.8218
# 6 -9.9983 -2.7299 -3.3385 -1.1291 -1.8218 29.7920
#
#
#
# Elastic Compliance Matrix: (Units=1/GPa)
#
#
# Indices 1 2 3 4 5 6 
#
# 1 0.009409 -0.000612 -0.002910 0.001324 0.000284 0.002843
# 2 -0.000612 0.016506 -0.004764 0.007217 0.005945 0.001410
# 3 -0.002910 -0.004764 0.012050 -0.004727 -0.010065 -0.000857
# 4 0.001324 0.007217 -0.004727 0.028964 0.009550 0.002258
# 5 0.000284 0.005945 -0.010065 0.009550 0.041004 0.002382
# 6 0.002843 0.001410 -0.000857 0.002258 0.002382 0.034784
#
#
# Mechanical properties :
#
#
# Convention : Reuss Voigt Hill
#
# Bulk Modulus (GPa) = 46.74297 54.97753 50.86025
# Shear Modulus (GPa) = 30.04444 36.82912 33.43678
#
# Velocity S-wave (km/s) = 3.77442 4.17892 3.98181
# Velocity P-wave (km/s) = 6.41555 7.02520 6.72729
#
# Compressibility (1/GPa) = 0.02139359
#
# Stress axis : x y z
#
# Youngs Moduli (GPa) = 106.28560 60.58310 82.98801
#
# Poissons Ratio (x) = 0.03706 0.24149
# Poissons Ratio (y) = 0.06502 0.39535
# Poissons Ratio (z) = 0.30928 0.28861
#
# Static dielectric constant tensor:
#      x y z
#    x 1.778580 0.014660 -0.004880 
#    y 0.014660 1.834260 0.040860 
#    z -0.004880 0.040860 1.772470 
# 
# From -- ./inp_files/241569.got.cif
#   From: 2010.05.17/outbox.cif.g08.bks.cpg/sg2_121_cif.got.tgz:241569.got - 2010.06.03 11:33:40.
