data_PCOD9028687
_publ_section_title
;
Structure prediction by ZEFSAII (Michael W. Deem and Ramdas Pophale) SiO2 
 PCOD9028687
Probable space group: P -1
;
_chemical_formula_sum "Si O2"
_cell_formula_units_Z 14
_cell_length_a 5.160253
_cell_length_b 24.987796
_cell_length_c 5.066846
_cell_angle_alpha 120.844277
_cell_angle_beta 96.330005
_cell_angle_gamma 86.958354
_cell_volume 557.506416
_symmetry_space_group_name_H-M "P -1"
_symmetry_group_IT_number 2
_symmetry_cell_setting 'triclinic'
loop_
_space_group_symop_operation_xyz
x,y,z
-x,-y,-z
loop_
_atom_site_type_symbol
_atom_site_label
_atom_site_fract_x
_atom_site_fract_y
_atom_site_fract_z
Si Si1 0.019310 0.864951 0.223370
Si Si2 0.466185 0.373606 0.340916
Si Si3 0.823861 0.266387 0.184570
Si Si4 0.810272 0.709916 0.227528
Si Si5 0.987936 0.455276 0.636390
Si Si6 0.408524 0.959655 0.636511
Si Si7 0.303568 0.157074 0.378031
O O1 0.126689 0.934616 0.443654
O O2 0.946484 0.846669 0.466854
O O3 0.200430 0.808634 0.995444
O O4 0.782738 0.862032 0.975275
O O5 0.559130 0.305153 0.272029
O O6 0.722791 0.415539 0.485546
O O7 0.234564 0.409634 0.544973
O O8 0.352203 0.353304 0.991257
O O9 0.000566 0.288330 0.500765
O O10 0.996228 0.283010 0.986328
O O11 0.623709 0.770336 0.402986
O O12 0.000000 0.500000 0.500000
O O13 0.000000 0.500000 0.000000
O O14 0.516878 0.892624 0.580972
O O15 0.500000 0.000000 0.500000
O O16 0.500000 0.000000 0.000000
#
# Coordination Sequence:
#
# PCOD9028687 Si02
#       7
#     2   2   2   2   2   2   2
#     4  10  22  42  64  93 132 170 221 286 349 405
#     4  12  25  50  78 104 149 184 248 292 352 424
#     4  10  23  42  71 106 133 176 232 296 361 418
#     4  10  23  42  71 106 133 176 232 296 361 418
#     4  12  30  50  74 106 148 198 236 288 348 418
#     4  12  25  38  60  92 129 180 234 272 334 416
#     4  10  22  42  64  93 132 170 221 286 349 405
#
# _framework density 25.111818
#
# number of rings (size 3 to 8) (size 9 to 14) (size 15 to 20)
#    0.000    1.143    1.429    3.429    2.000    6.857 
#    0.000    8.571    0.000    0.000    0.000    0.000 
#    0.000    0.000    0.000    0.000    0.000    0.000 
#
# Total GULP energy -78265.200831 kJ/mol
# GULP energy per Si atom -5590.371488 kJ/mol
# Density = 2.505466 g / cm^3
# Si number density = 25.111818 Si / 1000 Ang^3
#
#
#
# Elastic Constant Matrix: (Units=GPa)
#
#
# Indices 1 2 3 4 5 6 
#
# 1 107.5996 35.0739 64.7361 17.5947 13.3153 -11.5197
# 2 35.0739 107.2475 59.0355 -9.9669 -4.5397 -11.6496
# 3 64.7361 59.0355 226.2379 -1.2992 20.8902 10.4419
# 4 17.5947 -9.9669 -1.2992 57.1029 8.9731 -3.2964
# 5 13.3153 -4.5397 20.8902 8.9731 33.5713 14.1998
# 6 -11.5197 -11.6496 10.4419 -3.2964 14.1998 53.5482
#
#
#
# Elastic Compliance Matrix: (Units=1/GPa)
#
#
# Indices 1 2 3 4 5 6 
#
# 1 0.013615 -0.003000 -0.002887 -0.003841 -0.004600 0.003822
# 2 -0.003000 0.012395 -0.002730 0.002662 0.003032 0.001944
# 3 -0.002887 -0.002730 0.006287 0.000877 -0.002659 -0.001682
# 4 -0.003841 0.002662 0.000877 0.020077 -0.004927 0.002124
# 5 -0.004600 0.003032 -0.002659 -0.004927 0.039469 -0.010581
# 6 0.003822 0.001944 -0.001682 0.002124 -0.010581 0.023184
#
#
# Mechanical properties :
#
#
# Convention : Reuss Voigt Hill
#
# Bulk Modulus (GPa) = 66.38935 84.30845 75.34890
# Shear Modulus (GPa) = 36.42135 47.66043 42.04089
#
# Velocity S-wave (km/s) = 3.81250 4.36125 4.09607
# Velocity P-wave (km/s) = 6.77312 7.68159 7.24161
#
# Compressibility (1/GPa) = 0.01506266
#
# Stress axis : x y z
#
# Youngs Moduli (GPa) = 73.44911 80.67728 159.06314
#
# Poissons Ratio (x) = 0.24203 0.45917
# Poissons Ratio (y) = 0.22035 0.43430
# Poissons Ratio (z) = 0.21203 0.22028
#
# Static dielectric constant tensor:
#      x y z
#    x 2.802330 -0.173660 0.325560 
#    y -0.173660 2.055440 -0.038830 
#    z 0.325560 -0.038830 2.093630 
# 
# From -- ./inp_files/14256.got.cif
#   From: 2010.05.17/outbox.cif.g08.bks.cpg/sg2_8_cif.got.tgz:14256.got - 2010.06.03 11:33:40.
