data_PCOD9028174
_publ_section_title
;
Structure prediction by ZEFSAII (Michael W. Deem and Ramdas Pophale) SiO2 
 PCOD9028174
Probable space group: P -1
;
_chemical_formula_sum "Si O2"
_cell_formula_units_Z 16
_cell_length_a 9.070940
_cell_length_b 5.688856
_cell_length_c 19.531305
_cell_angle_alpha 66.635101
_cell_angle_beta 54.932728
_cell_angle_gamma 93.436580
_cell_volume 699.526411
_symmetry_space_group_name_H-M "P -1"
_symmetry_group_IT_number 2
_symmetry_cell_setting 'triclinic'
loop_
_space_group_symop_operation_xyz
x,y,z
-x,-y,-z
loop_
_atom_site_type_symbol
_atom_site_label
_atom_site_fract_x
_atom_site_fract_y
_atom_site_fract_z
Si Si1 0.713059 0.987526 0.031830
Si Si2 0.051789 0.426629 0.283646
Si Si3 0.903368 0.658737 0.560742
Si Si4 0.632089 0.428606 0.916737
Si Si5 0.073481 0.814507 0.920553
Si Si6 0.131843 0.190851 0.749581
Si Si7 0.499869 0.328009 0.376634
Si Si8 0.342866 0.071234 0.590510
O O1 0.518279 0.761844 0.078146
O O2 0.734747 0.031395 0.102419
O O3 0.899485 0.917388 0.971762
O O4 0.728746 0.266318 0.957645
O O5 0.097748 0.444275 0.349325
O O6 0.198513 0.358411 0.200723
O O7 0.047244 0.716812 0.224040
O O8 0.833865 0.197441 0.360873
O O9 0.681570 0.606753 0.606659
O O10 0.000000 0.500000 0.500000
O O11 0.000000 0.000000 0.500000
O O12 0.500000 0.500000 0.000000
O O13 0.102832 0.896451 0.823954
O O14 0.000000 0.500000 0.000000
O O15 0.297824 0.422792 0.723218
O O16 0.230493 0.215567 0.647545
O O17 0.525025 0.040979 0.383617
O O18 0.459632 0.259901 0.476114
#
# Coordination Sequence:
#
# PCOD9028174 Si02
#       8
#     2   2   2   2   2   2   2   2
#     4  10  24  44  65  94 137 175 237 294 363 423
#     4  11  25  44  72 105 140 192 250 294 376 454
#     4  12  27  49  75 110 156 198 245 314 379 446
#     4  11  24  45  70 100 143 189 238 301 367 441
#     4  11  24  43  68  97 136 180 238 304 367 431
#     4  11  24  42  72  98 137 190 242 303 361 450
#     4  10  23  43  66 105 143 183 237 298 364 443
#     4  10  22  41  72 100 143 182 240 286 371 434
#
# _framework density 22.872619
#
# number of rings (size 3 to 8) (size 9 to 14) (size 15 to 20)
#    0.000    1.250    2.500    1.875    7.000    1.000 
#    2.250    0.000    0.000    0.000    0.000    0.000 
#    0.000    0.000    0.000    0.000    0.000    0.000 
#
# Total GULP energy -89208.006452 kJ/mol
# GULP energy per Si atom -5575.500403 kJ/mol
# Density = 2.282056 g / cm^3
# Si number density = 22.872619 Si / 1000 Ang^3
#
#
#
# Elastic Constant Matrix: (Units=GPa)
#
#
# Indices 1 2 3 4 5 6 
#
# 1 142.4615 39.0583 34.4968 -8.6549 15.3392 -23.7058
# 2 39.0583 82.3877 32.1326 7.8131 12.1704 -20.5006
# 3 34.4968 32.1326 113.3506 5.4980 16.4196 -10.4138
# 4 -8.6549 7.8131 5.4980 37.2877 -7.5536 -4.2075
# 5 15.3392 12.1704 16.4196 -7.5536 28.2980 0.6664
# 6 -23.7058 -20.5006 -10.4138 -4.2075 0.6664 35.9955
#
#
#
# Elastic Compliance Matrix: (Units=1/GPa)
#
#
# Indices 1 2 3 4 5 6 
#
# 1 0.009292 -0.002621 -0.001462 0.002958 -0.002380 0.004594
# 2 -0.002621 0.017369 -0.002402 -0.004304 -0.005971 0.007078
# 3 -0.001462 -0.002402 0.010866 -0.002408 -0.005137 0.000627
# 4 0.002958 -0.004304 -0.002408 0.031015 0.009871 0.002242
# 5 -0.002380 -0.005971 -0.005137 0.009871 0.044957 -0.006133
# 6 0.004594 0.007078 0.000627 0.002242 -0.006133 0.035395
#
#
# Mechanical properties :
#
#
# Convention : Reuss Voigt Hill
#
# Bulk Modulus (GPa) = 40.71920 61.06391 50.89156
# Shear Modulus (GPa) = 29.40320 35.81707 32.61013
#
# Velocity S-wave (km/s) = 3.58930 3.96148 3.77998
# Velocity P-wave (km/s) = 5.91766 6.90506 6.43034
#
# Compressibility (1/GPa) = 0.02455844
#
# Stress axis : x y z
#
# Youngs Moduli (GPa) = 107.61476 57.57481 92.02605
#
# Poissons Ratio (x) = 0.15091 0.13451
# Poissons Ratio (y) = 0.28206 0.22104
# Poissons Ratio (z) = 0.15729 0.13829
#
# Static dielectric constant tensor:
#      x y z
#    x 1.860940 0.024360 -0.022530 
#    y 0.024360 1.981630 -0.007560 
#    z -0.022530 -0.007560 1.972940 
# 
# From -- ./inp_files/99857.got.cif
#   From: 2010.05.17/outbox.cif.g08.bks.cpg/sg2_50_cif.got.tgz:99857.got - 2010.06.03 11:33:40.
