data_PCOD9028756
_publ_section_title
;
Structure prediction by ZEFSAII (Michael W. Deem and Ramdas Pophale) SiO2 
 PCOD9028756
Probable space group: P -1
;
_chemical_formula_sum "Si O2"
_cell_formula_units_Z 16
_cell_length_a 21.113746
_cell_length_b 22.967558
_cell_length_c 9.523731
_cell_angle_alpha 140.934484
_cell_angle_beta 150.371281
_cell_angle_gamma 18.543753
_cell_volume 691.916311
_symmetry_space_group_name_H-M "P -1"
_symmetry_group_IT_number 2
_symmetry_cell_setting 'triclinic'
loop_
_space_group_symop_operation_xyz
x,y,z
-x,-y,-z
loop_
_atom_site_type_symbol
_atom_site_label
_atom_site_fract_x
_atom_site_fract_y
_atom_site_fract_z
Si Si1 0.444417 0.329494 0.678830
Si Si2 0.070700 0.248778 0.611699
Si Si3 0.250900 0.723303 0.983840
Si Si4 0.903243 0.158078 0.775876
Si Si5 0.126887 0.509772 0.829952
Si Si6 0.219675 0.140641 0.376174
Si Si7 0.372011 0.737393 0.801412
Si Si8 0.732996 0.768136 0.784101
O O1 0.201276 0.520381 0.476041
O O2 0.390210 0.255191 0.460462
O O3 0.706169 0.205056 0.874371
O O4 0.451760 0.378541 0.935213
O O5 0.998222 0.185612 0.366293
O O6 0.166707 0.204003 0.553863
O O7 0.249498 0.178279 0.946017
O O8 0.500000 0.500000 0.000000
O O9 0.245141 0.744026 0.178534
O O10 0.712236 0.288892 0.518146
O O11 0.089476 0.951677 0.719332
O O12 0.122319 0.098270 0.092587
O O13 0.000000 0.500000 0.500000
O O14 0.971427 0.686435 0.774795
O O15 0.024635 0.575753 0.916004
O O16 0.440746 0.317580 0.041839
O O17 0.539113 0.936014 0.607687
#
# Coordination Sequence:
#
# PCOD9028756 Si02
#       8
#     2   2   2   2   2   2   2   2
#     4  11  21  43  65  96 136 175 223 275 333 398
#     4  10  22  42  64  98 130 176 221 276 333 401
#     4   9  22  41  67  97 135 171 223 277 334 398
#     4  10  23  44  68  97 133 174 226 278 336 400
#     4  12  24  42  66  95 134 178 222 274 336 400
#     4  11  22  45  66  94 135 174 220 282 334 399
#     4  11  23  42  67  96 133 176 225 274 337 396
#     4  12  24  40  68  98 135 176 223 274 337 396
#
# _framework density 23.124184
#
# number of rings (size 3 to 8) (size 9 to 14) (size 15 to 20)
#    0.000    1.250    3.750    1.125    3.500    2.000 
#    0.000    1.250    0.000    0.000    0.000    0.000 
#    0.000    0.000    0.000    0.000    0.000    0.000 
#
# Total GULP energy -89201.106794 kJ/mol
# GULP energy per Si atom -5575.069175 kJ/mol
# Density = 2.307155 g / cm^3
# Si number density = 23.124184 Si / 1000 Ang^3
#
#
#
# Elastic Constant Matrix: (Units=GPa)
#
#
# Indices 1 2 3 4 5 6 
#
# 1 66.4564 26.0388 51.3897 14.1725 -3.8201 -21.4274
# 2 26.0388 63.2970 19.3699 -0.8460 -1.0785 -22.8671
# 3 51.3897 19.3699 133.7161 11.7075 -32.0990 -9.7835
# 4 14.1725 -0.8460 11.7075 26.0419 -11.2553 -5.7804
# 5 -3.8201 -1.0785 -32.0990 -11.2553 31.5488 -1.1080
# 6 -21.4274 -22.8671 -9.7835 -5.7804 -1.1080 44.3009
#
#
#
# Elastic Compliance Matrix: (Units=1/GPa)
#
#
# Indices 1 2 3 4 5 6 
#
# 1 0.033703 -0.007867 -0.013677 -0.018071 -0.016324 0.006454
# 2 -0.007867 0.022275 0.000622 0.008339 0.003734 0.009012
# 3 -0.013677 0.000622 0.016048 0.007424 0.017294 -0.001349
# 4 -0.018071 0.008339 0.007424 0.057805 0.026463 0.005408
# 5 -0.016324 0.003734 0.017294 0.026463 0.056980 0.002729
# 6 0.006454 0.009012 -0.001349 0.005408 0.002729 0.030822
#
#
# Mechanical properties :
#
#
# Convention : Reuss Voigt Hill
#
# Bulk Modulus (GPa) = 33.13340 50.78515 41.95927
# Shear Modulus (GPa) = 18.55027 31.48972 25.02000
#
# Velocity S-wave (km/s) = 2.83539 3.69421 3.29292
# Velocity P-wave (km/s) = 5.00788 6.34081 5.71335
#
# Compressibility (1/GPa) = 0.03018102
#
# Stress axis : x y z
#
# Youngs Moduli (GPa) = 29.67116 44.89308 62.31479
#
# Poissons Ratio (x) = 0.35318 0.85230
# Poissons Ratio (y) = 0.23343 -0.03877
# Poissons Ratio (z) = 0.40582 -0.02793
#
# Static dielectric constant tensor:
#      x y z
#    x 1.857060 -0.076690 0.015750 
#    y -0.076690 1.973030 -0.045030 
#    z 0.015750 -0.045030 1.855900 
# 
# From -- ./inp_files/350024.got.cif
#   From: 2010.05.17/outbox.cif.g08.bks.cpg/sg2_176_cif.got.tgz:350024.got - 2010.06.03 11:33:40.
