data_PCOD9028926
_publ_section_title
;
Structure prediction by ZEFSAII (Michael W. Deem and Ramdas Pophale) SiO2 
 PCOD9028926
Probable space group: P -1
;
_chemical_formula_sum "Si O2"
_cell_formula_units_Z 16
_cell_length_a 8.641970
_cell_length_b 8.050929
_cell_length_c 16.124959
_cell_angle_alpha 96.655143
_cell_angle_beta 74.367138
_cell_angle_gamma 139.120602
_cell_volume 700.189850
_symmetry_space_group_name_H-M "P -1"
_symmetry_group_IT_number 2
_symmetry_cell_setting 'triclinic'
loop_
_space_group_symop_operation_xyz
x,y,z
-x,-y,-z
loop_
_atom_site_type_symbol
_atom_site_label
_atom_site_fract_x
_atom_site_fract_y
_atom_site_fract_z
Si Si1 0.567427 0.284690 0.653698
Si Si2 0.374611 0.785319 0.723582
Si Si3 0.308314 0.717328 0.047244
Si Si4 0.831989 0.953957 0.637696
Si Si5 0.128167 0.443259 0.217819
Si Si6 0.744584 0.599517 0.503929
Si Si7 0.089715 0.076111 0.771627
Si Si8 0.206328 0.489125 0.886959
O O1 0.755833 0.500890 0.707271
O O2 0.666103 0.370404 0.550944
O O3 0.326553 0.210367 0.690886
O O4 0.494672 0.048982 0.687729
O O5 0.549067 0.785738 0.657115
O O6 0.378819 0.739359 0.817457
O O7 0.084618 0.585733 0.739359
O O8 0.326015 0.661195 0.134480
O O9 0.050775 0.614113 0.079371
O O10 0.299784 0.562390 0.971682
O O11 0.500000 0.000000 0.000000
O O12 0.855355 0.802448 0.573613
O O13 0.038029 0.239301 0.585072
O O14 0.894011 0.987303 0.727578
O O15 0.005639 0.172890 0.189296
O O16 0.500000 0.500000 0.500000
O O17 0.164550 0.278369 0.837069
#
# Coordination Sequence:
#
# PCOD9028926 Si02
#       8
#     2   2   2   2   2   2   2   2
#     4  11  22  42  65  94 133 169 213 269 326 378
#     4  10  24  39  66  95 126 172 218 260 318 386
#     4  10  22  42  65  95 132 170 211 268 325 376
#     4  11  24  40  67  97 125 172 221 261 321 389
#     4  10  23  42  64  96 132 169 211 272 325 378
#     4  11  23  42  66  94 130 171 214 271 323 376
#     4  11  23  40  67  95 128 174 218 262 319 388
#     4  10  23  40  65  96 128 171 219 261 315 390
#
# _framework density 22.850947000000001
#
# number of rings (size 3 to 8) (size 9 to 14) (size 15 to 20)
#    0.000    1.500    2.500    1.500    5.250    2.000 
#    0.000    2.500    0.000    0.000    0.000    0.000 
#    0.000    0.000    0.000    0.000    0.000    0.000 
#
# Total GULP energy -89314.603913 kJ/mol
# GULP energy per Si atom -5582.162745 kJ/mol
# Density = 2.279894 g / cm^3
# Si number density = 22.850947 Si / 1000 Ang^3
#
#
#
# Elastic Constant Matrix: (Units=GPa)
#
#
# Indices 1 2 3 4 5 6 
#
# 1 54.9119 23.1084 33.3974 -10.3849 2.5064 -4.4689
# 2 23.1084 51.8655 32.1018 -12.1095 -2.4373 -0.0117
# 3 33.3974 32.1018 105.2979 -32.0516 10.0671 -1.9321
# 4 -10.3849 -12.1095 -32.0516 45.6509 -1.5729 -3.5404
# 5 2.5064 -2.4373 10.0671 -1.5729 29.4276 6.4068
# 6 -4.4689 -0.0117 -1.9321 -3.5404 6.4068 24.8308
#
#
#
# Elastic Compliance Matrix: (Units=1/GPa)
#
#
# Indices 1 2 3 4 5 6 
#
# 1 0.025304 -0.008093 -0.005197 0.000255 -0.002060 0.004714
# 2 -0.008093 0.027108 -0.005969 0.001106 0.005739 -0.003231
# 3 -0.005197 -0.005969 0.016209 0.008652 -0.005799 0.003053
# 4 0.000255 0.001106 0.008652 0.028667 -0.002547 0.005464
# 5 -0.002060 0.005739 -0.005799 -0.002547 0.038924 -0.011226
# 6 0.004714 -0.003231 0.003053 0.005464 -0.011226 0.045032
#
#
# Mechanical properties :
#
#
# Convention : Reuss Voigt Hill
#
# Bulk Modulus (GPa) = 33.22010 43.25452 38.23731
# Shear Modulus (GPa) = 21.75837 28.21303 24.98570
#
# Velocity S-wave (km/s) = 3.08910 3.51758 3.31028
# Velocity P-wave (km/s) = 5.22424 5.95549 5.60181
#
# Compressibility (1/GPa) = 0.03010226
#
# Stress axis : x y z
#
# Youngs Moduli (GPa) = 39.51998 36.88937 61.69502
#
# Poissons Ratio (x) = 0.29856 0.32063
# Poissons Ratio (y) = 0.31985 0.36823
# Poissons Ratio (z) = 0.20539 0.22018
#
# Static dielectric constant tensor:
#      x y z
#    x 1.831750 -0.016540 0.002390 
#    y -0.016540 1.943620 -0.017530 
#    z 0.002390 -0.017530 1.839530 
# 
# From -- ./inp_files/39188.got.cif
#   From: 2010.05.17/outbox.cif.g08.bks.cpg/sg2_20_cif.got.tgz:39188.got - 2010.06.03 11:33:40.
