data_PCOD9028207
_publ_section_title
;
Structure prediction by ZEFSAII (Michael W. Deem and Ramdas Pophale) SiO2 
 PCOD9028207
Probable space group: P -1
;
_chemical_formula_sum "Si O2"
_cell_formula_units_Z 16
_cell_length_a 8.709732
_cell_length_b 24.120593
_cell_length_c 7.629295
_cell_angle_alpha 106.765495
_cell_angle_beta 109.933576
_cell_angle_gamma 133.192093
_cell_volume 712.245264
_symmetry_space_group_name_H-M "P -1"
_symmetry_group_IT_number 2
_symmetry_cell_setting 'triclinic'
loop_
_space_group_symop_operation_xyz
x,y,z
-x,-y,-z
loop_
_atom_site_type_symbol
_atom_site_label
_atom_site_fract_x
_atom_site_fract_y
_atom_site_fract_z
Si Si1 0.907799 0.278810 0.953453
Si Si2 0.061222 0.450282 0.107549
Si Si3 0.383630 0.665862 0.849932
Si Si4 0.791099 0.883357 0.387562
Si Si5 0.898119 0.120126 0.258640
Si Si6 0.728274 0.707618 0.723080
Si Si7 0.862005 0.686826 0.294204
Si Si8 0.915557 0.574055 0.294907
O O1 0.539187 0.189042 0.733790
O O2 0.955988 0.262803 0.773399
O O3 0.122873 0.403922 0.158129
O O4 0.023106 0.269379 0.135374
O O5 0.408200 0.589959 0.379666
O O6 0.791764 0.395615 0.084009
O O7 0.053262 0.594666 0.178152
O O8 0.571553 0.675019 0.821306
O O9 0.096421 0.599488 0.548738
O O10 0.655235 0.799001 0.107258
O O11 0.975938 0.898392 0.609984
O O12 0.000000 0.000000 0.500000
O O13 0.067296 0.178158 0.185719
O O14 0.037377 0.221652 0.497587
O O15 0.500000 0.000000 0.000000
O O16 0.954757 0.655562 0.401220
O O17 0.471910 0.559598 0.989164
#
# Coordination Sequence:
#
# PCOD9028207 Si02
#       8
#     2   2   2   2   2   2   2   2
#     4  10  23  42  71  99 140 194 237 288 365 426
#     4  10  22  42  69 105 155 188 237 287 362 430
#     4  11  26  41  74 106 146 188 244 287 374 416
#     4  11  27  51  72  99 144 191 245 305 360 429
#     4  12  28  46  73 106 142 190 246 304 355 421
#     4  12  24  42  70 107 146 190 240 295 357 431
#     4  10  22  43  70 102 150 182 245 288 362 423
#     4  10  22  41  72 110 145 198 225 299 358 430
#
# _framework density 22.464172000000001
#
# number of rings (size 3 to 8) (size 9 to 14) (size 15 to 20)
#    0.000    1.250    1.250    3.000   10.500    3.500 
#    0.000    3.750    0.000    0.000    0.000    0.000 
#    0.000    0.000    0.000    0.000    0.000    0.000 
#
# Total GULP energy -89516.920155 kJ/mol
# GULP energy per Si atom -5594.807510 kJ/mol
# Density = 2.241304 g / cm^3
# Si number density = 22.464172 Si / 1000 Ang^3
#
#
#
# Elastic Constant Matrix: (Units=GPa)
#
#
# Indices 1 2 3 4 5 6 
#
# 1 103.5498 54.4088 44.6748 -25.3644 21.3921 -7.7375
# 2 54.4088 137.7497 48.2212 4.9353 11.9390 -12.3743
# 3 44.6748 48.2212 83.1883 9.3742 22.3854 -10.3994
# 4 -25.3644 4.9353 9.3742 33.5103 -3.8454 -4.7499
# 5 21.3921 11.9390 22.3854 -3.8454 39.6803 -9.8242
# 6 -7.7375 -12.3743 -10.3994 -4.7499 -9.8242 37.8685
#
#
#
# Elastic Compliance Matrix: (Units=1/GPa)
#
#
# Indices 1 2 3 4 5 6 
#
# 1 0.023128 -0.005812 -0.010628 0.021377 -0.002150 0.002032
# 2 -0.005812 0.010681 -0.002707 -0.004885 0.001290 0.001281
# 3 -0.010628 -0.002707 0.023103 -0.015145 -0.008136 -0.000722
# 4 0.021377 -0.004885 -0.015145 0.052502 0.005198 0.006546
# 5 -0.002150 0.001290 -0.008136 0.005198 0.032775 0.006903
# 6 0.002032 0.001281 -0.000722 0.006546 0.006903 0.029655
#
#
# Mechanical properties :
#
#
# Convention : Reuss Voigt Hill
#
# Bulk Modulus (GPa) = 53.70849 68.78860 61.24854
# Shear Modulus (GPa) = 23.11133 34.02403 28.56768
#
# Velocity S-wave (km/s) = 3.21098 3.89600 3.56996
# Velocity P-wave (km/s) = 6.14065 7.13627 6.65710
#
# Compressibility (1/GPa) = 0.01861903
#
# Stress axis : x y z
#
# Youngs Moduli (GPa) = 43.23705 93.62458 43.28393
#
# Poissons Ratio (x) = 0.54413 0.46003
# Poissons Ratio (y) = 0.25129 0.11716
# Poissons Ratio (z) = 0.45953 0.25342
#
# Static dielectric constant tensor:
#      x y z
#    x 1.874370 0.000880 -0.007070 
#    y 0.000880 1.883250 -0.004130 
#    z -0.007070 -0.004130 1.821300 
# 
# From -- ./inp_files/226342.got.cif
#   From: 2010.05.17/outbox.cif.g08.bks.cpg/sg2_114_cif.got.tgz:226342.got - 2010.06.03 11:33:40.
