data_PCOD9028867
_publ_section_title
;
Structure prediction by ZEFSAII (Michael W. Deem and Ramdas Pophale) SiO2 
 PCOD9028867
Probable space group: P -1
;
_chemical_formula_sum "Si O2"
_cell_formula_units_Z 16
_cell_length_a 17.157910
_cell_length_b 13.856338
_cell_length_c 9.526082
_cell_angle_alpha 147.169868
_cell_angle_beta 143.951955
_cell_angle_gamma 37.930024
_cell_volume 678.759563
_symmetry_space_group_name_H-M "P -1"
_symmetry_group_IT_number 2
_symmetry_cell_setting 'triclinic'
loop_
_space_group_symop_operation_xyz
x,y,z
-x,-y,-z
loop_
_atom_site_type_symbol
_atom_site_label
_atom_site_fract_x
_atom_site_fract_y
_atom_site_fract_z
Si Si1 0.689794 0.024077 0.112138
Si Si2 0.932328 0.161219 0.303015
Si Si3 0.329913 0.422668 0.857410
Si Si4 0.387335 0.062559 0.679677
Si Si5 0.626474 0.181963 0.900396
Si Si6 0.787890 0.154540 0.680402
Si Si7 0.975858 0.696642 0.127938
Si Si8 0.947759 0.517775 0.604174
O O1 0.812852 0.823812 0.058929
O O2 0.672422 0.086388 0.001518
O O3 0.739333 0.157826 0.451935
O O4 0.535894 0.021950 0.922695
O O5 0.770713 0.202624 0.080229
O O6 0.980705 0.313965 0.475631
O O7 0.942137 0.198643 0.530149
O O8 0.044862 0.953668 0.186090
O O9 0.331900 0.281126 0.816598
O O10 0.221758 0.394610 0.550638
O O11 0.587107 0.052538 0.570639
O O12 0.487389 0.361543 0.949504
O O13 0.284349 0.985540 0.523979
O O14 0.271449 0.637800 0.087387
O O15 0.006074 0.645087 0.946026
O O16 0.000000 0.500000 0.000000
O O17 0.000000 0.500000 0.500000
#
# Coordination Sequence:
#
# PCOD9028867 Si02
#       8
#     2   2   2   2   2   2   2   2
#     4  10  22  42  65  92 130 176 217 270 332 386
#     4  10  24  43  63  95 134 174 218 269 330 393
#     4  11  25  42  68 101 131 173 223 270 328 392
#     4  11  23  43  68  97 133 171 219 276 330 387
#     4  11  24  43  67  93 132 176 220 269 324 396
#     4  11  25  43  67  99 134 171 218 275 332 387
#     4   9  20  39  63  92 127 171 220 263 320 393
#     4  11  22  39  67  98 131 171 220 276 330 386
#
# _framework density 23.572413000000001
#
# number of rings (size 3 to 8) (size 9 to 14) (size 15 to 20)
#    0.000    1.500    0.000    4.875    0.000   13.000 
#    0.000    3.750    0.000    0.000    0.000    0.000 
#    0.000    0.000    0.000    0.000    0.000    0.000 
#
# Total GULP energy -89540.850939 kJ/mol
# GULP energy per Si atom -5596.303184 kJ/mol
# Density = 2.351876 g / cm^3
# Si number density = 23.572413 Si / 1000 Ang^3
#
#
#
# Elastic Constant Matrix: (Units=GPa)
#
#
# Indices 1 2 3 4 5 6 
#
# 1 101.3782 41.2807 32.2270 7.1016 -8.6672 6.3707
# 2 41.2807 158.1752 59.9447 1.5872 -0.7192 -21.6137
# 3 32.2270 59.9447 125.5612 -9.6744 -16.2920 -13.8127
# 4 7.1016 1.5872 -9.6744 33.1829 1.7207 0.8086
# 5 -8.6672 -0.7192 -16.2920 1.7207 45.3916 -4.3906
# 6 6.3707 -21.6137 -13.8127 0.8086 -4.3906 29.4657
#
#
#
# Elastic Compliance Matrix: (Units=1/GPa)
#
#
# Indices 1 2 3 4 5 6 
#
# 1 0.012618 -0.003114 -0.002524 -0.003194 0.000999 -0.005959
# 2 -0.003114 0.009100 -0.003095 -0.000761 -0.000974 0.005773
# 3 -0.002524 -0.003095 0.011309 0.003691 0.003779 0.004038
# 4 -0.003194 -0.000761 0.003691 0.031931 -0.000418 0.000924
# 5 0.000999 -0.000974 0.003779 -0.000418 0.024006 0.004429
# 6 -0.005959 0.005773 0.004038 0.000924 0.004429 0.041989
#
#
# Mechanical properties :
#
#
# Convention : Reuss Voigt Hill
#
# Bulk Modulus (GPa) = 64.26664 72.44660 68.35662
# Shear Modulus (GPa) = 32.55087 38.38552 35.46819
#
# Velocity S-wave (km/s) = 3.72006 4.03973 3.88319
# Velocity P-wave (km/s) = 6.76569 7.24980 7.01192
#
# Compressibility (1/GPa) = 0.01556017
#
# Stress axis : x y z
#
# Youngs Moduli (GPa) = 79.25135 109.89126 88.42864
#
# Poissons Ratio (x) = 0.34223 0.22318
# Poissons Ratio (y) = 0.24681 0.27369
# Poissons Ratio (z) = 0.20002 0.34012
#
# Static dielectric constant tensor:
#      x y z
#    x 1.965490 0.000690 0.021110 
#    y 0.000690 1.848780 0.003560 
#    z 0.021110 0.003560 1.905980 
# 
# From -- ./inp_files/314159.got.cif
#   From: 2010.05.17/outbox.cif.g08.bks.cpg/sg2_158_cif.got.tgz:314159.got - 2010.06.03 11:33:40.
