data_PCOD9028263
_publ_section_title
;
Structure prediction by ZEFSAII (Michael W. Deem and Ramdas Pophale) SiO2 
 PCOD9028263
Probable space group: P -1
;
_chemical_formula_sum "Si O2"
_cell_formula_units_Z 14
_cell_length_a 15.916875
_cell_length_b 7.679006
_cell_length_c 9.180072
_cell_angle_alpha 54.849042
_cell_angle_beta 45.891128
_cell_angle_gamma 85.520430
_cell_volume 550.347630
_symmetry_space_group_name_H-M "P -1"
_symmetry_group_IT_number 2
_symmetry_cell_setting 'triclinic'
loop_
_space_group_symop_operation_xyz
x,y,z
-x,-y,-z
loop_
_atom_site_type_symbol
_atom_site_label
_atom_site_fract_x
_atom_site_fract_y
_atom_site_fract_z
Si Si1 0.979911 0.093719 0.204012
Si Si2 0.704911 0.757317 0.883314
Si Si3 0.784373 0.238229 0.695251
Si Si4 0.651550 0.214540 0.266529
Si Si5 0.557756 0.278176 0.866399
Si Si6 0.070044 0.742198 0.128077
Si Si7 0.246031 0.595060 0.655134
O O1 0.849552 0.910201 0.549130
O O2 0.043437 0.933378 0.152921
O O3 0.936329 0.185349 0.068786
O O4 0.106203 0.349358 0.003678
O O5 0.723635 0.939586 0.910184
O O6 0.673746 0.487968 0.095747
O O7 0.574418 0.704600 0.966201
O O8 0.667534 0.303513 0.843277
O O9 0.939174 0.452701 0.454228
O O10 0.797268 0.292789 0.477499
O O11 0.667649 0.196101 0.429004
O O12 0.500000 0.000000 0.500000
O O13 0.780807 0.215384 0.039596
O O14 0.656630 0.469647 0.524415
O O15 0.500000 0.000000 0.000000
#
# Coordination Sequence:
#
# PCOD9028263 Si02
#       7
#     2   2   2   2   2   2   2
#     4  10  22  41  73  95 117 169 215 264 306 362
#     4  11  22  40  63  97 128 163 212 253 319 376
#     4   8  18  41  71  91 116 163 214 259 299 366
#     4  12  28  42  58  93 135 169 204 259 321 382
#     4   8  18  38  66 100 120 154 216 261 304 369
#     4  10  22  43  64  96 131 158 212 261 313 368
#     4   9  20  43  68  89 123 171 207 253 314 370
#
# _framework density 25.438466999999999
#
# number of rings (size 3 to 8) (size 9 to 14) (size 15 to 20)
#    0.857    1.429    0.000    1.714    2.000    5.714 
#    5.143    3.571    0.000    0.000    0.000    0.000 
#    0.000    0.000    0.000    0.000    0.000    0.000 
#
# Total GULP energy -78281.700508 kJ/mol
# GULP energy per Si atom -5591.550036 kJ/mol
# Density = 2.538057 g / cm^3
# Si number density = 25.438467 Si / 1000 Ang^3
#
#
#
# Elastic Constant Matrix: (Units=GPa)
#
#
# Indices 1 2 3 4 5 6 
#
# 1 118.8932 40.4801 49.3923 -6.3389 -42.7570 -10.2377
# 2 40.4801 82.2799 31.5194 -8.6765 -21.5231 -26.1675
# 3 49.3923 31.5194 141.3461 -3.8955 -40.1762 -14.4902
# 4 -6.3389 -8.6765 -3.8955 35.3144 -2.2957 -0.8921
# 5 -42.7570 -21.5231 -40.1762 -2.2957 53.1355 0.4066
# 6 -10.2377 -26.1675 -14.4902 -0.8921 0.4066 42.7379
#
#
#
# Elastic Compliance Matrix: (Units=1/GPa)
#
#
# Indices 1 2 3 4 5 6 
#
# 1 0.013320 -0.003449 -0.001403 0.001945 0.008339 0.000564
# 2 -0.003449 0.019212 -0.000491 0.004629 0.004752 0.010821
# 3 -0.001403 -0.000491 0.009688 0.001154 0.006026 0.002614
# 4 0.001945 0.004629 0.001154 0.030402 0.005593 0.004273
# 5 0.008339 0.004752 0.006026 0.005593 0.032202 0.006761
# 6 0.000564 0.010821 0.002614 0.004273 0.006761 0.031071
#
#
# Mechanical properties :
#
#
# Convention : Reuss Voigt Hill
#
# Bulk Modulus (GPa) = 31.71483 65.03364 48.37423
# Shear Modulus (GPa) = 31.82852 40.97938 36.40395
#
# Velocity S-wave (km/s) = 3.54106 4.01798 3.78704
# Velocity P-wave (km/s) = 5.40492 6.86631 6.17897
#
# Compressibility (1/GPa) = 0.03153099
#
# Stress axis : x y z
#
# Youngs Moduli (GPa) = 75.07651 52.05195 103.22550
#
# Poissons Ratio (x) = 0.17955 0.14487
# Poissons Ratio (y) = 0.25897 0.05068
# Poissons Ratio (z) = 0.10537 0.02556
#
# Static dielectric constant tensor:
#      x y z
#    x 2.132040 0.055550 0.042100 
#    y 0.055550 2.050240 0.078420 
#    z 0.042100 0.078420 2.048810 
# 
# From -- ./inp_files/207361.got.cif
#   From: 2010.05.17/outbox.cif.g08.bks.cpg/sg2_104_cif.got.tgz:207361.got - 2010.06.03 11:33:40.
