data_PCOD9028761
_publ_section_title
;
Structure prediction by ZEFSAII (Michael W. Deem and Ramdas Pophale) SiO2 
 PCOD9028761
Probable space group: P -1
;
_chemical_formula_sum "Si O2"
_cell_formula_units_Z 15
_cell_length_a 11.657603
_cell_length_b 6.742698
_cell_length_c 9.688151
_cell_angle_alpha 111.324747
_cell_angle_beta 57.070259
_cell_angle_gamma 97.241984
_cell_volume 592.910972
_symmetry_space_group_name_H-M "P -1"
_symmetry_group_IT_number 2
_symmetry_cell_setting 'triclinic'
loop_
_space_group_symop_operation_xyz
x,y,z
-x,-y,-z
loop_
_atom_site_type_symbol
_atom_site_label
_atom_site_fract_x
_atom_site_fract_y
_atom_site_fract_z
Si Si1 0.211301 0.742427 0.459427
Si Si2 0.114984 0.831258 0.821399
Si Si3 0.508416 0.463075 0.647193
Si Si4 0.716894 0.804741 0.144395
Si Si5 0.904490 0.842638 0.448308
Si Si6 0.382440 0.906034 0.965929
Si Si7 0.867263 0.352885 0.941015
Si Si8 0.000000 0.500000 0.500000
O O1 0.089704 0.746585 0.662237
O O2 0.346219 0.627572 0.408028
O O3 0.132258 0.607218 0.367143
O O4 0.221931 0.986508 0.468348
O O5 0.237536 0.982986 0.758420
O O6 0.145325 0.672195 0.888989
O O7 0.000000 0.000000 0.000000
O O8 0.500000 0.500000 0.500000
O O9 0.402526 0.297508 0.722848
O O10 0.460522 0.695227 0.795251
O O11 0.670244 0.903034 0.053421
O O12 0.831939 0.604576 0.000371
O O13 0.984246 0.738701 0.236051
O O14 0.888691 0.664697 0.526462
O O15 0.000000 0.000000 0.500000
O O16 0.244843 0.802301 0.082287
O O17 0.500000 0.000000 0.000000
#
# Coordination Sequence:
#
# PCOD9028761 Si02
#       8
#     2   2   2   2   2   2   2   1
#     4  11  24  43  68 101 139 174 227 277 341 410
#     4  11  23  42  69 101 133 171 224 278 339 406
#     4  11  25  47  70 102 140 182 236 279 342 412
#     4  10  24  42  69  97 135 181 221 285 338 397
#     4  10  23  40  61  93 132 176 218 270 332 401
#     4  10  24  42  68  99 131 179 229 280 334 400
#     4  10  22  42  64  98 134 170 225 275 341 409
#     4  10  26  42  62  96 136 180 218 272 342 394
#
# _framework density 25.298908000000001
#
# number of rings (size 3 to 8) (size 9 to 14) (size 15 to 20)
#    0.000    1.600    1.333    2.400    1.867   15.467 
#    0.000    0.000    0.000    0.000    0.000    0.000 
#    0.000    0.000    0.000    0.000    0.000    0.000 
#
# Total GULP energy -83642.962867 kJ/mol
# GULP energy per Si atom -5576.197524 kJ/mol
# Density = 2.524133 g / cm^3
# Si number density = 25.298908 Si / 1000 Ang^3
#
#
#
# Elastic Constant Matrix: (Units=GPa)
#
#
# Indices 1 2 3 4 5 6 
#
# 1 81.4980 41.8225 1.4792 3.0377 -13.6940 -15.9302
# 2 41.8225 228.1170 36.1696 -1.0241 -6.2120 -32.3727
# 3 1.4792 36.1696 70.8724 -1.3860 -9.6544 -3.2512
# 4 3.0377 -1.0241 -1.3860 27.1778 -11.0554 -8.1679
# 5 -13.6940 -6.2120 -9.6544 -11.0554 31.0351 5.8265
# 6 -15.9302 -32.3727 -3.2512 -8.1679 5.8265 60.2936
#
#
#
# Elastic Compliance Matrix: (Units=1/GPa)
#
#
# Indices 1 2 3 4 5 6 
#
# 1 0.015118 -0.002579 0.002103 0.001877 0.007046 0.002296
# 2 -0.002579 0.005616 -0.002845 0.000609 -0.001127 0.002372
# 3 0.002103 -0.002845 0.016470 0.003110 0.006647 -0.000305
# 4 0.001877 0.000609 0.003110 0.045347 0.017041 0.005487
# 5 0.007046 -0.001127 0.006647 0.017041 0.043292 -0.000260
# 6 0.002296 0.002372 -0.000305 0.005487 -0.000260 0.019218
#
#
# Mechanical properties :
#
#
# Convention : Reuss Voigt Hill
#
# Bulk Modulus (GPa) = 32.72069 59.93666 46.32867
# Shear Modulus (GPa) = 30.88456 43.76904 37.32680
#
# Velocity S-wave (km/s) = 3.49777 4.16393 3.84530
# Velocity P-wave (km/s) = 5.41056 6.84548 6.16988
#
# Compressibility (1/GPa) = 0.03056171
#
# Stress axis : x y z
#
# Youngs Moduli (GPa) = 66.14447 178.05150 60.71507
#
# Poissons Ratio (x) = 0.45919 -0.12765
# Poissons Ratio (y) = 0.17058 0.17275
# Poissons Ratio (z) = -0.13907 0.50661
#
# Static dielectric constant tensor:
#      x y z
#    x 1.963000 -0.031420 -0.087320 
#    y -0.031420 2.045960 -0.040320 
#    z -0.087320 -0.040320 1.992060 
# 
# From -- ./inp_files/409410.got.cif
#   From: 2010.05.17/outbox.cif.g08.bks.cpg/sg2_205_cif.got.tgz:409410.got - 2010.06.03 11:33:40.
