data_PCOD9028629
_publ_section_title
;
Structure prediction by ZEFSAII (Michael W. Deem and Ramdas Pophale) SiO2 
 PCOD9028629
Probable space group: P -1
;
_chemical_formula_sum "Si O2"
_cell_formula_units_Z 12
_cell_length_a 10.532991
_cell_length_b 12.215664
_cell_length_c 10.563919
_cell_angle_alpha 143.821194
_cell_angle_beta 117.113213
_cell_angle_gamma 86.266654
_cell_volume 583.712721
_symmetry_space_group_name_H-M "P -1"
_symmetry_group_IT_number 2
_symmetry_cell_setting 'triclinic'
loop_
_space_group_symop_operation_xyz
x,y,z
-x,-y,-z
loop_
_atom_site_type_symbol
_atom_site_label
_atom_site_fract_x
_atom_site_fract_y
_atom_site_fract_z
Si Si1 0.815237 0.261908 0.201000
Si Si2 0.502957 0.844284 0.172089
Si Si3 0.226225 0.143821 0.328462
Si Si4 0.403949 0.678656 0.252474
Si Si5 0.193467 0.202873 0.816432
Si Si6 0.861728 0.950372 0.074862
O O1 0.802358 0.119141 0.184918
O O2 0.000000 0.500000 0.500000
O O3 0.646815 0.261867 0.101998
O O4 0.809147 0.103593 0.937142
O O5 0.409255 0.715651 0.139948
O O6 0.664216 0.832626 0.206933
O O7 0.576176 0.107207 0.471864
O O8 0.419988 0.304620 0.617315
O O9 0.072609 0.108454 0.310969
O O10 0.200455 0.193881 0.219024
O O11 0.243106 0.441047 0.008283
O O12 0.203698 0.195188 0.965698
O O13 0.000000 0.000000 0.500000
#
# Coordination Sequence:
#
# PCOD9028629 Si02
#       6
#     2   2   2   2   2   2
#     4   9  19  35  62  89 111 157 191 242 290 345
#     4  10  23  42  62  88 117 156 205 234 292 358
#     4   8  18  39  59  84 110 160 195 235 284 355
#     4  10  22  42  64  83 117 160 200 240 293 348
#     4  12  26  38  59  92 121 156 193 250 299 338
#     4   9  20  38  57  88 121 143 204 231 298 351
#
# _framework density 20.558057000000002
#
# number of rings (size 3 to 8) (size 9 to 14) (size 15 to 20)
#    1.000    1.333    0.000    1.500    4.667    2.000 
#    3.000    0.000    0.000    0.000    0.000    0.000 
#    0.000    0.000    0.000    0.000    0.000    0.000 
#
# Total GULP energy -66948.898775 kJ/mol
# GULP energy per Si atom -5579.074898 kJ/mol
# Density = 2.051127 g / cm^3
# Si number density = 20.558057 Si / 1000 Ang^3
#
#
#
# Elastic Constant Matrix: (Units=GPa)
#
#
# Indices 1 2 3 4 5 6 
#
# 1 48.6566 27.9154 23.7602 7.3293 1.7450 -1.8292
# 2 27.9154 103.8581 45.4787 28.9126 10.0455 8.2640
# 3 23.7602 45.4787 116.0516 25.4022 14.3322 -4.2939
# 4 7.3293 28.9126 25.4022 24.8191 -0.8029 9.8947
# 5 1.7450 10.0455 14.3322 -0.8029 17.7939 -3.8621
# 6 -1.8292 8.2640 -4.2939 9.8947 -3.8621 25.0472
#
#
#
# Elastic Compliance Matrix: (Units=1/GPa)
#
#
# Indices 1 2 3 4 5 6 
#
# 1 0.025833 -0.006951 -0.003848 0.003382 0.005294 0.003000
# 2 -0.006951 0.017784 -0.000296 -0.018404 -0.010105 -0.000714
# 3 -0.003848 -0.000296 0.014818 -0.016993 -0.010541 0.007445
# 4 0.003382 -0.018404 -0.016993 0.090372 0.021534 -0.028975
# 5 0.005294 -0.010105 -0.010541 0.021534 0.071819 0.004481
# 6 0.003000 -0.000714 0.007445 -0.028975 0.004481 0.053793
#
#
# Mechanical properties :
#
#
# Convention : Reuss Voigt Hill
#
# Bulk Modulus (GPa) = 27.59076 51.43056 39.51066
# Shear Modulus (GPa) = 16.19747 24.95949 20.57848
#
# Velocity S-wave (km/s) = 2.80998 3.48817 3.16728
# Velocity P-wave (km/s) = 4.89674 6.42609 5.71282
#
# Compressibility (1/GPa) = 0.03624402
#
# Stress axis : x y z
#
# Youngs Moduli (GPa) = 38.71084 56.23034 67.48663
#
# Poissons Ratio (x) = 0.39084 0.25970
# Poissons Ratio (y) = 0.26906 0.02000
# Poissons Ratio (z) = 0.14897 0.01666
#
# Static dielectric constant tensor:
#      x y z
#    x 1.736990 -0.042330 -0.027670 
#    y -0.042330 1.757060 -0.014420 
#    z -0.027670 -0.014420 1.741700 
# 
# From -- ./inp_files/131730.got.cif
#   From: 2010.05.17/outbox.cif.g08.bks.cpg/sg2_66_cif.got.tgz:131730.got - 2010.06.03 11:33:40.
