data_PCOD9028696
_publ_section_title
;
Structure prediction by ZEFSAII (Michael W. Deem and Ramdas Pophale) SiO2 
 PCOD9028696
Probable space group: P -1
;
_chemical_formula_sum "Si O2"
_cell_formula_units_Z 16
_cell_length_a 9.182703
_cell_length_b 8.078450
_cell_length_c 16.244761
_cell_angle_alpha 100.374611
_cell_angle_beta 123.395917
_cell_angle_gamma 47.462170
_cell_volume 704.274187
_symmetry_space_group_name_H-M "P -1"
_symmetry_group_IT_number 2
_symmetry_cell_setting 'triclinic'
loop_
_space_group_symop_operation_xyz
x,y,z
-x,-y,-z
loop_
_atom_site_type_symbol
_atom_site_label
_atom_site_fract_x
_atom_site_fract_y
_atom_site_fract_z
Si Si1 0.264437 0.114369 0.753357
Si Si2 0.782335 0.595397 0.381880
Si Si3 0.749501 0.025060 0.762363
Si Si4 0.580453 0.343226 0.900746
Si Si5 0.928026 0.245008 0.808575
Si Si6 0.835329 0.438153 0.086815
Si Si7 0.290904 0.169554 0.018588
Si Si8 0.624328 0.327512 0.274143
O O1 0.200754 0.305693 0.687678
O O2 0.077706 0.237173 0.783208
O O3 0.547808 0.931157 0.858031
O O4 0.248502 0.936382 0.695142
O O5 0.508654 0.828884 0.348681
O O6 0.766854 0.402853 0.348825
O O7 0.000000 0.500000 0.500000
O O8 0.677974 0.165226 0.839954
O O9 0.907197 0.060320 0.768665
O O10 0.910830 0.753651 0.804556
O O11 0.385275 0.382853 0.901691
O O12 0.440378 0.594275 0.835235
O O13 0.777418 0.296345 0.015982
O O14 0.646285 0.492025 0.752312
O O15 0.083447 0.172325 0.934344
O O16 0.835675 0.571585 0.026184
O O17 0.500000 0.000000 0.000000
#
# Coordination Sequence:
#
# PCOD9028696 Si02
#       8
#     2   2   2   2   2   2   2   2
#     4  11  22  43  66  90 130 175 204 254 320 372
#     4  10  25  46  69  94 121 160 223 281 324 372
#     4  10  23  40  62  88 126 165 214 262 314 368
#     4   9  20  34  57  89 130 169 201 246 306 372
#     4   9  22  39  58  95 137 160 208 252 303 386
#     4  11  20  34  59  89 129 169 209 238 303 382
#     4  10  23  34  55  96 133 169 206 242 299 383
#     4  10  22  42  64  94 125 166 209 260 324 374
#
# _framework density 22.718426000000001
#
# number of rings (size 3 to 8) (size 9 to 14) (size 15 to 20)
#    0.000    2.250    1.250    1.125   14.000    3.000 
#    0.000    3.125    0.000   15.750    0.000    0.000 
#    0.000    0.000    0.000    0.000    0.000    0.000 
#
# Total GULP energy -89406.767872 kJ/mol
# GULP energy per Si atom -5587.922992 kJ/mol
# Density = 2.266672 g / cm^3
# Si number density = 22.718426 Si / 1000 Ang^3
#
#
#
# Elastic Constant Matrix: (Units=GPa)
#
#
# Indices 1 2 3 4 5 6 
#
# 1 146.9203 29.2919 46.4766 -5.7723 9.1424 11.4119
# 2 29.2919 82.1115 26.6664 -8.7605 9.3193 14.4238
# 3 46.4766 26.6664 143.5292 -8.4222 31.4378 18.5772
# 4 -5.7723 -8.7605 -8.4222 18.4425 2.7604 2.0200
# 5 9.1424 9.3193 31.4378 2.7604 32.1195 1.8083
# 6 11.4119 14.4238 18.5772 2.0200 1.8083 32.7385
#
#
#
# Elastic Compliance Matrix: (Units=1/GPa)
#
#
# Indices 1 2 3 4 5 6 
#
# 1 0.007941 -0.001991 -0.002171 0.000562 0.000434 -0.000718
# 2 -0.001991 0.015328 0.000008 0.007985 -0.004219 -0.006323
# 3 -0.002171 0.000008 0.011026 0.006505 -0.010435 -0.005328
# 4 0.000562 0.007985 0.006505 0.064388 -0.013780 -0.010617
# 5 0.000434 -0.004219 -0.010435 -0.013780 0.043289 0.006088
# 6 -0.000718 -0.006323 -0.005328 -0.010617 0.006088 0.036923
#
#
# Mechanical properties :
#
#
# Convention : Reuss Voigt Hill
#
# Bulk Modulus (GPa) = 38.48104 64.15899 51.32002
# Shear Modulus (GPa) = 25.52787 34.66851 30.09819
#
# Velocity S-wave (km/s) = 3.35575 3.91065 3.64378
# Velocity P-wave (km/s) = 5.65595 6.97805 6.35149
#
# Compressibility (1/GPa) = 0.02598682
#
# Stress axis : x y z
#
# Youngs Moduli (GPa) = 125.93115 65.24107 90.69788
#
# Poissons Ratio (x) = 0.12990 0.19687
# Poissons Ratio (y) = 0.25074 -0.00073
# Poissons Ratio (z) = 0.27335 -0.00052
#
# Static dielectric constant tensor:
#      x y z
#    x 1.918150 0.033700 0.010510 
#    y 0.033700 1.933570 0.009780 
#    z 0.010510 0.009780 1.824570 
# 
# From -- ./inp_files/556242.got.cif
#   From: 2010.05.17/outbox.cif.g08.bks.cpg/sg2_279_cif.got.tgz:556242.got - 2010.06.03 11:33:40.
