data_PCOD9028295
_publ_section_title
;
Structure prediction by ZEFSAII (Michael W. Deem and Ramdas Pophale) SiO2 
 PCOD9028295
Probable space group: P -1
;
_chemical_formula_sum "Si O2"
_cell_formula_units_Z 14
_cell_length_a 15.641222
_cell_length_b 13.117212
_cell_length_c 22.013094
_cell_angle_alpha 27.463523
_cell_angle_beta 161.165506
_cell_angle_gamma 143.000954
_cell_volume 646.241303
_symmetry_space_group_name_H-M "P -1"
_symmetry_group_IT_number 2
_symmetry_cell_setting 'triclinic'
loop_
_space_group_symop_operation_xyz
x,y,z
-x,-y,-z
loop_
_atom_site_type_symbol
_atom_site_label
_atom_site_fract_x
_atom_site_fract_y
_atom_site_fract_z
Si Si1 0.545159 0.132987 0.571468
Si Si2 0.527843 0.454446 0.288144
Si Si3 0.893971 0.207076 0.083090
Si Si4 0.055464 0.204266 0.468530
Si Si5 0.951948 0.748331 0.421941
Si Si6 0.498898 0.553470 0.400919
Si Si7 0.409022 0.375888 0.112777
O O1 0.616191 0.209922 0.511729
O O2 0.611172 0.314556 0.566295
O O3 0.213174 0.178626 0.324680
O O4 0.660085 0.868831 0.806867
O O5 0.785779 0.560926 0.401283
O O6 0.405134 0.439893 0.147390
O O7 0.301622 0.622703 0.090352
O O8 0.850386 0.956604 0.196107
O O9 0.798554 0.318366 0.894968
O O10 0.098672 0.150754 0.597177
O O11 0.313959 0.279691 0.576896
O O12 0.798327 0.428129 0.168363
O O13 0.000000 0.000000 0.500000
O O14 0.278689 0.653009 0.683368
O O15 0.500000 0.500000 0.500000
#
# Coordination Sequence:
#
# PCOD9028295 Si02
#       7
#     2   2   2   2   2   2   2
#     4  10  23  45  66  98 133 176 215 276 327 386
#     4  11  20  41  66  98 129 171 229 262 325 389
#     4  10  22  41  74  93 132 171 222 276 318 389
#     4  12  27  45  68  96 134 178 218 272 330 394
#     4  11  23  45  64  98 132 175 222 272 325 381
#     4  11  25  43  68 104 129 171 222 270 328 388
#     4  11  26  40  66  95 137 174 216 272 331 390
#
# _framework density 21.663734000000002
#
# number of rings (size 3 to 8) (size 9 to 14) (size 15 to 20)
#    0.000    1.143    2.857    4.286   10.000    0.571 
#    0.000    0.000    0.000    0.000    0.000    0.000 
#    0.000    0.000    0.000    0.000    0.000    0.000 
#
# Total GULP energy -78357.806348 kJ/mol
# GULP energy per Si atom -5596.986168 kJ/mol
# Density = 2.161443 g / cm^3
# Si number density = 21.663734 Si / 1000 Ang^3
#
#
#
# Elastic Constant Matrix: (Units=GPa)
#
#
# Indices 1 2 3 4 5 6 
#
# 1 78.5670 1.2545 -1.4903 6.6688 -21.8059 4.5348
# 2 1.2545 119.3163 14.9754 -10.5703 -7.0593 16.2382
# 3 -1.4903 14.9754 66.1723 -14.8078 -14.6836 9.3578
# 4 6.6688 -10.5703 -14.8078 23.1864 6.0546 -8.9886
# 5 -21.8059 -7.0593 -14.6836 6.0546 27.3471 6.3937
# 6 4.5348 16.2382 9.3578 -8.9886 6.3937 36.0265
#
#
#
# Elastic Compliance Matrix: (Units=1/GPa)
#
#
# Indices 1 2 3 4 5 6 
#
# 1 0.022345 0.001232 0.004732 -0.015009 0.027073 -0.013147
# 2 0.001232 0.009384 -0.000307 0.000740 0.004215 -0.004869
# 3 0.004732 -0.000307 0.020886 0.004898 0.015560 -0.007422
# 4 -0.015009 0.000740 0.004898 0.067153 -0.029210 0.022222
# 5 0.027073 0.004215 0.015560 -0.029210 0.081328 -0.031070
# 6 -0.013147 -0.004869 -0.007422 0.022222 -0.031070 0.044593
#
#
# Mechanical properties :
#
#
# Convention : Reuss Voigt Hill
#
# Bulk Modulus (GPa) = 15.64177 32.61496 24.12837
# Shear Modulus (GPa) = 19.55545 33.93307 26.74426
#
# Velocity S-wave (km/s) = 3.00773 3.96201 3.51738
# Velocity P-wave (km/s) = 4.39293 6.00149 5.25907
#
# Compressibility (1/GPa) = 0.06393138
#
# Stress axis : x y z
#
# Youngs Moduli (GPa) = 44.75331 106.56311 47.87819
#
# Poissons Ratio (x) = -0.13133 -0.22658
# Poissons Ratio (y) = -0.05515 0.01468
# Poissons Ratio (z) = -0.21179 0.03267
#
# Static dielectric constant tensor:
#      x y z
#    x 1.776810 0.011730 0.001270 
#    y 0.011730 1.783210 -0.015290 
#    z 0.001270 -0.015290 1.794140 
# 
# From -- ./inp_files/174473.got.cif
#   From: 2010.05.17/outbox.cif.g08.bks.cpg/sg2_88_cif.got.tgz:174473.got - 2010.06.03 11:33:40.
