data_PCOD9028726
_publ_section_title
;
Structure prediction by ZEFSAII (Michael W. Deem and Ramdas Pophale) SiO2 
 PCOD9028726
Probable space group: P -1
;
_chemical_formula_sum "Si O2"
_cell_formula_units_Z 14
_cell_length_a 18.506678
_cell_length_b 9.096443
_cell_length_c 8.097450
_cell_angle_alpha 62.732646
_cell_angle_beta 42.703092
_cell_angle_gamma 39.694095
_cell_volume 572.055745
_symmetry_space_group_name_H-M "P -1"
_symmetry_group_IT_number 2
_symmetry_cell_setting 'triclinic'
loop_
_space_group_symop_operation_xyz
x,y,z
-x,-y,-z
loop_
_atom_site_type_symbol
_atom_site_label
_atom_site_fract_x
_atom_site_fract_y
_atom_site_fract_z
Si Si1 0.656549 0.040904 0.139064
Si Si2 0.884006 0.267994 0.987840
Si Si3 0.163427 0.749372 0.420616
Si Si4 0.150123 0.443019 0.805120
Si Si5 0.615281 0.427631 0.159202
Si Si6 0.869849 0.892101 0.577932
Si Si7 0.415486 0.929608 0.123188
O O1 0.592853 0.259183 0.246604
O O2 0.821866 0.901177 0.842995
O O3 0.561359 0.120753 0.089018
O O4 0.699404 0.837035 0.282283
O O5 0.728682 0.348550 0.157077
O O6 0.862615 0.435208 0.069737
O O7 0.963737 0.268927 0.694652
O O8 0.000000 0.000000 0.000000
O O9 0.158413 0.571298 0.584785
O O10 0.288145 0.627648 0.135135
O O11 0.201960 0.842116 0.448775
O O12 0.000000 0.000000 0.500000
O O13 0.000000 0.500000 0.000000
O O14 0.474774 0.708366 0.242860
O O15 0.769334 0.872619 0.654591
O O16 0.500000 0.000000 0.000000
#
# Coordination Sequence:
#
# PCOD9028726 Si02
#       7
#     2   2   2   2   2   2   2
#     4   9  22  40  62  93 132 163 218 260 327 372
#     4  12  22  39  67  98 125 165 217 265 322 378
#     4  11  20  40  64  98 128 169 213 259 325 386
#     4  12  24  37  61  98 138 161 208 278 319 376
#     4  11  22  41  72  89 124 180 212 257 328 390
#     4   9  21  38  66  89 130 163 216 258 322 378
#     4  10  22  42  64  96 127 170 221 266 314 387
#
# _framework density 24.473140999999998
#
# number of rings (size 3 to 8) (size 9 to 14) (size 15 to 20)
#    0.857    0.571    2.857    3.857    0.000    1.714 
#    0.000    1.429    0.000    0.000    0.000    0.000 
#    0.000    0.000    0.000    0.000    0.000    0.000 
#
# Total GULP energy -78165.803503 kJ/mol
# GULP energy per Si atom -5583.271679 kJ/mol
# Density = 2.441744 g / cm^3
# Si number density = 24.473141 Si / 1000 Ang^3
#
#
#
# Elastic Constant Matrix: (Units=GPa)
#
#
# Indices 1 2 3 4 5 6 
#
# 1 164.3546 51.9836 -11.4313 -11.2417 -13.8603 20.4852
# 2 51.9836 139.5248 5.9892 -37.2376 -1.7009 0.9639
# 3 -11.4313 5.9892 64.5550 -12.4598 7.2859 5.1687
# 4 -11.2417 -37.2376 -12.4598 30.0430 3.8083 -0.0458
# 5 -13.8603 -1.7009 7.2859 3.8083 26.9675 -4.8813
# 6 20.4852 0.9639 5.1687 -0.0458 -4.8813 45.9192
#
#
#
# Elastic Compliance Matrix: (Units=1/GPa)
#
#
# Indices 1 2 3 4 5 6 
#
# 1 0.007764 -0.003078 0.001462 -0.000677 0.002908 -0.003255
# 2 -0.003078 0.012220 0.001542 0.015045 -0.003242 0.000614
# 3 0.001462 0.001542 0.018736 0.011034 -0.006398 -0.003463
# 4 -0.000677 0.015045 0.011034 0.057641 -0.010948 -0.002362
# 5 0.002908 -0.003242 -0.006398 -0.010948 0.042367 0.003984
# 6 -0.003255 0.000614 -0.003463 -0.002362 0.003984 0.024028
#
#
# Mechanical properties :
#
#
# Convention : Reuss Voigt Hill
#
# Bulk Modulus (GPa) = 25.92634 51.27972 38.60303
# Shear Modulus (GPa) = 28.44766 42.04548 35.24657
#
# Velocity S-wave (km/s) = 3.41310 4.14940 3.79913
# Velocity P-wave (km/s) = 5.11362 6.62991 5.92051
#
# Compressibility (1/GPa) = 0.03857081
#
# Stress axis : x y z
#
# Youngs Moduli (GPa) = 128.79249 81.83552 53.37422
#
# Poissons Ratio (x) = 0.25193 -0.07804
# Poissons Ratio (y) = 0.39648 -0.08229
# Poissons Ratio (z) = -0.18832 -0.12617
#
# Static dielectric constant tensor:
#      x y z
#    x 2.050560 -0.001310 -0.017690 
#    y -0.001310 1.974060 -0.014840 
#    z -0.017690 -0.014840 2.027020 
# 
# From -- ./inp_files/327399.got.cif
#   From: 2010.05.17/outbox.cif.g08.bks.cpg/sg2_164_cif.got.tgz:327399.got - 2010.06.03 11:33:40.
