data_PCOD9028455
_publ_section_title
;
Structure prediction by ZEFSAII (Michael W. Deem and Ramdas Pophale) SiO2 
 PCOD9028455
Probable space group: P -1
;
_chemical_formula_sum "Si O2"
_cell_formula_units_Z 15
_cell_length_a 7.153407
_cell_length_b 17.960810
_cell_length_c 12.967808
_cell_angle_alpha 156.748008
_cell_angle_beta 120.386756
_cell_angle_gamma 63.037855
_cell_volume 567.073793
_symmetry_space_group_name_H-M "P -1"
_symmetry_group_IT_number 2
_symmetry_cell_setting 'triclinic'
loop_
_space_group_symop_operation_xyz
x,y,z
-x,-y,-z
loop_
_atom_site_type_symbol
_atom_site_label
_atom_site_fract_x
_atom_site_fract_y
_atom_site_fract_z
Si Si1 0.804316 0.878581 0.841959
Si Si2 0.021618 0.514027 0.147136
Si Si3 0.179125 0.719806 0.960398
Si Si4 0.047900 0.913594 0.658532
Si Si5 0.603869 0.314030 0.837029
Si Si6 0.307224 0.400030 0.253970
Si Si7 0.000000 0.500000 0.500000
Si Si8 0.581893 0.031830 0.302882
O O1 0.605209 0.911704 0.754319
O O2 0.842432 0.659777 0.595081
O O3 0.796133 0.982991 0.083202
O O4 0.000000 0.000000 0.000000
O O5 0.938028 0.719296 0.417558
O O6 0.242543 0.499746 0.255689
O O7 0.000000 0.500000 0.000000
O O8 0.864448 0.352682 0.947243
O O9 0.195636 0.668822 0.781601
O O10 0.928755 0.605668 0.751321
O O11 0.395577 0.686097 0.040125
O O12 0.117151 0.933475 0.229625
O O13 0.201571 0.859169 0.539045
O O14 0.540612 0.122825 0.518296
O O15 0.500000 0.500000 0.000000
O O16 0.500000 0.500000 0.500000
O O17 0.358257 0.185278 0.967515
#
# Coordination Sequence:
#
# PCOD9028455 Si02
#       8
#     2   2   2   2   2   2   1   2
#     4  11  25  41  68  95 133 177 225 276 342 404
#     4  11  23  41  67  95 130 169 216 278 333 406
#     4   9  22  41  66  86 131 168 213 268 336 392
#     4  10  22  42  65  94 125 167 220 275 332 390
#     4  11  24  42  63  93 129 175 216 264 343 408
#     4  10  23  40  66  97 124 169 227 274 325 399
#     4  10  22  42  62  92 128 178 210 276 336 392
#     4  11  23  42  66  93 132 171 220 278 332 400
#
# _framework density 26.451585999999999
#
# number of rings (size 3 to 8) (size 9 to 14) (size 15 to 20)
#    0.000    1.600    1.333    2.000    9.333    3.733 
#    2.400    0.667    0.000    0.000    0.000    0.000 
#    0.000    0.000    0.000    0.000    0.000    0.000 
#
# Total GULP energy -83670.116118 kJ/mol
# GULP energy per Si atom -5578.007741 kJ/mol
# Density = 2.639138 g / cm^3
# Si number density = 26.451586 Si / 1000 Ang^3
#
#
#
# Elastic Constant Matrix: (Units=GPa)
#
#
# Indices 1 2 3 4 5 6 
#
# 1 82.1079 0.3209 24.8838 -3.4959 5.6261 -7.3672
# 2 0.3209 188.3786 60.1679 -2.0512 -13.8754 -23.6895
# 3 24.8838 60.1679 142.7156 7.4681 -13.6502 -28.9845
# 4 -3.4959 -2.0512 7.4681 48.7758 4.9345 -0.4232
# 5 5.6261 -13.8754 -13.6502 4.9345 31.7314 3.5508
# 6 -7.3672 -23.6895 -28.9845 -0.4232 3.5508 20.9739
#
#
#
# Elastic Compliance Matrix: (Units=1/GPa)
#
#
# Indices 1 2 3 4 5 6 
#
# 1 0.013559 0.000918 -0.002627 0.001815 -0.003733 0.002838
# 2 0.000918 0.006631 -0.001829 0.000537 0.001299 0.005076
# 3 -0.002627 -0.001829 0.011048 -0.002205 0.003458 0.011650
# 4 0.001815 0.000537 -0.002205 0.021421 -0.004295 -0.000644
# 5 -0.003733 0.001299 0.003458 -0.004295 0.035021 -0.001081
# 6 0.002838 0.005076 0.011650 -0.000644 -0.001081 0.070677
#
#
# Mechanical properties :
#
#
# Convention : Reuss Voigt Hill
#
# Bulk Modulus (GPa) = 41.38628 64.88303 53.13466
# Shear Modulus (GPa) = 28.82079 42.15153 35.48616
#
# Velocity S-wave (km/s) = 3.30444 3.99624 3.66669
# Velocity P-wave (km/s) = 5.49901 6.77314 6.16906
#
# Compressibility (1/GPa) = 0.02416260
#
# Stress axis : x y z
#
# Youngs Moduli (GPa) = 73.75069 150.81338 90.51473
#
# Poissons Ratio (x) = -0.13838 0.23775
# Poissons Ratio (y) = -0.06767 0.16551
# Poissons Ratio (z) = 0.19372 0.27577
#
# Static dielectric constant tensor:
#      x y z
#    x 4.265400 2.591450 -2.466020 
#    y 2.591450 5.386940 -3.183100 
#    z -2.466020 -3.183100 5.177660 
# 
# From -- ./inp_files/199331.got.cif
#   From: 2010.05.17/outbox.cif.g08.bks.cpg/sg2_100_cif.got.tgz:199331.got - 2010.06.03 11:33:40.
