data_PCOD9028444
_publ_section_title
;
Structure prediction by ZEFSAII (Michael W. Deem and Ramdas Pophale) SiO2 
 PCOD9028444
Probable space group: P -1
;
_chemical_formula_sum "Si O2"
_cell_formula_units_Z 16
_cell_length_a 10.795873
_cell_length_b 7.495729
_cell_length_c 14.396353
_cell_angle_alpha 85.012627
_cell_angle_beta 103.801825
_cell_angle_gamma 37.912551
_cell_volume 616.856287
_symmetry_space_group_name_H-M "P -1"
_symmetry_group_IT_number 2
_symmetry_cell_setting 'triclinic'
loop_
_space_group_symop_operation_xyz
x,y,z
-x,-y,-z
loop_
_atom_site_type_symbol
_atom_site_label
_atom_site_fract_x
_atom_site_fract_y
_atom_site_fract_z
Si Si1 0.736284 0.187628 0.732661
Si Si2 0.625519 0.830299 0.900561
Si Si3 0.867023 0.891533 0.957615
Si Si4 0.677424 0.150274 0.095567
Si Si5 0.642693 0.075256 0.413434
Si Si6 0.371067 0.082421 0.315962
Si Si7 0.998831 0.708232 0.335906
Si Si8 0.875082 0.094701 0.572087
O O1 0.824286 0.076595 0.858449
O O2 0.599489 0.161873 0.687699
O O3 0.560740 0.559583 0.680865
O O4 0.929255 0.962754 0.694433
O O5 0.639804 0.027165 0.910964
O O6 0.444553 0.901400 0.906903
O O7 0.618996 0.834867 0.787473
O O8 0.879501 0.483809 0.002773
O O9 0.881079 0.919983 0.066268
O O10 0.803547 0.035123 0.221456
O O11 0.500000 0.500000 0.000000
O O12 0.556321 0.975256 0.413599
O O13 0.719447 0.110616 0.510868
O O14 0.855223 0.805115 0.392149
O O15 0.126908 0.414474 0.307517
O O16 0.178587 0.640868 0.414355
O O17 0.000000 0.000000 0.500000
#
# Coordination Sequence:
#
# PCOD9028444 Si02
#       8
#     2   2   2   2   2   2   2   2
#     4  11  24  44  71 101 132 179 228 271 336 410
#     4  10  22  42  62  90 139 172 212 271 325 385
#     4  10  23  41  62  95 131 174 214 267 327 390
#     4  12  24  36  64 101 127 177 222 263 324 404
#     4  11  23  47  69  94 137 176 222 287 339 389
#     4  11  23  43  71 101 135 178 224 277 333 398
#     4  11  23  43  66  97 140 174 220 283 336 386
#     4  10  24  46  70  96 134 178 216 286 348 391
#
# _framework density 25.937971999999998
#
# number of rings (size 3 to 8) (size 9 to 14) (size 15 to 20)
#    0.000    1.250    3.750    1.500    1.750    1.000 
#    4.500    1.250    0.000    0.000    0.000    0.000 
#    0.000    0.000    0.000    0.000    0.000    0.000 
#
# Total GULP energy -89088.714711 kJ/mol
# GULP energy per Si atom -5568.044669 kJ/mol
# Density = 2.587894 g / cm^3
# Si number density = 25.937972 Si / 1000 Ang^3
#
#
#
# Elastic Constant Matrix: (Units=GPa)
#
#
# Indices 1 2 3 4 5 6 
#
# 1 170.0652 27.7709 60.0539 11.7940 7.3895 3.3698
# 2 27.7709 56.9014 11.3599 18.5905 -16.4449 -3.0388
# 3 60.0539 11.3599 92.8245 16.0789 -28.4211 -12.8975
# 4 11.7940 18.5905 16.0789 28.5308 -4.3807 -6.8109
# 5 7.3895 -16.4449 -28.4211 -4.3807 64.6062 16.1186
# 6 3.3698 -3.0388 -12.8975 -6.8109 16.1186 39.5494
#
#
#
# Elastic Compliance Matrix: (Units=1/GPa)
#
#
# Indices 1 2 3 4 5 6 
#
# 1 0.009702 -0.005874 -0.007984 0.003204 -0.005643 -0.001030
# 2 -0.005874 0.027925 0.006249 -0.018369 0.009912 -0.002519
# 3 -0.007984 0.006249 0.020355 -0.010222 0.010307 0.001838
# 4 0.003204 -0.018369 -0.010222 0.051955 -0.007788 0.007104
# 5 -0.005643 0.009912 0.010307 -0.007788 0.024311 -0.006646
# 6 -0.001030 -0.002519 0.001838 0.007104 -0.006646 0.029710
#
#
# Mechanical properties :
#
#
# Convention : Reuss Voigt Hill
#
# Bulk Modulus (GPa) = 23.38347 57.57341 40.47844
# Shear Modulus (GPa) = 25.84935 41.24437 33.54686
#
# Velocity S-wave (km/s) = 3.16030 3.99195 3.60022
# Velocity P-wave (km/s) = 4.72772 6.59487 5.73776
#
# Compressibility (1/GPa) = 0.04276526
#
# Stress axis : x y z
#
# Youngs Moduli (GPa) = 103.07320 35.81069 49.12812
#
# Poissons Ratio (x) = 0.21034 0.39222
# Poissons Ratio (y) = 0.60541 -0.30701
# Poissons Ratio (z) = 0.82290 -0.22379
#
# Static dielectric constant tensor:
#      x y z
#    x 2.135710 0.010330 0.004600 
#    y 0.010330 2.078420 -0.009650 
#    z 0.004600 -0.009650 2.098200 
# 
# From -- ./inp_files/515667.got.cif
#   From: 2010.05.17/outbox.cif.g08.bks.cpg/sg2_258_cif.got.tgz:515667.got - 2010.06.03 11:33:40.
