data_PCOD9028614
_publ_section_title
;
Structure prediction by ZEFSAII (Michael W. Deem and Ramdas Pophale) SiO2 
 PCOD9028614
Probable space group: P -1
;
_chemical_formula_sum "Si O2"
_cell_formula_units_Z 16
_cell_length_a 18.391051
_cell_length_b 15.261741
_cell_length_c 11.536170
_cell_angle_alpha 145.985278
_cell_angle_beta 51.612085
_cell_angle_gamma 152.769015
_cell_volume 738.764074
_symmetry_space_group_name_H-M "P -1"
_symmetry_group_IT_number 2
_symmetry_cell_setting 'triclinic'
loop_
_space_group_symop_operation_xyz
x,y,z
-x,-y,-z
loop_
_atom_site_type_symbol
_atom_site_label
_atom_site_fract_x
_atom_site_fract_y
_atom_site_fract_z
Si Si1 0.115623 0.586620 0.138994
Si Si2 0.324503 0.320493 0.175445
Si Si3 0.924824 0.138177 0.641865
Si Si4 0.964372 0.597383 0.720104
Si Si5 0.292416 0.530266 0.626150
Si Si6 0.536988 0.114565 0.924067
Si Si7 0.191259 0.324095 0.113330
Si Si8 0.644026 0.549124 0.145014
O O1 0.095060 0.734290 0.277077
O O2 0.093664 0.538343 0.243889
O O3 0.306807 0.790345 0.137008
O O4 0.969059 0.268713 0.868355
O O5 0.312639 0.401040 0.394003
O O6 0.328168 0.449490 0.207264
O O7 0.494928 0.456197 0.153032
O O8 0.147420 0.960004 0.945798
O O9 0.094588 0.280697 0.591403
O O10 0.755613 0.786546 0.399975
O O11 0.818644 0.504501 0.707289
O O12 0.000000 0.500000 0.500000
O O13 0.352503 0.758640 0.732218
O O14 0.422632 0.733527 0.830335
O O15 0.555993 0.262295 0.962729
O O16 0.227055 0.301377 0.926923
O O17 0.000000 0.000000 0.000000
#
# Coordination Sequence:
#
# PCOD9028614 Si02
#       8
#     2   2   2   2   2   2   2   2
#     4  10  22  42  64 101 132 175 227 264 343 392
#     4  11  26  42  67  98 135 178 222 274 331 396
#     4  10  23  39  71  94 138 177 214 277 330 408
#     4  11  25  43  70  98 131 174 227 280 325 397
#     4  10  23  44  66  99 139 177 214 271 344 393
#     4  10  23  42  68  99 138 174 217 278 332 400
#     4  10  23  46  66  91 130 173 221 272 331 384
#     4  12  24  43  69 102 132 175 226 274 329 398
#
# _framework density 21.657792000000001
#
# number of rings (size 3 to 8) (size 9 to 14) (size 15 to 20)
#    0.000    1.500    1.250    2.625    8.750    2.500 
#    2.250    1.250    0.000    0.000    0.000    0.000 
#    0.000    0.000    0.000    0.000    0.000    0.000 
#
# Total GULP energy -89503.534216 kJ/mol
# GULP energy per Si atom -5593.970888 kJ/mol
# Density = 2.160850 g / cm^3
# Si number density = 21.657792 Si / 1000 Ang^3
#
#
#
# Elastic Constant Matrix: (Units=GPa)
#
#
# Indices 1 2 3 4 5 6 
#
# 1 80.3918 22.5159 -3.5266 -13.7339 -17.0348 2.3060
# 2 22.5159 63.4278 28.0395 -15.7974 -5.9687 -15.0561
# 3 -3.5266 28.0395 70.1109 -21.5295 -12.3084 2.4774
# 4 -13.7339 -15.7974 -21.5295 36.8807 7.2315 3.4048
# 5 -17.0348 -5.9687 -12.3084 7.2315 21.6522 -4.3748
# 6 2.3060 -15.0561 2.4774 3.4048 -4.3748 37.5972
#
#
#
# Elastic Compliance Matrix: (Units=1/GPa)
#
#
# Indices 1 2 3 4 5 6 
#
# 1 0.019985 -0.009301 0.009579 0.006394 0.015591 -0.004347
# 2 -0.009301 0.026980 -0.012258 0.000809 -0.004784 0.011553
# 3 0.009579 -0.012258 0.025746 0.011273 0.013691 -0.006621
# 4 0.006394 0.000809 0.011273 0.037145 -0.001625 -0.004364
# 5 0.015591 -0.004784 0.013691 -0.001625 0.066283 0.004086
# 6 -0.004347 0.011553 -0.006621 -0.004364 0.004086 0.032798
#
#
# Mechanical properties :
#
#
# Convention : Reuss Voigt Hill
#
# Bulk Modulus (GPa) = 20.51182 34.22091 27.36636
# Shear Modulus (GPa) = 20.06852 30.35280 25.21066
#
# Velocity S-wave (km/s) = 3.04734 3.74769 3.41551
# Velocity P-wave (km/s) = 4.67688 5.87894 5.31202
#
# Compressibility (1/GPa) = 0.04875239
#
# Stress axis : x y z
#
# Youngs Moduli (GPa) = 50.03720 37.06439 38.84040
#
# Poissons Ratio (x) = 0.34474 -0.37207
# Poissons Ratio (y) = 0.46541 0.47610
# Poissons Ratio (z) = -0.47932 0.45433
#
# Static dielectric constant tensor:
#      x y z
#    x 1.807960 -0.006900 0.011820 
#    y -0.006900 1.760970 0.023800 
#    z 0.011820 0.023800 1.777190 
# 
# From -- ./inp_files/202065.got.cif
#   From: 2010.05.17/outbox.cif.g08.bks.cpg/sg2_102_cif.got.tgz:202065.got - 2010.06.03 11:33:40.
