data_PCOD9028817
_publ_section_title
;
Structure prediction by ZEFSAII (Michael W. Deem and Ramdas Pophale) SiO2 
 PCOD9028817
Probable space group: P -1
;
_chemical_formula_sum "Si O2"
_cell_formula_units_Z 14
_cell_length_a 8.877759
_cell_length_b 15.095241
_cell_length_c 9.768527
_cell_angle_alpha 139.631681
_cell_angle_beta 97.987728
_cell_angle_gamma 57.331778
_cell_volume 618.393594
_symmetry_space_group_name_H-M "P -1"
_symmetry_group_IT_number 2
_symmetry_cell_setting 'triclinic'
loop_
_space_group_symop_operation_xyz
x,y,z
-x,-y,-z
loop_
_atom_site_type_symbol
_atom_site_label
_atom_site_fract_x
_atom_site_fract_y
_atom_site_fract_z
Si Si1 0.101099 0.950390 0.803554
Si Si2 0.464767 0.461183 0.599561
Si Si3 0.007950 0.314846 0.194704
Si Si4 0.667327 0.520907 0.882793
Si Si5 0.019504 0.851224 0.414052
Si Si6 0.030074 0.391110 0.591508
Si Si7 0.707984 0.800001 0.335426
O O1 0.340008 0.756662 0.605261
O O2 0.979105 0.930808 0.656898
O O3 0.000000 0.000000 0.000000
O O4 0.083783 0.116327 0.945032
O O5 0.500000 0.500000 0.500000
O O6 0.241271 0.530400 0.654424
O O7 0.470120 0.581361 0.852182
O O8 0.060494 0.401129 0.196356
O O9 0.083017 0.308061 0.348818
O O10 0.751483 0.353558 0.798877
O O11 0.839388 0.423750 0.668901
O O12 0.682118 0.661249 0.113829
O O13 0.878706 0.805568 0.310063
O O14 0.000000 0.000000 0.500000
O O15 0.217376 0.266149 0.575371
O O16 0.500000 0.000000 0.500000
#
# Coordination Sequence:
#
# PCOD9028817 Si02
#       7
#     2   2   2   2   2   2   2
#     4  11  22  37  66  96 128 168 218 268 327 384
#     4  11  21  40  64  96 125 166 220 268 323 384
#     4  11  23  40  68  94 132 165 218 277 319 394
#     4  10  22  42  65  86 132 170 209 263 327 388
#     4  10  23  41  64  92 125 169 219 263 325 388
#     4  10  22  44  61  92 130 174 209 262 339 380
#     4  11  25  41  64  92 133 172 215 264 323 401
#
# _framework density 22.639303000000002
#
# number of rings (size 3 to 8) (size 9 to 14) (size 15 to 20)
#    0.000    1.429    2.857    3.429    6.000    3.429 
#    0.000    2.857    0.000    0.000    0.000    0.000 
#    0.000    0.000    0.000    0.000    0.000    0.000 
#
# Total GULP energy -78168.204624 kJ/mol
# GULP energy per Si atom -5583.443187 kJ/mol
# Density = 2.258778 g / cm^3
# Si number density = 22.639303 Si / 1000 Ang^3
#
#
#
# Elastic Constant Matrix: (Units=GPa)
#
#
# Indices 1 2 3 4 5 6 
#
# 1 48.7786 42.0093 29.2794 -5.0773 25.6172 3.9127
# 2 42.0093 140.6596 55.2384 10.8876 18.9124 8.4719
# 3 29.2794 55.2384 108.2253 2.0274 43.1051 -0.2639
# 4 -5.0773 10.8876 2.0274 49.7906 1.5941 15.0261
# 5 25.6172 18.9124 43.1051 1.5941 42.0244 5.9454
# 6 3.9127 8.4719 -0.2639 15.0261 5.9454 47.1865
#
#
#
# Elastic Compliance Matrix: (Units=1/GPa)
#
#
# Indices 1 2 3 4 5 6 
#
# 1 0.041513 -0.011279 0.004255 0.007521 -0.024785 -0.000665
# 2 -0.011279 0.012230 -0.006420 -0.003454 0.008263 -0.001238
# 3 0.004255 -0.006420 0.019330 0.000726 -0.020012 0.003198
# 4 0.007521 -0.003454 0.000726 0.023846 -0.003671 -0.007130
# 5 -0.024785 0.008263 -0.020012 -0.003671 0.056630 -0.005507
# 6 -0.000665 -0.001238 0.003198 -0.007130 -0.005507 0.024452
#
#
# Mechanical properties :
#
#
# Convention : Reuss Voigt Hill
#
# Bulk Modulus (GPa) = 21.65190 61.19085 41.42138
# Shear Modulus (GPa) = 22.69784 39.20938 30.95361
#
# Velocity S-wave (km/s) = 3.16980 4.16614 3.70165
# Velocity P-wave (km/s) = 4.79390 7.08729 6.05025
#
# Compressibility (1/GPa) = 0.04618532
#
# Stress axis : x y z
#
# Youngs Moduli (GPa) = 24.08895 81.76593 51.73174
#
# Poissons Ratio (x) = 0.92221 -0.22011
# Poissons Ratio (y) = 0.27169 0.33212
# Poissons Ratio (z) = -0.10249 0.52495
#
# Static dielectric constant tensor:
#      x y z
#    x 1.862660 -0.001260 0.033040 
#    y -0.001260 1.849380 -0.019980 
#    z 0.033040 -0.019980 1.893270 
# 
# From -- ./inp_files/209413.got.cif
#   From: 2010.05.17/outbox.cif.g08.bks.cpg/sg2_105_cif.got.tgz:209413.got - 2010.06.03 11:33:40.
