data_PCOD9028754
_publ_section_title
;
Structure prediction by ZEFSAII (Michael W. Deem and Ramdas Pophale) SiO2 
 PCOD9028754
Probable space group: P -1
;
_chemical_formula_sum "Si O2"
_cell_formula_units_Z 16
_cell_length_a 29.732203
_cell_length_b 9.859155
_cell_length_c 5.637725
_cell_angle_alpha 65.229806
_cell_angle_beta 58.146634
_cell_angle_gamma 28.651933
_cell_volume 669.105824
_symmetry_space_group_name_H-M "P -1"
_symmetry_group_IT_number 2
_symmetry_cell_setting 'triclinic'
loop_
_space_group_symop_operation_xyz
x,y,z
-x,-y,-z
loop_
_atom_site_type_symbol
_atom_site_label
_atom_site_fract_x
_atom_site_fract_y
_atom_site_fract_z
Si Si1 0.016071 0.818764 0.830626
Si Si2 0.898985 0.662053 0.244765
Si Si3 0.859985 0.010780 0.423469
Si Si4 0.852292 0.264253 0.608154
Si Si5 0.621056 0.657323 0.535463
Si Si6 0.305156 0.816721 0.819931
Si Si7 0.400749 0.638378 0.184088
Si Si8 0.638370 0.676257 0.971671
O O1 0.074469 0.574762 0.656573
O O2 0.099999 0.740207 0.718581
O O3 0.920853 0.124115 0.746818
O O4 0.959301 0.848002 0.150530
O O5 0.864064 0.830447 0.457744
O O6 0.812913 0.889746 0.120551
O O7 0.000000 0.500000 0.000000
O O8 0.866730 0.058257 0.633830
O O9 0.746736 0.339993 0.419759
O O10 0.735723 0.550126 0.778853
O O11 0.582768 0.579866 0.702575
O O12 0.589697 0.815567 0.747797
O O13 0.594364 0.803607 0.260531
O O14 0.350961 0.780999 0.478751
O O15 0.339135 0.806413 0.983563
O O16 0.334922 0.567742 0.925170
O O17 0.500000 0.500000 0.000000
#
# Coordination Sequence:
#
# PCOD9028754 Si02
#       8
#     2   2   2   2   2   2   2   2
#     4  10  20  32  44  71 103 139 192 217 277 302
#     4  10  19  34  51  75 108 153 188 213 268 333
#     4  10  17  32  48  67  97 143 178 221 265 313
#     4  10  19  30  48  67 100 142 184 241 250 310
#     4   9  16  27  48  70  98 125 167 210 260 315
#     4  10  19  35  51  79 113 142 180 232 263 338
#     4  10  19  32  54  79 110 142 173 227 297 331
#     4   9  15  28  47  68  91 135 163 210 264 293
#
# _framework density 23.912510999999999
#
# number of rings (size 3 to 8) (size 9 to 14) (size 15 to 20)
#    0.000    2.250    3.750    1.500    0.000    0.500 
#    4.500    0.000    0.000    0.000    0.000    0.000 
#    0.000   38.000    0.000    0.000    0.000    0.000 
#
# Total GULP energy -89169.502094 kJ/mol
# GULP energy per Si atom -5573.093881 kJ/mol
# Density = 2.385808 g / cm^3
# Si number density = 23.912511 Si / 1000 Ang^3
#
#
#
# Elastic Constant Matrix: (Units=GPa)
#
#
# Indices 1 2 3 4 5 6 
#
# 1 114.6315 33.8213 70.1739 6.0668 2.4218 -23.6017
# 2 33.8213 76.9955 33.9102 4.0034 3.8040 -24.5168
# 3 70.1739 33.9102 161.4393 23.4042 9.8360 -33.3603
# 4 6.0668 4.0034 23.4042 27.0994 -7.5700 -1.5522
# 5 2.4218 3.8040 9.8360 -7.5700 45.8305 3.0953
# 6 -23.6017 -24.5168 -33.3603 -1.5522 3.0953 46.2590
#
#
#
# Elastic Compliance Matrix: (Units=1/GPa)
#
#
# Indices 1 2 3 4 5 6 
#
# 1 0.012880 -0.003202 -0.005064 0.002305 0.000969 0.001235
# 2 -0.003202 0.017022 -0.000338 -0.001631 -0.001928 0.007218
# 3 -0.005064 -0.000338 0.011125 -0.009234 -0.003969 0.005216
# 4 0.002305 -0.001631 -0.009234 0.047124 0.010147 -0.005446
# 5 0.000969 -0.001928 -0.003969 0.010147 0.024774 -0.004707
# 6 0.001235 0.007218 0.005216 -0.005446 -0.004707 0.029967
#
#
# Mechanical properties :
#
#
# Convention : Reuss Voigt Hill
#
# Bulk Modulus (GPa) = 41.98434 69.87524 55.92979
# Shear Modulus (GPa) = 29.75493 38.18182 33.96838
#
# Velocity S-wave (km/s) = 3.53133 4.00025 3.77308
# Velocity P-wave (km/s) = 5.85001 7.11481 6.51319
#
# Compressibility (1/GPa) = 0.02381840
#
# Stress axis : x y z
#
# Youngs Moduli (GPa) = 77.63816 58.74894 89.88835
#
# Poissons Ratio (x) = 0.18811 0.45521
# Poissons Ratio (y) = 0.24859 0.03039
# Poissons Ratio (z) = 0.39317 0.01986
#
# Static dielectric constant tensor:
#      x y z
#    x 1.960670 -0.011990 0.048050 
#    y -0.011990 1.943980 0.030360 
#    z 0.048050 0.030360 2.035040 
# 
# From -- ./inp_files/80751.got.cif
#   From: 2010.05.17/outbox.cif.g08.bks.cpg/sg2_41_cif.got.tgz:80751.got - 2010.06.03 11:33:40.
