data_PCOD9028223
_publ_section_title
;
Structure prediction by ZEFSAII (Michael W. Deem and Ramdas Pophale) SiO2 
 PCOD9028223
Probable space group: P -1
;
_chemical_formula_sum "Si O2"
_cell_formula_units_Z 14
_cell_length_a 21.893221
_cell_length_b 9.835477
_cell_length_c 5.459764
_cell_angle_alpha 104.320494
_cell_angle_beta 94.822877
_cell_angle_gamma 143.085972
_cell_volume 598.587261
_symmetry_space_group_name_H-M "P -1"
_symmetry_group_IT_number 2
_symmetry_cell_setting 'triclinic'
loop_
_space_group_symop_operation_xyz
x,y,z
-x,-y,-z
loop_
_atom_site_type_symbol
_atom_site_label
_atom_site_fract_x
_atom_site_fract_y
_atom_site_fract_z
Si Si1 0.566369 0.475700 0.340562
Si Si2 0.183043 0.761004 0.671980
Si Si3 0.812199 0.521119 0.204953
Si Si4 0.057402 0.018459 0.236513
Si Si5 0.031106 0.675741 0.890936
Si Si6 0.445944 0.959080 0.215739
Si Si7 0.616528 0.652117 0.940998
O O1 0.652594 0.670897 0.686911
O O2 0.498559 0.486218 0.242818
O O3 0.481710 0.192344 0.296167
O O4 0.609880 0.523553 0.098558
O O5 0.211136 0.683279 0.812509
O O6 0.108499 0.743242 0.753634
O O7 0.095632 0.526354 0.340602
O O8 0.300271 0.067989 0.787466
O O9 0.944301 0.771906 0.258856
O O10 0.834672 0.685711 0.487440
O O11 0.693921 0.330319 0.941556
O O12 0.092257 0.933136 0.120811
O O13 0.000000 0.000000 0.000000
O O14 0.000000 0.500000 0.000000
O O15 0.500000 0.000000 0.500000
O O16 0.500000 0.000000 0.000000
#
# Coordination Sequence:
#
# PCOD9028223 Si02
#       7
#     2   2   2   2   2   2   2
#     4  10  22  44  65 103 134 173 243 290 349 423
#     4  11  23  42  69 103 138 187 237 300 369 439
#     4  11  25  46  73 103 142 198 246 302 375 451
#     4  11  24  46  74 105 143 190 243 301 375 448
#     4  11  24  42  67 108 141 174 240 305 360 439
#     4  12  28  49  72 107 150 197 250 304 366 450
#     4  10  22  41  72  97 134 182 229 295 353 425
#
# _framework density 23.388401000000002
#
# number of rings (size 3 to 8) (size 9 to 14) (size 15 to 20)
#    0.000    1.143    4.286    0.857    4.000    1.143 
#    7.714    0.000    0.000    0.000    0.000    0.000 
#    0.000    0.000    0.000    0.000    0.000    0.000 
#
# Total GULP energy -77997.480990 kJ/mol
# GULP energy per Si atom -5571.248642 kJ/mol
# Density = 2.333517 g / cm^3
# Si number density = 23.388401 Si / 1000 Ang^3
#
#
#
# Elastic Constant Matrix: (Units=GPa)
#
#
# Indices 1 2 3 4 5 6 
#
# 1 81.0141 23.8556 41.1504 13.1540 1.8458 -12.8973
# 2 23.8556 107.8439 42.4048 8.1862 12.2338 -17.4413
# 3 41.1504 42.4048 124.7952 2.8155 15.6102 -5.0440
# 4 13.1540 8.1862 2.8155 48.7989 -4.3824 3.0183
# 5 1.8458 12.2338 15.6102 -4.3824 40.5390 9.4518
# 6 -12.8973 -17.4413 -5.0440 3.0183 9.4518 34.9537
#
#
#
# Elastic Compliance Matrix: (Units=1/GPa)
#
#
# Indices 1 2 3 4 5 6 
#
# 1 0.016642 -0.000392 -0.004947 -0.004544 -0.000573 0.005779
# 2 -0.000392 0.012461 -0.003207 -0.002633 -0.004433 0.007037
# 3 -0.004947 -0.003207 0.010990 0.001076 -0.002639 -0.001219
# 4 -0.004544 -0.002633 0.001076 0.022870 0.004462 -0.006017
# 5 -0.000573 -0.004433 -0.002639 0.004462 0.030176 -0.011350
# 6 0.005779 0.007037 -0.001219 -0.006017 -0.011350 0.037665
#
#
# Mechanical properties :
#
#
# Convention : Reuss Voigt Hill
#
# Bulk Modulus (GPa) = 43.47194 58.71943 51.09569
# Shear Modulus (GPa) = 32.14127 38.60781 35.37454
#
# Velocity S-wave (km/s) = 3.71110 4.06732 3.89328
# Velocity P-wave (km/s) = 6.08196 6.87155 6.48878
#
# Compressibility (1/GPa) = 0.02300335
#
# Stress axis : x y z
#
# Youngs Moduli (GPa) = 60.08764 80.25045 90.98804
#
# Poissons Ratio (x) = 0.03144 0.45010
# Poissons Ratio (y) = 0.02354 0.29177
# Poissons Ratio (z) = 0.29724 0.25734
#
# Static dielectric constant tensor:
#      x y z
#    x 1.930920 0.157300 -0.095000 
#    y 0.157300 1.928000 -0.055130 
#    z -0.095000 -0.055130 1.995110 
# 
# From -- ./inp_files/78312.got.cif
#   From: 2010.05.17/outbox.cif.g08.bks.cpg/sg2_40_cif.got.tgz:78312.got - 2010.06.03 11:33:40.
