data_PCOD9028463
_publ_section_title
;
Structure prediction by ZEFSAII (Michael W. Deem and Ramdas Pophale) SiO2 
 PCOD9028463
Probable space group: P -1
;
_chemical_formula_sum "Si O2"
_cell_formula_units_Z 14
_cell_length_a 12.154769
_cell_length_b 7.258852
_cell_length_c 14.988537
_cell_angle_alpha 94.385971
_cell_angle_beta 150.924629
_cell_angle_gamma 76.701317
_cell_volume 603.332487
_symmetry_space_group_name_H-M "P -1"
_symmetry_group_IT_number 2
_symmetry_cell_setting 'triclinic'
loop_
_space_group_symop_operation_xyz
x,y,z
-x,-y,-z
loop_
_atom_site_type_symbol
_atom_site_label
_atom_site_fract_x
_atom_site_fract_y
_atom_site_fract_z
Si Si1 0.104085 0.903582 0.793369
Si Si2 0.966590 0.372968 0.688516
Si Si3 0.294835 0.093976 0.626039
Si Si4 0.166412 0.977278 0.030957
Si Si5 0.346616 0.361338 0.823341
Si Si6 0.924187 0.570419 0.048325
Si Si7 0.604173 0.364811 0.282563
O O1 0.057369 0.135394 0.753054
O O2 0.382165 0.778023 0.969120
O O3 0.911250 0.856534 0.592473
O O4 0.071314 0.885836 0.876057
O O5 0.188414 0.416265 0.801276
O O6 0.908740 0.479936 0.747177
O O7 0.749651 0.421735 0.467523
O O8 0.542504 0.113332 0.762198
O O9 0.336282 0.870792 0.680427
O O10 0.235170 0.233433 0.675104
O O11 0.135163 0.198161 0.991235
O O12 0.000000 0.000000 0.000000
O O13 0.341519 0.546372 0.767291
O O14 0.677111 0.536425 0.893654
O O15 0.000000 0.500000 0.000000
#
# Coordination Sequence:
#
# PCOD9028463 Si02
#       7
#     2   2   2   2   2   2   2
#     4   9  20  37  61  91 126 162 203 250 311 367
#     4  10  22  42  62  93 127 162 205 254 308 368
#     4   9  21  40  59  92 126 164 198 250 317 365
#     4   9  19  37  61  85 121 156 209 260 297 360
#     4  11  22  38  67  94 126 163 204 252 304 375
#     4  10  23  40  62  87 122 163 203 256 313 355
#     4  10  23  41  62  93 130 158 205 257 305 366
#
# _framework density 23.204452
#
# number of rings (size 3 to 8) (size 9 to 14) (size 15 to 20)
#    0.000    2.286    0.000    1.714    4.000    6.286 
#    0.000    0.000    0.000    0.000    0.000    0.000 
#    0.000    0.000    0.000    0.000    0.000    0.000 
#
# Total GULP energy -78318.386904 kJ/mol
# GULP energy per Si atom -5594.170493 kJ/mol
# Density = 2.315164 g / cm^3
# Si number density = 23.204452 Si / 1000 Ang^3
#
#
#
# Elastic Constant Matrix: (Units=GPa)
#
#
# Indices 1 2 3 4 5 6 
#
# 1 114.9324 19.9213 31.7440 15.9012 -25.7017 -8.4042
# 2 19.9213 79.1628 45.9978 3.7722 -11.6028 -5.9534
# 3 31.7440 45.9978 137.6357 19.8813 -30.2615 -6.4579
# 4 15.9012 3.7722 19.8813 36.3983 -7.2527 -8.4253
# 5 -25.7017 -11.6028 -30.2615 -7.2527 27.9031 10.7627
# 6 -8.4042 -5.9534 -6.4579 -8.4253 10.7627 34.6367
#
#
#
# Elastic Compliance Matrix: (Units=1/GPa)
#
#
# Indices 1 2 3 4 5 6 
#
# 1 0.011475 -0.001677 0.000576 -0.003455 0.010134 -0.001386
# 2 -0.001677 0.016137 -0.005464 0.002361 -0.001009 0.002236
# 3 0.000576 -0.005464 0.011962 -0.004722 0.011243 -0.003211
# 4 -0.003455 0.002361 -0.004722 0.032651 -0.001582 0.007121
# 5 0.010134 -0.001009 0.011243 -0.001582 0.062482 -0.015418
# 6 -0.001386 0.002236 -0.003211 0.007121 -0.015418 0.034843
#
#
# Mechanical properties :
#
#
# Convention : Reuss Voigt Hill
#
# Bulk Modulus (GPa) = 37.81534 58.56191 48.18863
# Shear Modulus (GPa) = 26.11024 35.39214 30.75119
#
# Velocity S-wave (km/s) = 3.35808 3.90966 3.64432
# Velocity P-wave (km/s) = 5.60067 6.75816 6.20646
#
# Compressibility (1/GPa) = 0.02644430
#
# Stress axis : x y z
#
# Youngs Moduli (GPa) = 87.14442 61.96977 83.59600
#
# Poissons Ratio (x) = 0.10390 -0.04814
# Poissons Ratio (y) = 0.14611 0.45679
# Poissons Ratio (z) = -0.05019 0.33862
#
# Static dielectric constant tensor:
#      x y z
#    x 1.939870 -0.016250 -0.019990 
#    y -0.016250 1.930150 0.007500 
#    z -0.019990 0.007500 1.870220 
# 
# From -- ./inp_files/273340.got.cif
#   From: 2010.05.17/outbox.cif.g08.bks.cpg/sg2_137_cif.got.tgz:273340.got - 2010.06.03 11:33:40.
