data_PCOD9028893
_publ_section_title
;
Structure prediction by ZEFSAII (Michael W. Deem and Ramdas Pophale) SiO2 
 PCOD9028893
Probable space group: P -1
;
_chemical_formula_sum "Si O2"
_cell_formula_units_Z 14
_cell_length_a 8.992944
_cell_length_b 22.785989
_cell_length_c 7.984319
_cell_angle_alpha 40.838932
_cell_angle_beta 47.832501
_cell_angle_gamma 32.556110
_cell_volume 573.103643
_symmetry_space_group_name_H-M "P -1"
_symmetry_group_IT_number 2
_symmetry_cell_setting 'triclinic'
loop_
_space_group_symop_operation_xyz
x,y,z
-x,-y,-z
loop_
_atom_site_type_symbol
_atom_site_label
_atom_site_fract_x
_atom_site_fract_y
_atom_site_fract_z
Si Si1 0.398424 0.194530 0.895961
Si Si2 0.809082 0.578692 0.633111
Si Si3 0.883918 0.136683 0.292171
Si Si4 0.274314 0.286165 0.320155
Si Si5 0.831887 0.192295 0.605780
Si Si6 0.122062 0.628910 0.870629
Si Si7 0.250682 0.086184 0.820418
O O1 0.380184 0.280655 0.589493
O O2 0.636280 0.173338 0.868597
O O3 0.089982 0.280979 0.013418
O O4 0.519392 0.062783 0.032597
O O5 0.935559 0.590925 0.669705
O O6 0.000000 0.500000 0.500000
O O7 0.702631 0.513820 0.909990
O O8 0.573894 0.239516 0.222164
O O9 0.911725 0.151943 0.436918
O O10 0.000000 0.000000 0.500000
O O11 0.065324 0.131806 0.026974
O O12 0.108462 0.331101 0.176250
O O13 0.334594 0.163854 0.584057
O O14 0.719578 0.330399 0.394552
O O15 0.088099 0.118898 0.698188
#
# Coordination Sequence:
#
# PCOD9028893 Si02
#       7
#     2   2   2   2   2   2   2
#     4  11  22  42  65  95 133 168 211 270 324 377
#     4  10  22  42  65  94 124 172 221 268 315 382
#     4  12  25  39  66  99 134 172 213 262 330 394
#     4  11  24  45  65  97 129 173 214 269 329 381
#     4  11  24  42  63  99 131 170 215 265 327 383
#     4  10  25  41  70  89 130 177 219 263 321 384
#     4  11  26  41  68  99 137 165 216 267 326 399
#
# _framework density 24.428391999999999
#
# number of rings (size 3 to 8) (size 9 to 14) (size 15 to 20)
#    0.000    1.143    2.857    1.714    8.000    2.857 
#    0.000    0.000    0.000    6.857    0.000    0.000 
#    0.000    0.000    0.000    0.000    0.000    0.000 
#
# Total GULP energy -78026.427225 kJ/mol
# GULP energy per Si atom -5573.316230 kJ/mol
# Density = 2.437279 g / cm^3
# Si number density = 24.428392 Si / 1000 Ang^3
#
#
#
# Elastic Constant Matrix: (Units=GPa)
#
#
# Indices 1 2 3 4 5 6 
#
# 1 97.5195 20.5368 17.5999 -2.1307 3.5417 6.8431
# 2 20.5368 59.8411 33.3485 -13.7540 -9.2353 11.7105
# 3 17.5999 33.3485 104.3079 -33.7994 -13.3407 2.1848
# 4 -2.1307 -13.7540 -33.7994 45.0679 5.6308 -0.3203
# 5 3.5417 -9.2353 -13.3407 5.6308 49.7365 -3.9761
# 6 6.8431 11.7105 2.1848 -0.3203 -3.9761 28.7472
#
#
#
# Elastic Compliance Matrix: (Units=1/GPa)
#
#
# Indices 1 2 3 4 5 6 
#
# 1 0.011374 -0.003382 -0.001490 -0.001397 -0.001798 -0.001481
# 2 -0.003382 0.023515 -0.005728 0.002394 0.002159 -0.008013
# 3 -0.001490 -0.005728 0.014838 0.009054 0.002154 0.001959
# 4 -0.001397 0.002394 0.009054 0.029696 -0.000474 -0.001066
# 5 -0.001798 0.002159 0.002154 -0.000474 0.021454 0.002347
# 6 -0.001481 -0.008013 0.001959 -0.001066 0.002347 0.038567
#
#
# Mechanical properties :
#
#
# Convention : Reuss Voigt Hill
#
# Bulk Modulus (GPa) = 35.05255 44.95988 40.00621
# Shear Modulus (GPa) = 29.38551 37.38920 33.38735
#
# Velocity S-wave (km/s) = 3.47208 3.91649 3.70096
# Velocity P-wave (km/s) = 5.51852 6.23671 5.88857
#
# Compressibility (1/GPa) = 0.02852860
#
# Stress axis : x y z
#
# Youngs Moduli (GPa) = 87.91892 42.52544 67.39500
#
# Poissons Ratio (x) = 0.14383 0.10039
# Poissons Ratio (y) = 0.29736 0.38601
# Poissons Ratio (z) = 0.13096 0.24357
#
# Static dielectric constant tensor:
#      x y z
#    x 2.314830 -0.050570 0.064700 
#    y -0.050570 1.983060 -0.004290 
#    z 0.064700 -0.004290 1.966630 
# 
# From -- ./inp_files/221611.got.cif
#   From: 2010.05.17/outbox.cif.g08.bks.cpg/sg2_111_cif.got.tgz:221611.got - 2010.06.03 11:33:40.
