data_PCOD9028685
_publ_section_title
;
Structure prediction by ZEFSAII (Michael W. Deem and Ramdas Pophale) SiO2 
 PCOD9028685
Probable space group: P -1
;
_chemical_formula_sum "Si O2"
_cell_formula_units_Z 14
_cell_length_a 9.183624
_cell_length_b 8.111145
_cell_length_c 9.203613
_cell_angle_alpha 120.286181
_cell_angle_beta 94.626276
_cell_angle_gamma 89.761577
_cell_volume 589.545292
_symmetry_space_group_name_H-M "P -1"
_symmetry_group_IT_number 2
_symmetry_cell_setting 'triclinic'
loop_
_space_group_symop_operation_xyz
x,y,z
-x,-y,-z
loop_
_atom_site_type_symbol
_atom_site_label
_atom_site_fract_x
_atom_site_fract_y
_atom_site_fract_z
Si Si1 0.872025 0.993846 0.106114
Si Si2 0.586090 0.624130 0.184174
Si Si3 0.648489 0.688308 0.534701
Si Si4 0.604466 0.063341 0.283522
Si Si5 0.225765 0.629994 0.386703
Si Si6 0.962497 0.827836 0.529242
Si Si7 0.164240 0.445845 0.009334
O O1 0.706946 0.073697 0.150808
O O2 0.838770 0.769848 0.029110
O O3 0.959680 0.104316 0.288074
O O4 0.000000 0.000000 0.000000
O O5 0.562852 0.607520 0.348002
O O6 0.575647 0.845253 0.234212
O O7 0.500000 0.500000 0.000000
O O8 0.750365 0.558015 0.136423
O O9 0.544945 0.824519 0.677876
O O10 0.709870 0.526615 0.571196
O O11 0.791621 0.797397 0.529490
O O12 0.698676 0.170800 0.466474
O O13 0.241926 0.579957 0.197051
O O14 0.051277 0.646245 0.404152
O O15 0.000000 0.000000 0.500000
O O16 0.000000 0.500000 0.000000
#
# Coordination Sequence:
#
# PCOD9028685 Si02
#       7
#     2   2   2   2   2   2   2
#     4  10  22  42  64  93 130 169 217 273 327 387
#     4  11  25  44  67  98 133 173 221 274 333 396
#     4  12  23  42  70 100 132 178 225 276 329 393
#     4  10  24  44  68  95 132 178 222 269 335 406
#     4  11  23  43  66  98 136 176 224 274 329 399
#     4  11  23  42  67  96 133 183 226 267 326 400
#     4  11  23  41  65  96 131 169 218 273 325 385
#
# _framework density 23.747116999999999
#
# number of rings (size 3 to 8) (size 9 to 14) (size 15 to 20)
#    0.000    1.143    0.000    7.286    0.000    5.714 
#    0.000   11.429    0.000    0.000    0.000    0.000 
#    0.000    0.000    0.000    0.000    0.000    0.000 
#
# Total GULP energy -78222.008320 kJ/mol
# GULP energy per Si atom -5587.286309 kJ/mol
# Density = 2.369307 g / cm^3
# Si number density = 23.747117 Si / 1000 Ang^3
#
#
#
# Elastic Constant Matrix: (Units=GPa)
#
#
# Indices 1 2 3 4 5 6 
#
# 1 169.2303 56.4643 44.8421 6.6846 -40.5997 -15.9785
# 2 56.4643 77.7645 38.1640 4.3168 -13.5268 -14.0413
# 3 44.8421 38.1640 118.2468 9.5445 -30.9663 -8.6102
# 4 6.6846 4.3168 9.5445 37.1346 10.6909 -1.9335
# 5 -40.5997 -13.5268 -30.9663 10.6909 59.8296 6.3574
# 6 -15.9785 -14.0413 -8.6102 -1.9335 6.3574 42.1866
#
#
#
# Elastic Compliance Matrix: (Units=1/GPa)
#
#
# Indices 1 2 3 4 5 6 
#
# 1 0.009192 -0.005436 -0.000078 -0.002501 0.005337 0.000738
# 2 -0.005436 0.019289 -0.004523 0.000731 -0.002203 0.003804
# 3 -0.000078 -0.004523 0.011785 -0.004165 0.005788 -0.000193
# 4 -0.002501 0.000731 -0.004165 0.031135 -0.009388 0.001288
# 5 0.005337 -0.002203 0.005788 -0.009388 0.024689 -0.001682
# 6 0.000738 0.003804 -0.000193 0.001288 -0.001682 0.025523
#
#
# Mechanical properties :
#
#
# Convention : Reuss Voigt Hill
#
# Bulk Modulus (GPa) = 49.52713 71.57582 60.55147
# Shear Modulus (GPa) = 33.68882 42.88157 38.28519
#
# Velocity S-wave (km/s) = 3.77058 4.25403 4.01958
# Velocity P-wave (km/s) = 6.31330 7.37125 6.86269
#
# Compressibility (1/GPa) = 0.02019095
#
# Stress axis : x y z
#
# Youngs Moduli (GPa) = 108.78734 51.84340 84.85718
#
# Poissons Ratio (x) = 0.28180 0.00666
# Poissons Ratio (y) = 0.59133 0.38383
# Poissons Ratio (z) = 0.00854 0.23450
#
# Static dielectric constant tensor:
#      x y z
#    x 2.270560 0.231750 -0.231320 
#    y 0.231750 2.071960 -0.177510 
#    z -0.231320 -0.177510 2.063950 
# 
# From -- ./inp_files/160156.got.cif
#   From: 2010.05.17/outbox.cif.g08.bks.cpg/sg2_81_cif.got.tgz:160156.got - 2010.06.03 11:33:40.
