data_PCOD9028907
_publ_section_title
;
Structure prediction by ZEFSAII (Michael W. Deem and Ramdas Pophale) SiO2 
 PCOD9028907
Probable space group: P -1
;
_chemical_formula_sum "Si O2"
_cell_formula_units_Z 14
_cell_length_a 8.627822
_cell_length_b 9.445247
_cell_length_c 25.049829
_cell_angle_alpha 133.013512
_cell_angle_beta 152.670371
_cell_angle_gamma 43.206345
_cell_volume 637.729607
_symmetry_space_group_name_H-M "P -1"
_symmetry_group_IT_number 2
_symmetry_cell_setting 'triclinic'
loop_
_space_group_symop_operation_xyz
x,y,z
-x,-y,-z
loop_
_atom_site_type_symbol
_atom_site_label
_atom_site_fract_x
_atom_site_fract_y
_atom_site_fract_z
Si Si1 0.874189 0.858421 0.047346
Si Si2 0.993751 0.263205 0.193089
Si Si3 0.939698 0.405888 0.782882
Si Si4 0.840297 0.538198 0.028407
Si Si5 0.595595 0.701778 0.567378
Si Si6 0.148737 0.959676 0.406448
Si Si7 0.161443 0.612193 0.621384
O O1 0.032062 0.678362 0.093551
O O2 0.044131 0.030101 0.130844
O O3 0.923185 0.706146 0.971831
O O4 0.500000 0.000000 0.000000
O O5 0.085594 0.407676 0.215878
O O6 0.242163 0.237031 0.314401
O O7 0.561093 0.393498 0.103350
O O8 0.950861 0.211850 0.700790
O O9 0.570583 0.469187 0.719930
O O10 0.230639 0.386561 0.912768
O O11 0.500000 0.500000 0.500000
O O12 0.258643 0.877135 0.478974
O O13 0.913863 0.649638 0.607200
O O14 0.500000 0.000000 0.500000
O O15 0.846123 0.179437 0.356905
O O16 0.000000 0.500000 0.500000
#
# Coordination Sequence:
#
# PCOD9028907 Si02
#       7
#     2   2   2   2   2   2   2
#     4   9  22  42  63  96 129 168 222 267 327 384
#     4  11  24  43  65  97 135 170 219 275 328 387
#     4  12  24  42  67  98 133 173 222 274 323 397
#     4  10  24  42  67  95 131 178 218 266 333 393
#     4  11  22  44  67  95 136 165 215 281 323 394
#     4  10  22  42  65  94 131 173 214 267 336 383
#     4  11  23  40  66  95 129 177 223 260 330 393
#
# _framework density 21.952877999999998
#
# number of rings (size 3 to 8) (size 9 to 14) (size 15 to 20)
#    0.000    1.429    4.286    0.429   10.000    2.857 
#    0.000    1.429    0.000    0.000    0.000    0.000 
#    0.000    0.000    0.000    0.000    0.000    0.000 
#
# Total GULP energy -78012.762060 kJ/mol
# GULP energy per Si atom -5572.340147 kJ/mol
# Density = 2.190291 g / cm^3
# Si number density = 21.952878 Si / 1000 Ang^3
#
#
#
# Elastic Constant Matrix: (Units=GPa)
#
#
# Indices 1 2 3 4 5 6 
#
# 1 52.3811 30.2438 22.8215 8.1536 -9.5827 19.3709
# 2 30.2438 131.9675 58.3756 38.8388 -5.4955 13.6429
# 3 22.8215 58.3756 99.2368 17.5190 -28.2479 7.1290
# 4 8.1536 38.8388 17.5190 46.2288 0.7045 5.9452
# 5 -9.5827 -5.4955 -28.2479 0.7045 37.2659 -5.2945
# 6 19.3709 13.6429 7.1290 5.9452 -5.2945 36.0595
#
#
#
# Elastic Compliance Matrix: (Units=1/GPa)
#
#
# Indices 1 2 3 4 5 6 
#
# 1 0.027498 -0.004183 -0.002342 0.001113 0.002884 -0.012486
# 2 -0.004183 0.013919 -0.006933 -0.008144 -0.004256 -0.000931
# 3 -0.002342 -0.006933 0.018332 -0.001199 0.012622 0.002308
# 4 0.001113 -0.008144 -0.001199 0.029092 -0.002725 -0.002476
# 5 0.002884 -0.004256 0.012622 -0.002725 0.037058 0.003456
# 6 -0.012486 -0.000931 0.002308 -0.002476 0.003456 0.035251
#
#
# Mechanical properties :
#
#
# Convention : Reuss Voigt Hill
#
# Bulk Modulus (GPa) = 30.45575 56.27412 43.36494
# Shear Modulus (GPa) = 25.12438 35.38712 30.25575
#
# Velocity S-wave (km/s) = 3.38667 4.01928 3.71646
# Velocity P-wave (km/s) = 5.40334 6.87235 6.18163
#
# Compressibility (1/GPa) = 0.03283452
#
# Stress axis : x y z
#
# Youngs Moduli (GPa) = 36.36619 71.84569 54.54845
#
# Poissons Ratio (x) = 0.30051 0.12775
# Poissons Ratio (y) = 0.15211 0.37817
# Poissons Ratio (z) = 0.08517 0.49808
#
# Static dielectric constant tensor:
#      x y z
#    x 1.828370 0.001080 -0.078590 
#    y 0.001080 1.870690 -0.113450 
#    z -0.078590 -0.113450 2.082110 
# 
# From -- ./inp_files/106503.got.cif
#   From: 2010.05.17/outbox.cif.g08.bks.cpg/sg2_54_cif.got.tgz:106503.got - 2010.06.03 11:33:40.
