data_PCOD9028501
_publ_section_title
;
Structure prediction by ZEFSAII (Michael W. Deem and Ramdas Pophale) SiO2 
 PCOD9028501
Probable space group: P -1
;
_chemical_formula_sum "Si O2"
_cell_formula_units_Z 12
_cell_length_a 13.809303
_cell_length_b 13.481621
_cell_length_c 5.270103
_cell_angle_alpha 98.965436
_cell_angle_beta 85.042790
_cell_angle_gamma 149.398328
_cell_volume 491.138703
_symmetry_space_group_name_H-M "P -1"
_symmetry_group_IT_number 2
_symmetry_cell_setting 'triclinic'
loop_
_space_group_symop_operation_xyz
x,y,z
-x,-y,-z
loop_
_atom_site_type_symbol
_atom_site_label
_atom_site_fract_x
_atom_site_fract_y
_atom_site_fract_z
Si Si1 0.584982 0.687487 0.538758
Si Si2 0.267828 0.459219 0.171943
Si Si3 0.253596 0.817761 0.182952
Si Si4 0.779937 0.813161 0.040971
Si Si5 0.121826 0.786760 0.705042
Si Si6 0.478269 0.819387 0.043364
O O1 0.500000 0.500000 0.500000
O O2 0.409907 0.595804 0.433770
O O3 0.681483 0.790178 0.829476
O O4 0.739962 0.819894 0.330744
O O5 0.054476 0.296917 0.239048
O O6 0.289683 0.365020 0.029839
O O7 0.125617 0.736418 0.414365
O O8 0.356050 0.802657 0.180329
O O9 0.134439 0.719351 0.909133
O O10 0.427891 0.052704 0.185016
O O11 0.000000 0.000000 0.000000
O O12 0.328092 0.023542 0.775992
O O13 0.342255 0.603428 0.004001
#
# Coordination Sequence:
#
# PCOD9028501 Si02
#       6
#     2   2   2   2   2   2
#     4  10  23  47  66  94 134 171 214 271 337 387
#     4  11  24  43  68 105 127 175 222 276 315 398
#     4   9  21  44  64  90 139 178 205 272 330 376
#     4  11  25  47  70  94 133 177 213 270 338 391
#     4  10  22  42  62  99 130 175 221 262 327 385
#     4   9  22  43  65  95 135 173 220 266 324 385
#
# _framework density 24.433014
#
# number of rings (size 3 to 8) (size 9 to 14) (size 15 to 20)
#    1.000    1.000    0.000    3.000    2.333    5.333 
#   15.000    0.000    0.000    0.000    0.000    0.000 
#    0.000    0.000    0.000    0.000    0.000    0.000 
#
# Total GULP energy -67093.839395 kJ/mol
# GULP energy per Si atom -5591.153283 kJ/mol
# Density = 2.437740 g / cm^3
# Si number density = 24.433014 Si / 1000 Ang^3
#
#
#
# Elastic Constant Matrix: (Units=GPa)
#
#
# Indices 1 2 3 4 5 6 
#
# 1 125.7773 38.3764 32.7870 -15.1342 -6.2311 12.3843
# 2 38.3764 54.7503 14.1197 -12.3850 2.3482 6.8050
# 3 32.7870 14.1197 132.6836 -31.1920 -9.8715 -2.9430
# 4 -15.1342 -12.3850 -31.1920 25.2174 6.9000 -9.2324
# 5 -6.2311 2.3482 -9.8715 6.9000 23.2073 -9.7391
# 6 12.3843 6.8050 -2.9430 -9.2324 -9.7391 50.6452
#
#
#
# Elastic Compliance Matrix: (Units=1/GPa)
#
#
# Indices 1 2 3 4 5 6 
#
# 1 0.010817 -0.007137 -0.001893 -0.000532 0.002377 -0.001436
# 2 -0.007137 0.026111 0.001117 0.011714 -0.008031 -0.001107
# 3 -0.001893 0.001117 0.011553 0.014724 0.001582 0.003973
# 4 -0.000532 0.011714 0.014724 0.070157 -0.011752 0.009941
# 5 0.002377 -0.008031 0.001582 -0.011752 0.052275 0.008500
# 6 -0.001436 -0.001107 0.003973 0.009941 0.008500 0.023923
#
#
# Mechanical properties :
#
#
# Convention : Reuss Voigt Hill
#
# Bulk Modulus (GPa) = 30.62487 53.75306 42.18896
# Shear Modulus (GPa) = 22.56846 35.00918 28.78882
#
# Velocity S-wave (km/s) = 3.04252 3.78943 3.43633
# Velocity P-wave (km/s) = 4.99039 6.41828 5.74884
#
# Compressibility (1/GPa) = 0.03265320
#
# Stress axis : x y z
#
# Youngs Moduli (GPa) = 92.44686 38.29733 86.55813
#
# Poissons Ratio (x) = 0.27334 0.16389
# Poissons Ratio (y) = 0.65983 -0.09666
# Poissons Ratio (z) = 0.17504 -0.04277
#
# Static dielectric constant tensor:
#      x y z
#    x 1.937290 -0.031840 0.015880 
#    y -0.031840 1.952220 0.024300 
#    z 0.015880 0.024300 1.970660 
# 
# From -- ./inp_files/74710.got.cif
#   From: 2010.05.17/outbox.cif.g08.bks.cpg/sg2_38_cif.got.tgz:74710.got - 2010.06.03 11:33:40.
