data_PCOD9028186
_publ_section_title
;
Structure prediction by ZEFSAII (Michael W. Deem and Ramdas Pophale) SiO2 
 PCOD9028186
Probable space group: P -1
;
_chemical_formula_sum "Si O2"
_cell_formula_units_Z 16
_cell_length_a 30.909005
_cell_length_b 5.122132
_cell_length_c 8.379663
_cell_angle_alpha 94.809844
_cell_angle_beta 150.110841
_cell_angle_gamma 78.954025
_cell_volume 639.618338
_symmetry_space_group_name_H-M "P -1"
_symmetry_group_IT_number 2
_symmetry_cell_setting 'triclinic'
loop_
_space_group_symop_operation_xyz
x,y,z
-x,-y,-z
loop_
_atom_site_type_symbol
_atom_site_label
_atom_site_fract_x
_atom_site_fract_y
_atom_site_fract_z
Si Si1 0.060057 0.917376 0.532594
Si Si2 0.010133 0.551532 0.850031
Si Si3 0.323090 0.198102 0.154861
Si Si4 0.307433 0.817778 0.811797
Si Si5 0.758589 0.395333 0.857418
Si Si6 0.502342 0.326998 0.734070
Si Si7 0.413460 0.815076 0.686444
Si Si8 0.786339 0.636834 0.624761
O O1 0.048433 0.623402 0.435361
O O2 0.164399 0.878294 0.898889
O O3 0.000000 0.000000 0.500000
O O4 0.023344 0.138032 0.292045
O O5 0.112023 0.435089 0.114103
O O6 0.000000 0.500000 0.000000
O O7 0.249868 0.458582 0.989361
O O8 0.411957 0.270236 0.370147
O O9 0.358011 0.070245 0.429968
O O10 0.292886 0.978187 0.940534
O O11 0.263923 0.565174 0.638714
O O12 0.262269 0.055172 0.555237
O O13 0.413590 0.720626 0.114932
O O14 0.661354 0.343662 0.510329
O O15 0.783172 0.560064 0.795557
O O16 0.474940 0.621177 0.743448
O O17 0.535651 0.142953 0.988499
#
# Coordination Sequence:
#
# PCOD9028186 Si02
#       8
#     2   2   2   2   2   2   2   2
#     4  12  27  49  82 114 149 198 256 310 372 454
#     4  12  29  52  79 114 155 197 241 316 389 455
#     4  11  26  42  71 106 150 192 249 308 369 433
#     4  12  28  45  76 107 152 194 246 308 372 445
#     4  11  26  45  74 107 146 196 253 307 361 447
#     4  10  22  43  66 109 140 202 242 304 364 441
#     4  10  22  41  72 102 146 194 250 298 367 435
#     4  12  28  50  75 106 148 197 246 302 379 446
#
# _framework density 25.014918999999999
#
# number of rings (size 3 to 8) (size 9 to 14) (size 15 to 20)
#    0.000    0.750    2.500    3.000    8.750    0.500 
#    0.000    0.000    0.000    0.000    0.000    0.000 
#    0.000    0.000    0.000    0.000    0.000    0.000 
#
# Total GULP energy -89730.032739 kJ/mol
# GULP energy per Si atom -5608.127046 kJ/mol
# Density = 2.495798 g / cm^3
# Si number density = 25.014919 Si / 1000 Ang^3
#
#
#
# Elastic Constant Matrix: (Units=GPa)
#
#
# Indices 1 2 3 4 5 6 
#
# 1 115.9164 12.7997 43.8302 -9.5414 12.8047 -4.0419
# 2 12.7997 76.1365 27.0122 6.0068 13.2514 0.7672
# 3 43.8302 27.0122 97.3533 -9.2197 25.8491 -9.5613
# 4 -9.5414 6.0068 -9.2197 50.4289 -8.2552 -8.3198
# 5 12.8047 13.2514 25.8491 -8.2552 39.6978 -1.9410
# 6 -4.0419 0.7672 -9.5613 -8.3198 -1.9410 41.2190
#
#
#
# Elastic Compliance Matrix: (Units=1/GPa)
#
#
# Indices 1 2 3 4 5 6 
#
# 1 0.010467 -0.000250 -0.004475 0.001211 -0.000116 0.000232
# 2 -0.000250 0.015409 -0.003785 -0.003473 -0.003421 -0.002051
# 3 -0.004475 -0.003785 0.015688 0.001882 -0.006954 0.003323
# 4 0.001211 -0.003473 0.001882 0.022433 0.004470 0.005358
# 5 -0.000116 -0.003421 -0.006954 0.004470 0.031869 0.000842
# 6 0.000232 -0.002051 0.003323 0.005358 0.000842 0.026214
#
#
# Mechanical properties :
#
#
# Convention : Reuss Voigt Hill
#
# Bulk Modulus (GPa) = 40.74212 50.74338 45.74275
# Shear Modulus (GPa) = 33.94877 39.98674 36.96775
#
# Velocity S-wave (km/s) = 3.68794 4.00248 3.84842
# Velocity P-wave (km/s) = 5.87001 6.45671 6.17034
#
# Compressibility (1/GPa) = 0.02454463
#
# Stress axis : x y z
#
# Youngs Moduli (GPa) = 95.53711 64.89563 63.74329
#
# Poissons Ratio (x) = 0.01621 0.28525
# Poissons Ratio (y) = 0.02387 0.24128
# Poissons Ratio (z) = 0.42752 0.24564
#
# Static dielectric constant tensor:
#      x y z
#    x 1.945620 0.056270 -0.019430 
#    y 0.056270 1.945330 0.012770 
#    z -0.019430 0.012770 1.972030 
# 
# From -- ./inp_files/358234.got.cif
#   From: 2010.05.17/outbox.cif.g08.bks.cpg/sg2_180_cif.got.tgz:358234.got - 2010.06.03 11:33:40.
