data_PCOD9028916
_publ_section_title
;
Structure prediction by ZEFSAII (Michael W. Deem and Ramdas Pophale) SiO2 
 PCOD9028916
Probable space group: P -1
;
_chemical_formula_sum "Si O2"
_cell_formula_units_Z 16
_cell_length_a 7.012713
_cell_length_b 8.949336
_cell_length_c 13.711321
_cell_angle_alpha 52.943895
_cell_angle_beta 86.948956
_cell_angle_gamma 66.808186
_cell_volume 611.034699
_symmetry_space_group_name_H-M "P -1"
_symmetry_group_IT_number 2
_symmetry_cell_setting 'triclinic'
loop_
_space_group_symop_operation_xyz
x,y,z
-x,-y,-z
loop_
_atom_site_type_symbol
_atom_site_label
_atom_site_fract_x
_atom_site_fract_y
_atom_site_fract_z
Si Si1 0.220399 0.011633 0.508635
Si Si2 0.573279 0.381802 0.650490
Si Si3 0.230138 0.475489 0.042888
Si Si4 0.787264 0.199545 0.225511
Si Si5 0.292698 0.053276 0.282392
Si Si6 0.844144 0.907932 0.157584
Si Si7 0.298184 0.741734 0.110378
Si Si8 0.056908 0.485415 0.391900
O O1 0.360972 0.973634 0.422741
O O2 0.133872 0.252931 0.445106
O O3 0.316469 0.844851 0.658630
O O4 0.000000 0.000000 0.500000
O O5 0.500000 0.500000 0.500000
O O6 0.512886 0.382366 0.768005
O O7 0.750998 0.457042 0.638772
O O8 0.626916 0.146888 0.709778
O O9 0.345949 0.233059 0.167654
O O10 0.231305 0.608081 0.087010
O O11 0.312404 0.575524 0.914399
O O12 0.000000 0.500000 0.000000
O O13 0.033584 0.152918 0.256659
O O14 0.813388 0.018215 0.219567
O O15 0.077824 0.871398 0.126994
O O16 0.867884 0.675109 0.263876
O O17 0.675268 0.079181 0.022686
O O18 0.000000 0.500000 0.500000
#
# Coordination Sequence:
#
# PCOD9028916 Si02
#       8
#     2   2   2   2   2   2   2   2
#     4  10  19  30  49  81 117 142 178 235 292 345
#     4  11  23  38  56  80 116 158 195 234 279 347
#     4   9  18  28  51  80 113 143 179 240 296 340
#     4   9  15  29  46  81 113 137 169 230 294 334
#     4  10  17  32  48  76 109 142 190 232 275 336
#     4   9  15  26  50  79 105 137 178 234 282 326
#     4   9  17  31  49  76 112 145 185 227 288 330
#     4  11  18  33  57  84 113 148 187 235 296 336
#
# _framework density 26.185091
#
# number of rings (size 3 to 8) (size 9 to 14) (size 15 to 20)
#    0.000    2.250    3.750    2.250    1.750    0.000 
#    0.000    2.500    0.000    0.750    0.000    2.625 
#    0.000    0.000    0.000    0.000    0.000    0.000 
#
# Total GULP energy -89275.355405 kJ/mol
# GULP energy per Si atom -5579.709713 kJ/mol
# Density = 2.612549 g / cm^3
# Si number density = 26.185091 Si / 1000 Ang^3
#
#
#
# Elastic Constant Matrix: (Units=GPa)
#
#
# Indices 1 2 3 4 5 6 
#
# 1 65.1635 28.6699 30.2632 -1.3027 5.3049 11.8832
# 2 28.6699 188.8991 93.3376 -18.3215 -16.9560 15.7734
# 3 30.2632 93.3376 267.0441 -7.0335 -23.6820 19.7966
# 4 -1.3027 -18.3215 -7.0335 58.3245 6.3460 -6.8340
# 5 5.3049 -16.9560 -23.6820 6.3460 38.0874 8.0966
# 6 11.8832 15.7734 19.7966 -6.8340 8.0966 25.1456
#
#
#
# Elastic Compliance Matrix: (Units=1/GPa)
#
#
# Indices 1 2 3 4 5 6 
#
# 1 0.018020 -0.001999 -0.001199 -0.000718 -0.002835 -0.005600
# 2 -0.001999 0.007060 -0.001783 0.001373 0.002627 -0.002553
# 3 -0.001199 -0.001783 0.005052 -0.000770 0.003408 -0.003600
# 4 -0.000718 0.001373 -0.000770 0.018700 -0.004274 0.006542
# 5 -0.002835 0.002627 0.003408 -0.004274 0.033851 -0.015053
# 6 -0.005600 -0.002553 -0.003600 0.006542 -0.015053 0.053475
#
#
# Mechanical properties :
#
#
# Convention : Reuss Voigt Hill
#
# Bulk Modulus (GPa) = 49.57416 91.73868 70.65642
# Shear Modulus (GPa) = 32.71314 48.90058 40.80686
#
# Velocity S-wave (km/s) = 3.53838 4.32614 3.95194
# Velocity P-wave (km/s) = 5.97217 7.75015 6.91851
#
# Compressibility (1/GPa) = 0.02017180
#
# Stress axis : x y z
#
# Youngs Moduli (GPa) = 55.49412 141.63614 197.92303
#
# Poissons Ratio (x) = 0.28316 0.23722
# Poissons Ratio (y) = 0.11094 0.35285
# Poissons Ratio (z) = 0.06651 0.25250
#
# Static dielectric constant tensor:
#      x y z
#    x 2.055780 -0.020130 0.071320 
#    y -0.020130 1.961740 0.007920 
#    z 0.071320 0.007920 2.206860 
# 
# From -- ./inp_files/253705.got.cif
#   From: 2010.05.17/outbox.cif.g08.bks.cpg/sg2_127_cif.got.tgz:253705.got - 2010.06.03 11:33:40.
