data_PCOD9028581
_publ_section_title
;
Structure prediction by ZEFSAII (Michael W. Deem and Ramdas Pophale) SiO2 
 PCOD9028581
Probable space group: P -1
;
_chemical_formula_sum "Si O2"
_cell_formula_units_Z 16
_cell_length_a 23.993514
_cell_length_b 6.326579
_cell_length_c 9.950184
_cell_angle_alpha 131.470170
_cell_angle_beta 49.974936
_cell_angle_gamma 137.459159
_cell_volume 728.404838
_symmetry_space_group_name_H-M "P -1"
_symmetry_group_IT_number 2
_symmetry_cell_setting 'triclinic'
loop_
_space_group_symop_operation_xyz
x,y,z
-x,-y,-z
loop_
_atom_site_type_symbol
_atom_site_label
_atom_site_fract_x
_atom_site_fract_y
_atom_site_fract_z
Si Si1 0.278014 0.435213 0.702824
Si Si2 0.836440 0.490351 0.877529
Si Si3 0.563752 0.831282 0.212036
Si Si4 0.130876 0.347021 0.417088
Si Si5 0.566706 0.630927 0.573715
Si Si6 0.987659 0.438823 0.653394
Si Si7 0.565908 0.261362 0.839082
Si Si8 0.744647 0.706587 0.621398
O O1 0.340901 0.303376 0.580078
O O2 0.233440 0.285807 0.565741
O O3 0.348207 0.834155 0.743607
O O4 0.213748 0.396002 0.903130
O O5 0.852064 0.628643 0.759019
O O6 0.927693 0.580616 0.840953
O O7 0.779995 0.083795 0.775772
O O8 0.484638 0.671915 0.370670
O O9 0.525701 0.879605 0.152490
O O10 0.580013 0.534219 0.039847
O O11 0.214866 0.457289 0.420519
O O12 0.081159 0.537061 0.604851
O O13 0.069979 0.956807 0.390083
O O14 0.500000 0.500000 0.500000
O O15 0.575398 0.967100 0.754505
O O16 0.000000 0.500000 0.500000
O O17 0.642277 0.474418 0.703187
#
# Coordination Sequence:
#
# PCOD9028581 Si02
#       8
#     2   2   2   2   2   2   2   2
#     4  12  24  43  63  91 135 169 214 275 325 376
#     4  10  22  42  63  96 129 168 209 260 320 383
#     4  11  23  44  62  84 123 170 222 270 324 379
#     4   9  19  37  68  96 126 166 208 254 316 385
#     4  12  24  39  60  88 118 170 224 267 319 379
#     4   8  16  38  69  96 125 165 208 251 311 384
#     4  11  23  41  64  87 120 170 218 272 324 376
#     4  11  23  40  62  93 131 166 211 269 325 376
#
# _framework density 21.965803999999999
#
# number of rings (size 3 to 8) (size 9 to 14) (size 15 to 20)
#    0.000    1.500    3.750    1.500    1.750    1.000 
#    4.500    0.625    0.000   25.500    0.000    0.000 
#    0.000    0.000    0.000    0.000    0.000    0.000 
#
# Total GULP energy -89327.726656 kJ/mol
# GULP energy per Si atom -5582.982916 kJ/mol
# Density = 2.191581 g / cm^3
# Si number density = 21.965804 Si / 1000 Ang^3
#
#
#
# Elastic Constant Matrix: (Units=GPa)
#
#
# Indices 1 2 3 4 5 6 
#
# 1 116.4899 -1.6726 51.8688 2.7865 -18.8198 -18.7328
# 2 -1.6726 80.8078 26.9031 -1.4491 -7.6257 -19.5485
# 3 51.8688 26.9031 121.5047 -0.4112 -29.8810 -7.8373
# 4 2.7865 -1.4491 -0.4112 39.1802 -3.0304 -2.3717
# 5 -18.8198 -7.6257 -29.8810 -3.0304 33.5369 5.0618
# 6 -18.7328 -19.5485 -7.8373 -2.3717 5.0618 22.3704
#
#
#
# Elastic Compliance Matrix: (Units=1/GPa)
#
#
# Indices 1 2 3 4 5 6 
#
# 1 0.013855 0.005865 -0.005862 0.000170 0.001744 0.014297
# 2 0.005865 0.019152 -0.005484 0.001430 -0.000115 0.019903
# 3 -0.005862 -0.005484 0.013651 0.000618 0.008713 -0.006824
# 4 0.000170 0.001430 0.000618 0.026010 0.002757 0.003742
# 5 0.001744 -0.000115 0.008713 0.002757 0.039418 -0.004215
# 6 0.014297 0.019903 -0.006824 0.003742 -0.004215 0.073027
#
#
# Mechanical properties :
#
#
# Convention : Reuss Voigt Hill
#
# Bulk Modulus (GPa) = 28.01370 52.55567 40.28469
# Shear Modulus (GPa) = 24.04151 35.13104 29.58627
#
# Velocity S-wave (km/s) = 3.31191 4.00353 3.67403
# Velocity P-wave (km/s) = 5.23507 6.73417 6.03138
#
# Compressibility (1/GPa) = 0.03569682
#
# Stress axis : x y z
#
# Youngs Moduli (GPa) = 72.17434 52.21454 73.25409
#
# Poissons Ratio (x) = -0.30621 0.42939
# Poissons Ratio (y) = -0.42327 0.40170
# Poissons Ratio (z) = 0.42306 0.28632
#
# Static dielectric constant tensor:
#      x y z
#    x 1.857490 -0.018490 -0.031700 
#    y -0.018490 1.825680 -0.008010 
#    z -0.031700 -0.008010 1.828140 
# 
# From -- ./inp_files/351078.got.cif
#   From: 2010.05.17/outbox.cif.g08.bks.cpg/sg2_176_cif.got.tgz:351078.got - 2010.06.03 11:33:40.
