data_PCOD9028273
_publ_section_title
;
Structure prediction by ZEFSAII (Michael W. Deem and Ramdas Pophale) SiO2 
 PCOD9028273
Probable space group: P -1
;
_chemical_formula_sum "Si O2"
_cell_formula_units_Z 16
_cell_length_a 15.391102
_cell_length_b 9.107199
_cell_length_c 11.952567
_cell_angle_alpha 74.656535
_cell_angle_beta 37.725345
_cell_angle_gamma 52.707656
_cell_volume 732.002550
_symmetry_space_group_name_H-M "P -1"
_symmetry_group_IT_number 2
_symmetry_cell_setting 'triclinic'
loop_
_space_group_symop_operation_xyz
x,y,z
-x,-y,-z
loop_
_atom_site_type_symbol
_atom_site_label
_atom_site_fract_x
_atom_site_fract_y
_atom_site_fract_z
Si Si1 0.673060 0.257822 0.367037
Si Si2 0.628052 0.023160 0.294733
Si Si3 0.026493 0.620913 0.362658
Si Si4 0.036873 0.446429 0.166812
Si Si5 0.525812 0.630177 0.023575
Si Si6 0.590981 0.000778 0.081991
Si Si7 0.689961 0.081817 0.621930
Si Si8 0.925578 0.356712 0.096337
O O1 0.500000 0.500000 0.500000
O O2 0.684688 0.146887 0.488039
O O3 0.855356 0.236686 0.180350
O O4 0.637493 0.177787 0.313744
O O5 0.500000 0.000000 0.500000
O O6 0.563507 0.074601 0.222353
O O7 0.846079 0.807147 0.116374
O O8 0.956371 0.606066 0.316783
O O9 0.249617 0.506445 0.149013
O O10 0.000000 0.500000 0.500000
O O11 0.898036 0.858774 0.478573
O O12 0.892775 0.455166 0.232104
O O13 0.146861 0.482792 0.962051
O O14 0.191931 0.217960 0.105371
O O15 0.457750 0.826738 0.983971
O O16 0.500000 0.500000 0.000000
O O17 0.390876 0.730821 0.250442
O O18 0.454043 0.956415 0.209718
#
# Coordination Sequence:
#
# PCOD9028273 Si02
#       8
#     2   2   2   2   2   2   2   2
#     4  12  27  42  69 106 146 180 231 292 359 416
#     4  11  24  42  70 103 139 189 235 277 355 425
#     4  12  25  43  77 101 134 187 237 288 349 417
#     4  10  22  41  73  99 137 181 237 280 360 413
#     4  12  29  47  71 103 142 181 234 301 352 406
#     4  11  22  45  71  98 136 186 236 287 343 426
#     4  12  25  47  73 102 140 186 239 286 348 430
#     4  10  24  42  67 103 145 181 229 295 346 423
#
# _framework density 21.857849000000002
#
# number of rings (size 3 to 8) (size 9 to 14) (size 15 to 20)
#    0.000    0.750    3.750    3.000    5.250    3.500 
#    0.000    0.000    0.000    0.000    0.000    0.000 
#    0.000    0.000    0.000    0.000    0.000    0.000 
#
# Total GULP energy -89544.770039 kJ/mol
# GULP energy per Si atom -5596.548127 kJ/mol
# Density = 2.180810 g / cm^3
# Si number density = 21.857849 Si / 1000 Ang^3
#
#
#
# Elastic Constant Matrix: (Units=GPa)
#
#
# Indices 1 2 3 4 5 6 
#
# 1 117.9165 15.9729 30.2834 7.0843 16.9892 31.5609
# 2 15.9729 88.4451 6.4306 12.0351 -1.1610 3.3514
# 3 30.2834 6.4306 62.3072 13.5366 2.4382 5.0689
# 4 7.0843 12.0351 13.5366 39.9552 5.9403 -1.9487
# 5 16.9892 -1.1610 2.4382 5.9403 33.5142 5.2008
# 6 31.5609 3.3514 5.0689 -1.9487 5.2008 47.5061
#
#
#
# Elastic Compliance Matrix: (Units=1/GPa)
#
#
# Indices 1 2 3 4 5 6 
#
# 1 0.012711 -0.001770 -0.005318 0.000488 -0.005091 -0.007175
# 2 -0.001770 0.012141 0.000354 -0.003761 0.001973 -0.000089
# 3 -0.005318 0.000354 0.019773 -0.006149 0.002219 0.000903
# 4 0.000488 -0.003761 -0.006149 0.029085 -0.005456 0.002387
# 5 -0.005091 0.001973 0.002219 -0.005456 0.033429 -0.000877
# 6 -0.007175 -0.000089 0.000903 0.002387 -0.000877 0.025920
#
#
# Mechanical properties :
#
#
# Convention : Reuss Voigt Hill
#
# Bulk Modulus (GPa) = 32.09531 41.56026 36.82778
# Shear Modulus (GPa) = 31.86459 38.59390 35.22924
#
# Velocity S-wave (km/s) = 3.82227 4.20655 4.01901
# Velocity P-wave (km/s) = 5.84767 6.53059 6.19854
#
# Compressibility (1/GPa) = 0.03115720
#
# Stress axis : x y z
#
# Youngs Moduli (GPa) = 78.67357 82.36278 50.57308
#
# Poissons Ratio (x) = 0.14580 0.26896
# Poissons Ratio (y) = 0.13927 -0.01792
# Poissons Ratio (z) = 0.41841 -0.02919
#
# Static dielectric constant tensor:
#      x y z
#    x 1.939050 -0.032770 -0.184650 
#    y -0.032770 1.824740 0.136440 
#    z -0.184650 0.136440 2.240250 
# 
# From -- ./inp_files/447075.got.cif
#   From: 2010.05.17/outbox.cif.g08.bks.cpg/sg2_224_cif.got.tgz:447075.got - 2010.06.03 11:33:40.
