data_PCOD9028205
_publ_section_title
;
Structure prediction by ZEFSAII (Michael W. Deem and Ramdas Pophale) SiO2 
 PCOD9028205
Probable space group: P -1
;
_chemical_formula_sum "Si O2"
_cell_formula_units_Z 10
_cell_length_a 8.837096
_cell_length_b 8.855326
_cell_length_c 7.325273
_cell_angle_alpha 71.435800
_cell_angle_beta 130.644188
_cell_angle_gamma 80.305435
_cell_volume 351.587050
_symmetry_space_group_name_H-M "P -1"
_symmetry_group_IT_number 2
_symmetry_cell_setting 'triclinic'
loop_
_space_group_symop_operation_xyz
x,y,z
-x,-y,-z
loop_
_atom_site_type_symbol
_atom_site_label
_atom_site_fract_x
_atom_site_fract_y
_atom_site_fract_z
Si Si1 0.285355 0.516206 0.206353
Si Si2 0.108047 0.133529 0.047876
Si Si3 0.374958 0.702326 0.730139
Si Si4 0.982128 0.668621 0.536425
Si Si5 0.584988 0.986988 0.294528
O O1 0.500000 0.500000 0.500000
O O2 0.462948 0.321456 0.308325
O O3 0.076416 0.643540 0.140024
O O4 0.127573 0.617682 0.861631
O O5 0.315195 0.070431 0.088998
O O6 0.262022 0.070947 0.379170
O O7 0.000000 0.000000 0.000000
O O8 0.373981 0.851008 0.805731
O O9 0.110825 0.750596 0.483054
O O10 0.500000 0.500000 0.000000
O O11 0.000000 0.500000 0.500000
O O12 0.719569 0.806304 0.344826
#
# Coordination Sequence:
#
# PCOD9028205 Si02
#       5
#     2   2   2   2   2
#     4  10  22  44  72 101 149 192 244 304 375 439
#     4  10  22  41  72 108 143 189 254 315 370 439
#     4  10  22  44  68 105 152 193 243 304 378 449
#     4  10  23  45  75 108 148 195 252 309 375 449
#     4  10  22  44  73 105 148 196 248 309 376 447
#
# _framework density 28.442457999999998
#
# number of rings (size 3 to 8) (size 9 to 14) (size 15 to 20)
#    0.000    2.000    0.000    1.800    2.800    0.800 
#   18.000    4.000    0.000    0.000    0.000    0.000 
#    0.000    0.000    0.000    0.000    0.000    0.000 
#
# Total GULP energy -55675.230043 kJ/mol
# GULP energy per Si atom -5567.523004 kJ/mol
# Density = 2.837772 g / cm^3
# Si number density = 28.442458 Si / 1000 Ang^3
#
#
#
# Elastic Constant Matrix: (Units=GPa)
#
#
# Indices 1 2 3 4 5 6 
#
# 1 140.1240 94.2193 71.6482 5.9672 48.3912 -28.6767
# 2 94.2193 164.4863 53.5137 -26.5159 41.5725 -34.8907
# 3 71.6482 53.5137 161.3074 -6.0028 54.9554 -17.6857
# 4 5.9672 -26.5159 -6.0028 57.5003 -24.4372 10.6377
# 5 48.3912 41.5725 54.9554 -24.4372 80.2295 -7.5428
# 6 -28.6767 -34.8907 -17.6857 10.6377 -7.5428 69.3494
#
#
#
# Elastic Compliance Matrix: (Units=1/GPa)
#
#
# Indices 1 2 3 4 5 6 
#
# 1 0.017527 -0.008262 -0.002647 -0.009486 -0.007076 0.003102
# 2 -0.008262 0.012036 -0.000260 0.006523 0.001070 0.001689
# 3 -0.002647 -0.000260 0.009131 -0.001060 -0.004776 0.000746
# 4 -0.009486 0.006523 -0.001060 0.026569 0.010802 -0.003812
# 5 -0.007076 0.001070 -0.004776 0.010802 0.022474 -0.002818
# 6 0.003102 0.001689 0.000746 -0.003812 -0.002818 0.017020
#
#
# Mechanical properties :
#
#
# Convention : Reuss Voigt Hill
#
# Bulk Modulus (GPa) = 61.13608 100.52001 80.82805
# Shear Modulus (GPa) = 37.72293 57.85162 47.78727
#
# Velocity S-wave (km/s) = 3.64578 4.51487 4.10340
# Velocity P-wave (km/s) = 6.26606 7.91182 7.13654
#
# Compressibility (1/GPa) = 0.01635695
#
# Stress axis : x y z
#
# Youngs Moduli (GPa) = 57.05430 83.08657 109.52151
#
# Poissons Ratio (x) = 0.68643 0.28987
# Poissons Ratio (y) = 0.47136 0.02847
# Poissons Ratio (z) = 0.15100 0.02160
#
# Static dielectric constant tensor:
#      x y z
#    x 2.350850 0.069040 -0.101540 
#    y 0.069040 2.278870 0.013430 
#    z -0.101540 0.013430 2.322690 
# 
# From -- ./inp_files/158350.got.cif
#   From: 2010.05.17/outbox.cif.g08.bks.cpg/sg2_80_cif.got.tgz:158350.got - 2010.06.03 11:33:40.
