data_PCOD9028327
_publ_section_title
;
Structure prediction by ZEFSAII (Michael W. Deem and Ramdas Pophale) SiO2 
 PCOD9028327
Probable space group: P -1
;
_chemical_formula_sum "Si O2"
_cell_formula_units_Z 12
_cell_length_a 8.075093
_cell_length_b 12.727389
_cell_length_c 8.644703
_cell_angle_alpha 131.654163
_cell_angle_beta 128.391084
_cell_angle_gamma 81.315290
_cell_volume 465.436143
_symmetry_space_group_name_H-M "P -1"
_symmetry_group_IT_number 2
_symmetry_cell_setting 'triclinic'
loop_
_space_group_symop_operation_xyz
x,y,z
-x,-y,-z
loop_
_atom_site_type_symbol
_atom_site_label
_atom_site_fract_x
_atom_site_fract_y
_atom_site_fract_z
Si Si1 0.752069 0.907286 0.180398
Si Si2 0.534575 0.957473 0.655011
Si Si3 0.101983 0.387483 0.385786
Si Si4 0.068472 0.118308 0.311284
Si Si5 0.156343 0.611370 0.064927
Si Si6 0.370980 0.384721 0.995182
O O1 0.547708 0.941773 0.176816
O O2 0.697911 0.726931 0.999082
O O3 0.000000 0.000000 0.500000
O O4 0.839666 0.989895 0.145419
O O5 0.781242 0.948554 0.765625
O O6 0.343484 0.777713 0.400505
O O7 0.500000 0.000000 0.500000
O O8 0.006973 0.234051 0.285028
O O9 0.378219 0.484522 0.669922
O O10 0.000000 0.500000 0.500000
O O11 0.996742 0.355893 0.121454
O O12 0.268703 0.240052 0.669510
O O13 0.276655 0.501335 0.974944
O O14 0.000000 0.500000 0.000000
#
# Coordination Sequence:
#
# PCOD9028327 Si02
#       6
#     2   2   2   2   2   2
#     4  10  22  41  77 103 140 196 237 293 371 423
#     4  12  23  42  74 103 146 193 235 296 367 423
#     4  12  25  43  76 107 140 199 244 289 372 432
#     4  11  22  45  72 105 147 189 240 301 360 431
#     4  12  27  46  74 107 148 189 244 305 358 431
#     4  11  22  46  73 104 144 189 241 298 359 431
#
# _framework density 25.782267999999998
#
# number of rings (size 3 to 8) (size 9 to 14) (size 15 to 20)
#    0.000    0.667    6.667    3.500    0.000    0.667 
#    0.000    3.333    3.667    0.000    0.000    0.000 
#    0.000    0.000    0.000    0.000    0.000    0.000 
#
# Total GULP energy -66960.156525 kJ/mol
# GULP energy per Si atom -5580.013044 kJ/mol
# Density = 2.572359 g / cm^3
# Si number density = 25.782268 Si / 1000 Ang^3
#
#
#
# Elastic Constant Matrix: (Units=GPa)
#
#
# Indices 1 2 3 4 5 6 
#
# 1 120.6837 57.3300 21.7652 -19.8472 -0.1155 -3.9005
# 2 57.3300 226.1136 26.7861 -3.8943 8.1915 15.9807
# 3 21.7652 26.7861 75.1419 8.4049 11.2932 -4.4400
# 4 -19.8472 -3.8943 8.4049 54.5987 0.3868 11.9858
# 5 -0.1155 8.1915 11.2932 0.3868 38.6012 10.9054
# 6 -3.9005 15.9807 -4.4400 11.9858 10.9054 51.3051
#
#
#
# Elastic Compliance Matrix: (Units=1/GPa)
#
#
# Indices 1 2 3 4 5 6 
#
# 1 0.010590 -0.002322 -0.002896 0.004113 0.001320 0.000036
# 2 -0.002322 0.005316 -0.001326 0.000168 -0.000200 -0.001944
# 3 -0.002896 -0.001326 0.016163 -0.004429 -0.005483 0.003792
# 4 0.004113 0.000168 -0.004429 0.021753 0.002686 -0.005776
# 5 0.001320 -0.000200 -0.005483 0.002686 0.029571 -0.007225
# 6 0.000036 -0.001944 0.003792 -0.005776 -0.007225 0.023313
#
#
# Mechanical properties :
#
#
# Convention : Reuss Voigt Hill
#
# Bulk Modulus (GPa) = 52.68291 70.41133 61.54712
# Shear Modulus (GPa) = 39.64478 49.97152 44.80815
#
# Velocity S-wave (km/s) = 3.92558 4.40729 4.17339
# Velocity P-wave (km/s) = 6.40508 7.29851 6.86634
#
# Compressibility (1/GPa) = 0.01898149
#
# Stress axis : x y z
#
# Youngs Moduli (GPa) = 94.42838 188.12026 61.86874
#
# Poissons Ratio (x) = 0.43673 0.17918
# Poissons Ratio (y) = 0.21922 0.08204
# Poissons Ratio (z) = 0.27348 0.24946
#
# Static dielectric constant tensor:
#      x y z
#    x 0.597860 -0.048690 0.733280 
#    y -0.048690 2.034180 -0.049190 
#    z 0.733280 -0.049190 1.729450 
# 
# From -- ./inp_files/191016.got.cif
#   From: 2010.05.17/outbox.cif.g08.bks.cpg/sg2_96_cif.got.tgz:191016.got - 2010.06.03 11:33:40.
