data_PCOD9028996
_publ_section_title
;
Structure prediction by ZEFSAII (Michael W. Deem and Ramdas Pophale) SiO2 
 PCOD9028996
Probable space group: P -1
;
_chemical_formula_sum "Si O2"
_cell_formula_units_Z 14
_cell_length_a 17.220950
_cell_length_b 5.493778
_cell_length_c 25.089512
_cell_angle_alpha 89.109811
_cell_angle_beta 15.340903
_cell_angle_gamma 83.757814
_cell_volume 587.151749
_symmetry_space_group_name_H-M "P -1"
_symmetry_group_IT_number 2
_symmetry_cell_setting 'triclinic'
loop_
_space_group_symop_operation_xyz
x,y,z
-x,-y,-z
loop_
_atom_site_type_symbol
_atom_site_label
_atom_site_fract_x
_atom_site_fract_y
_atom_site_fract_z
Si Si1 0.203671 0.253601 0.333073
Si Si2 0.251217 0.014952 0.088551
Si Si3 0.740406 0.014607 0.595161
Si Si4 0.236768 0.108349 0.720505
Si Si5 0.797336 0.808926 0.137474
Si Si6 0.872101 0.357911 0.245166
Si Si7 0.262888 0.753311 0.183116
O O1 0.000000 0.500000 0.500000
O O2 0.954670 0.191658 0.459809
O O3 0.521608 0.238979 0.092894
O O4 0.332091 0.035176 0.295799
O O5 0.504092 0.133055 0.941689
O O6 0.020463 0.223508 0.202142
O O7 0.101162 0.936444 0.239468
O O8 0.456437 0.122360 0.742156
O O9 0.988589 0.753886 0.404208
O O10 0.347721 0.137231 0.706597
O O11 0.024955 0.404240 0.843147
O O12 0.500000 0.000000 0.500000
O O13 0.081237 0.886001 0.824037
O O14 0.000000 0.500000 0.000000
O O15 0.000000 0.000000 0.000000
O O16 0.500000 0.500000 0.500000
O O17 0.500000 0.500000 0.000000
#
# Coordination Sequence:
#
# PCOD9028996 Si02
#       7
#     2   2   2   2   2   2   2
#     4  10  22  44  69  98 132 185 230 293 350 421
#     4  10  23  38  65  99 132 171 237 283 350 422
#     4  10  25  43  68 100 138 179 239 287 359 424
#     4  10  24  45  68 101 136 189 240 284 351 417
#     4  12  29  49  72 109 149 194 239 300 365 434
#     4  10  23  41  68 101 137 181 230 289 346 423
#     4  10  22  42  65  99 129 178 225 298 356 407
#
# _framework density 23.843923
#
# number of rings (size 3 to 8) (size 9 to 14) (size 15 to 20)
#    0.000    1.714    0.000    1.714   12.000    1.143 
#    0.000    0.000    0.000    0.000    0.000    0.000 
#    0.000    0.000    0.000    0.000    0.000    0.000 
#
# Total GULP energy -78148.331032 kJ/mol
# GULP energy per Si atom -5582.023645 kJ/mol
# Density = 2.378965 g / cm^3
# Si number density = 23.843923 Si / 1000 Ang^3
#
#
#
# Elastic Constant Matrix: (Units=GPa)
#
#
# Indices 1 2 3 4 5 6 
#
# 1 185.5630 39.2116 67.6607 0.4649 -22.7619 -2.5721
# 2 39.2116 121.6430 30.8913 22.1182 -12.2038 15.2806
# 3 67.6607 30.8913 94.7400 6.8624 -12.0337 0.7665
# 4 0.4649 22.1182 6.8624 27.2043 -9.6848 5.5246
# 5 -22.7619 -12.2038 -12.0337 -9.6848 51.8976 3.5372
# 6 -2.5721 15.2806 0.7665 5.5246 3.5372 36.5990
#
#
#
# Elastic Compliance Matrix: (Units=1/GPa)
#
#
# Indices 1 2 3 4 5 6 
#
# 1 0.007871 -0.001692 -0.004998 0.003248 0.002458 0.000636
# 2 -0.001692 0.011100 -0.001790 -0.007728 0.000255 -0.003574
# 3 -0.004998 -0.001790 0.014914 -0.002146 0.000420 0.000367
# 4 0.003248 -0.007728 -0.002146 0.047369 0.008252 -0.004448
# 5 0.002458 0.000255 0.000420 0.008252 0.022272 -0.003341
# 6 0.000636 -0.003574 0.000367 -0.004448 -0.003341 0.029847
#
#
# Mechanical properties :
#
#
# Convention : Reuss Voigt Hill
#
# Bulk Modulus (GPa) = 59.08097 75.27479 67.17788
# Shear Modulus (GPa) = 32.05646 40.75233 36.40439
#
# Velocity S-wave (km/s) = 3.67062 4.13865 3.91164
# Velocity P-wave (km/s) = 6.54191 7.38080 6.97398
#
# Compressibility (1/GPa) = 0.01692592
#
# Stress axis : x y z
#
# Youngs Moduli (GPa) = 127.04804 90.08625 67.05118
#
# Poissons Ratio (x) = 0.15242 0.33511
# Poissons Ratio (y) = 0.21495 0.12003
# Poissons Ratio (z) = 0.63496 0.16127
#
# Static dielectric constant tensor:
#      x y z
#    x 1.915290 0.153840 -0.011380 
#    y 0.153840 1.565960 0.342120 
#    z -0.011380 0.342120 1.782920 
# 
# From -- ./inp_files/70920.got.cif
#   From: 2010.05.17/outbox.cif.g08.bks.cpg/sg2_36_cif.got.tgz:70920.got - 2010.06.03 11:33:40.
