data_PCOD9028408
_publ_section_title
;
Structure prediction by ZEFSAII (Michael W. Deem and Ramdas Pophale) SiO2 
 PCOD9028408
Probable space group: P -1
;
_chemical_formula_sum "Si O2"
_cell_formula_units_Z 16
_cell_length_a 22.803188
_cell_length_b 5.884528
_cell_length_c 5.560250
_cell_angle_alpha 61.834428
_cell_angle_beta 75.897946
_cell_angle_gamma 78.493925
_cell_volume 634.815984
_symmetry_space_group_name_H-M "P -1"
_symmetry_group_IT_number 2
_symmetry_cell_setting 'triclinic'
loop_
_space_group_symop_operation_xyz
x,y,z
-x,-y,-z
loop_
_atom_site_type_symbol
_atom_site_label
_atom_site_fract_x
_atom_site_fract_y
_atom_site_fract_z
Si Si1 0.046946 0.852503 0.346217
Si Si2 0.546897 0.852457 0.707553
Si Si3 0.933634 0.722114 0.246101
Si Si4 0.790522 0.235575 0.871916
Si Si5 0.326636 0.066410 0.861971
Si Si6 0.566457 0.277785 0.835644
Si Si7 0.826792 0.066682 0.418196
Si Si8 0.709682 0.764825 0.687856
O O1 0.070958 0.584425 0.593808
O O2 0.003676 0.747791 0.233482
O O3 0.000000 0.000000 0.500000
O O4 0.077999 0.089974 0.067563
O O5 0.571005 0.584365 0.680072
O O6 0.500000 0.000000 0.500000
O O7 0.578057 0.089710 0.686665
O O8 0.503579 0.747948 0.011231
O O9 0.882066 0.847874 0.420860
O O10 0.750183 0.500356 0.738484
O O11 0.830779 0.179633 0.623437
O O12 0.740678 0.029830 0.032560
O O13 0.823771 0.244684 0.092303
O O14 0.330551 0.179933 0.535898
O O15 0.323577 0.244313 0.016208
O O16 0.381974 0.847824 0.967065
O O17 0.759408 0.971081 0.543127
#
# Coordination Sequence:
#
# PCOD9028408 Si02
#       8
#     2   2   2   2   2   2   2   2
#     4  10  22  42  61  93 129 167 220 275 328 407
#     4  10  22  42  61  93 129 167 220 275 328 407
#     4  10  23  39  62  95 126 170 222 270 338 403
#     4  10  22  42  61  92 126 162 214 269 324 398
#     4  10  23  39  62  94 123 166 214 265 329 395
#     4  10  23  39  62  95 126 170 222 270 338 403
#     4  10  23  39  62  94 123 166 214 265 329 395
#     4  10  22  42  61  92 126 162 214 269 324 398
#
# _framework density 25.204153000000002
#
# number of rings (size 3 to 8) (size 9 to 14) (size 15 to 20)
#    0.000    2.000    0.000    1.500    7.000    0.000 
#    0.000    0.000    0.000    0.000    0.000    0.000 
#    0.000    0.000    0.000    0.000    0.000    0.000 
#
# Total GULP energy -89176.535884 kJ/mol
# GULP energy per Si atom -5573.533493 kJ/mol
# Density = 2.514679 g / cm^3
# Si number density = 25.204153 Si / 1000 Ang^3
#
#
#
# Elastic Constant Matrix: (Units=GPa)
#
#
# Indices 1 2 3 4 5 6 
#
# 1 67.9522 15.9893 33.1049 -14.1598 2.9015 15.9703
# 2 15.9893 177.4509 98.4353 -17.2744 9.3798 -9.7075
# 3 33.1049 98.4353 133.3181 9.4277 23.5802 19.5451
# 4 -14.1598 -17.2744 9.4277 40.3569 -8.5781 -1.9667
# 5 2.9015 9.3798 23.5802 -8.5781 49.3308 -5.5507
# 6 15.9703 -9.7075 19.5451 -1.9667 -5.5507 34.3046
#
#
#
# Elastic Compliance Matrix: (Units=1/GPa)
#
#
# Indices 1 2 3 4 5 6 
#
# 1 0.021524 0.004978 -0.010726 0.013231 0.005112 -0.000915
# 2 0.004978 0.019327 -0.021553 0.018415 0.011603 0.018364
# 3 -0.010726 -0.021553 0.035237 -0.026662 -0.019664 -0.025892
# 4 0.013231 0.018415 -0.026662 0.048590 0.019179 0.020132
# 5 0.005112 0.011603 -0.019664 0.019179 0.032578 0.018478
# 6 -0.000915 0.018364 -0.025892 0.020132 0.018478 0.053669
#
#
# Mechanical properties :
#
#
# Convention : Reuss Voigt Hill
#
# Bulk Modulus (GPa) = 46.54107 74.86444 60.70276
# Shear Modulus (GPa) = 18.33590 40.21125 29.27358
#
# Velocity S-wave (km/s) = 2.70014 3.99861 3.41171
# Velocity P-wave (km/s) = 5.31288 7.14746 6.29734
#
# Compressibility (1/GPa) = 0.02148640
#
# Stress axis : x y z
#
# Youngs Moduli (GPa) = 46.45953 51.74236 28.37903
#
# Poissons Ratio (x) = -0.25759 0.30440
# Poissons Ratio (y) = -0.23129 0.61165
# Poissons Ratio (z) = 0.49834 1.11519
#
# Static dielectric constant tensor:
#      x y z
#    x 2.287900 0.021320 -0.085740 
#    y 0.021320 1.962680 0.037010 
#    z -0.085740 0.037010 2.066150 
# 
# From -- ./inp_files/13187.got.cif
#   From: 2010.05.17/outbox.cif.g08.bks.cpg/sg2_7_cif.got.tgz:13187.got - 2010.06.03 11:33:40.
