data_PCOD9028514
_publ_section_title
;
Structure prediction by ZEFSAII (Michael W. Deem and Ramdas Pophale) SiO2 
 PCOD9028514
Probable space group: P -1
;
_chemical_formula_sum "Si O2"
_cell_formula_units_Z 13
_cell_length_a 11.319474
_cell_length_b 9.130160
_cell_length_c 11.406977
_cell_angle_alpha 70.000581
_cell_angle_beta 152.317401
_cell_angle_gamma 103.483252
_cell_volume 508.053558
_symmetry_space_group_name_H-M "P -1"
_symmetry_group_IT_number 2
_symmetry_cell_setting 'triclinic'
loop_
_space_group_symop_operation_xyz
x,y,z
-x,-y,-z
loop_
_atom_site_type_symbol
_atom_site_label
_atom_site_fract_x
_atom_site_fract_y
_atom_site_fract_z
Si Si1 0.146785 0.205892 0.912350
Si Si2 0.764205 0.442094 0.379110
Si Si3 0.505558 0.248197 0.009705
Si Si4 0.982878 0.420547 0.879203
Si Si5 0.202832 0.236543 0.452680
Si Si6 0.203237 0.846750 0.076528
Si Si7 0.000000 0.000000 0.500000
O O1 0.878112 0.314166 0.610636
O O2 0.229259 0.321733 0.054340
O O3 0.288867 0.186308 0.916593
O O4 0.154706 0.031563 0.014722
O O5 0.634226 0.340714 0.199755
O O6 0.000000 0.500000 0.500000
O O7 0.580721 0.608542 0.195502
O O8 0.721888 0.110572 0.196064
O O9 0.882802 0.575750 0.673474
O O10 0.826041 0.279747 0.813532
O O11 0.000000 0.500000 0.000000
O O12 0.501921 0.193376 0.694982
O O13 0.147930 0.144116 0.545597
O O14 0.016964 0.172699 0.208430
#
# Coordination Sequence:
#
# PCOD9028514 Si02
#       7
#     2   2   2   2   2   2   1
#     4  11  22  44  73 104 141 194 247 304 370 440
#     4   9  21  39  64  98 145 188 239 290 369 445
#     4  10  22  42  63 105 148 188 236 297 366 450
#     4  10  25  49  73 105 144 195 253 310 371 436
#     4  11  26  46  72 107 152 193 247 305 375 440
#     4  11  24  51  71 108 147 197 253 304 369 441
#     4  12  24  42  70 108 148 190 240 302 372 444
#
# _framework density 25.587852999999999
#
# number of rings (size 3 to 8) (size 9 to 14) (size 15 to 20)
#    0.000    1.538    1.538    1.846    6.462    1.846 
#   11.077    3.846    0.000    0.000    0.000    0.000 
#    0.000    0.000    0.000    0.000    0.000    0.000 
#
# Total GULP energy -72380.452988 kJ/mol
# GULP energy per Si atom -5567.727153 kJ/mol
# Density = 2.552961 g / cm^3
# Si number density = 25.587853 Si / 1000 Ang^3
#
#
#
# Elastic Constant Matrix: (Units=GPa)
#
#
# Indices 1 2 3 4 5 6 
#
# 1 125.4624 51.6818 37.0378 -17.0328 -0.1998 18.9706
# 2 51.6818 176.5106 66.3934 -67.8578 -1.2636 19.6199
# 3 37.0378 66.3934 104.7241 -34.4554 20.2474 3.3055
# 4 -17.0328 -67.8578 -34.4554 50.2603 -0.2393 -10.9480
# 5 -0.1998 -1.2636 20.2474 -0.2393 38.3324 -11.9596
# 6 18.9706 19.6199 3.3055 -10.9480 -11.9596 51.6103
#
#
#
# Elastic Compliance Matrix: (Units=1/GPa)
#
#
# Indices 1 2 3 4 5 6 
#
# 1 0.009922 -0.002530 -0.002756 -0.002582 0.000490 -0.002943
# 2 -0.002530 0.013393 -0.003006 0.015109 0.002018 -0.000296
# 3 -0.002756 -0.003006 0.016032 0.006061 -0.008398 0.000469
# 4 -0.002582 0.015109 0.006061 0.044433 -0.001203 0.003964
# 5 0.000490 0.002018 -0.008398 -0.001203 0.032745 0.006924
# 6 -0.002943 -0.000296 0.000469 0.003964 0.006924 0.022985
#
#
# Mechanical properties :
#
#
# Convention : Reuss Voigt Hill
#
# Bulk Modulus (GPa) = 43.93264 79.65815 61.79539
# Shear Modulus (GPa) = 30.54719 44.81289 37.68004
#
# Velocity S-wave (km/s) = 3.45891 4.18943 3.84158
# Velocity P-wave (km/s) = 5.75836 7.38922 6.62417
#
# Compressibility (1/GPa) = 0.02276212
#
# Stress axis : x y z
#
# Youngs Moduli (GPa) = 100.78929 74.66799 62.37529
#
# Poissons Ratio (x) = 0.18894 0.17192
# Poissons Ratio (y) = 0.25504 0.18747
# Poissons Ratio (z) = 0.27779 0.22442
#
# Static dielectric constant tensor:
#      x y z
#    x 2.381250 -0.140610 -0.159610 
#    y -0.140610 2.008450 0.109560 
#    z -0.159610 0.109560 2.090640 
# 
# From -- ./inp_files/229985.got.cif
#   From: 2010.05.17/outbox.cif.g08.bks.cpg/sg2_115_cif.got.tgz:229985.got - 2010.06.03 11:33:40.
