data_PCOD9028986
_publ_section_title
;
Structure prediction by ZEFSAII (Michael W. Deem and Ramdas Pophale) SiO2 
 PCOD9028986
Probable space group: P -1
;
_chemical_formula_sum "Si O2"
_cell_formula_units_Z 13
_cell_length_a 7.578129
_cell_length_b 7.036307
_cell_length_c 11.683221
_cell_angle_alpha 127.385957
_cell_angle_beta 76.200042
_cell_angle_gamma 105.947135
_cell_volume 473.841085
_symmetry_space_group_name_H-M "P -1"
_symmetry_group_IT_number 2
_symmetry_cell_setting 'triclinic'
loop_
_space_group_symop_operation_xyz
x,y,z
-x,-y,-z
loop_
_atom_site_type_symbol
_atom_site_label
_atom_site_fract_x
_atom_site_fract_y
_atom_site_fract_z
Si Si1 0.863739 0.517957 0.135653
Si Si2 0.334421 0.157237 0.602447
Si Si3 0.617732 0.036760 0.772052
Si Si4 0.257659 0.989378 0.918520
Si Si5 0.500000 0.500000 0.500000
Si Si6 0.151985 0.702218 0.354868
Si Si7 0.088986 0.192175 0.224833
O O1 0.718451 0.705378 0.225214
O O2 0.763353 0.250561 0.087028
O O3 0.983479 0.615862 0.264834
O O4 0.000000 0.500000 0.000000
O O5 0.384068 0.376229 0.584945
O O6 0.500000 0.000000 0.500000
O O7 0.164530 0.944583 0.515955
O O8 0.465778 0.105566 0.904433
O O9 0.513173 0.775953 0.649823
O O10 0.805905 0.970228 0.770877
O O11 0.679964 0.232586 0.736467
O O12 0.125207 0.903799 0.799022
O O13 0.168660 0.177164 0.078417
O O14 0.150825 0.472005 0.354264
#
# Coordination Sequence:
#
# PCOD9028986 Si02
#       7
#     2   2   2   2   1   2   2
#     4  11  23  45  71 103 145 184 229 300 356 414
#     4  11  23  46  72 102 137 186 239 286 353 424
#     4  11  21  43  66  95 138 183 227 294 347 410
#     4  10  22  42  68  94 143 183 226 291 350 427
#     4  10  22  42  68  96 138 182 234 288 344 422
#     4  10  24  42  67 105 133 182 241 287 346 427
#     4  10  22  42  65  98 135 181 233 281 357 417
#
# _framework density 27.435359999999999
#
# number of rings (size 3 to 8) (size 9 to 14) (size 15 to 20)
#    0.000    1.538    1.538    2.769    0.000    0.615 
#   22.154    0.769    0.000    0.000    0.000    0.000 
#    0.000    0.000    0.000    0.000    0.000    0.000 
#
# Total GULP energy -72463.092984 kJ/mol
# GULP energy per Si atom -5574.084076 kJ/mol
# Density = 2.737292 g / cm^3
# Si number density = 27.435360 Si / 1000 Ang^3
#
#
#
# Elastic Constant Matrix: (Units=GPa)
#
#
# Indices 1 2 3 4 5 6 
#
# 1 126.5708 20.0865 31.4232 -9.6830 -20.7702 6.9234
# 2 20.0865 168.0106 32.7735 4.5450 -17.1926 0.1283
# 3 31.4232 32.7735 119.7129 14.3067 -22.8226 6.5762
# 4 -9.6830 4.5450 14.3067 47.9208 9.1398 2.3200
# 5 -20.7702 -17.1926 -22.8226 9.1398 37.8237 0.4427
# 6 6.9234 0.1283 6.5762 2.3200 0.4427 21.8571
#
#
#
# Elastic Compliance Matrix: (Units=1/GPa)
#
#
# Indices 1 2 3 4 5 6 
#
# 1 0.009256 -0.000471 -0.001736 0.001917 0.003389 -0.002679
# 2 -0.000471 0.006479 -0.001169 -0.000799 0.002168 0.000504
# 3 -0.001736 -0.001169 0.011014 -0.004615 0.006304 -0.002395
# 4 0.001917 -0.000799 -0.004615 0.024304 -0.007949 -0.001633
# 5 0.003389 0.002168 0.006304 -0.007949 0.035043 -0.002849
# 6 -0.002679 0.000504 -0.002395 -0.001633 -0.002849 0.047549
#
#
# Mechanical properties :
#
#
# Convention : Reuss Voigt Hill
#
# Bulk Modulus (GPa) = 50.00876 64.76230 57.38553
# Shear Modulus (GPa) = 33.99904 43.52106 38.76005
#
# Velocity S-wave (km/s) = 3.52411 3.98717 3.76277
# Velocity P-wave (km/s) = 5.90140 6.69727 6.31189
#
# Compressibility (1/GPa) = 0.01999650
#
# Stress axis : x y z
#
# Youngs Moduli (GPa) = 108.03991 154.33389 90.79320
#
# Poissons Ratio (x) = 0.07267 0.15766
# Poissons Ratio (y) = 0.05087 0.10615
# Poissons Ratio (z) = 0.18760 0.18044
#
# Static dielectric constant tensor:
#      x y z
#    x 0.904170 -0.082130 0.260280 
#    y -0.082130 2.112290 -0.056490 
#    z 0.260280 -0.056490 2.143850 
# 
# From -- ./inp_files/490167.got.cif
#   From: 2010.05.17/outbox.cif.g08.bks.cpg/sg2_246_cif.got.tgz:490167.got - 2010.06.03 11:33:40.
