data_PCOD9028575
_publ_section_title
;
Structure prediction by ZEFSAII (Michael W. Deem and Ramdas Pophale) SiO2 
 PCOD9028575
Probable space group: P -1
;
_chemical_formula_sum "Si O2"
_cell_formula_units_Z 16
_cell_length_a 11.846726
_cell_length_b 6.133341
_cell_length_c 25.854033
_cell_angle_alpha 129.827203
_cell_angle_beta 150.501912
_cell_angle_gamma 60.528347
_cell_volume 699.649445
_symmetry_space_group_name_H-M "P -1"
_symmetry_group_IT_number 2
_symmetry_cell_setting 'triclinic'
loop_
_space_group_symop_operation_xyz
x,y,z
-x,-y,-z
loop_
_atom_site_type_symbol
_atom_site_label
_atom_site_fract_x
_atom_site_fract_y
_atom_site_fract_z
Si Si1 0.229990 0.450270 0.328382
Si Si2 0.119838 0.188749 0.769651
Si Si3 0.887727 0.252619 0.462438
Si Si4 0.479966 0.082196 0.065059
Si Si5 0.628301 0.751630 0.222212
Si Si6 0.873205 0.260414 0.979430
Si Si7 0.942704 0.146276 0.872909
Si Si8 0.742146 0.637046 0.553767
O O1 0.470777 0.640134 0.435282
O O2 0.235410 0.478263 0.396776
O O3 0.994261 0.531912 0.223522
O O4 0.220679 0.120183 0.258270
O O5 0.163654 0.188921 0.726101
O O6 0.362745 0.133158 0.880778
O O7 0.917182 0.935082 0.666890
O O8 0.822832 0.441898 0.512094
O O9 0.000000 0.500000 0.500000
O O10 0.674447 0.034254 0.319061
O O11 0.000000 0.000000 0.500000
O O12 0.603769 0.415103 0.178357
O O13 0.209978 0.081966 0.973029
O O14 0.500000 0.000000 0.000000
O O15 0.376801 0.757279 0.098070
O O16 0.844178 0.239851 0.902334
O O17 0.025871 0.560676 0.102726
O O18 0.000000 0.000000 0.000000
#
# Coordination Sequence:
#
# PCOD9028575 Si02
#       8
#     2   2   2   2   2   2   2   2
#     4  11  25  44  68  98 139 185 233 295 358 430
#     4  12  22  41  67  96 133 178 232 281 352 432
#     4  12  25  47  74 105 145 190 243 305 362 433
#     4  11  24  41  66  99 134 176 227 295 358 427
#     4  11  24  41  67  99 134 180 231 296 360 422
#     4  10  22  42  66  95 131 176 229 285 362 425
#     4  10  22  42  63  95 134 171 229 290 354 427
#     4  11  25  45  66 101 140 182 237 293 361 429
#
# _framework density 22.868597000000001
#
# number of rings (size 3 to 8) (size 9 to 14) (size 15 to 20)
#    0.000    1.000    1.250    5.625    0.000    5.000 
#    2.250    0.000    0.000    0.000    0.000    0.000 
#    0.000    0.000    0.000    0.000    0.000    0.000 
#
# Total GULP energy -89164.937290 kJ/mol
# GULP energy per Si atom -5572.808581 kJ/mol
# Density = 2.281655 g / cm^3
# Si number density = 22.868597 Si / 1000 Ang^3
#
#
#
# Elastic Constant Matrix: (Units=GPa)
#
#
# Indices 1 2 3 4 5 6 
#
# 1 99.6812 11.7955 17.4642 11.6411 9.4194 -4.6892
# 2 11.7955 115.5288 20.7457 1.2316 8.4794 -10.5221
# 3 17.4642 20.7457 54.1140 18.7714 9.3468 7.7429
# 4 11.6411 1.2316 18.7714 36.8667 -11.7993 -0.1559
# 5 9.4194 8.4794 9.3468 -11.7993 40.3408 4.7435
# 6 -4.6892 -10.5221 7.7429 -0.1559 4.7435 23.4251
#
#
#
# Elastic Compliance Matrix: (Units=1/GPa)
#
#
# Indices 1 2 3 4 5 6 
#
# 1 0.011374 -0.000110 -0.002315 -0.003534 -0.003564 0.003691
# 2 -0.000110 0.010298 -0.005429 0.002153 -0.001030 0.006621
# 3 -0.002315 -0.005429 0.030673 -0.017724 -0.009283 -0.011279
# 4 -0.003534 0.002153 -0.017724 0.042504 0.016553 0.003049
# 5 -0.003564 -0.001030 -0.009283 0.016553 0.033389 -0.004758
# 6 0.003691 0.006621 -0.011279 0.003049 -0.004758 0.051114
#
#
# Mechanical properties :
#
#
# Convention : Reuss Voigt Hill
#
# Bulk Modulus (GPa) = 27.29485 41.03722 34.16604
# Shear Modulus (GPa) = 24.12292 34.74777 29.43534
#
# Velocity S-wave (km/s) = 3.25137 3.90225 3.59158
# Velocity P-wave (km/s) = 5.10457 6.18766 5.67202
#
# Compressibility (1/GPa) = 0.03663694
#
# Stress axis : x y z
#
# Youngs Moduli (GPa) = 87.92224 97.11064 32.60149
#
# Poissons Ratio (x) = 0.01070 0.07547
# Poissons Ratio (y) = 0.00969 0.17698
# Poissons Ratio (z) = 0.20354 0.52718
#
# Static dielectric constant tensor:
#      x y z
#    x 1.987710 0.121150 0.043370 
#    y 0.121150 1.947920 -0.015620 
#    z 0.043370 -0.015620 1.835720 
# 
# From -- ./inp_files/84258.got.cif
#   From: 2010.05.17/outbox.cif.g08.bks.cpg/sg2_43_cif.got.tgz:84258.got - 2010.06.03 11:33:40.
