data_PCOD9028250
_publ_section_title
;
Structure prediction by ZEFSAII (Michael W. Deem and Ramdas Pophale) SiO2 
 PCOD9028250
Probable space group: P -1
;
_chemical_formula_sum "Si O2"
_cell_formula_units_Z 14
_cell_length_a 9.539048
_cell_length_b 14.221159
_cell_length_c 20.298668
_cell_angle_alpha 21.729755
_cell_angle_beta 43.402403
_cell_angle_gamma 35.434020
_cell_volume 585.124084
_symmetry_space_group_name_H-M "P -1"
_symmetry_group_IT_number 2
_symmetry_cell_setting 'triclinic'
loop_
_space_group_symop_operation_xyz
x,y,z
-x,-y,-z
loop_
_atom_site_type_symbol
_atom_site_label
_atom_site_fract_x
_atom_site_fract_y
_atom_site_fract_z
Si Si1 0.494876 0.782312 0.699124
Si Si2 0.550761 0.598543 0.490979
Si Si3 0.009497 0.141438 0.701610
Si Si4 0.014610 0.834861 0.035564
Si Si5 0.095836 0.714529 0.841152
Si Si6 0.699247 0.698027 0.163717
Si Si7 0.917137 0.862413 0.672766
O O1 0.290060 0.015577 0.669627
O O2 0.747833 0.513117 0.818284
O O3 0.375757 0.599528 0.831205
O O4 0.500000 0.000000 0.500000
O O5 0.500000 0.500000 0.500000
O O6 0.430639 0.472468 0.662144
O O7 0.368938 0.962515 0.327140
O O8 0.816370 0.464399 0.521600
O O9 0.960786 0.934616 0.804615
O O10 0.025445 0.905551 0.674312
O O11 0.993627 0.044191 0.844250
O O12 0.791650 0.790340 0.134793
O O13 0.000000 0.000000 0.000000
O O14 0.065548 0.516696 0.822875
O O15 0.000000 0.500000 0.000000
O O16 0.500000 0.000000 0.000000
O O17 0.000000 0.000000 0.500000
#
# Coordination Sequence:
#
# PCOD9028250 Si02
#       7
#     2   2   2   2   2   2   2
#     4  10  26  47  75 100 153 195 245 304 387 440
#     4  11  21  42  70 112 145 178 246 316 370 433
#     4  10  23  45  73 102 150 196 248 305 368 458
#     4  12  27  48  72 105 149 202 250 308 381 453
#     4  10  22  41  73 106 141 187 253 301 370 442
#     4  11  25  43  73 104 147 189 255 305 370 448
#     4  10  23  39  70 110 142 188 238 314 376 425
#
# _framework density 23.926549000000001
#
# number of rings (size 3 to 8) (size 9 to 14) (size 15 to 20)
#    0.857    0.571    2.857    1.286    8.000    0.000 
#    0.000    0.714    0.000    0.000    0.000    0.000 
#    0.000    0.000    0.000    0.000    0.000    0.000 
#
# Total GULP energy -77984.677213 kJ/mol
# GULP energy per Si atom -5570.334087 kJ/mol
# Density = 2.387209 g / cm^3
# Si number density = 23.926549 Si / 1000 Ang^3
#
#
#
# Elastic Constant Matrix: (Units=GPa)
#
#
# Indices 1 2 3 4 5 6 
#
# 1 115.5472 29.8324 16.9688 -13.0255 27.1438 -3.9074
# 2 29.8324 112.0523 26.8043 -17.5151 25.5538 14.4331
# 3 16.9688 26.8043 65.7345 -3.4417 16.0007 1.7166
# 4 -13.0255 -17.5151 -3.4417 44.8973 -2.4518 15.0221
# 5 27.1438 25.5538 16.0007 -2.4518 51.1136 -1.3153
# 6 -3.9074 14.4331 1.7166 15.0221 -1.3153 48.0810
#
#
#
# Elastic Compliance Matrix: (Units=1/GPa)
#
#
# Indices 1 2 3 4 5 6 
#
# 1 0.010427 -0.001260 -0.000992 0.002045 -0.004486 0.000499
# 2 -0.001260 0.012793 -0.003313 0.006080 -0.004548 -0.005848
# 3 -0.000992 -0.003313 0.017596 -0.000535 -0.003341 0.000361
# 4 0.002045 0.006080 -0.000535 0.028606 -0.002860 -0.010655
# 5 -0.004486 -0.004548 -0.003341 -0.002860 0.025199 0.002703
# 6 0.000499 -0.005848 0.000361 -0.010655 0.002703 0.025985
#
#
# Mechanical properties :
#
#
# Convention : Reuss Voigt Hill
#
# Bulk Modulus (GPa) = 33.68694 48.94943 41.31818
# Shear Modulus (GPa) = 35.30302 43.46693 39.38498
#
# Velocity S-wave (km/s) = 3.84536 4.26688 4.06159
# Velocity P-wave (km/s) = 5.81598 6.69161 6.26910
#
# Compressibility (1/GPa) = 0.02968510
#
# Stress axis : x y z
#
# Youngs Moduli (GPa) = 95.90760 78.16502 56.83226
#
# Poissons Ratio (x) = 0.09852 0.05636
# Poissons Ratio (y) = 0.12089 0.18830
# Poissons Ratio (z) = 0.09511 0.25898
#
# Static dielectric constant tensor:
#      x y z
#    x 1.956470 -0.036120 0.065400 
#    y -0.036120 1.962690 -0.071120 
#    z 0.065400 -0.071120 2.058990 
# 
# From -- ./inp_files/559531.got.cif
#   From: 2010.05.17/outbox.cif.g08.bks.cpg/sg2_280_cif.got.tgz:559531.got - 2010.06.03 11:33:40.
