data_PCOD9028363
_publ_section_title
;
Structure prediction by ZEFSAII (Michael W. Deem and Ramdas Pophale) SiO2 
 PCOD9028363
Probable space group: P -1
;
_chemical_formula_sum "Si O2"
_cell_formula_units_Z 12
_cell_length_a 5.520222
_cell_length_b 19.600216
_cell_length_c 8.437902
_cell_angle_alpha 38.523484
_cell_angle_beta 64.661290
_cell_angle_gamma 75.498489
_cell_volume 508.107006
_symmetry_space_group_name_H-M "P -1"
_symmetry_group_IT_number 2
_symmetry_cell_setting 'triclinic'
loop_
_space_group_symop_operation_xyz
x,y,z
-x,-y,-z
loop_
_atom_site_type_symbol
_atom_site_label
_atom_site_fract_x
_atom_site_fract_y
_atom_site_fract_z
Si Si1 0.918850 0.171868 0.781339
Si Si2 0.804639 0.030174 0.795045
Si Si3 0.621230 0.922414 0.730241
Si Si4 0.887942 0.622283 0.444510
Si Si5 0.864648 0.716753 0.940175
Si Si6 0.351176 0.615420 0.093463
O O1 0.079984 0.285561 0.595837
O O2 0.910643 0.145962 0.643600
O O3 0.619257 0.155805 0.968590
O O4 0.037783 0.066930 0.010773
O O5 0.771442 0.005574 0.664892
O O6 0.500000 0.000000 0.000000
O O7 0.500000 0.000000 0.500000
O O8 0.793190 0.839931 0.746339
O O9 0.775514 0.667682 0.230557
O O10 0.715566 0.505133 0.747221
O O11 0.186190 0.603480 0.330505
O O12 0.662739 0.654831 0.977409
O O13 0.181043 0.697323 0.893525
#
# Coordination Sequence:
#
# PCOD9028363 Si02
#       6
#     2   2   2   2   2   2
#     4  10  18  34  51  73 106 132 174 219 262 306
#     4   9  19  34  50  70 101 137 173 220 261 303
#     4  11  21  32  50  76 107 145 175 206 258 316
#     4   9  17  27  49  73 100 134 164 216 268 309
#     4  10  17  32  43  74 107 135 165 217 257 310
#     4   9  18  27  48  71 108 130 168 210 273 308
#
# _framework density 23.617070999999999
#
# number of rings (size 3 to 8) (size 9 to 14) (size 15 to 20)
#    1.000    1.333    3.333    0.500    0.000    0.667 
#    0.000    0.000    0.000    0.000    0.000    2.333 
#    0.000    0.000    0.000    0.000    0.000    0.000 
#
# Total GULP energy -66951.247889 kJ/mol
# GULP energy per Si atom -5579.270657 kJ/mol
# Density = 2.356332 g / cm^3
# Si number density = 23.617071 Si / 1000 Ang^3
#
#
#
# Elastic Constant Matrix: (Units=GPa)
#
#
# Indices 1 2 3 4 5 6 
#
# 1 89.0843 40.0230 12.3494 -1.6821 1.2440 19.1236
# 2 40.0230 205.7863 53.1536 -23.0514 4.4843 37.4655
# 3 12.3494 53.1536 58.5217 -8.3058 18.7915 9.0877
# 4 -1.6821 -23.0514 -8.3058 43.9754 1.9634 -4.0649
# 5 1.2440 4.4843 18.7915 1.9634 33.7694 3.8326
# 6 19.1236 37.4655 9.0877 -4.0649 3.8326 40.3856
#
#
#
# Elastic Compliance Matrix: (Units=1/GPa)
#
#
# Indices 1 2 3 4 5 6 
#
# 1 0.013039 -0.001539 -0.001053 -0.000981 0.000900 -0.004694
# 2 -0.001539 0.008101 -0.006960 0.002234 0.003327 -0.005311
# 3 -0.001053 -0.006960 0.028580 0.002602 -0.015347 0.002242
# 4 -0.000981 0.002234 0.002602 0.024562 -0.003203 0.000583
# 5 0.000900 0.003327 -0.015347 -0.003203 0.038320 -0.004018
# 6 -0.004694 -0.005311 0.002242 0.000583 -0.004018 0.031847
#
#
# Mechanical properties :
#
#
# Convention : Reuss Voigt Hill
#
# Bulk Modulus (GPa) = 32.66129 62.71604 47.68866
# Shear Modulus (GPa) = 28.77577 40.15051 34.46314
#
# Velocity S-wave (km/s) = 3.49439 4.12766 3.82415
# Velocity P-wave (km/s) = 5.49004 7.02351 6.30358
#
# Compressibility (1/GPa) = 0.03061728
#
# Stress axis : x y z
#
# Youngs Moduli (GPa) = 76.69164 123.44101 34.98941
#
# Poissons Ratio (x) = 0.18996 0.03685
# Poissons Ratio (y) = 0.11802 0.24351
# Poissons Ratio (z) = 0.08076 0.85910
#
# Static dielectric constant tensor:
#      x y z
#    x 1.975460 0.000580 -0.050360 
#    y 0.000580 1.842030 -0.018870 
#    z -0.050360 -0.018870 1.932800 
# 
# From -- ./inp_files/140033.got.cif
#   From: 2010.05.17/outbox.cif.g08.bks.cpg/sg2_71_cif.got.tgz:140033.got - 2010.06.03 11:33:40.
