data_PCOD9028490
_publ_section_title
;
Structure prediction by ZEFSAII (Michael W. Deem and Ramdas Pophale) SiO2 
 PCOD9028490
Probable space group: P -1
;
_chemical_formula_sum "Si O2"
_cell_formula_units_Z 15
_cell_length_a 15.522978
_cell_length_b 10.366618
_cell_length_c 11.183050
_cell_angle_alpha 70.181048
_cell_angle_beta 29.915404
_cell_angle_gamma 50.733258
_cell_volume 583.608087
_symmetry_space_group_name_H-M "P -1"
_symmetry_group_IT_number 2
_symmetry_cell_setting 'triclinic'
loop_
_space_group_symop_operation_xyz
x,y,z
-x,-y,-z
loop_
_atom_site_type_symbol
_atom_site_label
_atom_site_fract_x
_atom_site_fract_y
_atom_site_fract_z
Si Si1 0.500000 0.000000 0.000000
Si Si2 0.081387 0.857941 0.278236
Si Si3 0.600671 0.758558 0.343557
Si Si4 0.890450 0.976822 0.031523
Si Si5 0.324720 0.368972 0.953840
Si Si6 0.131744 0.312762 0.484770
Si Si7 0.093933 0.626013 0.748073
Si Si8 0.318086 0.691394 0.284496
O O1 0.426200 0.142499 0.164520
O O2 0.616280 0.813663 0.004809
O O3 0.298168 0.708588 0.160513
O O4 0.923529 0.808096 0.464537
O O5 0.174486 0.876378 0.040358
O O6 0.876399 0.079176 0.509639
O O7 0.351140 0.956991 0.641197
O O8 0.547406 0.699041 0.307512
O O9 0.738936 0.587381 0.329315
O O10 0.806813 0.744888 0.051326
O O11 0.081267 0.760122 0.813257
O O12 0.000000 0.000000 0.000000
O O13 0.436658 0.413815 0.900451
O O14 0.027903 0.574796 0.238762
O O15 0.000000 0.500000 0.500000
O O16 0.199804 0.618772 0.498299
#
# Coordination Sequence:
#
# PCOD9028490 Si02
#       8
#     1   2   2   2   2   2   2   2
#     4  10  22  42  62  96 142 166 218 278 336 396
#     4  10  22  42  67  97 136 173 226 276 335 401
#     4  11  25  45  69  98 140 179 229 279 333 405
#     4  11  25  44  71 101 133 185 228 276 336 402
#     4  11  24  40  70 102 130 183 221 278 336 406
#     4  10  23  40  64 100 133 174 223 268 345 399
#     4  10  25  45  67  98 136 180 228 280 340 399
#     4  10  22  42  70  97 135 179 220 285 343 389
#
# _framework density 25.702179000000001
#
# number of rings (size 3 to 8) (size 9 to 14) (size 15 to 20)
#    0.000    1.600    1.333    2.000    7.467    2.667 
#    0.000    1.333    0.000    0.000    0.000    0.000 
#    0.000    0.000    0.000    0.000    0.000    0.000 
#
# Total GULP energy -83686.151879 kJ/mol
# GULP energy per Si atom -5579.076792 kJ/mol
# Density = 2.564368 g / cm^3
# Si number density = 25.702179 Si / 1000 Ang^3
#
#
#
# Elastic Constant Matrix: (Units=GPa)
#
#
# Indices 1 2 3 4 5 6 
#
# 1 84.9960 -6.1497 13.7666 -13.8839 5.7940 -12.9917
# 2 -6.1497 63.8011 12.4900 -6.2475 -4.3522 -3.9720
# 3 13.7666 12.4900 80.2854 -5.8592 12.8540 -19.1277
# 4 -13.8839 -6.2475 -5.8592 44.9516 4.8310 0.8123
# 5 5.7940 -4.3522 12.8540 4.8310 37.8209 -9.3748
# 6 -12.9917 -3.9720 -19.1277 0.8123 -9.3748 27.4179
#
#
#
# Elastic Compliance Matrix: (Units=1/GPa)
#
#
# Indices 1 2 3 4 5 6 
#
# 1 0.013730 0.002247 -0.000881 0.004403 -0.000655 0.005863
# 2 0.002247 0.017005 -0.002711 0.002350 0.002865 0.002547
# 3 -0.000881 -0.002711 0.015858 0.001637 -0.003547 0.008992
# 4 0.004403 0.002350 0.001637 0.024515 -0.003701 0.001577
# 5 -0.000655 0.002865 -0.003547 -0.003701 0.030580 0.008196
# 6 0.005863 0.002547 0.008992 0.001577 0.008196 0.048648
#
#
# Mechanical properties :
#
#
# Convention : Reuss Voigt Hill
#
# Bulk Modulus (GPa) = 22.77712 29.92184 26.34948
# Shear Modulus (GPa) = 29.82195 35.96978 32.89587
#
# Velocity S-wave (km/s) = 3.41000 3.74503 3.58143
# Velocity P-wave (km/s) = 4.93815 5.51065 5.23224
#
# Compressibility (1/GPa) = 0.04390371
#
# Stress axis : x y z
#
# Youngs Moduli (GPa) = 72.83058 58.80539 63.05980
#
# Poissons Ratio (x) = -0.13216 0.05556
# Poissons Ratio (y) = -0.16368 0.17097
# Poissons Ratio (z) = 0.06417 0.15944
#
# Static dielectric constant tensor:
#      x y z
#    x 2.107640 0.063180 0.071180 
#    y 0.063180 1.971450 -0.090050 
#    z 0.071180 -0.090050 1.717160 
# 
# From -- ./inp_files/464436.got.cif
#   From: 2010.05.17/outbox.cif.g08.bks.cpg/sg2_233_cif.got.tgz:464436.got - 2010.06.03 11:33:40.
