data_PCOD9028925
_publ_section_title
;
Structure prediction by ZEFSAII (Michael W. Deem and Ramdas Pophale) SiO2 
 PCOD9028925
Probable space group: P -1
;
_chemical_formula_sum "Si O2"
_cell_formula_units_Z 16
_cell_length_a 18.351366
_cell_length_b 18.005042
_cell_length_c 9.603248
_cell_angle_alpha 45.868601
_cell_angle_beta 134.256211
_cell_angle_gamma 159.811617
_cell_volume 773.273782
_symmetry_space_group_name_H-M "P -1"
_symmetry_group_IT_number 2
_symmetry_cell_setting 'triclinic'
loop_
_space_group_symop_operation_xyz
x,y,z
-x,-y,-z
loop_
_atom_site_type_symbol
_atom_site_label
_atom_site_fract_x
_atom_site_fract_y
_atom_site_fract_z
Si Si1 0.342212 0.277468 0.660010
Si Si2 0.433341 0.573095 0.962615
Si Si3 0.964223 0.087747 0.497952
Si Si4 0.052053 0.386908 0.306787
Si Si5 0.717087 0.179406 0.639534
Si Si6 0.054768 0.392449 0.621060
Si Si7 0.225654 0.166490 0.148359
Si Si8 0.302890 0.810864 0.084403
O O1 0.500000 0.500000 0.500000
O O2 0.153284 0.173327 0.620188
O O3 0.210288 0.085793 0.629516
O O4 0.475750 0.336740 0.878027
O O5 0.237931 0.474482 0.797368
O O6 0.624217 0.754920 0.867135
O O7 0.348267 0.379394 0.084899
O O8 0.079723 0.301390 0.383896
O O9 0.834028 0.953964 0.640737
O O10 0.976121 0.303740 0.473845
O O11 0.253353 0.644134 0.249826
O O12 0.887070 0.300676 0.102861
O O13 0.841107 0.400061 0.511968
O O14 0.672046 0.119239 0.820050
O O15 0.864970 0.227721 0.695922
O O16 0.500000 0.000000 0.500000
O O17 0.000000 0.000000 0.000000
O O18 0.500000 0.000000 0.000000
#
# Coordination Sequence:
#
# PCOD9028925 Si02
#       8
#     2   2   2   2   2   2   2   2
#     4  11  24  43  61  93 136 173 224 277 331 396
#     4  11  24  40  66  95 131 175 220 281 332 394
#     4  11  24  42  66  90 131 178 221 279 331 397
#     4  10  23  42  65  93 126 170 217 271 330 392
#     4  10  22  42  65  95 131 167 216 271 330 397
#     4  10  23  41  64  95 130 167 218 276 328 390
#     4  11  22  40  64  94 129 168 228 274 326 394
#     4  10  22  42  68  96 129 169 216 269 330 404
#
# _framework density 20.691248999999999
#
# number of rings (size 3 to 8) (size 9 to 14) (size 15 to 20)
#    0.000    1.500    2.500    1.500    1.750    8.000 
#    0.000    0.000    0.000    0.000    0.000    0.000 
#    0.000    0.000    0.000    0.000    0.000    0.000 
#
# Total GULP energy -89400.189750 kJ/mol
# GULP energy per Si atom -5587.511859 kJ/mol
# Density = 2.064415 g / cm^3
# Si number density = 20.691249 Si / 1000 Ang^3
#
#
#
# Elastic Constant Matrix: (Units=GPa)
#
#
# Indices 1 2 3 4 5 6 
#
# 1 115.9166 47.0564 63.4408 4.1281 -18.9651 6.6303
# 2 47.0564 64.0170 25.2728 9.0674 -25.5009 9.6569
# 3 63.4408 25.2728 112.4587 19.3066 -29.0238 7.3615
# 4 4.1281 9.0674 19.3066 40.1164 -2.2417 -6.1825
# 5 -18.9651 -25.5009 -29.0238 -2.2417 36.4007 -2.6256
# 6 6.6303 9.6569 7.3615 -6.1825 -2.6256 42.1263
#
#
#
# Elastic Compliance Matrix: (Units=1/GPa)
#
#
# Indices 1 2 3 4 5 6 
#
# 1 0.018272 -0.013682 -0.010495 0.006211 -0.007869 0.002516
# 2 -0.013682 0.033629 0.007892 -0.009868 0.021608 -0.007036
# 3 -0.010495 0.007892 0.018519 -0.009439 0.013964 -0.003909
# 4 0.006211 -0.009868 -0.009439 0.031657 -0.008746 0.007035
# 5 -0.007869 0.021608 0.013964 -0.008746 0.048788 -0.004398
# 6 0.002516 -0.007036 -0.003909 0.007035 -0.004398 0.026397
#
#
# Mechanical properties :
#
#
# Convention : Reuss Voigt Hill
#
# Bulk Modulus (GPa) = 26.41913 62.65914 44.53914
# Shear Modulus (GPa) = 22.47713 34.17016 28.32365
#
# Velocity S-wave (km/s) = 3.29950 4.06819 3.70384
# Velocity P-wave (km/s) = 5.22605 7.23986 6.31376
#
# Compressibility (1/GPa) = 0.03785136
#
# Stress axis : x y z
#
# Youngs Moduli (GPa) = 54.72717 29.73639 53.99812
#
# Poissons Ratio (x) = 0.40685 0.56671
# Poissons Ratio (y) = 0.74877 -0.42618
# Poissons Ratio (z) = 0.57437 -0.23469
#
# Static dielectric constant tensor:
#      x y z
#    x 1.609590 -0.124130 -0.081010 
#    y -0.124130 1.682100 -0.074640 
#    z -0.081010 -0.074640 1.684370 
# 
# From -- ./inp_files/336716.got.cif
#   From: 2010.05.17/outbox.cif.g08.bks.cpg/sg2_169_cif.got.tgz:336716.got - 2010.06.03 11:33:40.
