data_PCOD9028034
_publ_section_title
;
Structure prediction by ZEFSAII (Michael W. Deem and Ramdas Pophale) SiO2 
 PCOD9028034
Probable space group: P -1
;
_chemical_formula_sum "Si O2"
_cell_formula_units_Z 16
_cell_length_a 15.764594
_cell_length_b 8.536156
_cell_length_c 15.712234
_cell_angle_alpha 130.240523
_cell_angle_beta 141.870515
_cell_angle_gamma 79.649195
_cell_volume 714.652460
_symmetry_space_group_name_H-M "P -1"
_symmetry_group_IT_number 2
_symmetry_cell_setting 'triclinic'
loop_
_space_group_symop_operation_xyz
x,y,z
-x,-y,-z
loop_
_atom_site_type_symbol
_atom_site_label
_atom_site_fract_x
_atom_site_fract_y
_atom_site_fract_z
Si Si1 0.493806 0.775111 0.464539
Si Si2 0.907430 0.122196 0.994479
Si Si3 0.264223 0.275575 0.982175
Si Si4 0.741924 0.427342 0.264345
Si Si5 0.923441 0.287551 0.257324
Si Si6 0.135885 0.973021 0.439969
Si Si7 0.625314 0.771857 0.128987
Si Si8 0.158378 0.624342 0.240806
O O1 0.432349 0.539788 0.265616
O O2 0.318989 0.630588 0.341492
O O3 0.500000 0.000000 0.500000
O O4 0.692776 0.925933 0.719401
O O5 0.910924 0.177583 0.116257
O O6 0.043717 0.424777 0.161095
O O7 0.000000 0.000000 0.000000
O O8 0.318680 0.289226 0.932977
O O9 0.090089 0.257888 0.837840
O O10 0.184790 0.985117 0.860765
O O11 0.820772 0.397120 0.231745
O O12 0.860343 0.460454 0.448523
O O13 0.800691 0.727198 0.419177
O O14 0.514066 0.190140 0.996661
O O15 0.240282 0.928987 0.441777
O O16 0.193367 0.977511 0.583108
O O17 0.500000 0.500000 0.000000
O O18 0.000000 0.500000 0.000000
#
# Coordination Sequence:
#
# PCOD9028034 Si02
#       8
#     2   2   2   2   2   2   2   2
#     4  12  27  45  76 105 144 190 242 295 363 421
#     4  12  29  47  76 106 148 188 240 301 355 431
#     4  11  23  42  68  96 139 186 231 290 359 427
#     4   9  22  43  67  93 139 181 227 288 354 415
#     4  10  24  45  66  96 140 185 230 282 363 426
#     4  10  22  41  70  98 137 174 237 293 344 419
#     4  10  23  37  66  97 129 173 234 285 344 405
#     4  12  25  47  73 109 140 190 242 292 361 424
#
# _framework density 22.388504000000001
#
# number of rings (size 3 to 8) (size 9 to 14) (size 15 to 20)
#    0.000    1.250    2.500    1.125    8.750    8.500 
#    0.000    0.000    0.000    0.000    0.000    0.000 
#    0.000    0.000    0.000    0.000    0.000    0.000 
#
# Total GULP energy -89439.690131 kJ/mol
# GULP energy per Si atom -5589.980633 kJ/mol
# Density = 2.233755 g / cm^3
# Si number density = 22.388504 Si / 1000 Ang^3
#
#
#
# Elastic Constant Matrix: (Units=GPa)
#
#
# Indices 1 2 3 4 5 6 
#
# 1 130.7613 27.9237 47.6333 -5.5806 -29.9091 1.2906
# 2 27.9237 60.1296 18.4109 2.8392 -6.0900 -3.5723
# 3 47.6333 18.4109 113.0108 -20.7082 -9.0563 -3.7755
# 4 -5.5806 2.8392 -20.7082 33.9949 -7.0356 4.9877
# 5 -29.9091 -6.0900 -9.0563 -7.0356 44.5662 1.4617
# 6 1.2906 -3.5723 -3.7755 4.9877 1.4617 44.1944
#
#
#
# Elastic Compliance Matrix: (Units=1/GPa)
#
#
# Indices 1 2 3 4 5 6 
#
# 1 0.011271 -0.003691 -0.003346 0.001700 0.006692 -0.001326
# 2 -0.003691 0.019277 -0.002365 -0.004162 -0.001045 0.001968
# 3 -0.003346 -0.002365 0.012044 0.007180 0.001009 0.000092
# 4 0.001700 -0.004162 0.007180 0.036676 0.007958 -0.004175
# 5 0.006692 -0.001045 0.001009 0.007958 0.028315 -0.002028
# 6 -0.001326 0.001968 0.000092 -0.004175 -0.002028 0.023371
#
#
# Mechanical properties :
#
#
# Convention : Reuss Voigt Hill
#
# Bulk Modulus (GPa) = 42.03946 54.64861 48.34404
# Shear Modulus (GPa) = 31.70847 38.54669 35.12758
#
# Velocity S-wave (km/s) = 3.76744 4.15386 3.96536
# Velocity P-wave (km/s) = 6.14352 6.88972 6.52729
#
# Compressibility (1/GPa) = 0.02378717
#
# Stress axis : x y z
#
# Youngs Moduli (GPa) = 88.72558 51.87646 83.02893
#
# Poissons Ratio (x) = 0.19147 0.27780
# Poissons Ratio (y) = 0.32748 0.19639
# Poissons Ratio (z) = 0.29686 0.12270
#
# Static dielectric constant tensor:
#      x y z
#    x 1.847880 -0.029450 0.028120 
#    y -0.029450 1.990460 0.044410 
#    z 0.028120 0.044410 1.881160 
# 
# From -- ./inp_files/315159.got.cif
#   From: 2010.05.17/outbox.cif.g08.bks.cpg/sg2_158_cif.got.tgz:315159.got - 2010.06.03 11:33:40.
