data_PCOD9028672
_publ_section_title
;
Structure prediction by ZEFSAII (Michael W. Deem and Ramdas Pophale) SiO2 
 PCOD9028672
Probable space group: P -1
;
_chemical_formula_sum "Si O2"
_cell_formula_units_Z 16
_cell_length_a 12.784459
_cell_length_b 9.381059
_cell_length_c 10.480270
_cell_angle_alpha 87.725338
_cell_angle_beta 60.778502
_cell_angle_gamma 46.297277
_cell_volume 699.264755
_symmetry_space_group_name_H-M "P -1"
_symmetry_group_IT_number 2
_symmetry_cell_setting 'triclinic'
loop_
_space_group_symop_operation_xyz
x,y,z
-x,-y,-z
loop_
_atom_site_type_symbol
_atom_site_label
_atom_site_fract_x
_atom_site_fract_y
_atom_site_fract_z
Si Si1 0.712225 0.351930 0.903311
Si Si2 0.729977 0.443809 0.612185
Si Si3 0.325888 0.066269 0.651150
Si Si4 0.628410 0.297821 0.332827
Si Si5 0.600773 0.744555 0.026133
Si Si6 0.460639 0.117273 0.222469
Si Si7 0.960682 0.164985 0.230502
Si Si8 0.025297 0.437166 0.134558
O O1 0.788067 0.338052 0.720902
O O2 0.685668 0.511430 0.007647
O O3 0.500000 0.500000 0.000000
O O4 0.849808 0.100540 0.871492
O O5 0.513410 0.594130 0.705248
O O6 0.707588 0.637261 0.623058
O O7 0.860725 0.266766 0.426794
O O8 0.139959 0.317717 0.712460
O O9 0.500000 0.000000 0.500000
O O10 0.328037 0.897297 0.625418
O O11 0.364114 0.028898 0.782053
O O12 0.500000 0.500000 0.500000
O O13 0.817707 0.215784 0.217508
O O14 0.518013 0.827207 0.929955
O O15 0.778977 0.686394 0.923493
O O16 0.452914 0.954895 0.202289
O O17 0.994938 0.297355 0.171249
O O18 0.000000 0.500000 0.000000
#
# Coordination Sequence:
#
# PCOD9028672 Si02
#       8
#     2   2   2   2   2   2   2   2
#     4  11  25  42  67  96 131 171 218 268 334 397
#     4   9  20  42  68  94 130 172 213 269 326 388
#     4  11  21  40  66  97 133 169 220 268 324 390
#     4   9  19  39  65  94 129 168 207 265 324 386
#     4  10  22  42  64  92 128 171 220 263 328 393
#     4   9  19  38  68  87 128 166 218 260 321 379
#     4  11  24  43  64  97 134 170 221 273 332 394
#     4  12  25  41  65  95 127 170 220 274 325 392
#
# _framework density 22.881176
#
# number of rings (size 3 to 8) (size 9 to 14) (size 15 to 20)
#    0.000    1.750    1.250    3.375    5.250    1.000 
#    4.500    8.750    0.000    0.000    0.000    0.000 
#    0.000    0.000    0.000    0.000    0.000    0.000 
#
# Total GULP energy -89300.579035 kJ/mol
# GULP energy per Si atom -5581.286190 kJ/mol
# Density = 2.282910 g / cm^3
# Si number density = 22.881176 Si / 1000 Ang^3
#
#
#
# Elastic Constant Matrix: (Units=GPa)
#
#
# Indices 1 2 3 4 5 6 
#
# 1 102.8175 57.2488 27.0171 9.1886 -6.4903 28.2869
# 2 57.2488 174.6680 35.3791 31.3533 -2.6309 29.9711
# 3 27.0171 35.3791 56.3234 18.1554 1.1605 8.6342
# 4 9.1886 31.3533 18.1554 42.0797 4.3355 6.7507
# 5 -6.4903 -2.6309 1.1605 4.3355 39.8539 5.4928
# 6 28.2869 29.9711 8.6342 6.7507 5.4928 48.8732
#
#
#
# Elastic Compliance Matrix: (Units=1/GPa)
#
#
# Indices 1 2 3 4 5 6 
#
# 1 0.014353 -0.002958 -0.004711 0.001800 0.002943 -0.006240
# 2 -0.002958 0.008346 -0.002040 -0.004382 0.000957 -0.002548
# 3 -0.004711 -0.002040 0.023655 -0.007721 -0.000884 0.000964
# 4 0.001800 -0.004382 -0.007721 0.030411 -0.002961 -0.000858
# 5 0.002943 0.000957 -0.000884 -0.002961 0.026632 -0.004718
# 6 -0.006240 -0.002548 0.000964 -0.000858 -0.004718 0.026114
#
#
# Mechanical properties :
#
#
# Convention : Reuss Voigt Hill
#
# Bulk Modulus (GPa) = 37.12581 63.67764 50.40173
# Shear Modulus (GPa) = 31.66421 40.43895 36.05158
#
# Velocity S-wave (km/s) = 3.72405 4.20854 3.97369
# Velocity P-wave (km/s) = 5.89510 7.17676 6.56727
#
# Compressibility (1/GPa) = 0.02693544
#
# Stress axis : x y z
#
# Youngs Moduli (GPa) = 69.67381 119.81583 42.27442
#
# Poissons Ratio (x) = 0.35442 0.19915
# Poissons Ratio (y) = 0.20610 0.08625
# Poissons Ratio (z) = 0.32823 0.24444
#
# Static dielectric constant tensor:
#      x y z
#    x 1.881060 0.032720 0.035380 
#    y 0.032720 1.880110 0.005040 
#    z 0.035380 0.005040 1.942380 
# 
# From -- ./inp_files/419440.got.cif
#   From: 2010.05.17/outbox.cif.g08.bks.cpg/sg2_210_cif.got.tgz:419440.got - 2010.06.03 11:33:40.
