data_PCOD9028400
_publ_section_title
;
Structure prediction by ZEFSAII (Michael W. Deem and Ramdas Pophale) SiO2 
 PCOD9028400
Probable space group: P -1
;
_chemical_formula_sum "Si O2"
_cell_formula_units_Z 16
_cell_length_a 20.299474
_cell_length_b 11.995765
_cell_length_c 10.111747
_cell_angle_alpha 78.792681
_cell_angle_beta 77.040223
_cell_angle_gamma 20.043863
_cell_volume 821.443962
_symmetry_space_group_name_H-M "P -1"
_symmetry_group_IT_number 2
_symmetry_cell_setting 'triclinic'
loop_
_space_group_symop_operation_xyz
x,y,z
-x,-y,-z
loop_
_atom_site_type_symbol
_atom_site_label
_atom_site_fract_x
_atom_site_fract_y
_atom_site_fract_z
Si Si1 0.183238 0.624495 0.244581
Si Si2 0.187366 0.376025 0.415029
Si Si3 0.601000 0.461371 0.480288
Si Si4 0.620545 0.696305 0.043974
Si Si5 0.551336 0.763052 0.549909
Si Si6 0.608941 0.121671 0.757602
Si Si7 0.868049 0.314444 0.287848
Si Si8 0.102367 0.135674 0.353327
O O1 0.123115 0.590943 0.317884
O O2 0.379094 0.332432 0.310544
O O3 0.233893 0.552727 0.084752
O O4 0.028295 0.963704 0.276885
O O5 0.023273 0.599566 0.541442
O O6 0.372061 0.112794 0.487238
O O7 0.263427 0.165038 0.324248
O O8 0.500000 0.500000 0.500000
O O9 0.494238 0.720870 0.560963
O O10 0.577841 0.549413 0.324090
O O11 0.795895 0.124133 0.546235
O O12 0.474400 0.820089 0.098483
O O13 0.733308 0.533000 0.169121
O O14 0.500000 0.000000 0.000000
O O15 0.736537 0.490862 0.433654
O O16 0.739750 0.027426 0.741742
O O17 0.970128 0.274838 0.278898
#
# Coordination Sequence:
#
# PCOD9028400 Si02
#       8
#     2   2   2   2   2   2   2   2
#     4  12  23  37  64  95 124 158 215 254 310 367
#     4  11  21  35  65  95 124 159 210 259 312 360
#     4   9  18  36  62  89 125 158 196 254 315 357
#     4  12  25  44  64  86 130 169 207 251 316 378
#     4  11  20  37  62  98 123 158 208 264 310 356
#     4  10  22  42  61  90 129 170 200 251 321 371
#     4  12  23  40  64  95 120 162 210 266 305 363
#     4  11  22  37  66  95 127 155 211 264 308 366
#
# _framework density 19.477896000000001
#
# number of rings (size 3 to 8) (size 9 to 14) (size 15 to 20)
#    0.000    1.000    6.250    2.250    1.750    0.000 
#    0.000    1.250    0.000    0.000    0.000    0.000 
#    0.000    0.000    0.000    0.000    0.000    0.000 
#
# Total GULP energy -89256.578113 kJ/mol
# GULP energy per Si atom -5578.536132 kJ/mol
# Density = 1.943356 g / cm^3
# Si number density = 19.477896 Si / 1000 Ang^3
#
#
#
# Elastic Constant Matrix: (Units=GPa)
#
#
# Indices 1 2 3 4 5 6 
#
# 1 104.6267 9.9236 34.6896 -4.0227 -11.6558 -3.5392
# 2 9.9236 66.9123 19.2139 -0.6463 -10.7949 12.6517
# 3 34.6896 19.2139 79.2315 -0.8710 -8.6882 -4.0518
# 4 -4.0227 -0.6463 -0.8710 28.6433 0.6156 -0.9535
# 5 -11.6558 -10.7949 -8.6882 0.6156 31.6025 0.2720
# 6 -3.5392 12.6517 -4.0518 -0.9535 0.2720 30.6020
#
#
#
# Elastic Compliance Matrix: (Units=1/GPa)
#
#
# Indices 1 2 3 4 5 6 
#
# 1 0.011511 -0.000024 -0.004660 0.001436 0.002922 0.000743
# 2 -0.000024 0.018616 -0.004358 -0.000105 0.005226 -0.008326
# 3 -0.004660 -0.004358 0.016017 -0.000179 0.001171 0.003367
# 4 0.001436 -0.000105 -0.000179 0.035154 -0.000251 0.001284
# 5 0.002922 0.005226 0.001171 -0.000251 0.034850 -0.001985
# 6 0.000743 -0.008326 0.003367 0.001284 -0.001985 0.036709
#
#
# Mechanical properties :
#
#
# Convention : Reuss Voigt Hill
#
# Bulk Modulus (GPa) = 35.63761 42.04719 38.84240
# Shear Modulus (GPa) = 27.73252 30.63246 29.18249
#
# Velocity S-wave (km/s) = 3.77741 3.97000 3.87490
# Velocity P-wave (km/s) = 6.11239 6.53059 6.32494
#
# Compressibility (1/GPa) = 0.02806025
#
# Stress axis : x y z
#
# Youngs Moduli (GPa) = 86.87410 53.71671 62.43465
#
# Poissons Ratio (x) = 0.00131 0.29093
# Poissons Ratio (y) = 0.00212 0.27207
# Poissons Ratio (z) = 0.40481 0.23408
#
# Static dielectric constant tensor:
#      x y z
#    x 1.747880 0.001090 -0.006070 
#    y 0.001090 1.715250 -0.018780 
#    z -0.006070 -0.018780 1.659800 
# 
# From -- ./inp_files/239155.got.cif
#   From: 2010.05.17/outbox.cif.g08.bks.cpg/sg2_120_cif.got.tgz:239155.got - 2010.06.03 11:33:40.
