data_PCOD9028983
_publ_section_title
;
Structure prediction by ZEFSAII (Michael W. Deem and Ramdas Pophale) SiO2 
 PCOD9028983
Probable space group: P -1
;
_chemical_formula_sum "Si O2"
_cell_formula_units_Z 12
_cell_length_a 10.015739
_cell_length_b 13.403431
_cell_length_c 5.360194
_cell_angle_alpha 117.655466
_cell_angle_beta 90.621742
_cell_angle_gamma 59.295824
_cell_volume 523.303378
_symmetry_space_group_name_H-M "P -1"
_symmetry_group_IT_number 2
_symmetry_cell_setting 'triclinic'
loop_
_space_group_symop_operation_xyz
x,y,z
-x,-y,-z
loop_
_atom_site_type_symbol
_atom_site_label
_atom_site_fract_x
_atom_site_fract_y
_atom_site_fract_z
Si Si1 0.385774 0.806866 0.578232
Si Si2 0.293404 0.411541 0.849635
Si Si3 0.346035 0.573194 0.396443
Si Si4 0.365350 0.957003 0.237074
Si Si5 0.956867 0.393892 0.294670
Si Si6 0.267572 0.188012 0.842657
O O1 0.582045 0.694424 0.480469
O O2 0.312674 0.717267 0.483529
O O3 0.364584 0.874510 0.385056
O O4 0.325442 0.911145 0.929235
O O5 0.130826 0.545031 0.900982
O O6 0.256895 0.322435 0.914269
O O7 0.387848 0.464040 0.055313
O O8 0.500000 0.500000 0.500000
O O9 0.182611 0.599165 0.541150
O O10 0.550982 0.913611 0.164533
O O11 0.258455 0.112454 0.512873
O O12 0.000000 0.500000 0.500000
O O13 0.119471 0.243361 0.091050
#
# Coordination Sequence:
#
# PCOD9028983 Si02
#       6
#     2   2   2   2   2   2
#     4  11  23  42  68  96 130 178 229 269 330 407
#     4  11  23  40  68 101 135 171 225 285 344 397
#     4  12  24  42  67 102 136 178 220 278 347 408
#     4  10  24  44  68  95 132 184 231 270 325 406
#     4  12  24  40  66 104 139 168 224 282 351 393
#     4  10  22  42  65  98 132 178 223 281 332 397
#
# _framework density 22.931249000000001
#
# number of rings (size 3 to 8) (size 9 to 14) (size 15 to 20)
#    0.000    1.000    3.333    4.000    2.333    7.333 
#    0.000    1.667    0.000    0.000    0.000    0.000 
#    0.000    0.000    0.000    0.000    0.000    0.000 
#
# Total GULP energy -67111.657835 kJ/mol
# GULP energy per Si atom -5592.638153 kJ/mol
# Density = 2.287906 g / cm^3
# Si number density = 22.931249 Si / 1000 Ang^3
#
#
#
# Elastic Constant Matrix: (Units=GPa)
#
#
# Indices 1 2 3 4 5 6 
#
# 1 134.8865 28.1409 54.3900 7.5875 -7.1047 18.3177
# 2 28.1409 63.5822 28.6453 -5.3383 8.6507 14.4786
# 3 54.3900 28.6453 165.1605 13.6118 10.8749 0.3271
# 4 7.5875 -5.3383 13.6118 33.1386 -4.3855 2.1266
# 5 -7.1047 8.6507 10.8749 -4.3855 43.6484 5.7724
# 6 18.3177 14.4786 0.3271 2.1266 5.7724 25.6255
#
#
#
# Elastic Compliance Matrix: (Units=1/GPa)
#
#
# Indices 1 2 3 4 5 6 
#
# 1 0.010323 -0.002067 -0.003242 -0.000416 0.003780 -0.006987
# 2 -0.002067 0.021278 -0.003346 0.005723 -0.001745 -0.010584
# 3 -0.003242 -0.003346 0.008209 -0.003889 -0.002975 0.005096
# 4 -0.000416 0.005723 -0.003889 0.033748 0.004030 -0.006595
# 5 0.003780 -0.001745 -0.002975 0.004030 0.026060 -0.007883
# 6 -0.006987 -0.010584 0.005096 -0.006595 -0.007883 0.052256
#
#
# Mechanical properties :
#
#
# Convention : Reuss Voigt Hill
#
# Bulk Modulus (GPa) = 44.44130 65.10908 54.77519
# Shear Modulus (GPa) = 28.29935 37.31272 32.80603
#
# Velocity S-wave (km/s) = 3.51678 4.03818 3.78646
# Velocity P-wave (km/s) = 5.99272 7.08501 6.56163
#
# Compressibility (1/GPa) = 0.02250159
#
# Stress axis : x y z
#
# Youngs Moduli (GPa) = 96.86691 46.99762 121.81880
#
# Poissons Ratio (x) = 0.09712 0.39494
# Poissons Ratio (y) = 0.20018 0.40756
# Poissons Ratio (z) = 0.31404 0.15724
#
# Static dielectric constant tensor:
#      x y z
#    x 2.692290 -2.313060 2.424500 
#    y -2.313060 8.427810 -6.959950 
#    z 2.424500 -6.959950 9.231010 
# 
# From -- ./inp_files/23309.got.cif
#   From: 2010.05.17/outbox.cif.g08.bks.cpg/sg2_12_cif.got.tgz:23309.got - 2010.06.03 11:33:40.
