data_PCOD9028249
_publ_section_title
;
Structure prediction by ZEFSAII (Michael W. Deem and Ramdas Pophale) SiO2 
 PCOD9028249
Probable space group: P -1
;
_chemical_formula_sum "Si O2"
_cell_formula_units_Z 16
_cell_length_a 11.502885
_cell_length_b 20.317621
_cell_length_c 11.185446
_cell_angle_alpha 148.006331
_cell_angle_beta 51.647466
_cell_angle_gamma 149.996008
_cell_volume 625.272983
_symmetry_space_group_name_H-M "P -1"
_symmetry_group_IT_number 2
_symmetry_cell_setting 'triclinic'
loop_
_space_group_symop_operation_xyz
x,y,z
-x,-y,-z
loop_
_atom_site_type_symbol
_atom_site_label
_atom_site_fract_x
_atom_site_fract_y
_atom_site_fract_z
Si Si1 0.403594 0.309890 0.201700
Si Si2 0.431328 0.346899 0.631132
Si Si3 0.570989 0.387647 0.865586
Si Si4 0.138451 0.726632 0.954683
Si Si5 0.427276 0.890804 0.584446
Si Si6 0.257666 0.670772 0.021573
Si Si7 0.087555 0.990481 0.118054
Si Si8 0.993733 0.646868 0.671928
O O1 0.500000 0.500000 0.500000
O O2 0.515098 0.468899 0.106898
O O3 0.302146 0.150594 0.125764
O O4 0.170414 0.163921 0.032458
O O5 0.411351 0.290636 0.694781
O O6 0.180186 0.147244 0.404158
O O7 0.682335 0.450064 0.572229
O O8 0.552986 0.231404 0.676580
O O9 0.634075 0.391370 0.123812
O O10 0.869443 0.605872 0.972791
O O11 0.110910 0.660478 0.736385
O O12 0.178721 0.642172 0.891144
O O13 0.375103 0.974756 0.221794
O O14 0.158742 0.734558 0.581949
O O15 0.529929 0.071853 0.712081
O O16 0.000000 0.500000 0.000000
O O17 0.078692 0.848093 0.957347
#
# Coordination Sequence:
#
# PCOD9028249 Si02
#       8
#     2   2   2   2   2   2   2   2
#     4  11  25  47  76 108 145 197 261 315 367 453
#     4  10  24  41  71 110 160 196 244 307 376 457
#     4  10  22  44  68 111 155 201 243 303 381 461
#     4   9  22  39  71 106 149 186 249 313 375 454
#     4  10  22  41  73 104 150 190 251 307 378 451
#     4  10  24  49  73 105 147 198 250 315 383 451
#     4  11  23  44  74 111 147 195 251 312 380 443
#     4  11  21  41  73 116 141 193 246 316 385 443
#
# _framework density 25.588823999999999
#
# number of rings (size 3 to 8) (size 9 to 14) (size 15 to 20)
#    0.750    1.000    1.250    1.875    0.000    9.000 
#    2.250    4.375    0.000    1.500    0.000    0.000 
#    0.000    0.000    0.000    0.000    0.000    0.000 
#
# Total GULP energy -89392.638252 kJ/mol
# GULP energy per Si atom -5587.039891 kJ/mol
# Density = 2.553058 g / cm^3
# Si number density = 25.588824 Si / 1000 Ang^3
#
#
#
# Elastic Constant Matrix: (Units=GPa)
#
#
# Indices 1 2 3 4 5 6 
#
# 1 113.0924 46.0100 48.2171 -26.6976 2.9346 18.5822
# 2 46.0100 98.5771 43.9732 0.9049 0.4638 18.8112
# 3 48.2171 43.9732 169.1237 -35.5140 19.6126 19.5144
# 4 -26.6976 0.9049 -35.5140 29.9247 0.4586 -5.4724
# 5 2.9346 0.4638 19.6126 0.4586 34.8174 -8.4721
# 6 18.5822 18.8112 19.5144 -5.4724 -8.4721 46.4518
#
#
#
# Elastic Compliance Matrix: (Units=1/GPa)
#
#
# Indices 1 2 3 4 5 6 
#
# 1 0.015307 -0.007394 0.001307 0.015033 -0.002710 -0.002401
# 2 -0.007394 0.016472 -0.005044 -0.013616 0.002770 -0.002692
# 3 0.001307 -0.005044 0.010885 0.013850 -0.007014 -0.002700
# 4 0.015033 -0.013616 0.013850 0.063718 -0.009876 -0.000613
# 5 -0.002710 0.002770 -0.007014 -0.009876 0.034971 0.008124
# 6 -0.002401 -0.002692 -0.002700 -0.000613 0.008124 0.026122
#
#
# Mechanical properties :
#
#
# Convention : Reuss Voigt Hill
#
# Bulk Modulus (GPa) = 49.02035 73.02154 61.02094
# Shear Modulus (GPa) = 25.44022 38.41164 31.92593
#
# Velocity S-wave (km/s) = 3.15650 3.87862 3.53604
# Velocity P-wave (km/s) = 5.69940 6.97544 6.36945
#
# Compressibility (1/GPa) = 0.02039969
#
# Stress axis : x y z
#
# Youngs Moduli (GPa) = 65.32830 60.71081 91.86706
#
# Poissons Ratio (x) = 0.44892 -0.12004
# Poissons Ratio (y) = 0.48307 0.46341
# Poissons Ratio (z) = -0.08536 0.30625
#
# Static dielectric constant tensor:
#      x y z
#    x 2.077190 -0.033900 -0.027830 
#    y -0.033900 2.033040 -0.036170 
#    z -0.027830 -0.036170 2.084630 
# 
# From -- ./inp_files/436884.got.cif
#   From: 2010.05.17/outbox.cif.g08.bks.cpg/sg2_219_cif.got.tgz:436884.got - 2010.06.03 11:33:40.
