data_PCOD9028911
_publ_section_title
;
Structure prediction by ZEFSAII (Michael W. Deem and Ramdas Pophale) SiO2 
 PCOD9028911
Probable space group: P -1
;
_chemical_formula_sum "Si O2"
_cell_formula_units_Z 12
_cell_length_a 14.281310
_cell_length_b 8.756895
_cell_length_c 6.632037
_cell_angle_alpha 128.995189
_cell_angle_beta 106.918131
_cell_angle_gamma 52.915581
_cell_volume 508.979222
_symmetry_space_group_name_H-M "P -1"
_symmetry_group_IT_number 2
_symmetry_cell_setting 'triclinic'
loop_
_space_group_symop_operation_xyz
x,y,z
-x,-y,-z
loop_
_atom_site_type_symbol
_atom_site_label
_atom_site_fract_x
_atom_site_fract_y
_atom_site_fract_z
Si Si1 0.155334 0.308146 0.210031
Si Si2 0.717178 0.106264 0.348458
Si Si3 0.926157 0.013064 0.658764
Si Si4 0.672273 0.605342 0.768697
Si Si5 0.466632 0.009829 0.714367
Si Si6 0.918937 0.381280 0.228421
O O1 0.200105 0.435251 0.202868
O O2 0.169059 0.375700 0.503058
O O3 0.018922 0.393796 0.185065
O O4 0.230590 0.040245 0.949050
O O5 0.822300 0.000247 0.489927
O O6 0.676305 0.376073 0.519039
O O7 0.616390 0.079605 0.350838
O O8 0.874915 0.257269 0.954945
O O9 0.000000 0.000000 0.500000
O O10 0.009307 0.806913 0.699369
O O11 0.588863 0.830093 0.758090
O O12 0.606368 0.717256 0.030003
O O13 0.500000 0.000000 0.500000
#
# Coordination Sequence:
#
# PCOD9028911 Si02
#       6
#     2   2   2   2   2   2
#     4  10  22  42  65  94 134 179 215 265 329 379
#     4  11  23  43  70  99 132 176 216 279 326 384
#     4  11  22  40  64  94 134 173 224 263 325 382
#     4  10  23  44  66  97 135 164 216 281 328 386
#     4  10  24  45  68  97 128 171 219 269 337 395
#     4  10  23  41  61  97 135 181 216 268 316 394
#
# _framework density 23.576601
#
# number of rings (size 3 to 8) (size 9 to 14) (size 15 to 20)
#    0.000    1.667    1.667    1.500    4.667    2.667 
#    9.000    0.000    0.000    0.000    0.000    0.000 
#    0.000    0.000    0.000    0.000    0.000    0.000 
#
# Total GULP energy -67106.100773 kJ/mol
# GULP energy per Si atom -5592.175064 kJ/mol
# Density = 2.352294 g / cm^3
# Si number density = 23.576601 Si / 1000 Ang^3
#
#
#
# Elastic Constant Matrix: (Units=GPa)
#
#
# Indices 1 2 3 4 5 6 
#
# 1 101.6789 26.6048 53.6844 8.1484 -7.3758 1.5952
# 2 26.6048 81.8916 47.9289 9.0885 -4.8413 2.1424
# 3 53.6844 47.9289 221.5943 41.3125 -15.2647 19.8517
# 4 8.1484 9.0885 41.3125 49.3463 5.0195 12.8890
# 5 -7.3758 -4.8413 -15.2647 5.0195 44.3262 4.1235
# 6 1.5952 2.1424 19.8517 12.8890 4.1235 19.2039
#
#
#
# Elastic Compliance Matrix: (Units=1/GPa)
#
#
# Indices 1 2 3 4 5 6 
#
# 1 0.011773 -0.002404 -0.002438 0.000042 0.000700 0.001632
# 2 -0.002404 0.014538 -0.002586 -0.000548 0.000213 0.001573
# 3 -0.002438 -0.002586 0.007011 -0.004056 0.002613 -0.004595
# 4 0.000042 -0.000548 -0.004056 0.027641 -0.003315 -0.013590
# 5 0.000700 0.000213 0.002613 -0.003315 0.024517 -0.005822
# 6 0.001632 0.001573 -0.004595 -0.013590 -0.005822 0.066882
#
#
# Mechanical properties :
#
#
# Convention : Reuss Voigt Hill
#
# Bulk Modulus (GPa) = 54.15543 73.51121 63.83332
# Shear Modulus (GPa) = 28.83954 41.03841 34.93897
#
# Velocity S-wave (km/s) = 3.50126 4.17663 3.85377
# Velocity P-wave (km/s) = 6.27415 7.38284 6.85096
#
# Compressibility (1/GPa) = 0.01846537
#
# Stress axis : x y z
#
# Youngs Moduli (GPa) = 84.94076 68.78479 142.64208
#
# Poissons Ratio (x) = 0.16535 0.34777
# Poissons Ratio (y) = 0.20418 0.36890
# Poissons Ratio (z) = 0.20709 0.17789
#
# Static dielectric constant tensor:
#      x y z
#    x 1.877230 -0.017650 0.014070 
#    y -0.017650 1.925100 0.024860 
#    z 0.014070 0.024860 1.932720 
# 
# From -- ./inp_files/89456.got.cif
#   From: 2010.05.17/outbox.cif.g08.bks.cpg/sg2_45_cif.got.tgz:89456.got - 2010.06.03 11:33:40.
