data_PCOD9028089
_publ_section_title
;
Structure prediction by ZEFSAII (Michael W. Deem and Ramdas Pophale) SiO2 
 PCOD9028089
Probable space group: P -1
;
_chemical_formula_sum "Si O2"
_cell_formula_units_Z 14
_cell_length_a 12.480818
_cell_length_b 9.168628
_cell_length_c 6.850912
_cell_angle_alpha 75.305110
_cell_angle_beta 98.585768
_cell_angle_gamma 133.728953
_cell_volume 547.594836
_symmetry_space_group_name_H-M "P -1"
_symmetry_group_IT_number 2
_symmetry_cell_setting 'triclinic'
loop_
_space_group_symop_operation_xyz
x,y,z
-x,-y,-z
loop_
_atom_site_type_symbol
_atom_site_label
_atom_site_fract_x
_atom_site_fract_y
_atom_site_fract_z
Si Si1 0.497075 0.234391 0.772639
Si Si2 0.019313 0.474172 0.244704
Si Si3 0.743965 0.492325 0.476125
Si Si4 0.202560 0.900719 0.268676
Si Si5 0.991427 0.951739 0.287904
Si Si6 0.817288 0.061452 0.178315
Si Si7 0.527561 0.141096 0.235866
O O1 0.613546 0.428183 0.601025
O O2 0.336536 0.158778 0.730546
O O3 0.480294 0.042411 0.763620
O O4 0.542605 0.257787 0.004332
O O5 0.157504 0.503318 0.337614
O O6 0.055351 0.654066 0.324535
O O7 0.876998 0.228499 0.305563
O O8 0.000000 0.500000 0.000000
O O9 0.848418 0.708252 0.319062
O O10 0.664184 0.310812 0.356412
O O11 0.141448 0.008850 0.255390
O O12 0.370184 0.030589 0.337493
O O13 0.228800 0.897448 0.044296
O O14 0.947446 0.070913 0.146399
O O15 0.000000 0.000000 0.500000
#
# Coordination Sequence:
#
# PCOD9028089 Si02
#       7
#     2   2   2   2   2   2   2
#     4  10  23  44  71 100 146 172 226 291 349 408
#     4  10  22  41  71 104 131 176 229 286 347 389
#     4  12  25  42  70 102 136 182 228 283 341 415
#     4  10  23  45  70  99 134 179 235 286 340 413
#     4  12  27  44  63 100 141 186 229 279 346 405
#     4  10  23  46  69  98 138 186 222 287 347 407
#     4  10  23  43  71 107 133 180 227 289 352 402
#
# _framework density 25.566348999999999
#
# number of rings (size 3 to 8) (size 9 to 14) (size 15 to 20)
#    0.000    1.429    2.857    0.857    6.000    2.286 
#    2.571    1.429    0.000    0.000    0.000    0.000 
#    0.000    0.000    0.000    0.000    0.000    0.000 
#
# Total GULP energy -78141.907079 kJ/mol
# GULP energy per Si atom -5581.564791 kJ/mol
# Density = 2.550816 g / cm^3
# Si number density = 25.566349 Si / 1000 Ang^3
#
#
#
# Elastic Constant Matrix: (Units=GPa)
#
#
# Indices 1 2 3 4 5 6 
#
# 1 117.0492 19.1687 -8.7038 11.4285 -4.2051 12.7188
# 2 19.1687 86.6770 21.7282 20.7147 7.2091 19.9075
# 3 -8.7038 21.7282 92.8626 24.0293 9.2720 6.2456
# 4 11.4285 20.7147 24.0293 39.4010 8.2677 4.2164
# 5 -4.2051 7.2091 9.2720 8.2677 34.3240 1.4248
# 6 12.7188 19.9075 6.2456 4.2164 1.4248 30.5669
#
#
#
# Elastic Compliance Matrix: (Units=1/GPa)
#
#
# Indices 1 2 3 4 5 6 
#
# 1 0.009667 -0.001245 0.002135 -0.003490 0.001845 -0.003252
# 2 -0.001245 0.015633 -0.001600 -0.005706 -0.001277 -0.008490
# 3 0.002135 -0.001600 0.013534 -0.007628 -0.001158 -0.001506
# 4 -0.003490 -0.005706 -0.007628 0.035007 -0.005691 0.002163
# 5 0.001845 -0.001277 -0.001158 -0.005691 0.031328 -0.000374
# 6 -0.003252 -0.008490 -0.001506 0.002163 -0.000374 0.039624
#
#
# Mechanical properties :
#
#
# Convention : Reuss Voigt Hill
#
# Bulk Modulus (GPa) = 26.72831 40.10834 33.41833
# Shear Modulus (GPa) = 31.50932 38.48476 34.99704
#
# Velocity S-wave (km/s) = 3.51444 3.88402 3.70384
# Velocity P-wave (km/s) = 5.19091 5.98633 5.60275
#
# Compressibility (1/GPa) = 0.03741351
#
# Stress axis : x y z
#
# Youngs Moduli (GPa) = 103.44932 63.96634 73.88935
#
# Poissons Ratio (x) = 0.07966 -0.15776
# Poissons Ratio (y) = 0.12884 0.11820
# Poissons Ratio (z) = -0.22088 0.10233
#
# Static dielectric constant tensor:
#      x y z
#    x 2.078310 0.002880 0.000580 
#    y 0.002880 2.137350 -0.133520 
#    z 0.000580 -0.133520 2.176840 
# 
# From -- ./inp_files/238558.got.cif
#   From: 2010.05.17/outbox.cif.g08.bks.cpg/sg2_120_cif.got.tgz:238558.got - 2010.06.03 11:33:40.
