data_PCOD9028193
_publ_section_title
;
Structure prediction by ZEFSAII (Michael W. Deem and Ramdas Pophale) SiO2 
 PCOD9028193
Probable space group: P -1
;
_chemical_formula_sum "Si O2"
_cell_formula_units_Z 14
_cell_length_a 10.880897
_cell_length_b 5.154663
_cell_length_c 12.924310
_cell_angle_alpha 68.262008
_cell_angle_beta 53.934191
_cell_angle_gamma 69.136103
_cell_volume 535.002912
_symmetry_space_group_name_H-M "P -1"
_symmetry_group_IT_number 2
_symmetry_cell_setting 'triclinic'
loop_
_space_group_symop_operation_xyz
x,y,z
-x,-y,-z
loop_
_atom_site_type_symbol
_atom_site_label
_atom_site_fract_x
_atom_site_fract_y
_atom_site_fract_z
Si Si1 0.149610 0.261280 0.985980
Si Si2 0.138142 0.811255 0.398097
Si Si3 0.439874 0.322280 0.718675
Si Si4 0.597966 0.208804 0.864054
Si Si5 0.169420 0.610710 0.118944
Si Si6 0.094044 0.355806 0.623045
Si Si7 0.632244 0.134877 0.467241
O O1 0.217769 0.407251 0.028624
O O2 0.116791 0.948998 0.071685
O O3 0.286060 0.203972 0.841456
O O4 0.000000 0.500000 0.000000
O O5 0.257871 0.956706 0.253343
O O6 0.194950 0.563679 0.489907
O O7 0.051717 0.666092 0.373864
O O8 0.000000 0.000000 0.500000
O O9 0.507054 0.390966 0.787469
O O10 0.579369 0.132643 0.613469
O O11 0.380699 0.566985 0.628543
O O12 0.682307 0.382367 0.879856
O O13 0.500000 0.000000 0.000000
O O14 0.004055 0.528073 0.246274
O O15 0.203721 0.053695 0.613018
O O16 0.500000 0.000000 0.500000
#
# Coordination Sequence:
#
# PCOD9028193 Si02
#       7
#     2   2   2   2   2   2   2
#     4  12  27  49  77 113 157 203 266 320 402 478
#     4  10  22  41  72 104 149 202 251 318 393 464
#     4  11  26  45  71 107 149 212 254 329 388 468
#     4  11  23  47  73 113 157 202 267 325 397 472
#     4  11  27  47  79 115 152 211 255 334 396 474
#     4  10  23  42  69 108 147 197 260 320 383 472
#     4  11  25  44  70 105 151 203 268 320 394 463
#
# _framework density 26.168081000000001
#
# number of rings (size 3 to 8) (size 9 to 14) (size 15 to 20)
#    0.000    1.143    1.429    3.000    8.000    1.714 
#    5.143    0.000    0.000    0.000    0.000    0.000 
#    0.000    0.000    0.000    0.000    0.000    0.000 
#
# Total GULP energy -78193.089289 kJ/mol
# GULP energy per Si atom -5585.220663 kJ/mol
# Density = 2.610852 g / cm^3
# Si number density = 26.168081 Si / 1000 Ang^3
#
#
#
# Elastic Constant Matrix: (Units=GPa)
#
#
# Indices 1 2 3 4 5 6 
#
# 1 94.6057 4.7906 54.4285 -10.2367 0.2241 3.0359
# 2 4.7906 65.2326 29.3353 4.6925 -0.8271 -7.3616
# 3 54.4285 29.3353 193.6886 9.6463 -26.7422 4.0578
# 4 -10.2367 4.6925 9.6463 34.4673 -3.7043 -1.5052
# 5 0.2241 -0.8271 -26.7422 -3.7043 49.9870 -0.5031
# 6 3.0359 -7.3616 4.0578 -1.5052 -0.5031 47.4615
#
#
#
# Elastic Compliance Matrix: (Units=1/GPa)
#
#
# Indices 1 2 3 4 5 6 
#
# 1 0.013657 0.000585 -0.004455 0.004989 -0.002068 -0.000266
# 2 0.000585 0.016993 -0.002916 -0.001347 -0.001353 0.002791
# 3 -0.004455 -0.002916 0.007531 -0.002663 0.003795 -0.000856
# 4 0.004989 -0.001347 -0.002663 0.031549 0.000876 0.000709
# 5 -0.002068 -0.001353 0.003795 0.000876 0.022086 -0.000140
# 6 -0.000266 0.002791 -0.000856 0.000709 -0.000140 0.021614
#
#
# Mechanical properties :
#
#
# Convention : Reuss Voigt Hill
#
# Bulk Modulus (GPa) = 40.63571 58.95954 49.79762
# Shear Modulus (GPa) = 36.98138 44.04800 40.51469
#
# Velocity S-wave (km/s) = 3.76337 4.10722 3.93905
# Velocity P-wave (km/s) = 5.86910 6.71359 6.30550
#
# Compressibility (1/GPa) = 0.02460890
#
# Stress axis : x y z
#
# Youngs Moduli (GPa) = 73.22410 58.84800 132.78568
#
# Poissons Ratio (x) = -0.03444 0.59152
# Poissons Ratio (y) = -0.04286 0.38725
# Poissons Ratio (z) = 0.32619 0.17162
#
# Static dielectric constant tensor:
#      x y z
#    x 2.161410 -0.051400 0.071610 
#    y -0.051400 2.101140 0.138180 
#    z 0.071610 0.138180 2.492820 
# 
# From -- ./inp_files/409957.got.cif
#   From: 2010.05.17/outbox.cif.g08.bks.cpg/sg2_205_cif.got.tgz:409957.got - 2010.06.03 11:33:40.
