data_PCOD9028364
_publ_section_title
;
Structure prediction by ZEFSAII (Michael W. Deem and Ramdas Pophale) SiO2 
 PCOD9028364
Probable space group: P -1
;
_chemical_formula_sum "Si O2"
_cell_formula_units_Z 13
_cell_length_a 20.101980
_cell_length_b 5.344435
_cell_length_c 16.732102
_cell_angle_alpha 68.782731
_cell_angle_beta 162.352298
_cell_angle_gamma 102.792110
_cell_volume 456.984720
_symmetry_space_group_name_H-M "P -1"
_symmetry_group_IT_number 2
_symmetry_cell_setting 'triclinic'
loop_
_space_group_symop_operation_xyz
x,y,z
-x,-y,-z
loop_
_atom_site_type_symbol
_atom_site_label
_atom_site_fract_x
_atom_site_fract_y
_atom_site_fract_z
Si Si1 0.421145 0.502240 0.096360
Si Si2 0.299797 0.166721 0.120864
Si Si3 0.886026 0.433344 0.730325
Si Si4 0.434041 0.516291 0.515244
Si Si5 0.182193 0.612105 0.657748
Si Si6 0.500000 0.000000 0.000000
Si Si7 0.809110 0.968177 0.501001
O O1 0.245061 0.418302 0.959944
O O2 0.611237 0.545408 0.367061
O O3 0.596539 0.207204 0.283613
O O4 0.282130 0.731316 0.837292
O O5 0.475366 0.252451 0.368685
O O6 0.434366 0.840781 0.274813
O O7 0.077592 0.186946 0.920067
O O8 0.840538 0.376798 0.775820
O O9 0.957994 0.701077 0.761932
O O10 0.500000 0.500000 0.500000
O O11 0.383828 0.317042 0.882411
O O12 0.069148 0.861907 0.431848
O O13 0.000000 0.500000 0.500000
O O14 0.297652 0.150897 0.679781
#
# Coordination Sequence:
#
# PCOD9028364 Si02
#       7
#     2   2   2   2   2   1   2
#     4  10  23  43  64  97 142 179 240 296 340 407
#     4  11  26  45  77 107 139 192 231 279 364 425
#     4  11  25  44  71 100 143 182 233 292 352 422
#     4  11  26  50  75 111 146 176 229 292 350 433
#     4  11  25  41  62  95 133 185 245 286 350 406
#     4  10  22  42  60  88 126 186 232 296 338 396
#     4  11  21  42  64  87 138 181 229 297 345 393
#
# _framework density 28.447343
#
# number of rings (size 3 to 8) (size 9 to 14) (size 15 to 20)
#    0.000    1.231    1.538    4.154    6.462    1.846 
#    5.538    0.000    0.000    0.000    0.000    0.000 
#    0.000    0.000    0.000    0.000    0.000    0.000 
#
# Total GULP energy -72514.928351 kJ/mol
# GULP energy per Si atom -5578.071412 kJ/mol
# Density = 2.838260 g / cm^3
# Si number density = 28.447343 Si / 1000 Ang^3
#
#
#
# Elastic Constant Matrix: (Units=GPa)
#
#
# Indices 1 2 3 4 5 6 
#
# 1 213.0955 33.6353 20.7630 10.0656 31.0431 12.9260
# 2 33.6353 138.1711 31.5906 9.1466 10.6303 -26.7635
# 3 20.7630 31.5906 42.0348 7.1130 21.2864 -3.1860
# 4 10.0656 9.1466 7.1130 51.4578 -2.2709 2.6375
# 5 31.0431 10.6303 21.2864 -2.2709 39.3720 2.8967
# 6 12.9260 -26.7635 -3.1860 2.6375 2.8967 60.8860
#
#
#
# Elastic Compliance Matrix: (Units=1/GPa)
#
#
# Indices 1 2 3 4 5 6 
#
# 1 0.005627 -0.001378 0.000477 -0.001032 -0.004270 -0.001528
# 2 -0.001378 0.009970 -0.007442 -0.000598 0.002073 0.004213
# 3 0.000477 -0.007442 0.040426 -0.005262 -0.020523 -0.000053
# 4 -0.001032 -0.000598 -0.005262 0.020770 0.005125 -0.001463
# 5 -0.004270 0.002073 -0.020523 0.005125 0.039697 -0.001367
# 6 -0.001528 0.004213 -0.000053 -0.001463 -0.001367 0.018726
#
#
# Mechanical properties :
#
#
# Convention : Reuss Voigt Hill
#
# Bulk Modulus (GPa) = 25.42062 62.80881 44.11472
# Shear Modulus (GPa) = 30.30024 50.83068 40.56546
#
# Velocity S-wave (km/s) = 3.26718 4.23168 3.78032
# Velocity P-wave (km/s) = 4.81540 6.78256 5.88180
#
# Compressibility (1/GPa) = 0.03933814
#
# Stress axis : x y z
#
# Youngs Moduli (GPa) = 177.70961 100.29591 24.73655
#
# Poissons Ratio (x) = 0.13821 -0.01180
# Poissons Ratio (y) = 0.24488 0.18409
# Poissons Ratio (z) = -0.08480 0.74639
#
# Static dielectric constant tensor:
#      x y z
#    x 2.264890 0.079670 -0.090330 
#    y 0.079670 2.120640 -0.025350 
#    z -0.090330 -0.025350 1.986000 
# 
# From -- ./inp_files/576555.got.cif
#   From: 2010.05.17/outbox.cif.g08.bks.cpg/sg2_289_cif.got.tgz:576555.got - 2010.06.03 11:33:40.
