data_PCOD9028093
_publ_section_title
;
Structure prediction by ZEFSAII (Michael W. Deem and Ramdas Pophale) SiO2 
 PCOD9028093
Probable space group: P -1
;
_chemical_formula_sum "Si O2"
_cell_formula_units_Z 15
_cell_length_a 9.381791
_cell_length_b 12.570245
_cell_length_c 8.957337
_cell_angle_alpha 34.996244
_cell_angle_beta 97.812905
_cell_angle_gamma 101.522304
_cell_volume 592.910754
_symmetry_space_group_name_H-M "P -1"
_symmetry_group_IT_number 2
_symmetry_cell_setting 'triclinic'
loop_
_space_group_symop_operation_xyz
x,y,z
-x,-y,-z
loop_
_atom_site_type_symbol
_atom_site_label
_atom_site_fract_x
_atom_site_fract_y
_atom_site_fract_z
Si Si1 0.438044 0.718275 0.083724
Si Si2 0.020559 0.806699 0.923640
Si Si3 0.351777 0.543563 0.579903
Si Si4 0.177983 0.557328 0.051157
Si Si5 0.164946 0.739121 0.531739
Si Si6 0.000000 0.000000 0.000000
Si Si7 0.214052 0.161328 0.385600
Si Si8 0.492878 0.863662 0.427414
O O1 0.355267 0.600888 0.342920
O O2 0.596043 0.655401 0.168521
O O3 0.341382 0.661464 0.990321
O O4 0.452110 0.936778 0.868455
O O5 0.129134 0.179202 0.200077
O O6 0.137342 0.973978 0.673416
O O7 0.080765 0.617772 0.101317
O O8 0.016136 0.841578 0.057216
O O9 0.211479 0.583707 0.602737
O O10 0.480133 0.692271 0.505532
O O11 0.191310 0.342234 0.272669
O O12 0.120932 0.645984 0.791133
O O13 0.063846 0.869047 0.290714
O O14 0.325101 0.860265 0.449715
O O15 0.387196 0.162280 0.402382
#
# Coordination Sequence:
#
# PCOD9028093 Si02
#       8
#     2   2   2   2   2   1   2   2
#     4  11  20  38  70  96 149 183 234 282 351 412
#     4  11  26  47  73 100 138 191 232 292 353 423
#     4   9  22  41  59 107 139 186 229 285 347 415
#     4  12  23  46  71 106 143 188 234 291 347 427
#     4  10  25  44  68 101 146 179 234 291 346 414
#     4  12  26  52  72 100 140 180 240 298 348 426
#     4  11  23  45  76 105 143 185 235 285 357 418
#     4  10  22  41  71 106 138 187 229 292 346 411
#
# _framework density 25.298916999999999
#
# number of rings (size 3 to 8) (size 9 to 14) (size 15 to 20)
#    0.800    0.533    2.667    3.200    0.000    2.667 
#    4.800    2.667    0.000    0.000    0.000    0.000 
#    0.000    0.000    0.000    0.000    0.000    0.000 
#
# Total GULP energy -83717.195536 kJ/mol
# GULP energy per Si atom -5581.146369 kJ/mol
# Density = 2.524134 g / cm^3
# Si number density = 25.298917 Si / 1000 Ang^3
#
#
#
# Elastic Constant Matrix: (Units=GPa)
#
#
# Indices 1 2 3 4 5 6 
#
# 1 92.7894 6.6417 43.2485 8.7944 7.4248 -6.7821
# 2 6.6417 124.8971 26.2942 -1.3882 -6.2776 -10.8700
# 3 43.2485 26.2942 95.4711 3.4435 21.9632 -0.2378
# 4 8.7944 -1.3882 3.4435 30.3680 0.0156 6.6301
# 5 7.4248 -6.2776 21.9632 0.0156 22.9098 -9.5766
# 6 -6.7821 -10.8700 -0.2378 6.6301 -9.5766 37.1378
#
#
#
# Elastic Compliance Matrix: (Units=1/GPa)
#
#
# Indices 1 2 3 4 5 6 
#
# 1 0.014946 0.001725 -0.008465 -0.004504 0.006067 0.005549
# 2 0.001725 0.010227 -0.005981 -0.000693 0.010531 0.006110
# 3 -0.008465 -0.005981 0.021197 0.001853 -0.023176 -0.009468
# 4 -0.004504 -0.000693 0.001853 0.035841 -0.004068 -0.008461
# 5 0.006067 0.010531 -0.023176 -0.004068 0.077093 0.024648
# 6 0.005549 0.006110 -0.009468 -0.008461 0.024648 0.037534
#
#
# Mechanical properties :
#
#
# Convention : Reuss Voigt Hill
#
# Bulk Modulus (GPa) = 47.77960 51.72515 49.75237
# Shear Modulus (GPa) = 21.80952 33.88134 27.84543
#
# Velocity S-wave (km/s) = 2.93929 3.66353 3.32121
# Velocity P-wave (km/s) = 5.51782 6.19559 5.86650
#
# Compressibility (1/GPa) = 0.02092944
#
# Stress axis : x y z
#
# Youngs Moduli (GPa) = 66.90698 97.77735 47.17546
#
# Poissons Ratio (x) = -0.16867 0.39934
# Poissons Ratio (y) = -0.11542 0.28214
# Poissons Ratio (z) = 0.56637 0.58478
#
# Static dielectric constant tensor:
#      x y z
#    x 2.046530 0.053000 -0.049490 
#    y 0.053000 1.927890 -0.015750 
#    z -0.049490 -0.015750 1.939310 
# 
# From -- ./inp_files/251373.got.cif
#   From: 2010.05.17/outbox.cif.g08.bks.cpg/sg2_126_cif.got.tgz:251373.got - 2010.06.03 11:33:40.
