data_PCOD9028857
_publ_section_title
;
Structure prediction by ZEFSAII (Michael W. Deem and Ramdas Pophale) SiO2 
 PCOD9028857
Probable space group: P -1
;
_chemical_formula_sum "Si O2"
_cell_formula_units_Z 16
_cell_length_a 8.145888
_cell_length_b 9.088630
_cell_length_c 20.528833
_cell_angle_alpha 148.284059
_cell_angle_beta 103.942301
_cell_angle_gamma 78.187550
_cell_volume 775.459045
_symmetry_space_group_name_H-M "P -1"
_symmetry_group_IT_number 2
_symmetry_cell_setting 'triclinic'
loop_
_space_group_symop_operation_xyz
x,y,z
-x,-y,-z
loop_
_atom_site_type_symbol
_atom_site_label
_atom_site_fract_x
_atom_site_fract_y
_atom_site_fract_z
Si Si1 0.257103 0.561204 0.730024
Si Si2 0.409039 0.367115 0.809862
Si Si3 0.498399 0.977854 0.069510
Si Si4 0.688151 0.490999 0.421747
Si Si5 0.668156 0.707201 0.715320
Si Si6 0.751530 0.013060 0.716463
Si Si7 0.065844 0.725302 0.438489
Si Si8 0.101023 0.979943 0.680664
O O1 0.339092 0.444207 0.759808
O O2 0.316542 0.390991 0.607618
O O3 0.058425 0.516448 0.691083
O O4 0.322170 0.876605 0.842487
O O5 0.586967 0.204538 0.762665
O O6 0.257393 0.190064 0.761466
O O7 0.453743 0.658500 0.960024
O O8 0.368578 0.169892 0.170431
O O9 0.500000 0.000000 0.000000
O O10 0.511925 0.330890 0.352204
O O11 0.835753 0.263153 0.356699
O O12 0.716076 0.728168 0.566065
O O13 0.752408 0.402172 0.608475
O O14 0.767109 0.922198 0.759169
O O15 0.929939 0.118555 0.743871
O O16 0.063339 0.813423 0.546973
O O17 0.000000 0.000000 0.500000
#
# Coordination Sequence:
#
# PCOD9028857 Si02
#       8
#     2   2   2   2   2   2   2   2
#     4  10  22  42  65  91 135 178 209 275 334 379
#     4  11  24  45  65  95 135 176 235 277 312 384
#     4   9  23  48  66  85 131 183 231 273 320 389
#     4  11  21  40  65  94 140 176 208 269 341 412
#     4  11  23  41  67  95 132 186 217 264 349 388
#     4  12  23  38  69 100 135 177 214 271 342 401
#     4  12  23  38  65 104 139 163 218 281 331 408
#     4  12  23  41  66 102 142 168 214 278 338 395
#
# _framework density 20.632940000000001
#
# number of rings (size 3 to 8) (size 9 to 14) (size 15 to 20)
#    0.000    1.000    5.000    2.250    0.000    4.000 
#    2.250    1.875    0.000    0.000    0.000    0.000 
#    0.000    0.000    0.000    0.000    0.000    0.000 
#
# Total GULP energy -89216.381572 kJ/mol
# GULP energy per Si atom -5576.023848 kJ/mol
# Density = 2.058598 g / cm^3
# Si number density = 20.632940 Si / 1000 Ang^3
#
#
#
# Elastic Constant Matrix: (Units=GPa)
#
#
# Indices 1 2 3 4 5 6 
#
# 1 129.9967 27.6078 38.2887 9.2019 0.7837 0.3099
# 2 27.6078 72.3409 24.1099 -2.0245 -5.4226 -0.7376
# 3 38.2887 24.1099 72.1131 -2.0707 9.7644 7.8458
# 4 9.2019 -2.0245 -2.0707 27.1914 6.7812 -2.6666
# 5 0.7837 -5.4226 9.7644 6.7812 29.8828 -3.0556
# 6 0.3099 -0.7376 7.8458 -2.6666 -3.0556 31.2790
#
#
#
# Elastic Compliance Matrix: (Units=1/GPa)
#
#
# Indices 1 2 3 4 5 6 
#
# 1 0.009920 -0.002037 -0.005103 -0.004330 0.002119 0.000971
# 2 -0.002037 0.016836 -0.005465 0.000503 0.005017 0.002321
# 3 -0.005103 -0.005465 0.020393 0.004596 -0.009147 -0.005695
# 4 -0.004330 0.000503 0.004596 0.041397 -0.010547 0.001401
# 5 0.002119 0.005017 -0.009147 -0.010547 0.040256 0.005425
# 6 0.000971 0.002321 -0.005695 0.001401 0.005425 0.034093
#
#
# Mechanical properties :
#
#
# Convention : Reuss Voigt Hill
#
# Bulk Modulus (GPa) = 45.57913 50.49594 48.03753
# Shear Modulus (GPa) = 25.58619 29.96693 27.77656
#
# Velocity S-wave (km/s) = 3.52528 3.81515 3.67307
# Velocity P-wave (km/s) = 6.22162 6.62825 6.42815
#
# Compressibility (1/GPa) = 0.02193987
#
# Stress axis : x y z
#
# Youngs Moduli (GPa) = 100.81088 59.39636 49.03524
#
# Poissons Ratio (x) = 0.12102 0.25021
# Poissons Ratio (y) = 0.20539 0.26795
# Poissons Ratio (z) = 0.51441 0.32457
#
# Static dielectric constant tensor:
#      x y z
#    x 1.824980 0.060340 0.038430 
#    y 0.060340 1.766220 -0.006940 
#    z 0.038430 -0.006940 1.740320 
# 
# From -- ./inp_files/455512.got.cif
#   From: 2010.05.17/outbox.cif.g08.bks.cpg/sg2_228_cif.got.tgz:455512.got - 2010.06.03 11:33:40.
