data_PCOD9028180
_publ_section_title
;
Structure prediction by ZEFSAII (Michael W. Deem and Ramdas Pophale) SiO2 
 PCOD9028180
Probable space group: P -1
;
_chemical_formula_sum "Si O2"
_cell_formula_units_Z 14
_cell_length_a 8.784583
_cell_length_b 11.455505
_cell_length_c 9.252863
_cell_angle_alpha 122.014185
_cell_angle_beta 54.687928
_cell_angle_gamma 126.258187
_cell_volume 587.073391
_symmetry_space_group_name_H-M "P -1"
_symmetry_group_IT_number 2
_symmetry_cell_setting 'triclinic'
loop_
_space_group_symop_operation_xyz
x,y,z
-x,-y,-z
loop_
_atom_site_type_symbol
_atom_site_label
_atom_site_fract_x
_atom_site_fract_y
_atom_site_fract_z
Si Si1 0.770565 0.647291 0.564812
Si Si2 0.988042 0.213239 0.226478
Si Si3 0.726591 0.949587 0.706741
Si Si4 0.679280 0.945846 0.393074
Si Si5 0.244790 0.797473 0.940518
Si Si6 0.340924 0.344140 0.917039
Si Si7 0.288329 0.507456 0.802129
O O1 0.786101 0.814178 0.630858
O O2 0.535410 0.556147 0.687406
O O3 0.797951 0.572495 0.354024
O O4 0.942000 0.667124 0.602575
O O5 0.862121 0.238728 0.180622
O O6 0.861317 0.049804 0.256229
O O7 0.204741 0.242648 0.054456
O O8 0.753935 0.973446 0.535775
O O9 0.483704 0.888812 0.828158
O O10 0.824463 0.096468 0.850954
O O11 0.591934 0.769084 0.283995
O O12 0.500000 0.000000 0.500000
O O13 0.240342 0.653241 0.935166
O O14 0.215411 0.397629 0.905954
O O15 0.500000 0.500000 0.000000
#
# Coordination Sequence:
#
# PCOD9028180 Si02
#       7
#     2   2   2   2   2   2   2
#     4  10  22  41  72 101 138 189 238 291 346 435
#     4  12  27  45  75 112 141 183 252 295 348 421
#     4  10  22  44  69  99 144 192 229 286 367 416
#     4  12  27  47  74 107 146 186 238 302 355 420
#     4  10  24  41  71 105 141 183 237 295 349 426
#     4  12  27  47  74 106 145 193 232 296 363 425
#     4  10  22  46  68  99 147 190 228 283 373 421
#
# _framework density 23.847104000000002
#
# number of rings (size 3 to 8) (size 9 to 14) (size 15 to 20)
#    0.000    1.143    4.286    0.429    6.000    2.857 
#    2.571    0.000    0.000    0.000    0.000    0.000 
#    0.000    0.000    0.000    0.000    0.000    0.000 
#
# Total GULP energy -78354.861359 kJ/mol
# GULP energy per Si atom -5596.775811 kJ/mol
# Density = 2.379283 g / cm^3
# Si number density = 23.847104 Si / 1000 Ang^3
#
#
#
# Elastic Constant Matrix: (Units=GPa)
#
#
# Indices 1 2 3 4 5 6 
#
# 1 82.0063 40.6743 31.0882 7.4617 33.6426 9.5981
# 2 40.6743 132.7900 72.7836 7.3018 7.3403 -9.2320
# 3 31.0882 72.7836 106.8611 6.0774 23.9150 -6.9211
# 4 7.4617 7.3018 6.0774 35.6363 3.6097 12.8527
# 5 33.6426 7.3403 23.9150 3.6097 39.3036 0.9934
# 6 9.5981 -9.2320 -6.9211 12.8527 0.9934 38.8342
#
#
#
# Elastic Compliance Matrix: (Units=1/GPa)
#
#
# Indices 1 2 3 4 5 6 
#
# 1 0.024919 -0.008573 0.002834 0.000903 -0.021348 -0.007445
# 2 -0.008573 0.015507 -0.010020 -0.002388 0.010644 0.004538
# 3 0.002834 -0.010020 0.018004 -0.000682 -0.011463 0.000645
# 4 0.000903 -0.002388 -0.000682 0.032988 -0.002644 -0.011763
# 5 -0.021348 0.010644 -0.011463 -0.002644 0.048810 0.005390
# 6 -0.007445 0.004538 0.000645 -0.011763 0.005390 0.032539
#
#
# Mechanical properties :
#
#
# Convention : Reuss Voigt Hill
#
# Bulk Modulus (GPa) = 37.15910 67.86106 52.51008
# Shear Modulus (GPa) = 23.44568 34.56223 29.00396
#
# Velocity S-wave (km/s) = 3.13895 3.81113 3.49126
# Velocity P-wave (km/s) = 5.36222 6.91988 6.19024
#
# Compressibility (1/GPa) = 0.02691131
#
# Stress axis : x y z
#
# Youngs Moduli (GPa) = 40.12966 64.48509 55.54181
#
# Poissons Ratio (x) = 0.55285 -0.15740
# Poissons Ratio (y) = 0.34404 0.55655
# Poissons Ratio (z) = -0.11372 0.64617
#
# Static dielectric constant tensor:
#      x y z
#    x 1.912300 0.072160 -0.006500 
#    y 0.072160 1.921470 -0.037640 
#    z -0.006500 -0.037640 1.898260 
# 
# From -- ./inp_files/157205.got.cif
#   From: 2010.05.17/outbox.cif.g08.bks.cpg/sg2_79_cif.got.tgz:157205.got - 2010.06.03 11:33:40.
