data_PCOD9028461
_publ_section_title
;
Structure prediction by ZEFSAII (Michael W. Deem and Ramdas Pophale) SiO2 
 PCOD9028461
Probable space group: P -1
;
_chemical_formula_sum "Si O2"
_cell_formula_units_Z 15
_cell_length_a 18.192567
_cell_length_b 6.743584
_cell_length_c 18.616499
_cell_angle_alpha 54.966437
_cell_angle_beta 21.039562
_cell_angle_gamma 65.199546
_cell_volume 616.592232
_symmetry_space_group_name_H-M "P -1"
_symmetry_group_IT_number 2
_symmetry_cell_setting 'triclinic'
loop_
_space_group_symop_operation_xyz
x,y,z
-x,-y,-z
loop_
_atom_site_type_symbol
_atom_site_label
_atom_site_fract_x
_atom_site_fract_y
_atom_site_fract_z
Si Si1 0.572787 0.679823 0.716401
Si Si2 0.564481 0.465037 0.280033
Si Si3 0.683220 0.179218 0.740214
Si Si4 0.382167 0.733816 0.024190
Si Si5 0.000000 0.500000 0.500000
Si Si6 0.851743 0.265266 0.132889
Si Si7 0.932788 0.049229 0.802929
Si Si8 0.916532 0.739096 0.225884
O O1 0.468108 0.692548 0.732407
O O2 0.623111 0.418380 0.719381
O O3 0.817371 0.912872 0.452615
O O4 0.411063 0.648173 0.936504
O O5 0.622843 0.304931 0.323268
O O6 0.330271 0.489228 0.501993
O O7 0.762208 0.751791 0.032886
O O8 0.911092 0.303839 0.550034
O O9 0.500000 0.000000 0.000000
O O10 0.616386 0.968150 0.780805
O O11 0.265264 0.526847 0.236681
O O12 0.172007 0.832154 0.189827
O O13 0.864402 0.000568 0.206290
O O14 0.000000 0.500000 0.000000
O O15 0.948576 0.294929 0.957504
O O16 0.965258 0.210448 0.814849
#
# Coordination Sequence:
#
# PCOD9028461 Si02
#       8
#     2   2   2   2   1   2   2   2
#     4  11  24  42  67  92 127 170 209 258 323 371
#     4  11  23  42  66  94 128 168 215 257 314 379
#     4  10  22  42  62  93 124 158 212 257 308 381
#     4  11  23  42  66  92 127 168 209 261 316 371
#     4  10  22  42  66  88 130 160 202 268 304 374
#     4  11  22  43  65  95 129 168 214 257 316 375
#     4  11  22  43  63  94 129 166 214 262 308 380
#     4  10  24  42  64  92 132 167 207 270 310 363
#
# _framework density 24.327262000000001
#
# number of rings (size 3 to 8) (size 9 to 14) (size 15 to 20)
#    0.000    1.333    4.000    1.200    0.000    4.800 
#    2.400    2.000    0.000    0.000    0.000    0.000 
#    0.000    0.000    0.000    0.000    0.000    0.000 
#
# Total GULP energy -83574.158568 kJ/mol
# GULP energy per Si atom -5571.610571 kJ/mol
# Density = 2.427189 g / cm^3
# Si number density = 24.327262 Si / 1000 Ang^3
#
#
#
# Elastic Constant Matrix: (Units=GPa)
#
#
# Indices 1 2 3 4 5 6 
#
# 1 118.9997 16.3055 6.2408 6.7890 -31.7714 7.5537
# 2 16.3055 45.0331 19.6404 -7.4812 -16.0930 7.4042
# 3 6.2408 19.6404 115.5515 -18.7388 -19.0432 13.4574
# 4 6.7890 -7.4812 -18.7388 33.4936 13.8804 8.6321
# 5 -31.7714 -16.0930 -19.0432 13.8804 49.5034 3.6391
# 6 7.5537 7.4042 13.4574 8.6321 3.6391 42.4811
#
#
#
# Elastic Compliance Matrix: (Units=1/GPa)
#
#
# Indices 1 2 3 4 5 6 
#
# 1 0.011323 -0.001951 0.000349 -0.005695 0.008463 -0.001351
# 2 -0.001951 0.027603 -0.002342 0.004045 0.006058 -0.005063
# 3 0.000349 -0.002342 0.010858 0.005638 0.002385 -0.004443
# 4 -0.005695 0.004045 0.005638 0.042089 -0.011307 -0.009062
# 5 0.008463 0.006058 0.002385 -0.011307 0.031965 -0.003757
# 6 -0.001351 -0.005063 -0.004443 -0.009062 -0.003757 0.028234
#
#
# Mechanical properties :
#
#
# Convention : Reuss Voigt Hill
#
# Bulk Modulus (GPa) = 23.86965 40.43973 32.15469
# Shear Modulus (GPa) = 28.74763 40.92213 34.83488
#
# Velocity S-wave (km/s) = 3.44132 4.10585 3.78819
# Velocity P-wave (km/s) = 5.06196 6.25593 5.69035
#
# Compressibility (1/GPa) = 0.04189421
#
# Stress axis : x y z
#
# Youngs Moduli (GPa) = 88.31908 36.22752 92.09561
#
# Poissons Ratio (x) = 0.07069 -0.03212
# Poissons Ratio (y) = 0.17234 0.21572
# Poissons Ratio (z) = -0.03080 0.08486
#
# Static dielectric constant tensor:
#      x y z
#    x 1.868140 0.043000 -0.183690 
#    y 0.043000 2.000170 0.013360 
#    z -0.183690 0.013360 1.754740 
# 
# From -- ./inp_files/545965.got.cif
#   From: 2010.05.17/outbox.cif.g08.bks.cpg/sg2_273_cif.got.tgz:545965.got - 2010.06.03 11:33:40.
