data_PCOD9028056
_publ_section_title
;
Structure prediction by ZEFSAII (Michael W. Deem and Ramdas Pophale) SiO2 
 PCOD9028056
Probable space group: P -1
;
_chemical_formula_sum "Si O2"
_cell_formula_units_Z 14
_cell_length_a 21.953867
_cell_length_b 9.306348
_cell_length_c 5.155611
_cell_angle_alpha 105.966712
_cell_angle_beta 86.649611
_cell_angle_gamma 146.535218
_cell_volume 528.572468
_symmetry_space_group_name_H-M "P -1"
_symmetry_group_IT_number 2
_symmetry_cell_setting 'triclinic'
loop_
_space_group_symop_operation_xyz
x,y,z
-x,-y,-z
loop_
_atom_site_type_symbol
_atom_site_label
_atom_site_fract_x
_atom_site_fract_y
_atom_site_fract_z
Si Si1 0.771567 0.506009 0.593567
Si Si2 0.898717 0.836063 0.237621
Si Si3 0.368926 0.048023 0.380054
Si Si4 0.808038 0.171068 0.980726
Si Si5 0.049522 0.728260 0.407828
Si Si6 0.385713 0.352801 0.858131
Si Si7 0.573124 0.303813 0.648767
O O1 0.792660 0.562823 0.311232
O O2 0.698761 0.205445 0.535608
O O3 0.700993 0.511850 0.664258
O O4 0.875662 0.729284 0.896795
O O5 0.906860 0.033488 0.339499
O O6 0.000000 0.000000 0.500000
O O7 0.284798 0.890793 0.082390
O O8 0.365816 0.216462 0.538910
O O9 0.500314 0.261924 0.457082
O O10 0.857586 0.154952 0.749056
O O11 0.928494 0.510429 0.180609
O O12 0.734755 0.926700 0.092281
O O13 0.000000 0.500000 0.500000
O O14 0.500000 0.500000 0.000000
O O15 0.419648 0.593462 0.030332
O O16 0.500000 0.000000 0.500000
#
# Coordination Sequence:
#
# PCOD9028056 Si02
#       7
#     2   2   2   2   2   2   2
#     4  11  26  47  73 106 151 193 244 309 374 441
#     4  12  28  47  75 105 148 197 253 303 378 440
#     4  10  23  43  71 104 140 190 245 301 368 448
#     4  11  24  42  72 102 145 189 248 303 375 436
#     4  11  27  44  71 105 147 194 250 312 369 443
#     4  10  22  41  70  99 140 182 243 294 368 433
#     4   9  21  45  66 104 143 186 239 300 373 440
#
# _framework density 26.486433000000002
#
# number of rings (size 3 to 8) (size 9 to 14) (size 15 to 20)
#    0.000    1.429    0.000    3.000   14.000    2.286 
#    5.143    2.143    0.000    0.000    0.000    0.000 
#    0.000    0.000    0.000    0.000    0.000    0.000 
#
# Total GULP energy -78079.871519 kJ/mol
# GULP energy per Si atom -5577.133680 kJ/mol
# Density = 2.642615 g / cm^3
# Si number density = 26.486433 Si / 1000 Ang^3
#
#
#
# Elastic Constant Matrix: (Units=GPa)
#
#
# Indices 1 2 3 4 5 6 
#
# 1 118.9983 32.0646 43.8146 16.1417 1.3924 -10.1445
# 2 32.0646 113.9966 24.9279 7.0902 -16.0861 -23.5416
# 3 43.8146 24.9279 91.1520 14.0167 -11.4673 -1.2226
# 4 16.1417 7.0902 14.0167 44.5096 -0.7743 -3.6584
# 5 1.3924 -16.0861 -11.4673 -0.7743 64.6958 25.1659
# 6 -10.1445 -23.5416 -1.2226 -3.6584 25.1659 51.7289
#
#
#
# Elastic Compliance Matrix: (Units=1/GPa)
#
#
# Indices 1 2 3 4 5 6 
#
# 1 0.011187 -0.001833 -0.004834 -0.002097 -0.002473 0.002300
# 2 -0.001833 0.010649 -0.001864 -0.000098 0.000777 0.004058
# 3 -0.004834 -0.001864 0.014626 -0.002770 0.003503 -0.003351
# 4 -0.002097 -0.000098 -0.002770 0.024231 -0.000794 0.001579
# 5 -0.002473 0.000777 0.003503 -0.000794 0.020173 -0.009919
# 6 0.002300 0.004058 -0.003351 0.001579 -0.009919 0.026487
#
#
# Mechanical properties :
#
#
# Convention : Reuss Voigt Hill
#
# Bulk Modulus (GPa) = 51.54665 58.41791 54.98228
# Shear Modulus (GPa) = 38.20255 47.07618 42.63937
#
# Velocity S-wave (km/s) = 3.80194 4.22046 4.01665
# Velocity P-wave (km/s) = 6.22710 6.77151 6.50500
#
# Compressibility (1/GPa) = 0.01939990
#
# Stress axis : x y z
#
# Youngs Moduli (GPa) = 89.39274 93.90443 68.37301
#
# Poissons Ratio (x) = 0.17214 0.33049
# Poissons Ratio (y) = 0.16387 0.12744
# Poissons Ratio (z) = 0.43210 0.17503
#
# Static dielectric constant tensor:
#      x y z
#    x 2.144570 0.113590 0.008310 
#    y 0.113590 2.244520 -0.044140 
#    z 0.008310 -0.044140 2.564670 
# 
# From -- ./inp_files/55448.got.cif
#   From: 2010.05.17/outbox.cif.g08.bks.cpg/sg2_28_cif.got.tgz:55448.got - 2010.06.03 11:33:40.
