data_PCOD9028505
_publ_section_title
;
Structure prediction by ZEFSAII (Michael W. Deem and Ramdas Pophale) SiO2 
 PCOD9028505
Probable space group: P -1
;
_chemical_formula_sum "Si O2"
_cell_formula_units_Z 16
_cell_length_a 15.514442
_cell_length_b 8.829525
_cell_length_c 14.101214
_cell_angle_alpha 105.447555
_cell_angle_beta 28.939000
_cell_angle_gamma 85.732198
_cell_volume 677.350543
_symmetry_space_group_name_H-M "P -1"
_symmetry_group_IT_number 2
_symmetry_cell_setting 'triclinic'
loop_
_space_group_symop_operation_xyz
x,y,z
-x,-y,-z
loop_
_atom_site_type_symbol
_atom_site_label
_atom_site_fract_x
_atom_site_fract_y
_atom_site_fract_z
Si Si1 0.776300 0.610543 0.980479
Si Si2 0.738128 0.414404 0.699151
Si Si3 0.525962 0.438424 0.201847
Si Si4 0.066977 0.337998 0.821453
Si Si5 0.407946 0.983318 0.683779
Si Si6 0.314411 0.703843 0.774781
Si Si7 0.594669 0.801066 0.979992
Si Si8 0.775489 0.021100 0.780429
O O1 0.596374 0.577100 0.178663
O O2 0.754406 0.794083 0.075808
O O3 0.003312 0.417097 0.786830
O O4 0.699424 0.678665 0.957447
O O5 0.701703 0.412109 0.621639
O O6 0.744295 0.600362 0.732347
O O7 0.958303 0.194133 0.495037
O O8 0.500000 0.500000 0.000000
O O9 0.549539 0.344813 0.264973
O O10 0.708181 0.226776 0.926998
O O11 0.346391 0.163892 0.521783
O O12 0.919379 0.265164 0.976754
O O13 0.000000 0.500000 0.000000
O O14 0.281132 0.890166 0.787797
O O15 0.500000 0.000000 0.500000
O O16 0.500000 0.500000 0.500000
O O17 0.633783 0.962900 0.959426
O O18 0.326753 0.927782 0.220394
#
# Coordination Sequence:
#
# PCOD9028505 Si02
#       8
#     2   2   2   2   2   2   2   2
#     4  11  23  42  65  98 135 166 235 272 331 412
#     4  11  22  42  67  97 134 175 225 276 334 406
#     4  10  23  42  63 100 133 174 229 275 337 406
#     4  11  23  45  66  98 133 177 226 278 342 399
#     4  12  24  43  69  97 134 181 224 284 339 402
#     4  11  23  44  71  97 142 178 224 286 336 406
#     4  10  22  42  63 101 130 175 219 279 338 402
#     4  10  23  41  68  93 140 172 224 276 338 407
#
# _framework density 23.621445999999999
#
# number of rings (size 3 to 8) (size 9 to 14) (size 15 to 20)
#    0.000    1.250    3.750    1.875    0.000    6.500 
#    0.000    0.000    0.000    0.000    0.000    0.000 
#    0.000    0.000    0.000    0.000    0.000    0.000 
#
# Total GULP energy -89182.755213 kJ/mol
# GULP energy per Si atom -5573.922201 kJ/mol
# Density = 2.356768 g / cm^3
# Si number density = 23.621446 Si / 1000 Ang^3
#
#
#
# Elastic Constant Matrix: (Units=GPa)
#
#
# Indices 1 2 3 4 5 6 
#
# 1 97.7131 22.4860 2.4301 2.0918 -17.1338 -28.1010
# 2 22.4860 136.8956 23.5308 -8.3510 -11.9004 11.3607
# 3 2.4301 23.5308 67.5427 10.4487 -25.6265 -0.8742
# 4 2.0918 -8.3510 10.4487 29.9795 -6.2653 -6.7937
# 5 -17.1338 -11.9004 -25.6265 -6.2653 32.1814 12.1260
# 6 -28.1010 11.3607 -0.8742 -6.7937 12.1260 54.1636
#
#
#
# Elastic Compliance Matrix: (Units=1/GPa)
#
#
# Indices 1 2 3 4 5 6 
#
# 1 0.013702 -0.002735 0.002893 0.000007 0.006199 0.006342
# 2 -0.002735 0.008850 -0.003073 0.003257 0.001204 -0.003186
# 3 0.002893 -0.003073 0.023982 -0.005958 0.019296 -0.002535
# 4 0.000007 0.003257 -0.005958 0.037631 0.002516 0.003381
# 5 0.006199 0.001204 0.019296 0.002516 0.053866 -0.008469
# 6 0.006342 -0.003186 -0.002535 0.003381 -0.008469 0.024700
#
#
# Mechanical properties :
#
#
# Convention : Reuss Voigt Hill
#
# Bulk Modulus (GPa) = 24.56756 44.33835 34.45295
# Shear Modulus (GPa) = 27.45280 40.17854 33.81567
#
# Velocity S-wave (km/s) = 3.41280 4.12871 3.78771
# Velocity P-wave (km/s) = 5.09438 6.44511 5.80914
#
# Compressibility (1/GPa) = 0.04070409
#
# Stress axis : x y z
#
# Youngs Moduli (GPa) = 72.98039 112.99410 41.69768
#
# Poissons Ratio (x) = 0.30904 -0.12063
# Poissons Ratio (y) = 0.19960 0.12814
# Poissons Ratio (z) = -0.21113 0.34724
#
# Static dielectric constant tensor:
#      x y z
#    x 1.880710 -0.037900 -0.083630 
#    y -0.037900 1.971310 -0.007320 
#    z -0.083630 -0.007320 1.889190 
# 
# From -- ./inp_files/529862.got.cif
#   From: 2010.05.17/outbox.cif.g08.bks.cpg/sg2_265_cif.got.tgz:529862.got - 2010.06.03 11:33:40.
