data_PCOD9028247
_publ_section_title
;
Structure prediction by ZEFSAII (Michael W. Deem and Ramdas Pophale) SiO2 
 PCOD9028247
Probable space group: P -1
;
_chemical_formula_sum "Si O2"
_cell_formula_units_Z 14
_cell_length_a 7.731454
_cell_length_b 8.505455
_cell_length_c 9.302120
_cell_angle_alpha 83.736816
_cell_angle_beta 109.732773
_cell_angle_gamma 109.426527
_cell_volume 542.998860
_symmetry_space_group_name_H-M "P -1"
_symmetry_group_IT_number 2
_symmetry_cell_setting 'triclinic'
loop_
_space_group_symop_operation_xyz
x,y,z
-x,-y,-z
loop_
_atom_site_type_symbol
_atom_site_label
_atom_site_fract_x
_atom_site_fract_y
_atom_site_fract_z
Si Si1 0.735766 0.535198 0.949513
Si Si2 0.665777 0.255101 0.728253
Si Si3 0.218116 0.441006 0.462077
Si Si4 0.090773 0.867647 0.975211
Si Si5 0.588444 0.814146 0.586936
Si Si6 0.640125 0.387619 0.225713
Si Si7 0.005954 0.897554 0.653761
O O1 0.929644 0.681546 0.944039
O O2 0.768515 0.446781 0.114093
O O3 0.643252 0.389629 0.823710
O O4 0.569000 0.621444 0.901193
O O5 0.368278 0.359525 0.432514
O O6 0.787085 0.388597 0.629638
O O7 0.495115 0.142234 0.590352
O O8 0.267773 0.472901 0.639941
O O9 0.024196 0.289222 0.394042
O O10 0.246292 0.852107 0.134707
O O11 0.154942 0.926060 0.823809
O O12 0.000000 0.000000 0.000000
O O13 0.435438 0.774648 0.676473
O O14 0.808999 0.913807 0.672074
O O15 0.000000 0.000000 0.500000
#
# Coordination Sequence:
#
# PCOD9028247 Si02
#       7
#     2   2   2   2   2   2   2
#     4  11  19  34  64  93 119 156 198 259 299 354
#     4  11  19  41  67  90 119 158 213 256 298 357
#     4   9  17  35  64  93 114 158 207 246 296 357
#     4  12  27  41  57  91 131 164 198 256 315 357
#     4   9  17  37  64  93 115 163 206 250 301 361
#     4  10  17  31  62  99 117 142 207 257 300 343
#     4  10  21  39  63  84 129 168 198 236 318 372
#
# _framework density 25.782745999999999
#
# number of rings (size 3 to 8) (size 9 to 14) (size 15 to 20)
#    0.857    0.857    5.714    1.286    2.000    0.000 
#    0.000    7.143    0.000    0.000    0.000    0.000 
#    0.000    0.000    0.000    0.000    0.000    0.000 
#
# Total GULP energy -77963.539408 kJ/mol
# GULP energy per Si atom -5568.824243 kJ/mol
# Density = 2.572406 g / cm^3
# Si number density = 25.782746 Si / 1000 Ang^3
#
#
#
# Elastic Constant Matrix: (Units=GPa)
#
#
# Indices 1 2 3 4 5 6 
#
# 1 42.9317 12.9453 30.9317 -13.0005 8.7641 0.3206
# 2 12.9453 53.0280 43.6973 -17.7091 -9.7691 -17.0806
# 3 30.9317 43.6973 235.4087 -36.2393 10.0626 -9.1568
# 4 -13.0005 -17.7091 -36.2393 45.4841 -3.6289 5.3847
# 5 8.7641 -9.7691 10.0626 -3.6289 47.4471 -10.5097
# 6 0.3206 -17.0806 -9.1568 5.3847 -10.5097 18.7455
#
#
#
# Elastic Compliance Matrix: (Units=1/GPa)
#
#
# Indices 1 2 3 4 5 6 
#
# 1 0.033812 -0.017569 -0.000951 0.004016 -0.015285 -0.026775
# 2 -0.017569 0.057151 -0.005993 0.007267 0.031205 0.064856
# 3 -0.000951 -0.005993 0.005787 0.002352 -0.003237 -0.005108
# 4 0.004016 0.007267 0.002352 0.027910 0.002649 0.001170
# 5 -0.015285 0.031205 -0.003237 0.002649 0.042304 0.050071
# 6 -0.026775 0.064856 -0.005108 0.001170 0.050071 0.138141
#
#
# Mechanical properties :
#
#
# Convention : Reuss Voigt Hill
#
# Bulk Modulus (GPa) = 20.95375 56.27966 38.61671
# Shear Modulus (GPa) = 13.51203 38.58827 26.05015
#
# Velocity S-wave (km/s) = 2.29175 3.87288 3.18208
# Velocity P-wave (km/s) = 3.89198 6.47107 5.33958
#
# Compressibility (1/GPa) = 0.04772415
#
# Stress axis : x y z
#
# Youngs Moduli (GPa) = 29.57496 17.49745 172.79884
#
# Poissons Ratio (x) = 0.30742 0.16440
# Poissons Ratio (y) = 0.51961 1.03550
# Poissons Ratio (z) = 0.02814 0.10485
#
# Static dielectric constant tensor:
#      x y z
#    x 2.251490 0.022940 0.031360 
#    y 0.022940 2.136600 -0.029570 
#    z 0.031360 -0.029570 2.050550 
# 
# From -- ./inp_files/309625.got.cif
#   From: 2010.05.17/outbox.cif.g08.bks.cpg/sg2_155_cif.got.tgz:309625.got - 2010.06.03 11:33:40.
