data_PCOD9028579
_publ_section_title
;
Structure prediction by ZEFSAII (Michael W. Deem and Ramdas Pophale) SiO2 
 PCOD9028579
Probable space group: P -1
;
_chemical_formula_sum "Si O2"
_cell_formula_units_Z 16
_cell_length_a 18.169201
_cell_length_b 5.251958
_cell_length_c 8.325618
_cell_angle_alpha 85.244882
_cell_angle_beta 114.756879
_cell_angle_gamma 120.530043
_cell_volume 612.806564
_symmetry_space_group_name_H-M "P -1"
_symmetry_group_IT_number 2
_symmetry_cell_setting 'triclinic'
loop_
_space_group_symop_operation_xyz
x,y,z
-x,-y,-z
loop_
_atom_site_type_symbol
_atom_site_label
_atom_site_fract_x
_atom_site_fract_y
_atom_site_fract_z
Si Si1 0.803546 0.577200 0.205194
Si Si2 0.733029 0.985904 0.593364
Si Si3 0.660683 0.540270 0.833239
Si Si4 0.912359 0.612276 0.831497
Si Si5 0.879229 0.986382 0.520572
Si Si6 0.943021 0.490469 0.194721
Si Si7 0.624204 0.152200 0.269264
Si Si8 0.558866 0.854664 0.883190
O O1 0.883026 0.864766 0.357442
O O2 0.844231 0.369170 0.200992
O O3 0.722264 0.412950 0.271930
O O4 0.757099 0.657776 0.015497
O O5 0.821739 0.266686 0.753562
O O6 0.649793 0.037758 0.457614
O O7 0.689250 0.690368 0.677235
O O8 0.783663 0.980521 0.475732
O O9 0.610532 0.181869 0.825627
O O10 0.597428 0.656192 0.854616
O O11 0.882524 0.786343 0.677623
O O12 0.012343 0.668567 0.852961
O O13 0.930133 0.681294 0.031619
O O14 0.971380 0.304619 0.619638
O O15 0.551896 0.263376 0.230423
O O16 0.581524 0.919296 0.091517
#
# Coordination Sequence:
#
# PCOD9028579 Si02
#       8
#     2   2   2   2   2   2   2   2
#     4  11  23  42  70 100 135 184 234 286 342 423
#     4  11  24  41  69  99 135 186 229 285 344 421
#     4  11  26  44  73 105 138 185 235 289 348 423
#     4  10  22  42  63  95 140 180 222 288 344 410
#     4  11  22  41  63  97 139 177 231 283 350 402
#     4  10  23  40  63 100 134 181 227 284 347 405
#     4  10  23  45  70  99 139 184 228 287 357 415
#     4  10  25  47  71 103 143 181 231 294 356 414
#
# _framework density 26.109383999999999
#
# number of rings (size 3 to 8) (size 9 to 14) (size 15 to 20)
#    0.000    1.500    1.250    2.250    5.250    9.000 
#    2.250    0.000    0.000    0.000    0.000    0.000 
#    0.000    0.000    0.000    0.000    0.000    0.000 
#
# Total GULP energy -89618.744088 kJ/mol
# GULP energy per Si atom -5601.171505 kJ/mol
# Density = 2.604996 g / cm^3
# Si number density = 26.109384 Si / 1000 Ang^3
#
#
#
# Elastic Constant Matrix: (Units=GPa)
#
#
# Indices 1 2 3 4 5 6 
#
# 1 149.6121 24.4120 26.2089 1.2765 19.3197 1.8467
# 2 24.4120 85.2669 33.0443 -21.8435 -6.0210 4.9993
# 3 26.2089 33.0443 99.2605 -18.9542 10.5622 11.3905
# 4 1.2765 -21.8435 -18.9542 35.2952 0.3428 -4.8953
# 5 19.3197 -6.0210 10.5622 0.3428 34.0348 -9.0810
# 6 1.8467 4.9993 11.3905 -4.8953 -9.0810 34.2172
#
#
#
# Elastic Compliance Matrix: (Units=1/GPa)
#
#
# Indices 1 2 3 4 5 6 
#
# 1 0.008032 -0.002910 -0.000968 -0.002761 -0.005131 -0.001443
# 2 -0.002910 0.016617 -0.004047 0.008425 0.006282 0.001949
# 3 -0.000968 -0.004047 0.013651 0.004249 -0.005730 -0.004813
# 4 -0.002761 0.008425 0.004249 0.036365 0.002255 0.003304
# 5 -0.005131 0.006282 -0.005730 0.002255 0.038297 0.011753
# 6 -0.001443 0.001949 -0.004813 0.003304 0.011753 0.034212
#
#
# Mechanical properties :
#
#
# Convention : Reuss Voigt Hill
#
# Bulk Modulus (GPa) = 44.54146 55.71886 50.13016
# Shear Modulus (GPa) = 29.32434 37.40772 33.36603
#
# Velocity S-wave (km/s) = 3.35496 3.78925 3.57870
# Velocity P-wave (km/s) = 5.66606 6.36643 6.02643
#
# Compressibility (1/GPa) = 0.02245099
#
# Stress axis : x y z
#
# Youngs Moduli (GPa) = 124.49859 60.17958 73.25574
#
# Poissons Ratio (x) = 0.17510 0.07091
# Poissons Ratio (y) = 0.36224 0.29646
# Poissons Ratio (z) = 0.12051 0.24354
#
# Static dielectric constant tensor:
#      x y z
#    x 2.001420 -0.013660 0.013320 
#    y -0.013660 2.157810 0.021980 
#    z 0.013320 0.021980 1.999720 
# 
# From -- ./inp_files/323588.got.cif
#   From: 2010.05.17/outbox.cif.g08.bks.cpg/sg2_162_cif.got.tgz:323588.got - 2010.06.03 11:33:40.
