data_PCOD9028510
_publ_section_title
;
Structure prediction by ZEFSAII (Michael W. Deem and Ramdas Pophale) SiO2 
 PCOD9028510
Probable space group: P -1
;
_chemical_formula_sum "Si O2"
_cell_formula_units_Z 14
_cell_length_a 17.619726
_cell_length_b 5.629619
_cell_length_c 8.094606
_cell_angle_alpha 111.810566
_cell_angle_beta 127.837149
_cell_angle_gamma 63.915178
_cell_volume 563.628058
_symmetry_space_group_name_H-M "P -1"
_symmetry_group_IT_number 2
_symmetry_cell_setting 'triclinic'
loop_
_space_group_symop_operation_xyz
x,y,z
-x,-y,-z
loop_
_atom_site_type_symbol
_atom_site_label
_atom_site_fract_x
_atom_site_fract_y
_atom_site_fract_z
Si Si1 0.215039 0.577553 0.536294
Si Si2 0.013654 0.396464 0.247426
Si Si3 0.283975 0.901971 0.161815
Si Si4 0.087658 0.097011 0.566421
Si Si5 0.430695 0.794120 0.022479
Si Si6 0.624221 0.962433 0.336664
Si Si7 0.184719 0.529846 0.125767
O O1 0.301755 0.338546 0.665044
O O2 0.234973 0.604470 0.377462
O O3 0.110382 0.496457 0.372409
O O4 0.187027 0.859819 0.664042
O O5 0.930995 0.609768 0.307485
O O6 0.063094 0.134448 0.350634
O O7 0.936852 0.365135 0.999206
O O8 0.364615 0.801780 0.098857
O O9 0.221751 0.691061 0.069998
O O10 0.337726 0.940002 0.416931
O O11 0.218567 0.203652 0.097507
O O12 0.000000 0.000000 0.500000
O O13 0.508877 0.964574 0.205719
O O14 0.500000 0.500000 0.000000
O O15 0.374748 0.894558 0.800592
#
# Coordination Sequence:
#
# PCOD9028510 Si02
#       7
#     2   2   2   2   2   2   2
#     4  10  23  43  70  99 144 192 244 297 364 436
#     4  10  22  42  63 102 143 192 246 294 354 429
#     4  11  28  50  74 111 154 190 242 309 366 438
#     4   9  21  38  62  95 138 189 238 305 353 410
#     4  11  27  49  81 108 140 191 244 307 376 449
#     4  10  26  49  73 112 142 189 246 302 377 437
#     4  11  27  45  71 107 146 200 241 299 365 430
#
# _framework density 24.839075999999999
#
# number of rings (size 3 to 8) (size 9 to 14) (size 15 to 20)
#    0.000    1.714    0.000    0.857   16.000    5.714 
#    0.000    0.000    0.000    0.000    0.000    0.000 
#    0.000    0.000    0.000    0.000    0.000    0.000 
#
# Total GULP energy -78230.830889 kJ/mol
# GULP energy per Si atom -5587.916492 kJ/mol
# Density = 2.478254 g / cm^3
# Si number density = 24.839076 Si / 1000 Ang^3
#
#
#
# Elastic Constant Matrix: (Units=GPa)
#
#
# Indices 1 2 3 4 5 6 
#
# 1 163.0412 56.6031 39.6085 -11.1123 9.4001 24.3905
# 2 56.6031 133.7867 43.8594 -20.2799 -25.1219 -0.5136
# 3 39.6085 43.8594 130.8820 -21.9760 8.1652 9.5738
# 4 -11.1123 -20.2799 -21.9760 42.9274 7.1647 -1.4790
# 5 9.4001 -25.1219 8.1652 7.1647 40.2812 4.6539
# 6 24.3905 -0.5136 9.5738 -1.4790 4.6539 44.0450
#
#
#
# Elastic Compliance Matrix: (Units=1/GPa)
#
#
# Indices 1 2 3 4 5 6 
#
# 1 0.008627 -0.004176 -0.000558 0.000513 -0.004104 -0.004254
# 2 -0.004176 0.012198 -0.003258 0.001644 0.008684 0.002301
# 3 -0.000558 -0.003258 0.009969 0.004128 -0.004509 -0.001281
# 4 0.000513 0.001644 0.004128 0.027125 -0.004786 0.000254
# 5 -0.004104 0.008684 -0.004509 -0.004786 0.032999 -0.000293
# 6 -0.004254 0.002301 -0.001281 0.000254 -0.000293 0.025404
#
#
# Mechanical properties :
#
#
# Convention : Reuss Voigt Hill
#
# Bulk Modulus (GPa) = 67.52125 78.65020 73.08572
# Shear Modulus (GPa) = 36.43163 44.62664 40.52914
#
# Velocity S-wave (km/s) = 3.83391 4.24327 4.04377
# Velocity P-wave (km/s) = 6.84405 7.46590 7.16173
#
# Compressibility (1/GPa) = 0.01481015
#
# Stress axis : x y z
#
# Youngs Moduli (GPa) = 115.91836 81.97894 100.30860
#
# Poissons Ratio (x) = 0.34236 0.05596
# Poissons Ratio (y) = 0.48410 0.32680
# Poissons Ratio (z) = 0.06466 0.26708
#
# Static dielectric constant tensor:
#      x y z
#    x 1.981250 0.018180 -0.012370 
#    y 0.018180 1.973790 0.057840 
#    z -0.012370 0.057840 2.081640 
# 
# From -- ./inp_files/324030.got.cif
#   From: 2010.05.17/outbox.cif.g08.bks.cpg/sg2_163_cif.got.tgz:324030.got - 2010.06.03 11:33:40.
