data_PCOD9028396
_publ_section_title
;
Structure prediction by ZEFSAII (Michael W. Deem and Ramdas Pophale) SiO2 
 PCOD9028396
Probable space group: P -1
;
_chemical_formula_sum "Si O2"
_cell_formula_units_Z 16
_cell_length_a 19.675680
_cell_length_b 14.923257
_cell_length_c 8.587012
_cell_angle_alpha 64.805059
_cell_angle_beta 114.211716
_cell_angle_gamma 160.530618
_cell_volume 760.108264
_symmetry_space_group_name_H-M "P -1"
_symmetry_group_IT_number 2
_symmetry_cell_setting 'triclinic'
loop_
_space_group_symop_operation_xyz
x,y,z
-x,-y,-z
loop_
_atom_site_type_symbol
_atom_site_label
_atom_site_fract_x
_atom_site_fract_y
_atom_site_fract_z
Si Si1 0.820103 0.437136 0.276336
Si Si2 0.569720 0.522521 0.400804
Si Si3 0.176683 0.809230 0.118719
Si Si4 0.872131 0.062080 0.233835
Si Si5 0.465400 0.061094 0.009190
Si Si6 0.328348 0.568830 0.330047
Si Si7 0.167571 0.928225 0.448778
Si Si8 0.624251 0.000943 0.526229
O O1 0.644683 0.280761 0.142361
O O2 0.711812 0.219221 0.439609
O O3 0.961815 0.553906 0.196451
O O4 0.968407 0.687897 0.333614
O O5 0.500000 0.500000 0.500000
O O6 0.667310 0.540878 0.539619
O O7 0.730992 0.791993 0.268191
O O8 0.359228 0.227910 0.340163
O O9 0.341500 0.002656 0.269625
O O10 0.245234 0.804953 0.071437
O O11 0.191351 0.926463 0.944307
O O12 0.856478 0.071833 0.394716
O O13 0.109373 0.330291 0.239759
O O14 0.513686 0.206588 0.823299
O O15 0.500000 0.000000 0.000000
O O16 0.405658 0.722753 0.443371
O O17 0.234430 0.896358 0.522263
#
# Coordination Sequence:
#
# PCOD9028396 Si02
#       8
#     2   2   2   2   2   2   2   2
#     4  11  23  43  61  92 129 169 207 258 313 379
#     4   9  19  39  66  90 120 164 211 262 312 369
#     4  11  24  41  63  91 128 168 208 262 312 363
#     4  11  22  39  68  92 123 167 213 260 318 364
#     4  12  25  40  62  94 130 166 216 258 304 375
#     4  11  22  41  63  96 127 163 213 257 309 383
#     4   9  20  38  63  89 120 162 209 254 311 375
#     4  10  22  42  61  89 128 167 207 255 314 378
#
# _framework density 21.049634000000001
#
# number of rings (size 3 to 8) (size 9 to 14) (size 15 to 20)
#    0.000    1.500    2.500    4.125    1.750    3.000 
#    0.000    5.625    0.000    2.250    0.000    0.000 
#    0.000    0.000    0.000    0.000    0.000    0.000 
#
# Total GULP energy -89305.454675 kJ/mol
# GULP energy per Si atom -5581.590917 kJ/mol
# Density = 2.100172 g / cm^3
# Si number density = 21.049634 Si / 1000 Ang^3
#
#
#
# Elastic Constant Matrix: (Units=GPa)
#
#
# Indices 1 2 3 4 5 6 
#
# 1 79.4155 23.9164 32.8400 -10.2951 -5.2505 6.8044
# 2 23.9164 87.7084 50.3857 13.8924 6.6931 3.1514
# 3 32.8400 50.3857 102.3437 17.7615 15.5349 1.8343
# 4 -10.2951 13.8924 17.7615 28.8525 4.0044 0.3142
# 5 -5.2505 6.6931 15.5349 4.0044 25.0558 -5.9645
# 6 6.8044 3.1514 1.8343 0.3142 -5.9645 32.5184
#
#
#
# Elastic Compliance Matrix: (Units=1/GPa)
#
#
# Indices 1 2 3 4 5 6 
#
# 1 0.018899 -0.003129 -0.007653 0.011992 0.007143 -0.002026
# 2 -0.003129 0.016728 -0.006218 -0.005254 -0.000589 -0.000673
# 3 -0.007653 -0.006218 0.018506 -0.009735 -0.009999 -0.000580
# 4 0.011992 -0.005254 -0.009735 0.047193 0.002045 -0.001532
# 5 0.007143 -0.000589 -0.009999 0.002045 0.049381 0.008164
# 6 -0.002026 -0.000673 -0.000580 -0.001532 0.008164 0.032786
#
#
# Mechanical properties :
#
#
# Convention : Reuss Voigt Hill
#
# Bulk Modulus (GPa) = 49.67035 53.75018 51.71027
# Shear Modulus (GPa) = 22.30105 28.10703 25.20404
#
# Velocity S-wave (km/s) = 3.25845 3.65810 3.46405
# Velocity P-wave (km/s) = 6.14855 6.59035 6.37328
#
# Compressibility (1/GPa) = 0.02013274
#
# Stress axis : x y z
#
# Youngs Moduli (GPa) = 52.91188 59.77969 54.03750
#
# Poissons Ratio (x) = 0.18703 0.41356
# Poissons Ratio (y) = 0.16555 0.33602
# Poissons Ratio (z) = 0.40494 0.37173
#
# Static dielectric constant tensor:
#      x y z
#    x 1.799380 0.022100 -0.051390 
#    y 0.022100 1.800070 0.001890 
#    z -0.051390 0.001890 1.761110 
# 
# From -- ./inp_files/347201.got.cif
#   From: 2010.05.17/outbox.cif.g08.bks.cpg/sg2_174_cif.got.tgz:347201.got - 2010.06.03 11:33:40.
