data_PCOD9028534
_publ_section_title
;
Structure prediction by ZEFSAII (Michael W. Deem and Ramdas Pophale) SiO2 
 PCOD9028534
Probable space group: P -1
;
_chemical_formula_sum "Si O2"
_cell_formula_units_Z 14
_cell_length_a 9.885125
_cell_length_b 12.730872
_cell_length_c 18.101382
_cell_angle_alpha 151.208477
_cell_angle_beta 46.001263
_cell_angle_gamma 147.523766
_cell_volume 580.246543
_symmetry_space_group_name_H-M "P -1"
_symmetry_group_IT_number 2
_symmetry_cell_setting 'triclinic'
loop_
_space_group_symop_operation_xyz
x,y,z
-x,-y,-z
loop_
_atom_site_type_symbol
_atom_site_label
_atom_site_fract_x
_atom_site_fract_y
_atom_site_fract_z
Si Si1 0.992356 0.344049 0.335105
Si Si2 0.560134 0.690566 0.363135
Si Si3 0.081968 0.619017 0.321961
Si Si4 0.076621 0.150932 0.982201
Si Si5 0.322587 0.364241 0.555206
Si Si6 0.026199 0.787331 0.223992
Si Si7 0.218506 0.853419 0.037827
O O1 0.287063 0.497465 0.310769
O O2 0.943124 0.448288 0.346255
O O3 0.000000 0.500000 0.500000
O O4 0.816889 0.989226 0.181363
O O5 0.541942 0.579539 0.384415
O O6 0.754614 0.684274 0.242897
O O7 0.697514 0.032895 0.530460
O O8 0.852083 0.556983 0.327255
O O9 0.188904 0.478964 0.160315
O O10 0.875551 0.068079 0.944340
O O11 0.000000 0.000000 0.000000
O O12 0.500000 0.500000 0.500000
O O13 0.133875 0.016121 0.390791
O O14 0.973413 0.501766 0.094848
O O15 0.206067 0.944169 0.180833
O O16 0.500000 0.000000 0.000000
#
# Coordination Sequence:
#
# PCOD9028534 Si02
#       7
#     2   2   2   2   2   2   2
#     4  11  24  41  66  95 126 175 228 272 338 404
#     4  11  22  42  67  94 135 172 225 280 331 405
#     4  10  22  42  63  90 134 172 219 273 337 398
#     4  10  23  41  66  93 132 177 218 275 337 403
#     4  11  23  38  68  99 134 175 224 277 340 397
#     4  10  24  40  66 107 131 179 225 278 343 406
#     4  11  23  42  71  97 140 173 227 282 338 402
#
# _framework density 24.127676000000001
#
# number of rings (size 3 to 8) (size 9 to 14) (size 15 to 20)
#    0.000    1.429    0.000    5.571   10.000    0.000 
#    0.000    0.714    3.143    0.000    0.000    0.000 
#    0.000    0.000    0.000    0.000    0.000    0.000 
#
# Total GULP energy -78209.757654 kJ/mol
# GULP energy per Si atom -5586.411261 kJ/mol
# Density = 2.407276 g / cm^3
# Si number density = 24.127676 Si / 1000 Ang^3
#
#
#
# Elastic Constant Matrix: (Units=GPa)
#
#
# Indices 1 2 3 4 5 6 
#
# 1 118.7291 31.4758 12.8912 -2.0796 0.1763 -34.0507
# 2 31.4758 99.1325 22.3496 -17.7600 -12.4833 -18.2282
# 3 12.8912 22.3496 154.7938 3.4792 -10.6901 -26.6591
# 4 -2.0796 -17.7600 3.4792 44.7376 -17.5851 1.1069
# 5 0.1763 -12.4833 -10.6901 -17.5851 35.3926 3.5966
# 6 -34.0507 -18.2282 -26.6591 1.1069 3.5966 30.1204
#
#
#
# Elastic Compliance Matrix: (Units=1/GPa)
#
#
# Indices 1 2 3 4 5 6 
#
# 1 0.013327 -0.002535 0.001769 -0.002109 -0.003053 0.015539
# 2 -0.002535 0.014572 -0.000816 0.009212 0.009096 0.003805
# 3 0.001769 -0.000816 0.007969 -0.000722 0.000890 0.008479
# 4 -0.002109 0.009212 -0.000722 0.033842 0.019966 -0.001076
# 5 -0.003053 0.009096 0.000890 0.019966 0.041962 -0.002904
# 6 0.015539 0.003805 0.008479 -0.001076 -0.002904 0.060961
#
#
# Mechanical properties :
#
#
# Convention : Reuss Voigt Hill
#
# Bulk Modulus (GPa) = 30.57920 56.23208 43.40564
# Shear Modulus (GPa) = 26.78126 42.44605 34.61365
#
# Velocity S-wave (km/s) = 3.33525 4.19886 3.79173
# Velocity P-wave (km/s) = 5.24722 6.84572 6.09907
#
# Compressibility (1/GPa) = 0.03270197
#
# Stress axis : x y z
#
# Youngs Moduli (GPa) = 75.03748 68.62505 125.49083
#
# Poissons Ratio (x) = 0.17398 -0.22199
# Poissons Ratio (y) = 0.19024 0.10244
# Poissons Ratio (z) = -0.13274 0.05602
#
# Static dielectric constant tensor:
#      x y z
#    x 1.860390 0.012750 -0.008110 
#    y 0.012750 1.961050 0.033640 
#    z -0.008110 0.033640 2.036820 
# 
# From -- ./inp_files/314444.got.cif
#   From: 2010.05.17/outbox.cif.g08.bks.cpg/sg2_158_cif.got.tgz:314444.got - 2010.06.03 11:33:40.
