data_PCOD9028631
_publ_section_title
;
Structure prediction by ZEFSAII (Michael W. Deem and Ramdas Pophale) SiO2 
 PCOD9028631
Probable space group: P -1
;
_chemical_formula_sum "Si O2"
_cell_formula_units_Z 10
_cell_length_a 13.605516
_cell_length_b 13.018300
_cell_length_c 7.710414
_cell_angle_alpha 134.393138
_cell_angle_beta 137.045246
_cell_angle_gamma 29.650839
_cell_volume 452.131992
_symmetry_space_group_name_H-M "P -1"
_symmetry_group_IT_number 2
_symmetry_cell_setting 'triclinic'
loop_
_space_group_symop_operation_xyz
x,y,z
-x,-y,-z
loop_
_atom_site_type_symbol
_atom_site_label
_atom_site_fract_x
_atom_site_fract_y
_atom_site_fract_z
Si Si1 0.703838 0.470015 0.603524
Si Si2 0.337881 0.819711 0.313618
Si Si3 0.096780 0.900876 0.783597
Si Si4 0.237148 0.380005 0.456874
Si Si5 0.073789 0.649643 0.910083
O O1 0.466333 0.647649 0.430473
O O2 0.804814 0.241028 0.426135
O O3 0.817299 0.496706 0.646052
O O4 0.746241 0.488455 0.872929
O O5 0.505714 0.813795 0.452985
O O6 0.272525 0.767677 0.005775
O O7 0.113591 0.031722 0.350585
O O8 0.021864 0.120301 0.940523
O O9 0.168999 0.526298 0.705769
O O10 0.114856 0.321135 0.247758
#
# Coordination Sequence:
#
# PCOD9028631 Si02
#       5
#     2   2   2   2   2
#     4  10  22  42  64  87 124 162 197 249 304 357
#     4   9  22  40  65  83 129 163 193 245 314 349
#     4  11  21  38  65  93 118 159 204 252 292 361
#     4   9  22  42  63  86 124 167 191 248 308 359
#     4  11  22  39  67  91 120 156 211 246 297 357
#
# _framework density 22.117435
#
# number of rings (size 3 to 8) (size 9 to 14) (size 15 to 20)
#    1.200    0.800    0.000    4.200    2.800    1.600 
#    3.600    1.000    0.000    0.000    0.000    0.000 
#    0.000    0.000    0.000    0.000    0.000    0.000 
#
# Total GULP energy -55797.942641 kJ/mol
# GULP energy per Si atom -5579.794264 kJ/mol
# Density = 2.206709 g / cm^3
# Si number density = 22.117435 Si / 1000 Ang^3
#
#
#
# Elastic Constant Matrix: (Units=GPa)
#
#
# Indices 1 2 3 4 5 6 
#
# 1 92.5070 16.4134 39.0165 -8.5862 10.4563 7.0712
# 2 16.4134 63.2781 34.1629 -23.5356 2.4521 4.7456
# 3 39.0165 34.1629 86.1525 -25.5032 -1.6868 5.9671
# 4 -8.5862 -23.5356 -25.5032 31.3687 -5.6307 2.6727
# 5 10.4563 2.4521 -1.6868 -5.6307 38.0025 -11.3262
# 6 7.0712 4.7456 5.9671 2.6727 -11.3262 22.8731
#
#
#
# Elastic Compliance Matrix: (Units=1/GPa)
#
#
# Indices 1 2 3 4 5 6 
#
# 1 0.014748 -0.000328 -0.007074 -0.002637 -0.006380 -0.005497
# 2 -0.000328 0.024429 -0.004824 0.014593 -0.001351 -0.006083
# 3 -0.007074 -0.004824 0.020456 0.012004 0.004559 -0.001294
# 4 -0.002637 0.014593 0.012004 0.053628 0.005634 -0.008821
# 5 -0.006380 -0.001351 0.004559 0.005634 0.034390 0.017434
# 6 -0.005497 -0.006083 -0.001294 -0.008821 0.017434 0.056682
#
#
# Mechanical properties :
#
#
# Convention : Reuss Voigt Hill
#
# Bulk Modulus (GPa) = 28.42359 46.79147 37.60753
# Shear Modulus (GPa) = 20.78897 28.60517 24.69707
#
# Velocity S-wave (km/s) = 3.06916 3.60019 3.34523
# Velocity P-wave (km/s) = 5.04369 6.20352 5.65343
#
# Compressibility (1/GPa) = 0.03518204
#
# Stress axis : x y z
#
# Youngs Moduli (GPa) = 67.80445 40.93533 48.88470
#
# Poissons Ratio (x) = 0.01341 0.34581
# Poissons Ratio (y) = 0.02222 0.23582
# Poissons Ratio (z) = 0.47965 0.19747
#
# Static dielectric constant tensor:
#      x y z
#    x 1.868980 0.031580 0.013650 
#    y 0.031580 1.803470 -0.031500 
#    z 0.013650 -0.031500 1.776010 
# 
# From -- ./inp_files/21063.got.cif
#   From: 2010.05.17/outbox.cif.g08.bks.cpg/sg2_11_cif.got.tgz:21063.got - 2010.06.03 11:33:40.
