data_PCOD9028165
_publ_section_title
;
Structure prediction by ZEFSAII (Michael W. Deem and Ramdas Pophale) SiO2 
 PCOD9028165
Probable space group: P -1
;
_chemical_formula_sum "Si O2"
_cell_formula_units_Z 15
_cell_length_a 5.448114
_cell_length_b 12.771752
_cell_length_c 11.611195
_cell_angle_alpha 127.235391
_cell_angle_beta 72.681113
_cell_angle_gamma 87.174974
_cell_volume 585.434678
_symmetry_space_group_name_H-M "P -1"
_symmetry_group_IT_number 2
_symmetry_cell_setting 'triclinic'
loop_
_space_group_symop_operation_xyz
x,y,z
-x,-y,-z
loop_
_atom_site_type_symbol
_atom_site_label
_atom_site_fract_x
_atom_site_fract_y
_atom_site_fract_z
Si Si1 0.948588 0.090879 0.329415
Si Si2 0.712923 0.615312 0.626397
Si Si3 0.518728 0.372045 0.570550
Si Si4 0.140550 0.247292 0.091103
Si Si5 0.434430 0.684617 0.223682
Si Si6 0.123064 0.491444 0.103615
Si Si7 0.490717 0.949283 0.283915
Si Si8 0.000000 0.000000 0.000000
O O1 0.806257 0.254100 0.455833
O O2 0.707497 0.023044 0.346230
O O3 0.203623 0.047932 0.348896
O O4 0.043566 0.034074 0.151636
O O5 0.535049 0.523116 0.640114
O O6 0.624670 0.668958 0.546943
O O7 0.727806 0.727641 0.791552
O O8 0.000000 0.500000 0.500000
O O9 0.411469 0.365579 0.710396
O O10 0.033671 0.395991 0.144005
O O11 0.356600 0.137900 0.907113
O O12 0.925266 0.167528 0.092630
O O13 0.575878 0.611086 0.038212
O O14 0.425832 0.840657 0.307961
O O15 0.170476 0.632684 0.232739
O O16 0.000000 0.500000 0.000000
#
# Coordination Sequence:
#
# PCOD9028165 Si02
#       8
#     2   2   2   2   2   2   2   1
#     4  11  26  47  71 106 145 196 239 300 359 439
#     4  11  25  45  67 103 141 190 237 300 361 436
#     4  11  26  44  69 101 143 189 240 292 368 433
#     4  10  22  45  71 108 139 187 244 304 363 430
#     4  10  23  44  66 105 137 184 242 297 366 428
#     4  10  22  41  71  99 138 185 239 302 357 430
#     4  10  26  46  74 106 142 188 249 299 364 426
#     4  10  24  40  72 102 144 184 240 296 356 430
#
# _framework density 25.621988000000002
#
# number of rings (size 3 to 8) (size 9 to 14) (size 15 to 20)
#    0.000    1.600    1.333    0.800   13.067    2.133 
#    2.400    0.000    0.000    0.000    0.000    0.000 
#    0.000    0.000    0.000    0.000    0.000    0.000 
#
# Total GULP energy -83626.106438 kJ/mol
# GULP energy per Si atom -5575.073763 kJ/mol
# Density = 2.556367 g / cm^3
# Si number density = 25.621988 Si / 1000 Ang^3
#
#
#
# Elastic Constant Matrix: (Units=GPa)
#
#
# Indices 1 2 3 4 5 6 
#
# 1 106.5259 44.2518 9.8987 0.1216 5.3969 0.0070
# 2 44.2518 146.7218 -4.6858 -0.8103 19.1075 9.7813
# 3 9.8987 -4.6858 120.6878 -12.9005 18.8429 7.5466
# 4 0.1216 -0.8103 -12.9005 37.0900 -1.5709 14.0843
# 5 5.3969 19.1075 18.8429 -1.5709 32.4043 6.0194
# 6 0.0070 9.7813 7.5466 14.0843 6.0194 33.7348
#
#
#
# Elastic Compliance Matrix: (Units=1/GPa)
#
#
# Indices 1 2 3 4 5 6 
#
# 1 0.010962 -0.003564 -0.001385 -0.001221 0.000701 0.001726
# 2 -0.003564 0.008793 0.001766 0.001642 -0.005031 -0.002732
# 3 -0.001385 0.001766 0.010106 0.004725 -0.005768 -0.003716
# 4 -0.001221 0.001642 0.004725 0.034892 0.001210 -0.016316
# 5 0.000701 -0.005031 -0.005768 0.001210 0.037964 -0.004530
# 6 0.001726 -0.002732 -0.003716 -0.016316 -0.004530 0.038886
#
#
# Mechanical properties :
#
#
# Convention : Reuss Voigt Hill
#
# Bulk Modulus (GPa) = 42.56366 52.54055 47.55210
# Shear Modulus (GPa) = 32.09209 42.27721 37.18465
#
# Velocity S-wave (km/s) = 3.54294 4.06647 3.81370
# Velocity P-wave (km/s) = 5.77795 6.52678 6.16375
#
# Compressibility (1/GPa) = 0.02349422
#
# Stress axis : x y z
#
# Youngs Moduli (GPa) = 91.22231 113.72463 98.95207
#
# Poissons Ratio (x) = 0.40527 0.13709
# Poissons Ratio (y) = 0.32508 -0.17470
# Poissons Ratio (z) = 0.12638 -0.20078
#
# Static dielectric constant tensor:
#      x y z
#    x 2.639600 0.426400 -0.390330 
#    y 0.426400 2.273360 -0.205520 
#    z -0.390330 -0.205520 2.186980 
# 
# From -- ./inp_files/75548.got.cif
#   From: 2010.05.17/outbox.cif.g08.bks.cpg/sg2_38_cif.got.tgz:75548.got - 2010.06.03 11:33:40.
