data_PCOD9028647
_publ_section_title
;
Structure prediction by ZEFSAII (Michael W. Deem and Ramdas Pophale) SiO2 
 PCOD9028647
Probable space group: P -1
;
_chemical_formula_sum "Si O2"
_cell_formula_units_Z 16
_cell_length_a 9.595613
_cell_length_b 12.214658
_cell_length_c 15.488846
_cell_angle_alpha 110.211871
_cell_angle_beta 48.890582
_cell_angle_gamma 141.435292
_cell_volume 795.866570
_symmetry_space_group_name_H-M "P -1"
_symmetry_group_IT_number 2
_symmetry_cell_setting 'triclinic'
loop_
_space_group_symop_operation_xyz
x,y,z
-x,-y,-z
loop_
_atom_site_type_symbol
_atom_site_label
_atom_site_fract_x
_atom_site_fract_y
_atom_site_fract_z
Si Si1 0.136091 0.113870 0.106962
Si Si2 0.272403 0.533324 0.970868
Si Si3 0.319058 0.599394 0.383528
Si Si4 0.669658 0.617798 0.375711
Si Si5 0.225701 0.565464 0.804470
Si Si6 0.668052 0.709677 0.113710
Si Si7 0.736731 0.017353 0.380705
Si Si8 0.916976 0.962822 0.624150
O O1 0.427136 0.242435 0.081732
O O2 0.271337 0.212971 0.985575
O O3 0.934657 0.899720 0.114493
O O4 0.941430 0.118115 0.237068
O O5 0.168539 0.489910 0.903248
O O6 0.334002 0.429200 0.933182
O O7 0.020742 0.458147 0.116062
O O8 0.428264 0.543867 0.382356
O O9 0.380787 0.602696 0.258541
O O10 0.534509 0.806819 0.385260
O O11 0.000000 0.500000 0.500000
O O12 0.500000 0.500000 0.500000
O O13 0.808213 0.564338 0.275487
O O14 0.918132 0.840909 0.350859
O O15 0.559381 0.781172 0.723833
O O16 0.951188 0.083647 0.389986
O O17 0.500000 0.000000 0.500000
O O18 0.000000 0.000000 0.500000
#
# Coordination Sequence:
#
# PCOD9028647 Si02
#       8
#     2   2   2   2   2   2   2   2
#     4  10  22  42  64  90 128 166 211 264 317 375
#     4  11  23  40  66  90 127 171 210 258 308 384
#     4  10  23  39  63  94 123 164 210 259 320 377
#     4  11  23  42  65  93 130 166 208 265 317 380
#     4  11  24  40  64  96 122 169 215 250 324 372
#     4  10  22  42  64  90 128 166 211 264 317 375
#     4  10  23  39  63  94 123 164 210 259 320 377
#     4  11  23  42  65  93 130 166 208 265 317 380
#
# _framework density 20.103873
#
# number of rings (size 3 to 8) (size 9 to 14) (size 15 to 20)
#    0.000    1.500    3.750    0.375    3.500    3.000 
#    0.000    5.000    0.000    0.000    0.000    0.000 
#    0.000    0.000    0.000    0.000    0.000    0.000 
#
# Total GULP energy -89157.390794 kJ/mol
# GULP energy per Si atom -5572.336925 kJ/mol
# Density = 2.005812 g / cm^3
# Si number density = 20.103873 Si / 1000 Ang^3
#
#
#
# Elastic Constant Matrix: (Units=GPa)
#
#
# Indices 1 2 3 4 5 6 
#
# 1 21.9532 10.3054 47.1460 4.2816 -3.8009 1.0119
# 2 10.3054 84.1927 36.3963 12.0788 -16.4224 -1.0122
# 3 47.1460 36.3963 170.6683 11.9927 -19.6549 -0.0500
# 4 4.2816 12.0788 11.9927 35.8780 2.5920 0.1015
# 5 -3.8009 -16.4224 -19.6549 2.5920 39.8876 -0.8126
# 6 1.0119 -1.0122 -0.0500 0.1015 -0.8126 23.2080
#
#
#
# Elastic Compliance Matrix: (Units=1/GPa)
#
#
# Indices 1 2 3 4 5 6 
#
# 1 0.113800 -0.000977 -0.031658 -0.002285 -0.005116 -0.005242
# 2 -0.000977 0.014501 -0.001900 -0.004512 0.005252 0.000875
# 3 -0.031658 -0.001900 0.015541 -0.001067 0.003958 0.001474
# 4 -0.002285 -0.004512 -0.001067 0.030353 -0.004582 -0.000393
# 5 -0.005116 0.005252 0.003958 -0.004582 0.029024 0.001497
# 6 -0.005242 0.000875 0.001474 -0.000393 0.001497 0.043413
#
#
# Mechanical properties :
#
#
# Convention : Reuss Voigt Hill
#
# Bulk Modulus (GPa) = 13.37417 51.61220 32.49319
# Shear Modulus (GPa) = 14.67884 31.99250 23.33567
#
# Velocity S-wave (km/s) = 2.70506 3.99351 3.41068
# Velocity P-wave (km/s) = 4.05258 6.85512 5.63099
#
# Compressibility (1/GPa) = 0.07477097
#
# Stress axis : x y z
#
# Youngs Moduli (GPa) = 8.78733 68.96148 64.34460
#
# Poissons Ratio (x) = 0.06736 2.03705
# Poissons Ratio (y) = 0.00858 0.12228
# Poissons Ratio (z) = 0.27819 0.13106
#
# Static dielectric constant tensor:
#      x y z
#    x 1.754810 0.028570 -0.016650 
#    y 0.028570 1.704650 -0.053100 
#    z -0.016650 -0.053100 1.793740 
# 
# From -- ./inp_files/306160.got.cif
#   From: 2010.05.17/outbox.cif.g08.bks.cpg/sg2_154_cif.got.tgz:306160.got - 2010.06.03 11:33:40.
