data_PCOD9028980
_publ_section_title
;
Structure prediction by ZEFSAII (Michael W. Deem and Ramdas Pophale) SiO2 
 PCOD9028980
Probable space group: P -1
;
_chemical_formula_sum "Si O2"
_cell_formula_units_Z 15
_cell_length_a 23.847243
_cell_length_b 12.494670
_cell_length_c 4.755480
_cell_angle_alpha 113.662442
_cell_angle_beta 118.273802
_cell_angle_gamma 28.078684
_cell_volume 586.899284
_symmetry_space_group_name_H-M "P -1"
_symmetry_group_IT_number 2
_symmetry_cell_setting 'triclinic'
loop_
_space_group_symop_operation_xyz
x,y,z
-x,-y,-z
loop_
_atom_site_type_symbol
_atom_site_label
_atom_site_fract_x
_atom_site_fract_y
_atom_site_fract_z
Si Si1 0.688468 0.964946 0.698190
Si Si2 0.930016 0.863640 0.388261
Si Si3 0.570246 0.264048 0.239248
Si Si4 0.260458 0.517003 0.331433
Si Si5 0.067874 0.298801 0.253864
Si Si6 0.637069 0.781139 0.231225
Si Si7 0.000000 0.000000 0.500000
Si Si8 0.661364 0.356078 0.303508
O O1 0.664219 0.036019 0.037567
O O2 0.813392 0.824759 0.728229
O O3 0.675081 0.849492 0.494722
O O4 0.582210 0.198354 0.511360
O O5 0.912230 0.838681 0.626896
O O6 0.992115 0.891088 0.553768
O O7 0.789334 0.109292 0.206707
O O8 0.993538 0.669174 0.126792
O O9 0.438677 0.464372 0.987223
O O10 0.616519 0.323006 0.364556
O O11 0.349619 0.327807 0.590581
O O12 0.307914 0.569332 0.400523
O O13 0.270764 0.409944 0.991289
O O14 0.124674 0.752266 0.377104
O O15 0.000000 0.500000 0.500000
O O16 0.500000 0.000000 0.000000
#
# Coordination Sequence:
#
# PCOD9028980 Si02
#       8
#     2   2   2   2   2   2   1   2
#     4  12  24  43  65  99 130 173 217 269 325 391
#     4  11  25  46  67  98 130 168 222 266 329 387
#     4  11  23  39  69  96 132 167 211 267 330 392
#     4  11  26  44  70  98 135 179 225 279 334 400
#     4  12  26  43  68  93 131 171 218 274 324 385
#     4  12  26  45  70 100 138 179 226 278 335 402
#     4  10  28  46  74  98 138 180 226 280 332 406
#     4  10  22  42  65  98 130 169 211 268 328 391
#
# _framework density 25.558047999999999
#
# number of rings (size 3 to 8) (size 9 to 14) (size 15 to 20)
#    0.000    0.800    2.667    3.200    3.733    9.600 
#    0.000    0.000    0.000    0.000    0.000    0.000 
#    0.000    0.000    0.000    0.000    0.000    0.000 
#
# Total GULP energy -83882.935300 kJ/mol
# GULP energy per Si atom -5592.195687 kJ/mol
# Density = 2.549988 g / cm^3
# Si number density = 25.558048 Si / 1000 Ang^3
#
#
#
# Elastic Constant Matrix: (Units=GPa)
#
#
# Indices 1 2 3 4 5 6 
#
# 1 125.7218 37.1476 25.6206 13.7528 18.3884 19.0572
# 2 37.1476 98.4865 34.3866 24.6104 3.5539 4.9465
# 3 25.6206 34.3866 89.9022 26.6399 -9.4956 20.1286
# 4 13.7528 24.6104 26.6399 38.7793 11.1284 0.9834
# 5 18.3884 3.5539 -9.4956 11.1284 36.9876 10.6217
# 6 19.0572 4.9465 20.1286 0.9834 10.6217 42.3189
#
#
#
# Elastic Compliance Matrix: (Units=1/GPa)
#
#
# Indices 1 2 3 4 5 6 
#
# 1 0.010248 -0.003155 -0.002316 0.001531 -0.005317 -0.001846
# 2 -0.003155 0.013700 -0.002594 -0.006154 0.001179 0.000900
# 3 -0.002316 -0.002594 0.022515 -0.017296 0.016120 -0.013007
# 4 0.001531 -0.006154 -0.017296 0.047156 -0.022474 0.012801
# 5 -0.005317 0.001179 0.016120 -0.022474 0.045122 -0.016214
# 6 -0.001846 0.000900 -0.013007 0.012801 -0.016214 0.034315
#
#
# Mechanical properties :
#
#
# Convention : Reuss Voigt Hill
#
# Bulk Modulus (GPa) = 32.96750 56.49111 44.72931
# Shear Modulus (GPa) = 25.08818 38.08086 31.58452
#
# Velocity S-wave (km/s) = 3.13647 3.86421 3.51920
# Velocity P-wave (km/s) = 5.10330 6.48541 5.83542
#
# Compressibility (1/GPa) = 0.03033290
#
# Stress axis : x y z
#
# Youngs Moduli (GPa) = 97.57830 72.99520 44.41420
#
# Poissons Ratio (x) = 0.23030 0.10286
# Poissons Ratio (y) = 0.30785 0.11522
# Poissons Ratio (z) = 0.22599 0.18936
#
# Static dielectric constant tensor:
#      x y z
#    x 1.926920 -0.032930 0.022470 
#    y -0.032930 2.075930 -0.006320 
#    z 0.022470 -0.006320 1.994630 
# 
# From -- ./inp_files/123797.got.cif
#   From: 2010.05.17/outbox.cif.g08.bks.cpg/sg2_62_cif.got.tgz:123797.got - 2010.06.03 11:33:40.
