data_PCOD9028048
_publ_section_title
;
Structure prediction by ZEFSAII (Michael W. Deem and Ramdas Pophale) SiO2 
 PCOD9028048
Probable space group: P -1
;
_chemical_formula_sum "Si O2"
_cell_formula_units_Z 14
_cell_length_a 15.182313
_cell_length_b 8.544461
_cell_length_c 8.958153
_cell_angle_alpha 72.554396
_cell_angle_beta 37.400056
_cell_angle_gamma 73.455031
_cell_volume 671.180417
_symmetry_space_group_name_H-M "P -1"
_symmetry_group_IT_number 2
_symmetry_cell_setting 'triclinic'
loop_
_space_group_symop_operation_xyz
x,y,z
-x,-y,-z
loop_
_atom_site_type_symbol
_atom_site_label
_atom_site_fract_x
_atom_site_fract_y
_atom_site_fract_z
Si Si1 0.666677 0.433213 0.294231
Si Si2 0.335352 0.994092 0.043269
Si Si3 0.090233 0.123199 0.750977
Si Si4 0.888097 0.653621 0.074392
Si Si5 0.046366 0.182601 0.353440
Si Si6 0.355095 0.878263 0.375546
Si Si7 0.830026 0.258206 0.850337
O O1 0.500000 0.500000 0.500000
O O2 0.754026 0.579978 0.196469
O O3 0.683461 0.279950 0.432172
O O4 0.733036 0.377011 0.058662
O O5 0.357438 0.873665 0.192764
O O6 0.271441 0.884271 0.028478
O O7 0.215653 0.151069 0.183606
O O8 0.490531 0.065756 0.790580
O O9 0.143876 0.256615 0.753737
O O10 0.971476 0.197519 0.773986
O O11 0.229593 0.021666 0.528936
O O12 0.000000 0.000000 0.000000
O O13 0.954234 0.774711 0.831778
O O14 0.000000 0.500000 0.000000
O O15 0.922594 0.305576 0.564726
O O16 0.000000 0.000000 0.500000
#
# Coordination Sequence:
#
# PCOD9028048 Si02
#       7
#     2   2   2   2   2   2   2
#     4  12  28  46  63 101 146 183 217 287 352 408
#     4  10  23  41  70 105 128 180 229 289 328 397
#     4  12  22  42  71 104 127 183 233 279 330 409
#     4  12  26  44  68 102 143 178 223 284 352 398
#     4  10  22  41  70  99 136 172 232 283 326 404
#     4  11  24  44  72  98 140 177 239 275 340 409
#     4  11  23  40  69 100 131 178 229 281 338 399
#
# _framework density 20.858772999999999
#
# number of rings (size 3 to 8) (size 9 to 14) (size 15 to 20)
#    0.000    0.857    4.286    2.571    8.000    1.143 
#    0.000    0.714    0.000    0.000    0.000    0.000 
#    0.000    0.000    0.000    0.000    0.000    0.000 
#
# Total GULP energy -78100.350840 kJ/mol
# GULP energy per Si atom -5578.596489 kJ/mol
# Density = 2.081130 g / cm^3
# Si number density = 20.858773 Si / 1000 Ang^3
#
#
#
# Elastic Constant Matrix: (Units=GPa)
#
#
# Indices 1 2 3 4 5 6 
#
# 1 110.9682 41.2212 47.1350 8.9444 -7.8981 15.5061
# 2 41.2212 70.0385 24.8511 12.4115 -0.1196 7.2302
# 3 47.1350 24.8511 86.6710 18.0703 -19.5843 6.6562
# 4 8.9444 12.4115 18.0703 35.6482 -13.2241 -0.1022
# 5 -7.8981 -0.1196 -19.5843 -13.2241 40.4842 -0.1059
# 6 15.5061 7.2302 6.6562 -0.1022 -0.1059 44.9800
#
#
#
# Elastic Compliance Matrix: (Units=1/GPa)
#
#
# Indices 1 2 3 4 5 6 
#
# 1 0.014162 -0.006228 -0.005961 0.001790 0.000438 -0.002994
# 2 -0.006228 0.019718 -0.001893 -0.005820 -0.003976 -0.000765
# 3 -0.005961 -0.001893 0.017624 -0.004609 0.005851 -0.000246
# 4 0.001790 -0.005820 -0.004609 0.035577 0.009726 0.001104
# 5 0.000438 -0.003976 0.005851 0.009726 0.030781 -0.000283
# 6 -0.002994 -0.000765 -0.000246 0.001104 -0.000283 0.023425
#
#
# Mechanical properties :
#
#
# Convention : Reuss Voigt Hill
#
# Bulk Modulus (GPa) = 42.84111 54.89915 48.87013
# Shear Modulus (GPa) = 28.21169 34.52053 31.36611
#
# Velocity S-wave (km/s) = 3.68164 4.07254 3.88201
# Velocity P-wave (km/s) = 6.21738 6.96353 6.60101
#
# Compressibility (1/GPa) = 0.02334206
#
# Stress axis : x y z
#
# Youngs Moduli (GPa) = 70.61170 50.71412 56.73991
#
# Poissons Ratio (x) = 0.31582 0.33820
# Poissons Ratio (y) = 0.43974 0.10742
# Poissons Ratio (z) = 0.42089 0.09601
#
# Static dielectric constant tensor:
#      x y z
#    x 1.585940 0.004480 0.040950 
#    y 0.004480 1.762860 0.013250 
#    z 0.040950 0.013250 1.814690 
# 
# From -- ./inp_files/297743.got.cif
#   From: 2010.05.17/outbox.cif.g08.bks.cpg/sg2_149_cif.got.tgz:297743.got - 2010.06.03 11:33:40.
