data_PCOD9028608
_publ_section_title
;
Structure prediction by ZEFSAII (Michael W. Deem and Ramdas Pophale) SiO2 
 PCOD9028608
Probable space group: P -1
;
_chemical_formula_sum "Si O2"
_cell_formula_units_Z 14
_cell_length_a 13.714279
_cell_length_b 12.829514
_cell_length_c 5.539467
_cell_angle_alpha 103.437682
_cell_angle_beta 52.459699
_cell_angle_gamma 131.194639
_cell_volume 557.742795
_symmetry_space_group_name_H-M "P -1"
_symmetry_group_IT_number 2
_symmetry_cell_setting 'triclinic'
loop_
_space_group_symop_operation_xyz
x,y,z
-x,-y,-z
loop_
_atom_site_type_symbol
_atom_site_label
_atom_site_fract_x
_atom_site_fract_y
_atom_site_fract_z
Si Si1 0.415136 0.023905 0.845133
Si Si2 0.945724 0.855744 0.618540
Si Si3 0.406096 0.255876 0.897574
Si Si4 0.548341 0.643938 0.607903
Si Si5 0.901150 0.756923 0.141574
Si Si6 0.748527 0.248631 0.756473
Si Si7 0.930889 0.538890 0.918769
O O1 0.341895 0.097026 0.934258
O O2 0.570914 0.150281 0.843793
O O3 0.500000 0.000000 0.500000
O O4 0.282667 0.870071 0.087514
O O5 0.980609 0.798941 0.310310
O O6 0.746376 0.750345 0.896771
O O7 0.001178 0.855347 0.805321
O O8 0.000000 0.000000 0.500000
O O9 0.490558 0.303135 0.532500
O O10 0.506049 0.353236 0.038314
O O11 0.500000 0.500000 0.500000
O O12 0.748685 0.751320 0.392560
O O13 0.840234 0.599232 0.121787
O O14 0.810788 0.392515 0.868805
O O15 0.899520 0.320355 0.384825
O O16 0.000000 0.500000 0.000000
#
# Coordination Sequence:
#
# PCOD9028608 Si02
#       7
#     2   2   2   2   2   2   2
#     4  11  25  45  69 102 138 189 235 295 357 425
#     4  10  22  42  64 100 130 176 220 281 345 413
#     4  10  24  40  67  96 134 171 229 279 349 414
#     4  10  22  42  64 100 130 176 220 281 345 413
#     4  10  24  40  67  96 134 171 229 279 349 414
#     4  10  26  44  66 100 138 180 244 286 360 416
#     4  11  25  45  69 102 138 189 235 295 357 425
#
# _framework density 25.101175000000001
#
# number of rings (size 3 to 8) (size 9 to 14) (size 15 to 20)
#    0.000    1.714    0.000    1.714   12.000    2.286 
#    0.000    0.000    0.000    0.000    0.000    0.000 
#    0.000    0.000    0.000    0.000    0.000    0.000 
#
# Total GULP energy -78091.362080 kJ/mol
# GULP energy per Si atom -5577.954434 kJ/mol
# Density = 2.504404 g / cm^3
# Si number density = 25.101175 Si / 1000 Ang^3
#
#
#
# Elastic Constant Matrix: (Units=GPa)
#
#
# Indices 1 2 3 4 5 6 
#
# 1 77.1389 7.6033 56.7767 -4.4170 9.0518 -8.7094
# 2 7.6033 82.2682 6.5838 -24.3744 -11.5401 -23.3976
# 3 56.7767 6.5838 92.9004 -18.3599 20.8796 -3.1517
# 4 -4.4170 -24.3744 -18.3599 43.2937 0.5131 -4.4782
# 5 9.0518 -11.5401 20.8796 0.5131 20.5533 1.8093
# 6 -8.7094 -23.3976 -3.1517 -4.4782 1.8093 35.8067
#
#
#
# Elastic Compliance Matrix: (Units=1/GPa)
#
#
# Indices 1 2 3 4 5 6 
#
# 1 0.025510 -0.000580 -0.017882 -0.005042 0.006441 0.003296
# 2 -0.000580 0.022421 -0.000630 0.013769 0.011769 0.015582
# 3 -0.017882 -0.000630 0.028693 0.010264 -0.021896 0.000154
# 4 -0.005042 0.013769 0.010264 0.036096 -0.002549 0.013318
# 5 0.006441 0.011769 -0.021896 -0.002549 0.074447 0.003249
# 6 0.003296 0.015582 0.000154 0.013318 0.003249 0.040426
#
#
# Mechanical properties :
#
#
# Convention : Reuss Voigt Hill
#
# Bulk Modulus (GPa) = 26.01398 43.80392 34.90895
# Shear Modulus (GPa) = 17.94751 32.02033 24.98392
#
# Velocity S-wave (km/s) = 2.67686 3.57550 3.15831
# Velocity P-wave (km/s) = 4.46545 5.87660 5.21894
#
# Compressibility (1/GPa) = 0.03844087
#
# Stress axis : x y z
#
# Youngs Moduli (GPa) = 39.20024 44.60028 34.85220
#
# Poissons Ratio (x) = 0.02585 0.62323
# Poissons Ratio (y) = 0.02272 0.02196
# Poissons Ratio (z) = 0.70098 0.02810
#
# Static dielectric constant tensor:
#      x y z
#    x 2.063300 0.025210 0.018990 
#    y 0.025210 2.008140 0.030350 
#    z 0.018990 0.030350 2.080200 
# 
# From -- ./inp_files/95229.got.cif
#   From: 2010.05.17/outbox.cif.g08.bks.cpg/sg2_48_cif.got.tgz:95229.got - 2010.06.03 11:33:40.
