data_PCOD9028803
_publ_section_title
;
Structure prediction by ZEFSAII (Michael W. Deem and Ramdas Pophale) SiO2 
 PCOD9028803
Probable space group: P -1
;
_chemical_formula_sum "Si O2"
_cell_formula_units_Z 14
_cell_length_a 17.500563
_cell_length_b 12.641939
_cell_length_c 8.556242
_cell_angle_alpha 150.257486
_cell_angle_beta 137.323323
_cell_angle_gamma 38.510236
_cell_volume 575.135138
_symmetry_space_group_name_H-M "P -1"
_symmetry_group_IT_number 2
_symmetry_cell_setting 'triclinic'
loop_
_space_group_symop_operation_xyz
x,y,z
-x,-y,-z
loop_
_atom_site_type_symbol
_atom_site_label
_atom_site_fract_x
_atom_site_fract_y
_atom_site_fract_z
Si Si1 0.320469 0.329538 0.573881
Si Si2 0.488306 0.756685 0.786868
Si Si3 0.593053 0.038011 0.523158
Si Si4 0.971028 0.969201 0.179460
Si Si5 0.300820 0.232806 0.079885
Si Si6 0.934948 0.391895 0.884674
Si Si7 0.195656 0.857287 0.157976
O O1 0.467757 0.259376 0.674312
O O2 0.261409 0.342917 0.332385
O O3 0.327548 0.105256 0.393050
O O4 0.246398 0.574603 0.862311
O O5 0.500000 0.500000 0.500000
O O6 0.571990 0.750219 0.755266
O O7 0.546484 0.856388 0.139064
O O8 0.347053 0.953981 0.811638
O O9 0.681771 0.098406 0.621708
O O10 0.995055 0.734084 0.013384
O O11 0.104026 0.946481 0.282608
O O12 0.917185 0.185719 0.498033
O O13 0.886074 0.025479 0.970058
O O14 0.196763 0.386371 0.998197
O O15 0.000000 0.500000 0.000000
#
# Coordination Sequence:
#
# PCOD9028803 Si02
#       7
#     2   2   2   2   2   2   2
#     4  10  22  42  65 102 136 173 223 271 348 403
#     4  10  24  44  68 100 134 172 225 283 343 405
#     4  10  24  41  69 102 133 181 220 277 345 406
#     4  10  26  44  67 105 130 187 228 280 337 391
#     4  10  23  43  66 100 133 178 221 276 346 402
#     4  11  25  46  70  97 137 179 233 279 337 401
#     4  11  23  44  70  98 143 174 230 280 333 407
#
# _framework density 24.342105
#
# number of rings (size 3 to 8) (size 9 to 14) (size 15 to 20)
#    0.000    1.714    1.429    0.429    6.000    9.143 
#    0.000    2.857    0.000    0.000    0.000    0.000 
#    0.000    0.000    0.000    0.000    0.000    0.000 
#
# Total GULP energy -78305.035615 kJ/mol
# GULP energy per Si atom -5593.216830 kJ/mol
# Density = 2.428670 g / cm^3
# Si number density = 24.342105 Si / 1000 Ang^3
#
#
#
# Elastic Constant Matrix: (Units=GPa)
#
#
# Indices 1 2 3 4 5 6 
#
# 1 81.8319 11.1904 3.4300 7.7393 3.0557 -6.4523
# 2 11.1904 136.9699 14.3439 30.3227 6.0215 0.5369
# 3 3.4300 14.3439 47.4164 26.8323 -0.3408 -8.2247
# 4 7.7393 30.3227 26.8323 45.3532 1.5604 -5.8287
# 5 3.0557 6.0215 -0.3408 1.5604 35.9893 2.0033
# 6 -6.4523 0.5369 -8.2247 -5.8287 2.0033 46.5932
#
#
#
# Elastic Compliance Matrix: (Units=1/GPa)
#
#
# Indices 1 2 3 4 5 6 
#
# 1 0.012625 -0.000655 0.000600 -0.001823 -0.000971 0.001676
# 2 -0.000655 0.008704 0.000807 -0.006248 -0.001078 -0.000784
# 3 0.000600 0.000807 0.032353 -0.019382 0.000776 0.003327
# 4 -0.001823 -0.006248 -0.019382 0.038184 -0.000706 0.001205
# 5 -0.000971 -0.001078 0.000776 -0.000706 0.028158 -0.001284
# 6 0.001676 -0.000784 0.003327 0.001205 -0.001284 0.022497
#
#
# Mechanical properties :
#
#
# Convention : Reuss Voigt Hill
#
# Bulk Modulus (GPa) = 18.12070 36.01632 27.06851
# Shear Modulus (GPa) = 31.36530 41.40406 36.38468
#
# Velocity S-wave (km/s) = 3.59349 4.12870 3.87036
# Velocity P-wave (km/s) = 4.96769 6.12831 5.57827
#
# Compressibility (1/GPa) = 0.05518550
#
# Stress axis : x y z
#
# Youngs Moduli (GPa) = 79.20591 114.89458 30.90926
#
# Poissons Ratio (x) = 0.07521 -0.01855
# Poissons Ratio (y) = 0.05185 -0.02493
# Poissons Ratio (z) = -0.04752 -0.09266
#
# Static dielectric constant tensor:
#      x y z
#    x 1.948520 0.012540 -0.014310 
#    y 0.012540 2.034190 -0.067250 
#    z -0.014310 -0.067250 1.946980 
# 
# From -- ./inp_files/334011.got.cif
#   From: 2010.05.17/outbox.cif.g08.bks.cpg/sg2_168_cif.got.tgz:334011.got - 2010.06.03 11:33:40.
