data_PCOD9028367
_publ_section_title
;
Structure prediction by ZEFSAII (Michael W. Deem and Ramdas Pophale) SiO2 
 PCOD9028367
Probable space group: P -1
;
_chemical_formula_sum "Si O2"
_cell_formula_units_Z 13
_cell_length_a 9.388537
_cell_length_b 16.375082
_cell_length_c 19.860597
_cell_angle_alpha 159.781104
_cell_angle_beta 136.360293
_cell_angle_gamma 55.173276
_cell_volume 649.312205
_symmetry_space_group_name_H-M "P -1"
_symmetry_group_IT_number 2
_symmetry_cell_setting 'triclinic'
loop_
_space_group_symop_operation_xyz
x,y,z
-x,-y,-z
loop_
_atom_site_type_symbol
_atom_site_label
_atom_site_fract_x
_atom_site_fract_y
_atom_site_fract_z
Si Si1 0.596836 0.216937 0.759402
Si Si2 0.271453 0.964770 0.855174
Si Si3 0.000000 0.500000 0.500000
Si Si4 0.727031 0.823902 0.257229
Si Si5 0.000960 0.725167 0.964246
Si Si6 0.327056 0.856230 0.636682
Si Si7 0.198195 0.128754 0.223696
O O1 0.413444 0.152380 0.707721
O O2 0.500000 0.000000 0.500000
O O3 0.660505 0.514239 0.986970
O O4 0.826961 0.223230 0.875058
O O5 0.068127 0.700643 0.613001
O O6 0.306059 0.946133 0.773775
O O7 0.500000 0.000000 0.000000
O O8 0.202295 0.197679 0.027191
O O9 0.171700 0.377025 0.435528
O O10 0.659507 0.934929 0.253592
O O11 0.000000 0.000000 0.500000
O O12 0.891732 0.420963 0.669671
O O13 0.139662 0.912784 0.095292
O O14 0.555967 0.812982 0.677765
O O15 0.000000 0.000000 0.000000
#
# Coordination Sequence:
#
# PCOD9028367 Si02
#       7
#     2   2   1   2   2   2   2
#     4  11  26  47  71 102 140 180 232 295 350 416
#     4  11  25  42  64 101 135 178 227 277 334 408
#     4  10  22  42  60  88 134 170 216 264 328 392
#     4  11  25  47  71 103 137 179 235 289 355 420
#     4  11  24  43  67  99 134 181 232 278 353 414
#     4  12  24  43  72 100 138 181 229 285 344 411
#     4  11  23  42  65  96 135 179 222 281 336 402
#
# _framework density 20.021184999999999
#
# number of rings (size 3 to 8) (size 9 to 14) (size 15 to 20)
#    0.000    0.923    3.077    3.692    2.154    3.692 
#   11.077    0.000    0.000    0.000    0.000    0.000 
#    0.000    0.000    0.000    0.000    0.000    0.000 
#
# Total GULP energy -72437.403885 kJ/mol
# GULP energy per Si atom -5572.107991 kJ/mol
# Density = 1.997562 g / cm^3
# Si number density = 20.021185 Si / 1000 Ang^3
#
#
#
# Elastic Constant Matrix: (Units=GPa)
#
#
# Indices 1 2 3 4 5 6 
#
# 1 89.4425 11.8199 24.6640 2.2873 -14.5486 5.7646
# 2 11.8199 106.4813 43.4784 1.1754 -13.5662 7.5129
# 3 24.6640 43.4784 90.8665 -0.0248 -11.0030 17.3541
# 4 2.2873 1.1754 -0.0248 43.7274 -0.9520 7.1862
# 5 -14.5486 -13.5662 -11.0030 -0.9520 23.5134 -5.9317
# 6 5.7646 7.5129 17.3541 7.1862 -5.9317 38.7992
#
#
#
# Elastic Compliance Matrix: (Units=1/GPa)
#
#
# Indices 1 2 3 4 5 6 
#
# 1 0.013095 0.000704 -0.003126 -0.000637 0.007153 0.000528
# 2 0.000704 0.012175 -0.005572 -0.000401 0.005058 0.000878
# 3 -0.003126 -0.005572 0.015687 0.001257 0.000835 -0.005578
# 4 -0.000637 -0.000401 0.001257 0.023700 -0.000295 -0.004825
# 5 0.007153 0.005058 0.000835 -0.000295 0.051648 0.005535
# 6 0.000528 0.000878 -0.005578 -0.004825 0.005535 0.029760
#
#
# Mechanical properties :
#
#
# Convention : Reuss Voigt Hill
#
# Bulk Modulus (GPa) = 40.05016 49.63500 44.84258
# Shear Modulus (GPa) = 29.34670 34.99652 32.17161
#
# Velocity S-wave (km/s) = 3.83271 4.18541 4.01294
# Velocity P-wave (km/s) = 6.29552 6.94276 6.62705
#
# Compressibility (1/GPa) = 0.02496869
#
# Stress axis : x y z
#
# Youngs Moduli (GPa) = 76.36420 82.13375 63.74860
#
# Poissons Ratio (x) = -0.05782 0.19928
# Poissons Ratio (y) = -0.05376 0.35521
# Poissons Ratio (z) = 0.23872 0.45765
#
# Static dielectric constant tensor:
#      x y z
#    x 1.686050 -0.017190 0.022170 
#    y -0.017190 1.660130 -0.002690 
#    z 0.022170 -0.002690 1.718340 
# 
# From -- ./inp_files/34934.got.cif
#   From: 2010.05.17/outbox.cif.g08.bks.cpg/sg2_18_cif.got.tgz:34934.got - 2010.06.03 11:33:40.
