data_PCOD9028281
_publ_section_title
;
Structure prediction by ZEFSAII (Michael W. Deem and Ramdas Pophale) SiO2 
 PCOD9028281
Probable space group: P -1
;
_chemical_formula_sum "Si O2"
_cell_formula_units_Z 14
_cell_length_a 15.107238
_cell_length_b 12.837006
_cell_length_c 8.996954
_cell_angle_alpha 48.036419
_cell_angle_beta 138.163922
_cell_angle_gamma 154.024437
_cell_volume 509.718036
_symmetry_space_group_name_H-M "P -1"
_symmetry_group_IT_number 2
_symmetry_cell_setting 'triclinic'
loop_
_space_group_symop_operation_xyz
x,y,z
-x,-y,-z
loop_
_atom_site_type_symbol
_atom_site_label
_atom_site_fract_x
_atom_site_fract_y
_atom_site_fract_z
Si Si1 0.861125 0.021336 0.470360
Si Si2 0.657586 0.815657 0.730164
Si Si3 0.649273 0.284646 0.339355
Si Si4 0.047581 0.728185 0.208522
Si Si5 0.339324 0.946886 0.010887
Si Si6 0.262272 0.596323 0.140610
Si Si7 0.670913 0.633936 0.381494
O O1 0.754521 0.954427 0.561070
O O2 0.861254 0.159426 0.237360
O O3 0.710556 0.789616 0.400723
O O4 0.113387 0.178159 0.635446
O O5 0.443768 0.710949 0.639120
O O6 0.561476 0.579469 0.796555
O O7 0.859631 0.035143 0.880586
O O8 0.761383 0.226742 0.559415
O O9 0.848336 0.534442 0.263668
O O10 0.433344 0.085503 0.150429
O O11 0.945249 0.610114 0.031869
O O12 0.551687 0.175587 0.955136
O O13 0.271192 0.727537 0.146570
O O14 0.319172 0.499032 0.381950
#
# Coordination Sequence:
#
# PCOD9028281 Si02
#       7
#     2   2   2   2   2   2   2
#     4  11  26  45  73  96 137 173 242 271 332 402
#     4  12  23  42  68  99 130 187 215 286 330 409
#     4  10  23  41  65  99 143 173 219 273 352 385
#     4  10  23  40  66 101 142 173 219 282 329 415
#     4  10  22  43  72 105 131 176 226 284 324 415
#     4  10  22  41  74 102 133 175 232 272 341 390
#     4  11  25  46  72  97 129 189 226 278 332 406
#
# _framework density 27.466166999999999
#
# number of rings (size 3 to 8) (size 9 to 14) (size 15 to 20)
#    0.000    1.429    1.429    2.571   10.000    0.571 
#    0.000    1.429    0.000    0.000    0.000    0.000 
#    0.000    0.000    0.000    0.000    0.000    0.000 
#
# Total GULP energy -78346.148819 kJ/mol
# GULP energy per Si atom -5596.153487 kJ/mol
# Density = 2.740365 g / cm^3
# Si number density = 27.466167 Si / 1000 Ang^3
#
#
#
# Elastic Constant Matrix: (Units=GPa)
#
#
# Indices 1 2 3 4 5 6 
#
# 1 149.1529 27.1546 30.8703 -3.8029 -36.3754 21.8593
# 2 27.1546 142.0028 11.4767 25.7695 -3.2723 -13.1685
# 3 30.8703 11.4767 66.4037 -1.1187 -13.8178 4.1705
# 4 -3.8029 25.7695 -1.1187 49.0709 -3.5942 1.0358
# 5 -36.3754 -3.2723 -13.8178 -3.5942 34.4813 -0.0409
# 6 21.8593 -13.1685 4.1705 1.0358 -0.0409 54.4824
#
#
#
# Elastic Compliance Matrix: (Units=1/GPa)
#
#
# Indices 1 2 3 4 5 6 
#
# 1 0.011122 -0.002750 -0.002042 0.003170 0.010978 -0.005023
# 2 -0.002750 0.008853 -0.001195 -0.005187 -0.003076 0.003431
# 3 -0.002042 -0.001195 0.017283 0.001231 0.004786 -0.000812
# 4 0.003170 -0.005187 0.001231 0.023868 0.005829 -0.003069
# 5 0.010978 -0.003076 0.004786 0.005829 0.042809 -0.005593
# 6 -0.005023 0.003431 -0.000812 -0.003069 -0.005593 0.021315
#
#
# Mechanical properties :
#
#
# Convention : Reuss Voigt Hill
#
# Bulk Modulus (GPa) = 39.54918 55.17363 47.36140
# Shear Modulus (GPa) = 34.32844 46.81079 40.56961
#
# Velocity S-wave (km/s) = 3.53915 4.13280 3.84744
# Velocity P-wave (km/s) = 5.57954 6.55018 6.08425
#
# Compressibility (1/GPa) = 0.02528498
#
# Stress axis : x y z
#
# Youngs Moduli (GPa) = 89.91148 112.95466 57.86114
#
# Poissons Ratio (x) = 0.31060 0.11815
# Poissons Ratio (y) = 0.24724 0.06913
# Poissons Ratio (z) = 0.18360 0.13495
#
# Static dielectric constant tensor:
#      x y z
#    x 2.198040 0.074750 0.058830 
#    y 0.074750 2.165500 0.051090 
#    z 0.058830 0.051090 2.104040 
# 
# From -- ./inp_files/306821.got.cif
#   From: 2010.05.17/outbox.cif.g08.bks.cpg/sg2_154_cif.got.tgz:306821.got - 2010.06.03 11:33:40.
