data_PCOD9028271
_publ_section_title
;
Structure prediction by ZEFSAII (Michael W. Deem and Ramdas Pophale) SiO2 
 PCOD9028271
Probable space group: P -1
;
_chemical_formula_sum "Si O2"
_cell_formula_units_Z 16
_cell_length_a 9.049958
_cell_length_b 8.834252
_cell_length_c 17.213074
_cell_angle_alpha 36.674106
_cell_angle_beta 86.138306
_cell_angle_gamma 92.423176
_cell_volume 809.295728
_symmetry_space_group_name_H-M "P -1"
_symmetry_group_IT_number 2
_symmetry_cell_setting 'triclinic'
loop_
_space_group_symop_operation_xyz
x,y,z
-x,-y,-z
loop_
_atom_site_type_symbol
_atom_site_label
_atom_site_fract_x
_atom_site_fract_y
_atom_site_fract_z
Si Si1 0.233193 0.013738 0.777485
Si Si2 0.931016 0.200903 0.471400
Si Si3 0.792639 0.395430 0.677757
Si Si4 0.590640 0.712372 0.465848
Si Si5 0.105783 0.028906 0.257493
Si Si6 0.458205 0.698213 0.141273
Si Si7 0.663721 0.462391 0.342167
Si Si8 0.646074 0.466504 0.956069
O O1 0.344900 0.043282 0.687108
O O2 0.268988 0.288605 0.708803
O O3 0.061519 0.963116 0.773940
O O4 0.285293 0.788879 0.918442
O O5 0.784491 0.277152 0.405906
O O6 0.047556 0.464070 0.358421
O O7 0.904463 0.092988 0.604836
O O8 0.000000 0.000000 0.500000
O O9 0.731186 0.597181 0.540587
O O10 0.673513 0.337453 0.774875
O O11 0.814964 0.152581 0.726614
O O12 0.500000 0.500000 0.500000
O O13 0.475540 0.716727 0.537347
O O14 0.216405 0.298707 0.140295
O O15 0.597288 0.582903 0.220093
O O16 0.406204 0.560379 0.120015
O O17 0.500000 0.000000 0.000000
O O18 0.500000 0.500000 0.000000
#
# Coordination Sequence:
#
# PCOD9028271 Si02
#       8
#     2   2   2   2   2   2   2   2
#     4  11  21  43  67 101 136 176 234 273 346 407
#     4  12  25  43  67 107 140 173 225 289 348 402
#     4  11  22  43  70  99 130 180 222 279 342 405
#     4   9  19  35  67 100 126 166 223 279 323 406
#     4  12  24  43  70  99 142 177 229 280 348 409
#     4  11  23  47  69  98 139 180 232 278 337 412
#     4  10  22  41  73  99 134 178 232 278 346 398
#     4  12  28  43  67 102 138 184 228 284 339 410
#
# _framework density 19.770275000000002
#
# number of rings (size 3 to 8) (size 9 to 14) (size 15 to 20)
#    0.000    1.000    3.750    3.750    5.250    1.000 
#    0.000    6.875    0.000    0.000    0.000    0.000 
#    0.000    0.000    0.000    0.000    0.000    0.000 
#
# Total GULP energy -89372.996096 kJ/mol
# GULP energy per Si atom -5585.812256 kJ/mol
# Density = 1.972528 g / cm^3
# Si number density = 19.770275 Si / 1000 Ang^3
#
#
#
# Elastic Constant Matrix: (Units=GPa)
#
#
# Indices 1 2 3 4 5 6 
#
# 1 128.2819 40.2055 56.9148 3.9816 20.2632 3.7464
# 2 40.2055 107.4827 44.0548 4.4873 9.4159 -4.6053
# 3 56.9148 44.0548 109.2053 10.7251 7.3996 -4.5114
# 4 3.9816 4.4873 10.7251 29.7235 7.3637 7.1395
# 5 20.2632 9.4159 7.3996 7.3637 40.4121 -7.4373
# 6 3.7464 -4.6053 -4.5114 7.1395 -7.4373 28.6013
#
#
#
# Elastic Compliance Matrix: (Units=1/GPa)
#
#
# Indices 1 2 3 4 5 6 
#
# 1 0.011878 -0.002016 -0.005520 0.003452 -0.006059 -0.005189
# 2 -0.002016 0.011633 -0.003491 -0.000412 -0.000708 0.001505
# 3 -0.005520 -0.003491 0.013981 -0.005569 0.002864 0.004501
# 4 0.003452 -0.000412 -0.005569 0.041437 -0.010846 -0.014561
# 5 -0.006059 -0.000708 0.002864 -0.010846 0.031620 0.012061
# 6 -0.005189 0.001505 0.004501 -0.014561 0.012061 0.043366
#
#
# Mechanical properties :
#
#
# Convention : Reuss Voigt Hill
#
# Bulk Modulus (GPa) = 64.78012 69.70224 67.24118
# Shear Modulus (GPa) = 27.60676 33.33368 30.47022
#
# Velocity S-wave (km/s) = 3.74087 4.11061 3.93009
# Velocity P-wave (km/s) = 7.17609 7.60671 7.39454
#
# Compressibility (1/GPa) = 0.01543683
#
# Stress axis : x y z
#
# Youngs Moduli (GPa) = 84.19149 85.96393 71.52521
#
# Poissons Ratio (x) = 0.17332 0.39480
# Poissons Ratio (y) = 0.16975 0.24972
# Poissons Ratio (z) = 0.46472 0.30013
#
# Static dielectric constant tensor:
#      x y z
#    x 1.673690 0.019220 -0.001780 
#    y 0.019220 1.788290 -0.009050 
#    z -0.001780 -0.009050 1.683360 
# 
# From -- ./inp_files/190777.got.cif
#   From: 2010.05.17/outbox.cif.g08.bks.cpg/sg2_96_cif.got.tgz:190777.got - 2010.06.03 11:33:40.
