data_PCOD9028753
_publ_section_title
;
Structure prediction by ZEFSAII (Michael W. Deem and Ramdas Pophale) SiO2 
 PCOD9028753
Probable space group: P -1
;
_chemical_formula_sum "Si O2"
_cell_formula_units_Z 16
_cell_length_a 16.993217
_cell_length_b 12.071111
_cell_length_c 5.204572
_cell_angle_alpha 74.604031
_cell_angle_beta 52.743392
_cell_angle_gamma 53.113908
_cell_volume 671.563225
_symmetry_space_group_name_H-M "P -1"
_symmetry_group_IT_number 2
_symmetry_cell_setting 'triclinic'
loop_
_space_group_symop_operation_xyz
x,y,z
-x,-y,-z
loop_
_atom_site_type_symbol
_atom_site_label
_atom_site_fract_x
_atom_site_fract_y
_atom_site_fract_z
Si Si1 0.792729 0.897641 0.915328
Si Si2 0.973360 0.333533 0.256556
Si Si3 0.579350 0.125377 0.851890
Si Si4 0.649165 0.856264 0.595726
Si Si5 0.176297 0.765937 0.624715
Si Si6 0.112544 0.397872 0.533693
Si Si7 0.871934 0.072061 0.859752
Si Si8 0.564764 0.409727 0.674330
O O1 0.723064 0.835844 0.206946
O O2 0.929849 0.770537 0.651762
O O3 0.703175 0.018481 0.824552
O O4 0.823774 0.974298 0.020923
O O5 0.918940 0.265235 0.250637
O O6 0.868070 0.484957 0.474640
O O7 0.050513 0.359175 0.894012
O O8 0.572310 0.265259 0.727071
O O9 0.589157 0.020504 0.677088
O O10 0.456548 0.165825 0.209967
O O11 0.753060 0.746879 0.662448
O O12 0.208914 0.807753 0.265521
O O13 0.299625 0.632928 0.565241
O O14 0.128448 0.874899 0.889030
O O15 0.000000 0.500000 0.500000
O O16 0.000000 0.000000 0.500000
O O17 0.500000 0.500000 0.500000
O O18 0.500000 0.500000 0.000000
#
# Coordination Sequence:
#
# PCOD9028753 Si02
#       8
#     2   2   2   2   2   2   2   2
#     4  11  22  42  69 100 145 184 239 305 371 436
#     4  10  24  39  66 101 137 186 240 296 373 444
#     4  11  24  44  70 104 141 190 253 305 368 447
#     4  10  24  42  72 102 138 191 248 307 375 429
#     4  12  26  46  69 106 144 193 245 302 370 445
#     4  10  22  42  64  97 139 185 236 304 368 436
#     4  12  25  42  73 108 148 186 244 302 371 446
#     4  12  29  50  75 107 150 203 249 308 374 446
#
# _framework density 23.825006999999999
#
# number of rings (size 3 to 8) (size 9 to 14) (size 15 to 20)
#    0.000    1.000    2.500    3.000    5.250    2.000 
#    0.000    0.000    0.000    0.000    0.000    0.000 
#    0.000    0.000    0.000    0.000    0.000    0.000 
#
# Total GULP energy -89282.201346 kJ/mol
# GULP energy per Si atom -5580.137584 kJ/mol
# Density = 2.377078 g / cm^3
# Si number density = 23.825007 Si / 1000 Ang^3
#
#
#
# Elastic Constant Matrix: (Units=GPa)
#
#
# Indices 1 2 3 4 5 6 
#
# 1 98.3322 59.7602 32.7394 -7.8015 -6.9616 -11.1130
# 2 59.7602 161.2080 37.0042 -2.3904 4.2323 -18.6208
# 3 32.7394 37.0042 68.4137 3.8592 0.5026 -1.5748
# 4 -7.8015 -2.3904 3.8592 34.0625 0.3070 1.1775
# 5 -6.9616 4.2323 0.5026 0.3070 41.3008 1.1343
# 6 -11.1130 -18.6208 -1.5748 1.1775 1.1343 50.3785
#
#
#
# Elastic Compliance Matrix: (Units=1/GPa)
#
#
# Indices 1 2 3 4 5 6 
#
# 1 0.015154 -0.004299 -0.005122 0.003673 0.002990 0.001440
# 2 -0.004299 0.008684 -0.002568 -0.000146 -0.001643 0.002222
# 3 -0.005122 -0.002568 0.018623 -0.003408 -0.000763 -0.001400
# 4 0.003673 -0.000146 -0.003408 0.030573 0.000450 -0.000075
# 5 0.002990 -0.001643 -0.000763 0.000450 0.024906 -0.000543
# 6 0.001440 0.002222 -0.001400 -0.000075 -0.000543 0.020959
#
#
# Mechanical properties :
#
#
# Convention : Reuss Voigt Hill
#
# Bulk Modulus (GPa) = 54.10963 65.21797 59.66380
# Shear Modulus (GPa) = 33.54819 38.37836 35.96327
#
# Velocity S-wave (km/s) = 3.75655 4.01789 3.88941
# Velocity P-wave (km/s) = 6.44795 6.99698 6.72807
#
# Compressibility (1/GPa) = 0.01848100
#
# Stress axis : x y z
#
# Youngs Moduli (GPa) = 65.98950 115.15344 53.69709
#
# Poissons Ratio (x) = 0.49510 0.27506
# Poissons Ratio (y) = 0.28372 0.13790
# Poissons Ratio (z) = 0.33802 0.29573
#
# Static dielectric constant tensor:
#      x y z
#    x 1.972570 -0.018330 0.046870 
#    y -0.018330 2.014640 0.055530 
#    z 0.046870 0.055530 1.941960 
# 
# From -- ./inp_files/71411.got.cif
#   From: 2010.05.17/outbox.cif.g08.bks.cpg/sg2_36_cif.got.tgz:71411.got - 2010.06.03 11:33:40.
