data_PCOD9028703
_publ_section_title
;
Structure prediction by ZEFSAII (Michael W. Deem and Ramdas Pophale) SiO2 
 PCOD9028703
Probable space group: P -1
;
_chemical_formula_sum "Si O2"
_cell_formula_units_Z 14
_cell_length_a 17.619699
_cell_length_b 8.408938
_cell_length_c 10.927714
_cell_angle_alpha 103.974857
_cell_angle_beta 142.143128
_cell_angle_gamma 48.958473
_cell_volume 600.498964
_symmetry_space_group_name_H-M "P -1"
_symmetry_group_IT_number 2
_symmetry_cell_setting 'triclinic'
loop_
_space_group_symop_operation_xyz
x,y,z
-x,-y,-z
loop_
_atom_site_type_symbol
_atom_site_label
_atom_site_fract_x
_atom_site_fract_y
_atom_site_fract_z
Si Si1 0.127098 0.530951 0.641819
Si Si2 0.371783 0.358394 0.162163
Si Si3 0.386708 0.164345 0.510251
Si Si4 0.264061 0.841337 0.401546
Si Si5 0.910509 0.334439 0.908322
Si Si6 0.411364 0.353068 0.786116
Si Si7 0.233430 0.901094 0.652780
O O1 0.251384 0.396990 0.650720
O O2 0.000000 0.500000 0.500000
O O3 0.276070 0.419970 0.921655
O O4 0.972704 0.841194 0.499108
O O5 0.496395 0.397169 0.343302
O O6 0.203133 0.518948 0.080257
O O7 0.548108 0.047789 0.356514
O O8 0.165391 0.448266 0.241892
O O9 0.467676 0.237936 0.701004
O O10 0.500000 0.000000 0.500000
O O11 0.176863 0.748510 0.265094
O O12 0.213630 0.959414 0.494879
O O13 0.141023 0.067591 0.182788
O O14 0.310074 0.636032 0.709180
O O15 0.600613 0.164373 0.079606
#
# Coordination Sequence:
#
# PCOD9028703 Si02
#       7
#     2   2   2   2   2   2   2
#     4  12  26  42  67 102 137 177 226 275 335 406
#     4  11  23  40  64  96 134 171 220 270 333 393
#     4  10  23  42  66  96 134 175 218 272 335 401
#     4  11  21  40  69  96 127 175 219 273 333 391
#     4  10  22  42  64  94 133 169 223 272 325 405
#     4  11  24  45  69  98 137 177 221 285 336 393
#     4  11  23  43  70  99 134 173 228 278 338 400
#
# _framework density 23.313945
#
# number of rings (size 3 to 8) (size 9 to 14) (size 15 to 20)
#    0.000    1.143    4.286    1.714    2.000    1.714 
#    0.000    5.714    0.000    0.000    0.000    0.000 
#    0.000    0.000    0.000    0.000    0.000    0.000 
#
# Total GULP energy -78211.389344 kJ/mol
# GULP energy per Si atom -5586.527810 kJ/mol
# Density = 2.326088 g / cm^3
# Si number density = 23.313945 Si / 1000 Ang^3
#
#
#
# Elastic Constant Matrix: (Units=GPa)
#
#
# Indices 1 2 3 4 5 6 
#
# 1 42.4055 16.2850 31.5481 -3.5480 -2.8041 -9.2922
# 2 16.2850 94.1727 45.2454 4.4260 -11.9029 -8.1078
# 3 31.5481 45.2454 156.4661 -3.6216 -14.1914 15.6855
# 4 -3.5480 4.4260 -3.6216 30.9544 3.6482 -11.2380
# 5 -2.8041 -11.9029 -14.1914 3.6482 31.0980 5.4932
# 6 -9.2922 -8.1078 15.6855 -11.2380 5.4932 30.3754
#
#
#
# Elastic Compliance Matrix: (Units=1/GPa)
#
#
# Indices 1 2 3 4 5 6 
#
# 1 0.036211 -0.001337 -0.009355 0.011673 -0.006606 0.021065
# 2 -0.001337 0.013451 -0.003825 -0.001326 0.002700 0.004177
# 3 -0.009355 -0.003825 0.010982 -0.004261 0.005341 -0.012096
# 4 0.011673 -0.001326 -0.004261 0.043015 -0.010551 0.023240
# 5 -0.006606 0.002700 0.005341 -0.010551 0.038919 -0.015000
# 6 0.021065 0.004177 -0.012096 0.023240 -0.015000 0.058037
#
#
# Mechanical properties :
#
#
# Convention : Reuss Voigt Hill
#
# Bulk Modulus (GPa) = 31.63588 53.24460 42.44024
# Shear Modulus (GPa) = 20.81725 31.81661 26.31693
#
# Velocity S-wave (km/s) = 2.99140 3.69820 3.36342
# Velocity P-wave (km/s) = 5.05275 6.41274 5.77293
#
# Compressibility (1/GPa) = 0.03160968
#
# Stress axis : x y z
#
# Youngs Moduli (GPa) = 27.61590 74.34529 91.06027
#
# Poissons Ratio (x) = 0.09941 0.85189
# Poissons Ratio (y) = 0.03693 0.34826
# Poissons Ratio (z) = 0.25835 0.28433
#
# Static dielectric constant tensor:
#      x y z
#    x 1.902120 0.057510 0.029180 
#    y 0.057510 1.936510 0.005320 
#    z 0.029180 0.005320 1.867300 
# 
# From -- ./inp_files/28215.got.cif
#   From: 2010.05.17/outbox.cif.g08.bks.cpg/sg2_15_cif.got.tgz:28215.got - 2010.06.03 11:33:40.
