data_PCOD9028106
_publ_section_title
;
Structure prediction by ZEFSAII (Michael W. Deem and Ramdas Pophale) SiO2 
 PCOD9028106
Probable space group: P -1
;
_chemical_formula_sum "Si O2"
_cell_formula_units_Z 14
_cell_length_a 14.156735
_cell_length_b 9.697703
_cell_length_c 6.960026
_cell_angle_alpha 51.368734
_cell_angle_beta 120.908000
_cell_angle_gamma 132.633719
_cell_volume 542.254485
_symmetry_space_group_name_H-M "P -1"
_symmetry_group_IT_number 2
_symmetry_cell_setting 'triclinic'
loop_
_space_group_symop_operation_xyz
x,y,z
-x,-y,-z
loop_
_atom_site_type_symbol
_atom_site_label
_atom_site_fract_x
_atom_site_fract_y
_atom_site_fract_z
Si Si1 0.723490 0.466490 0.696717
Si Si2 0.066087 0.124693 0.263472
Si Si3 0.652747 0.424021 0.246440
Si Si4 0.440854 0.147413 0.783758
Si Si5 0.906276 0.173432 0.743147
Si Si6 0.367763 0.181268 0.106320
Si Si7 0.223507 0.746258 0.757691
O O1 0.796618 0.686876 0.684816
O O2 0.741607 0.477307 0.478814
O O3 0.653505 0.632712 0.021257
O O4 0.784274 0.340798 0.962065
O O5 0.070769 0.973501 0.245658
O O6 0.000000 0.000000 0.500000
O O7 0.995389 0.220417 0.983122
O O8 0.568570 0.355539 0.661845
O O9 0.700599 0.344171 0.194612
O O10 0.503950 0.239313 0.291183
O O11 0.395401 0.190816 0.899274
O O12 0.313779 0.997847 0.654294
O O13 0.500000 0.000000 0.000000
O O14 0.899774 0.319852 0.446298
O O15 0.758587 0.038066 0.786763
#
# Coordination Sequence:
#
# PCOD9028106 Si02
#       7
#     2   2   2   2   2   2   2
#     4  11  24  44  70 100 147 182 232 291 349 418
#     4  11  27  52  72 103 137 190 247 294 347 416
#     4  11  24  40  69 107 148 181 229 288 361 423
#     4  10  22  41  71 108 149 181 226 287 363 425
#     4  11  27  45  77  96 143 189 237 295 352 411
#     4  11  23  44  71 108 144 187 236 287 358 429
#     4  11  25  45  70 109 147 182 231 287 364 428
#
# _framework density 25.818135999999999
#
# number of rings (size 3 to 8) (size 9 to 14) (size 15 to 20)
#    0.000    1.143    2.857    2.571   10.000    3.429 
#    0.000    1.429    0.000    0.000    0.000    0.000 
#    0.000    0.000    0.000    0.000    0.000    0.000 
#
# Total GULP energy -78351.591180 kJ/mol
# GULP energy per Si atom -5596.542227 kJ/mol
# Density = 2.575937 g / cm^3
# Si number density = 25.818136 Si / 1000 Ang^3
#
#
#
# Elastic Constant Matrix: (Units=GPa)
#
#
# Indices 1 2 3 4 5 6 
#
# 1 50.2032 21.3451 14.0955 7.5522 1.6789 -20.1673
# 2 21.3451 105.9297 29.9880 34.0359 -8.4267 -12.8947
# 3 14.0955 29.9880 130.9958 34.4931 13.2516 4.4966
# 4 7.5522 34.0359 34.4931 52.1636 -1.9509 -1.1569
# 5 1.6789 -8.4267 13.2516 -1.9509 42.4417 3.4329
# 6 -20.1673 -12.8947 4.4966 -1.1569 3.4329 26.2477
#
#
#
# Elastic Compliance Matrix: (Units=1/GPa)
#
#
# Indices 1 2 3 4 5 6 
#
# 1 0.031742 -0.002686 -0.003286 -0.000240 -0.002713 0.023977
# 2 -0.002686 0.013384 -0.001231 -0.007347 0.002481 0.004074
# 3 -0.003286 -0.001231 0.010265 -0.005733 -0.003201 -0.004722
# 4 -0.000240 -0.007347 -0.005733 0.027815 0.001766 -0.001816
# 5 -0.002713 0.002481 -0.003201 0.001766 0.025532 -0.003579
# 6 0.023977 0.004074 -0.004722 -0.001816 -0.003579 0.059720
#
#
# Mechanical properties :
#
#
# Convention : Reuss Voigt Hill
#
# Bulk Modulus (GPa) = 24.39955 46.44286 35.42121
# Shear Modulus (GPa) = 25.44199 38.95061 32.19630
#
# Velocity S-wave (km/s) = 3.14256 3.88835 3.53518
# Velocity P-wave (km/s) = 4.75801 6.17953 5.51476
#
# Compressibility (1/GPa) = 0.04098436
#
# Stress axis : x y z
#
# Youngs Moduli (GPa) = 31.50364 74.71746 97.42089
#
# Poissons Ratio (x) = 0.20069 0.32013
# Poissons Ratio (y) = 0.08462 0.11994
# Poissons Ratio (z) = 0.10352 0.09199
#
# Static dielectric constant tensor:
#      x y z
#    x 2.003420 0.046170 0.028430 
#    y 0.046170 2.047130 -0.059270 
#    z 0.028430 -0.059270 2.143180 
# 
# From -- ./inp_files/94351.got.cif
#   From: 2010.05.17/outbox.cif.g08.bks.cpg/sg2_48_cif.got.tgz:94351.got - 2010.06.03 11:33:40.
