data_PCOD9028624
_publ_section_title
;
Structure prediction by ZEFSAII (Michael W. Deem and Ramdas Pophale) SiO2 
 PCOD9028624
Probable space group: P -1
;
_chemical_formula_sum "Si O2"
_cell_formula_units_Z 15
_cell_length_a 19.531770
_cell_length_b 16.401745
_cell_length_c 11.878126
_cell_angle_alpha 150.219151
_cell_angle_beta 151.951672
_cell_angle_gamma 21.055588
_cell_volume 620.337089
_symmetry_space_group_name_H-M "P -1"
_symmetry_group_IT_number 2
_symmetry_cell_setting 'triclinic'
loop_
_space_group_symop_operation_xyz
x,y,z
-x,-y,-z
loop_
_atom_site_type_symbol
_atom_site_label
_atom_site_fract_x
_atom_site_fract_y
_atom_site_fract_z
Si Si1 0.831406 0.666459 0.116943
Si Si2 0.750891 0.463090 0.436576
Si Si3 0.495599 0.875938 0.703843
Si Si4 0.840374 0.283079 0.110975
Si Si5 0.634605 0.360335 0.680750
Si Si6 0.978851 0.763204 0.998069
Si Si7 0.000000 0.500000 0.500000
Si Si8 0.223814 0.821285 0.671368
O O1 0.906400 0.424188 0.959457
O O2 0.031760 0.616533 0.344826
O O3 0.679843 0.844999 0.212901
O O4 0.698110 0.781235 0.947554
O O5 0.565691 0.741801 0.527505
O O6 0.741207 0.376427 0.201999
O O7 0.764838 0.335737 0.412001
O O8 0.407434 0.799518 0.563568
O O9 0.943086 0.374687 0.337403
O O10 0.668287 0.389258 0.893890
O O11 0.000000 0.000000 0.000000
O O12 0.430852 0.626171 0.662896
O O13 0.855162 0.232658 0.795212
O O14 0.947936 0.658567 0.727600
O O15 0.776905 0.012235 0.055887
O O16 0.000000 0.000000 0.500000
#
# Coordination Sequence:
#
# PCOD9028624 Si02
#       8
#     2   2   2   2   2   2   1   2
#     4  11  22  39  63  91 130 174 214 272 344 395
#     4  11  22  42  65  96 127 178 222 276 347 404
#     4  10  23  38  60  95 127 166 227 272 326 417
#     4  11  22  43  75  99 143 182 230 294 347 423
#     4  10  24  43  64 101 126 181 229 272 352 404
#     4  11  22  41  65  91 134 171 218 285 334 410
#     4  10  22  42  64 104 132 180 230 274 358 408
#     4  11  25  43  67  98 136 179 229 287 344 415
#
# _framework density 24.180402000000001
#
# number of rings (size 3 to 8) (size 9 to 14) (size 15 to 20)
#    0.000    1.333    1.333    5.200    0.000    7.467 
#    2.400    1.333    0.000    0.000    0.000    0.000 
#    0.000    0.000    0.000    0.000    0.000    0.000 
#
# Total GULP energy -83681.981960 kJ/mol
# GULP energy per Si atom -5578.798797 kJ/mol
# Density = 2.412537 g / cm^3
# Si number density = 24.180402 Si / 1000 Ang^3
#
#
#
# Elastic Constant Matrix: (Units=GPa)
#
#
# Indices 1 2 3 4 5 6 
#
# 1 60.6932 16.0064 10.2403 7.8767 -7.9011 -9.6998
# 2 16.0064 86.4704 20.9776 25.7934 -0.1646 -16.5209
# 3 10.2403 20.9776 101.9410 18.3383 -6.0412 -9.3849
# 4 7.8767 25.7934 18.3383 45.4532 -12.2230 -11.2290
# 5 -7.9011 -0.1646 -6.0412 -12.2230 42.3810 10.9687
# 6 -9.6998 -16.5209 -9.3849 -11.2290 10.9687 28.9846
#
#
#
# Elastic Compliance Matrix: (Units=1/GPa)
#
#
# Indices 1 2 3 4 5 6 
#
# 1 0.018138 -0.002514 -0.000866 0.000140 0.002380 0.003510
# 2 -0.002514 0.015859 -0.001304 -0.007634 -0.004481 0.006514
# 3 -0.000866 -0.001304 0.010851 -0.003148 0.000162 0.001200
# 4 0.000140 -0.007634 -0.003148 0.030475 0.007382 0.003689
# 5 0.002380 -0.004481 0.000162 0.007382 0.028684 -0.009700
# 6 0.003510 0.006514 0.001200 0.003689 -0.009700 0.044878
#
#
# Mechanical properties :
#
#
# Convention : Reuss Voigt Hill
#
# Bulk Modulus (GPa) = 28.18324 38.17258 33.17791
# Shear Modulus (GPa) = 29.39798 36.82246 33.11022
#
# Velocity S-wave (km/s) = 3.49058 3.90657 3.70442
# Velocity P-wave (km/s) = 5.28453 6.01409 5.66107
#
# Compressibility (1/GPa) = 0.03548208
#
# Stress axis : x y z
#
# Youngs Moduli (GPa) = 55.13268 63.05384 92.15568
#
# Poissons Ratio (x) = 0.15852 0.07977
# Poissons Ratio (y) = 0.13861 0.12013
# Poissons Ratio (z) = 0.04773 0.08220
#
# Static dielectric constant tensor:
#      x y z
#    x 1.932160 -0.000690 -0.066800 
#    y -0.000690 1.951960 0.020480 
#    z -0.066800 0.020480 1.956830 
# 
# From -- ./inp_files/282951.got.cif
#   From: 2010.05.17/outbox.cif.g08.bks.cpg/sg2_142_cif.got.tgz:282951.got - 2010.06.03 11:33:40.
