data_PCOD9028065
_publ_section_title
;
Structure prediction by ZEFSAII (Michael W. Deem and Ramdas Pophale) SiO2 
 PCOD9028065
Probable space group: P -1
;
_chemical_formula_sum "Si O2"
_cell_formula_units_Z 16
_cell_length_a 7.916115
_cell_length_b 12.851505
_cell_length_c 8.038210
_cell_angle_alpha 94.805484
_cell_angle_beta 63.146993
_cell_angle_gamma 111.476873
_cell_volume 675.633017
_symmetry_space_group_name_H-M "P -1"
_symmetry_group_IT_number 2
_symmetry_cell_setting 'triclinic'
loop_
_space_group_symop_operation_xyz
x,y,z
-x,-y,-z
loop_
_atom_site_type_symbol
_atom_site_label
_atom_site_fract_x
_atom_site_fract_y
_atom_site_fract_z
Si Si1 0.592290 0.430693 0.065114
Si Si2 0.130150 0.701459 0.186039
Si Si3 0.698245 0.817139 0.219685
Si Si4 0.886537 0.040937 0.334136
Si Si5 0.697297 0.586201 0.335102
Si Si6 0.671061 0.802217 0.822931
Si Si7 0.403530 0.916286 0.291497
Si Si8 0.290088 0.861142 0.869045
O O1 0.724241 0.513854 0.157323
O O2 0.396143 0.328506 0.209472
O O3 0.500000 0.500000 0.000000
O O4 0.729167 0.371808 0.903212
O O5 0.246139 0.816627 0.245779
O O6 0.910262 0.629331 0.343312
O O7 0.113834 0.757806 0.023007
O O8 0.670552 0.699275 0.297977
O O9 0.507748 0.852706 0.356544
O O10 0.879913 0.927290 0.227581
O O11 0.687046 0.807563 0.021256
O O12 0.717505 0.020245 0.548464
O O13 0.817074 0.118861 0.247988
O O14 0.108306 0.112580 0.315512
O O15 0.500000 0.500000 0.500000
O O16 0.484478 0.826724 0.822869
O O17 0.594942 0.005679 0.119989
#
# Coordination Sequence:
#
# PCOD9028065 Si02
#       8
#     2   2   2   2   2   2   2   2
#     4  11  23  48  69  94 136 186 239 288 335 417
#     4  11  24  45  72  99 133 187 238 280 349 421
#     4  11  22  46  66  99 142 181 230 288 343 423
#     4  11  26  40  70 109 146 179 222 292 362 407
#     4  12  28  46  70 103 138 181 241 301 346 407
#     4  11  23  42  73 102 137 186 235 283 345 426
#     4  11  23  44  66 106 146 177 220 292 356 412
#     4  10  22  41  71 100 138 184 226 274 343 432
#
# _framework density 23.681495000000002
#
# number of rings (size 3 to 8) (size 9 to 14) (size 15 to 20)
#    0.000    1.000    3.750    3.375    5.250    4.500 
#    2.250    1.250    0.000    0.000    0.000    0.000 
#    0.000    0.000    0.000    0.000    0.000    0.000 
#
# Total GULP energy -89216.188853 kJ/mol
# GULP energy per Si atom -5576.011803 kJ/mol
# Density = 2.362760 g / cm^3
# Si number density = 23.681495 Si / 1000 Ang^3
#
#
#
# Elastic Constant Matrix: (Units=GPa)
#
#
# Indices 1 2 3 4 5 6 
#
# 1 93.8158 39.0233 18.1300 -19.1650 -10.0249 -6.1393
# 2 39.0233 151.4609 24.9525 -13.1211 -8.8974 -5.9434
# 3 18.1300 24.9525 50.8775 -10.7071 -20.6173 -9.4689
# 4 -19.1650 -13.1211 -10.7071 36.4741 7.9006 -3.6860
# 5 -10.0249 -8.8974 -20.6173 7.9006 26.4411 -12.9808
# 6 -6.1393 -5.9434 -9.4689 -3.6860 -12.9808 49.7009
#
#
#
# Elastic Compliance Matrix: (Units=1/GPa)
#
#
# Indices 1 2 3 4 5 6 
#
# 1 0.013510 -0.002618 -0.000469 0.005524 0.003496 0.002589
# 2 -0.002618 0.007798 -0.003356 0.000705 -0.001360 -0.000333
# 3 -0.000469 -0.003356 0.041078 0.004124 0.038149 0.017636
# 4 0.005524 0.000705 0.004124 0.032679 -0.002599 0.003297
# 5 0.003496 -0.001360 0.038149 -0.002599 0.083526 0.029160
# 6 0.002589 -0.000333 0.017636 0.003297 0.029160 0.031621
#
#
# Mechanical properties :
#
#
# Convention : Reuss Voigt Hill
#
# Bulk Modulus (GPa) = 20.20257 51.15175 35.67716
# Shear Modulus (GPa) = 20.86824 36.79311 28.83068
#
# Velocity S-wave (km/s) = 2.97173 3.94593 3.49296
# Velocity P-wave (km/s) = 4.50826 6.51209 5.60052
#
# Compressibility (1/GPa) = 0.04949866
#
# Stress axis : x y z
#
# Youngs Moduli (GPa) = 74.01767 128.23885 24.34422
#
# Poissons Ratio (x) = 0.33574 0.01143
# Poissons Ratio (y) = 0.19378 0.08170
# Poissons Ratio (z) = 0.03474 0.43039
#
# Static dielectric constant tensor:
#      x y z
#    x 1.937050 0.016070 0.013430 
#    y 0.016070 1.886940 -0.002370 
#    z 0.013430 -0.002370 2.063390 
# 
# From -- ./inp_files/188316.got.cif
#   From: 2010.05.17/outbox.cif.g08.bks.cpg/sg2_95_cif.got.tgz:188316.got - 2010.06.03 11:33:40.
