data_PCOD9028663
_publ_section_title
;
Structure prediction by ZEFSAII (Michael W. Deem and Ramdas Pophale) SiO2 
 PCOD9028663
Probable space group: P -1
;
_chemical_formula_sum "Si O2"
_cell_formula_units_Z 14
_cell_length_a 7.030372
_cell_length_b 9.984047
_cell_length_c 11.462758
_cell_angle_alpha 121.382343
_cell_angle_beta 72.305825
_cell_angle_gamma 126.657106
_cell_volume 551.007687
_symmetry_space_group_name_H-M "P -1"
_symmetry_group_IT_number 2
_symmetry_cell_setting 'triclinic'
loop_
_space_group_symop_operation_xyz
x,y,z
-x,-y,-z
loop_
_atom_site_type_symbol
_atom_site_label
_atom_site_fract_x
_atom_site_fract_y
_atom_site_fract_z
Si Si1 0.432892 0.461950 0.357037
Si Si2 0.874458 0.969507 0.734278
Si Si3 0.673852 0.457228 0.808250
Si Si4 0.627578 0.107674 0.234808
Si Si5 0.730971 0.811381 0.069041
Si Si6 0.104436 0.473923 0.724778
Si Si7 0.220110 0.891746 0.536584
O O1 0.500000 0.500000 0.500000
O O2 0.321280 0.550951 0.338177
O O3 0.680768 0.540159 0.277928
O O4 0.255927 0.242294 0.292752
O O5 0.952645 0.297374 0.587499
O O6 0.014923 0.096137 0.875461
O O7 0.655350 0.983349 0.738604
O O8 0.072051 0.993772 0.615301
O O9 0.452072 0.286813 0.834432
O O10 0.897254 0.467468 0.831983
O O11 0.688573 0.647761 0.919035
O O12 0.747918 0.313235 0.252957
O O13 0.759631 0.145825 0.349625
O O14 0.680175 0.963452 0.097439
O O15 0.500000 0.000000 0.500000
#
# Coordination Sequence:
#
# PCOD9028663 Si02
#       7
#     2   2   2   2   2   2   2
#     4  11  24  42  65 100 128 169 218 263 325 382
#     4  10  22  42  64  91 132 168 212 273 314 387
#     4  11  25  43  70  90 134 172 216 274 318 390
#     4  10  23  39  63  91 130 169 216 270 317 386
#     4  10  24  47  63  97 128 175 220 262 330 380
#     4  11  23  38  66  96 127 175 213 266 328 380
#     4  11  22  36  58  94 131 172 215 257 330 386
#
# _framework density 25.407993999999999
#
# number of rings (size 3 to 8) (size 9 to 14) (size 15 to 20)
#    0.000    1.429    1.429    3.857    4.000    6.286 
#    0.000    5.714    0.000    0.000    0.000    0.000 
#    0.000    0.000    0.000    0.000    0.000    0.000 
#
# Total GULP energy -78166.374951 kJ/mol
# GULP energy per Si atom -5583.312496 kJ/mol
# Density = 2.535016 g / cm^3
# Si number density = 25.407994 Si / 1000 Ang^3
#
#
#
# Elastic Constant Matrix: (Units=GPa)
#
#
# Indices 1 2 3 4 5 6 
#
# 1 129.7903 27.1053 48.3098 22.8704 12.3464 28.7063
# 2 27.1053 86.8013 39.1122 20.6954 4.0903 18.4869
# 3 48.3098 39.1122 66.7623 26.4284 -1.2909 10.6527
# 4 22.8704 20.6954 26.4284 44.7121 -0.4123 5.5579
# 5 12.3464 4.0903 -1.2909 -0.4123 36.9653 11.0729
# 6 28.7063 18.4869 10.6527 5.5579 11.0729 48.2870
#
#
#
# Elastic Compliance Matrix: (Units=1/GPa)
#
#
# Indices 1 2 3 4 5 6 
#
# 1 0.012175 0.001550 -0.008420 -0.001358 -0.003011 -0.005127
# 2 0.001550 0.016900 -0.009280 -0.002552 -0.001318 -0.004748
# 3 -0.008420 -0.009280 0.029947 -0.009317 0.004161 0.002070
# 4 -0.001358 -0.002552 -0.009317 0.029721 0.000662 0.000267
# 5 -0.003011 -0.001318 0.004161 0.000662 0.030030 -0.005586
# 6 -0.005127 -0.004748 0.002070 0.000267 -0.005586 0.026369
#
#
# Mechanical properties :
#
#
# Convention : Reuss Voigt Hill
#
# Bulk Modulus (GPa) = 37.42406 56.93426 47.17916
# Shear Modulus (GPa) = 26.83133 37.24799 32.03966
#
# Velocity S-wave (km/s) = 3.25317 3.83299 3.55492
# Velocity P-wave (km/s) = 5.37327 6.48426 5.95473
#
# Compressibility (1/GPa) = 0.02672078
#
# Stress axis : x y z
#
# Youngs Moduli (GPa) = 82.13561 59.17204 33.39266
#
# Poissons Ratio (x) = -0.09172 0.28118
# Poissons Ratio (y) = -0.12731 0.30988
# Poissons Ratio (z) = 0.69162 0.54911
#
# Static dielectric constant tensor:
#      x y z
#    x 2.067880 0.020730 -0.096540 
#    y 0.020730 1.983570 -0.040270 
#    z -0.096540 -0.040270 2.030000 
# 
# From -- ./inp_files/482938.got.cif
#   From: 2010.05.17/outbox.cif.g08.bks.cpg/sg2_242_cif.got.tgz:482938.got - 2010.06.03 11:33:40.
