data_PCOD9028561
_publ_section_title
;
Structure prediction by ZEFSAII (Michael W. Deem and Ramdas Pophale) SiO2 
 PCOD9028561
Probable space group: P -1
;
_chemical_formula_sum "Si O2"
_cell_formula_units_Z 13
_cell_length_a 13.789602
_cell_length_b 14.567151
_cell_length_c 18.650416
_cell_angle_alpha 20.945210
_cell_angle_beta 26.337330
_cell_angle_gamma 22.865848
_cell_volume 502.951601
_symmetry_space_group_name_H-M "P -1"
_symmetry_group_IT_number 2
_symmetry_cell_setting 'triclinic'
loop_
_space_group_symop_operation_xyz
x,y,z
-x,-y,-z
loop_
_atom_site_type_symbol
_atom_site_label
_atom_site_fract_x
_atom_site_fract_y
_atom_site_fract_z
Si Si1 0.316161 0.196074 0.090353
Si Si2 0.500000 0.500000 0.000000
Si Si3 0.269568 0.828063 0.672584
Si Si4 0.260760 0.471934 0.319733
Si Si5 0.521523 0.751981 0.409511
Si Si6 0.756014 0.096230 0.767606
Si Si7 0.970716 0.867603 0.039200
O O1 0.364725 0.990408 0.277148
O O2 0.136017 0.159579 0.179131
O O3 0.241604 0.533978 0.911591
O O4 0.578609 0.061657 0.967712
O O5 0.334659 0.415573 0.227414
O O6 0.266372 0.625249 0.003532
O O7 0.490027 0.767503 0.625996
O O8 0.375534 0.848486 0.510821
O O9 0.974748 0.100619 0.666086
O O10 0.000000 0.500000 0.500000
O O11 0.188303 0.817885 0.127810
O O12 0.592353 0.409730 0.603599
O O13 0.786910 0.741776 0.252345
O O14 0.000000 0.000000 0.000000
#
# Coordination Sequence:
#
# PCOD9028561 Si02
#       7
#     2   1   2   2   2   2   2
#     4  10  22  44  64  94 138 171 215 283 331 392
#     4  10  24  40  70  90 128 182 218 272 346 382
#     4  11  23  40  67  98 130 176 220 272 338 398
#     4  11  24  43  64  98 138 174 226 283 330 407
#     4  11  23  40  66  94 134 172 217 279 336 391
#     4  10  24  40  66  99 129 172 227 269 333 408
#     4  10  22  42  63  94 131 172 223 276 329 399
#
# _framework density 25.847417
#
# number of rings (size 3 to 8) (size 9 to 14) (size 15 to 20)
#    0.000    1.538    1.538    2.769    2.154    6.154 
#    0.000    0.000    0.000    0.000    0.000    0.000 
#    0.000    0.000    0.000    0.000    0.000    0.000 
#
# Total GULP energy -72431.096457 kJ/mol
# GULP energy per Si atom -5571.622804 kJ/mol
# Density = 2.578859 g / cm^3
# Si number density = 25.847417 Si / 1000 Ang^3
#
#
#
# Elastic Constant Matrix: (Units=GPa)
#
#
# Indices 1 2 3 4 5 6 
#
# 1 114.1628 19.2482 40.8854 -13.4179 20.9166 -18.0889
# 2 19.2482 53.2502 31.6538 -12.0587 13.2442 -36.0639
# 3 40.8854 31.6538 146.8135 -10.9073 32.0185 -1.8922
# 4 -13.4179 -12.0587 -10.9073 51.2939 -12.7656 -5.5319
# 5 20.9166 13.2442 32.0185 -12.7656 46.0608 -3.9751
# 6 -18.0889 -36.0639 -1.8922 -5.5319 -3.9751 37.8447
#
#
#
# Elastic Compliance Matrix: (Units=1/GPa)
#
#
# Indices 1 2 3 4 5 6 
#
# 1 0.012899 0.015658 -0.005578 0.007579 -0.002513 0.021652
# 2 0.015658 0.140357 -0.028875 0.046251 -0.001948 0.146349
# 3 -0.005578 -0.028875 0.014473 -0.009702 -0.004621 -0.031362
# 4 0.007579 0.046251 -0.009702 0.037246 0.004915 0.053172
# 5 -0.002513 -0.001948 -0.004621 0.004915 0.028018 0.000373
# 6 0.021652 0.146349 -0.031362 0.053172 0.000373 0.182479
#
#
# Mechanical properties :
#
#
# Convention : Reuss Voigt Hill
#
# Bulk Modulus (GPa) = 7.68406 55.31126 31.49766
# Shear Modulus (GPa) = 10.07168 41.86917 25.97042
#
# Velocity S-wave (km/s) = 1.97612 4.02911 3.17323
# Velocity P-wave (km/s) = 2.86113 6.56434 5.06343
#
# Compressibility (1/GPa) = 0.13013958
#
# Stress axis : x y z
#
# Youngs Moduli (GPa) = 77.52571 7.12467 69.09397
#
# Poissons Ratio (x) = -0.11156 0.38540
# Poissons Ratio (y) = -1.21391 1.99510
# Poissons Ratio (z) = 0.43243 0.20573
#
# Static dielectric constant tensor:
#      x y z
#    x 2.105810 0.015010 -0.064990 
#    y 0.015010 2.198060 -0.017930 
#    z -0.064990 -0.017930 2.024880 
# 
# From -- ./inp_files/134163.got.cif
#   From: 2010.05.17/outbox.cif.g08.bks.cpg/sg2_68_cif.got.tgz:134163.got - 2010.06.03 11:33:40.
