data_PCOD9028008
_publ_section_title
;
Structure prediction by ZEFSAII (Michael W. Deem and Ramdas Pophale) SiO2 
 PCOD9028008
Probable space group: P -1
;
_chemical_formula_sum "Si O2"
_cell_formula_units_Z 16
_cell_length_a 12.467805
_cell_length_b 9.311472
_cell_length_c 21.152533
_cell_angle_alpha 135.165806
_cell_angle_beta 27.678959
_cell_angle_gamma 142.420439
_cell_volume 695.438218
_symmetry_space_group_name_H-M "P -1"
_symmetry_group_IT_number 2
_symmetry_cell_setting 'triclinic'
loop_
_space_group_symop_operation_xyz
x,y,z
-x,-y,-z
loop_
_atom_site_type_symbol
_atom_site_label
_atom_site_fract_x
_atom_site_fract_y
_atom_site_fract_z
Si Si1 0.605546 0.627966 0.817188
Si Si2 0.261213 0.762535 0.954241
Si Si3 0.736840 0.623704 0.962750
Si Si4 0.448272 0.828780 0.334863
Si Si5 0.335523 0.957957 0.844143
Si Si6 0.904924 0.988855 0.246965
Si Si7 0.683372 0.821631 0.439226
Si Si8 0.169214 0.528437 0.702291
O O1 0.485938 0.762539 0.881487
O O2 0.624853 0.438103 0.703612
O O3 0.371121 0.487353 0.946984
O O4 0.885576 0.768314 0.752099
O O5 0.405873 0.892936 0.854355
O O6 0.000000 0.500000 0.000000
O O7 0.109428 0.895710 0.098843
O O8 0.918793 0.531815 0.807611
O O9 0.500000 0.500000 0.000000
O O10 0.818428 0.898772 0.012125
O O11 0.477278 0.881785 0.260799
O O12 0.727174 0.974102 0.274705
O O13 0.259101 0.924257 0.488319
O O14 0.214978 0.705852 0.792576
O O15 0.689437 0.830195 0.363392
O O16 0.407020 0.644900 0.563765
O O17 0.870270 0.718641 0.331323
#
# Coordination Sequence:
#
# PCOD9028008 Si02
#       8
#     2   2   2   2   2   2   2   2
#     4  11  25  42  67 107 136 174 227 284 349 401
#     4  12  23  40  67 103 138 177 220 286 352 401
#     4  11  23  40  68 103 137 170 221 289 346 404
#     4  10  24  45  68  96 133 184 228 275 337 402
#     4  10  23  39  69  95 131 174 222 279 338 402
#     4  12  24  41  70  99 141 175 226 282 342 409
#     4  10  23  42  67  97 132 187 230 271 329 409
#     4  10  22  41  70  96 134 180 231 272 334 413
#
# _framework density 23.007076000000001
#
# number of rings (size 3 to 8) (size 9 to 14) (size 15 to 20)
#    0.000    1.250    1.250    4.125    8.750    1.500 
#    0.000    0.000    2.750    4.500    0.000    0.000 
#    0.000    0.000    0.000    0.000    0.000    0.000 
#
# Total GULP energy -89127.210593 kJ/mol
# GULP energy per Si atom -5570.450662 kJ/mol
# Density = 2.295471 g / cm^3
# Si number density = 23.007076 Si / 1000 Ang^3
#
#
#
# Elastic Constant Matrix: (Units=GPa)
#
#
# Indices 1 2 3 4 5 6 
#
# 1 107.4128 49.0756 22.8873 9.3341 13.3943 -23.0977
# 2 49.0756 60.3865 47.6709 -4.8196 -33.3621 -8.8104
# 3 22.8873 47.6709 79.4908 47.1289 23.5940 -12.4237
# 4 9.3341 -4.8196 47.1289 -17.7658 -53.1579 -4.5847
# 5 13.3943 -33.3621 23.5940 -53.1579 10.3623 -11.0641
# 6 -23.0977 -8.8104 -12.4237 -4.5847 -11.0641 38.5600
#
#
#
# Elastic Compliance Matrix: (Units=1/GPa)
#
#
# Indices 1 2 3 4 5 6 
#
# 1 0.015159 -0.010009 -0.001580 0.007761 -0.001022 0.006914
# 2 -0.010009 0.024648 -0.001839 -0.018071 0.000668 -0.002913
# 3 -0.001580 -0.001839 0.009708 0.005419 0.006321 0.004219
# 4 0.007761 -0.018071 0.005419 0.012850 -0.015251 -0.000582
# 5 -0.001022 0.000668 0.006321 -0.015251 0.010229 0.002699
# 6 0.006914 -0.002913 0.004219 -0.000582 0.002699 0.031474
#
#
# Mechanical properties :
#
#
# Convention : Reuss Voigt Hill
#
# Bulk Modulus (GPa) = 44.13295 54.06195 49.09745
# Shear Modulus (GPa) = 36.10707 14.74173 25.42440
#
# Velocity S-wave (km/s) = 3.96585 2.53405 3.32786
# Velocity P-wave (km/s) = 6.33992 5.66664 6.01271
#
# Compressibility (1/GPa) = 0.02265881
#
# Stress axis : x y z
#
# Youngs Moduli (GPa) = 65.96672 40.57200 103.00533
#
# Poissons Ratio (x) = 0.40607 0.16277
# Poissons Ratio (y) = 0.66024 0.18945
# Poissons Ratio (z) = 0.10424 0.07462
#
# Static dielectric constant tensor:
#      x y z
#    x 2.369320 0.231680 -0.452750 
#    y 0.231680 2.059550 -0.201250 
#    z -0.452750 -0.201250 2.302240 
# 
# From -- ./inp_files/594183.got.cif
#   From: 2010.05.17/outbox.cif.g08.bks.cpg/sg2_298_cif.got.tgz:594183.got - 2010.06.03 11:33:40.
