data_PCOD9028779
_publ_section_title
;
Structure prediction by ZEFSAII (Michael W. Deem and Ramdas Pophale) SiO2 
 PCOD9028779
Probable space group: P -1
;
_chemical_formula_sum "Si O2"
_cell_formula_units_Z 16
_cell_length_a 7.408461
_cell_length_b 5.652414
_cell_length_c 18.004798
_cell_angle_alpha 88.293763
_cell_angle_beta 116.765795
_cell_angle_gamma 72.119204
_cell_volume 628.009767
_symmetry_space_group_name_H-M "P -1"
_symmetry_group_IT_number 2
_symmetry_cell_setting 'triclinic'
loop_
_space_group_symop_operation_xyz
x,y,z
-x,-y,-z
loop_
_atom_site_type_symbol
_atom_site_label
_atom_site_fract_x
_atom_site_fract_y
_atom_site_fract_z
Si Si1 0.356477 0.379541 0.898898
Si Si2 0.780147 0.882821 0.998586
Si Si3 0.608185 0.619136 0.864847
Si Si4 0.845414 0.512676 0.541936
Si Si5 0.246326 0.945663 0.518956
Si Si6 0.423831 0.161885 0.287260
Si Si7 0.993666 0.382488 0.731736
Si Si8 0.121378 0.898121 0.163262
O O1 0.467443 0.588194 0.908686
O O2 0.205376 0.430273 0.798023
O O3 0.552897 0.111296 0.941165
O O4 0.212131 0.337880 0.938763
O O5 0.783713 0.736078 0.923815
O O6 0.933455 0.012388 0.065194
O O7 0.472876 0.771857 0.768942
O O8 0.737635 0.348541 0.855549
O O9 0.699371 0.341548 0.498796
O O10 0.976787 0.381437 0.640689
O O11 0.000000 0.500000 0.500000
O O12 0.747058 0.819740 0.533229
O O13 0.398881 0.944883 0.616331
O O14 0.000000 0.000000 0.500000
O O15 0.230280 0.403733 0.283046
O O16 0.296225 0.994459 0.231891
O O17 0.000420 0.143441 0.784798
#
# Coordination Sequence:
#
# PCOD9028779 Si02
#       8
#     2   2   2   2   2   2   2   2
#     4  10  23  40  67  97 137 176 232 288 340 424
#     4  10  22  42  64  99 133 183 228 287 348 409
#     4  11  23  38  68  96 132 181 230 289 345 418
#     4  10  24  45  74 106 137 184 231 298 355 429
#     4  10  25  45  74 104 142 179 237 293 358 426
#     4  11  26  44  67  98 137 185 226 289 355 424
#     4  10  25  44  68  98 138 182 229 288 355 419
#     4  10  24  44  64  96 140 179 232 282 351 426
#
# _framework density 25.477309000000002
#
# number of rings (size 3 to 8) (size 9 to 14) (size 15 to 20)
#    0.000    1.750    0.000    1.500    8.750   12.000 
#    0.000    0.000    0.000    0.000    0.000    0.000 
#    0.000    0.000    0.000    0.000    0.000    0.000 
#
# Total GULP energy -89252.125753 kJ/mol
# GULP energy per Si atom -5578.257860 kJ/mol
# Density = 2.541932 g / cm^3
# Si number density = 25.477309 Si / 1000 Ang^3
#
#
#
# Elastic Constant Matrix: (Units=GPa)
#
#
# Indices 1 2 3 4 5 6 
#
# 1 63.9327 35.1151 44.6884 4.1210 7.9289 22.6547
# 2 35.1151 68.6858 15.9965 12.3973 0.3356 15.5458
# 3 44.6884 15.9965 207.8316 3.8023 4.2229 13.7088
# 4 4.1210 12.3973 3.8023 37.7296 5.4062 4.3471
# 5 7.9289 0.3356 4.2229 5.4062 39.9460 -1.6057
# 6 22.6547 15.5458 13.7088 4.3471 -1.6057 45.7512
#
#
#
# Elastic Compliance Matrix: (Units=1/GPa)
#
#
# Indices 1 2 3 4 5 6 
#
# 1 0.029783 -0.012518 -0.004743 0.003325 -0.006141 -0.009604
# 2 -0.012518 0.022031 0.001111 -0.006308 0.002999 -0.000916
# 3 -0.004743 0.001111 0.005726 -0.000520 0.000410 0.000319
# 4 0.003325 -0.006308 -0.000520 0.029187 -0.004594 -0.002282
# 5 -0.006141 0.002999 0.000410 -0.004594 0.026938 0.003281
# 6 -0.009604 -0.000916 0.000319 -0.002282 0.003281 0.027161
#
#
# Mechanical properties :
#
#
# Convention : Reuss Voigt Hill
#
# Bulk Modulus (GPa) = 39.61992 59.11667 49.36829
# Shear Modulus (GPa) = 27.54215 40.99539 34.26877
#
# Velocity S-wave (km/s) = 3.29149 4.01570 3.67150
# Velocity P-wave (km/s) = 5.47997 6.68993 6.11495
#
# Compressibility (1/GPa) = 0.02523983
#
# Stress axis : x y z
#
# Youngs Moduli (GPa) = 33.57618 45.39011 174.63976
#
# Poissons Ratio (x) = 0.56819 0.82833
# Poissons Ratio (y) = 0.42031 -0.19399
# Poissons Ratio (z) = 0.15925 -0.05042
#
# Static dielectric constant tensor:
#      x y z
#    x 2.156210 -0.009570 -0.022550 
#    y -0.009570 2.148620 -0.020410 
#    z -0.022550 -0.020410 1.932880 
# 
# From -- ./inp_files/141303.got.cif
#   From: 2010.05.17/outbox.cif.g08.bks.cpg/sg2_71_cif.got.tgz:141303.got - 2010.06.03 11:33:40.
