data_PCOD9028031
_publ_section_title
;
Structure prediction by ZEFSAII (Michael W. Deem and Ramdas Pophale) SiO2 
 PCOD9028031
Probable space group: P -1
;
_chemical_formula_sum "Si O2"
_cell_formula_units_Z 10
_cell_length_a 9.129439
_cell_length_b 8.396819
_cell_length_c 5.943808
_cell_angle_alpha 98.444572
_cell_angle_beta 83.835301
_cell_angle_gamma 110.067744
_cell_volume 422.541455
_symmetry_space_group_name_H-M "P -1"
_symmetry_group_IT_number 2
_symmetry_cell_setting 'triclinic'
loop_
_space_group_symop_operation_xyz
x,y,z
-x,-y,-z
loop_
_atom_site_type_symbol
_atom_site_label
_atom_site_fract_x
_atom_site_fract_y
_atom_site_fract_z
Si Si1 0.637196 0.409519 0.213217
Si Si2 0.126218 0.132314 0.162467
Si Si3 0.663637 0.768064 0.467034
Si Si4 0.035295 0.586083 0.760288
Si Si5 0.547772 0.858350 0.097755
O O1 0.691190 0.612496 0.288603
O O2 0.477800 0.329071 0.362325
O O3 0.775969 0.342207 0.252494
O O4 0.583887 0.327835 0.959162
O O5 0.177292 0.121472 0.412283
O O6 0.068546 0.292917 0.199336
O O7 0.288594 0.144689 0.024843
O O8 0.000000 0.000000 0.000000
O O9 0.590038 0.882904 0.355514
O O10 0.000000 0.500000 0.500000
O O11 0.000000 0.500000 0.000000
O O12 0.500000 0.000000 0.000000
#
# Coordination Sequence:
#
# PCOD9028031 Si02
#       5
#     2   2   2   2   2
#     4  10  22  41  70  98 135 181 234 293 351 421
#     4  11  25  45  66 103 143 186 234 297 357 424
#     4  10  22  43  69  98 133 184 240 287 354 423
#     4  12  26  46  73 108 145 187 239 296 364 431
#     4  11  24  43  67 100 140 185 237 294 361 425
#
# _framework density 23.666318
#
# number of rings (size 3 to 8) (size 9 to 14) (size 15 to 20)
#    0.000    1.200    2.000    3.000    2.800    4.000 
#    3.600    0.000    0.000    0.000    0.000    0.000 
#    0.000    0.000    0.000    0.000    0.000    0.000 
#
# Total GULP energy -55711.632879 kJ/mol
# GULP energy per Si atom -5571.163288 kJ/mol
# Density = 2.361245 g / cm^3
# Si number density = 23.666318 Si / 1000 Ang^3
#
#
#
# Elastic Constant Matrix: (Units=GPa)
#
#
# Indices 1 2 3 4 5 6 
#
# 1 157.5664 43.2491 54.7908 20.6500 35.0681 -16.3858
# 2 43.2491 70.9412 76.1637 8.3974 12.3041 -18.2142
# 3 54.7908 76.1637 165.8662 9.3453 56.9655 -8.6733
# 4 20.6500 8.3974 9.3453 30.1447 -5.7279 12.6686
# 5 35.0681 12.3041 56.9655 -5.7279 61.4308 10.1252
# 6 -16.3858 -18.2142 -8.6733 12.6686 10.1252 42.7573
#
#
#
# Elastic Compliance Matrix: (Units=1/GPa)
#
#
# Indices 1 2 3 4 5 6 
#
# 1 0.012510 -0.005196 0.004376 -0.015816 -0.013505 0.011353
# 2 -0.005196 0.038528 -0.019354 -0.002557 0.011554 0.008517
# 3 0.004376 -0.019354 0.021334 -0.010464 -0.020315 0.005671
# 4 -0.015816 -0.002557 -0.010464 0.069799 0.031936 -0.037517
# 5 -0.013505 0.011554 -0.020315 0.031936 0.047629 -0.025116
# 6 0.011353 0.008517 0.005671 -0.037517 -0.025116 0.049581
#
#
# Mechanical properties :
#
#
# Convention : Reuss Voigt Hill
#
# Bulk Modulus (GPa) = 31.22598 82.53121 56.87860
# Shear Modulus (GPa) = 17.21745 41.54457 29.38101
#
# Velocity S-wave (km/s) = 2.70016 4.19433 3.52727
# Velocity P-wave (km/s) = 4.79000 7.64232 6.37766
#
# Compressibility (1/GPa) = 0.03202462
#
# Stress axis : x y z
#
# Youngs Moduli (GPa) = 79.93611 25.95508 46.87441
#
# Poissons Ratio (x) = 0.13486 -0.20514
# Poissons Ratio (y) = 0.41534 0.90721
# Poissons Ratio (z) = -0.34983 0.50234
#
# Static dielectric constant tensor:
#      x y z
#    x 1.847180 0.045240 -0.001640 
#    y 0.045240 1.973100 0.017260 
#    z -0.001640 0.017260 2.192390 
# 
# From -- ./inp_files/15346.got.cif
#   From: 2010.05.17/outbox.cif.g08.bks.cpg/sg2_8_cif.got.tgz:15346.got - 2010.06.03 11:33:40.
