data_PCOD9028420
_publ_section_title
;
Structure prediction by ZEFSAII (Michael W. Deem and Ramdas Pophale) SiO2 
 PCOD9028420
Probable space group: P -1
;
_chemical_formula_sum "Si O2"
_cell_formula_units_Z 14
_cell_length_a 11.752829
_cell_length_b 6.950293
_cell_length_c 13.421221
_cell_angle_alpha 53.990672
_cell_angle_beta 60.772356
_cell_angle_gamma 92.872596
_cell_volume 679.940607
_symmetry_space_group_name_H-M "P -1"
_symmetry_group_IT_number 2
_symmetry_cell_setting 'triclinic'
loop_
_space_group_symop_operation_xyz
x,y,z
-x,-y,-z
loop_
_atom_site_type_symbol
_atom_site_label
_atom_site_fract_x
_atom_site_fract_y
_atom_site_fract_z
Si Si1 0.121271 0.110548 0.650471
Si Si2 0.338682 0.941115 0.554223
Si Si3 0.908514 0.204726 0.836172
Si Si4 0.969788 0.468971 0.138796
Si Si5 0.618535 0.750942 0.762642
Si Si6 0.109472 0.304246 0.389308
Si Si7 0.598184 0.856185 0.966729
O O1 0.131482 0.308571 0.497410
O O2 0.040052 0.143218 0.769642
O O3 0.279208 0.117465 0.589555
O O4 0.017839 0.798442 0.754546
O O5 0.203613 0.637943 0.724840
O O6 0.500000 0.000000 0.500000
O O7 0.342891 0.037832 0.408814
O O8 0.945154 0.488968 0.682870
O O9 0.917942 0.268755 0.929128
O O10 0.752738 0.998266 0.917244
O O11 0.000000 0.500000 0.000000
O O12 0.739253 0.643629 0.744131
O O13 0.472437 0.467982 0.888185
O O14 0.616435 0.877696 0.831805
O O15 0.000000 0.000000 0.500000
O O16 0.500000 0.000000 0.000000
#
# Coordination Sequence:
#
# PCOD9028420 Si02
#       7
#     2   2   2   2   2   2   2
#     4   9  22  38  62  98 122 163 220 269 320 387
#     4   9  21  46  69  88 127 180 218 271 330 377
#     4  12  22  38  69  93 132 172 217 267 334 394
#     4  10  24  43  66  94 132 171 228 272 327 382
#     4  10  22  42  61  95 139 162 222 265 328 390
#     4  11  18  37  64  95 129 167 204 273 335 389
#     4  11  24  38  63 100 135 173 209 267 334 396
#
# _framework density 20.590033999999999
#
# number of rings (size 3 to 8) (size 9 to 14) (size 15 to 20)
#    0.857    0.857    2.857    1.286    0.000    4.000 
#    0.000    0.714    0.000    0.000    0.000    0.000 
#    0.000    0.000    0.000    0.000    0.000    0.000 
#
# Total GULP energy -77988.265709 kJ/mol
# GULP energy per Si atom -5570.590408 kJ/mol
# Density = 2.054317 g / cm^3
# Si number density = 20.590034 Si / 1000 Ang^3
#
#
#
# Elastic Constant Matrix: (Units=GPa)
#
#
# Indices 1 2 3 4 5 6 
#
# 1 90.1007 50.4660 38.0407 11.9585 -11.3745 8.2576
# 2 50.4660 125.5486 48.5263 23.6735 -14.6892 20.4640
# 3 38.0407 48.5263 97.2866 11.6230 -7.7451 20.0814
# 4 11.9585 23.6735 11.6230 36.7719 5.7832 -7.7862
# 5 -11.3745 -14.6892 -7.7451 5.7832 17.9182 -2.2897
# 6 8.2576 20.4640 20.0814 -7.7862 -2.2897 27.6082
#
#
#
# Elastic Compliance Matrix: (Units=1/GPa)
#
#
# Indices 1 2 3 4 5 6 
#
# 1 0.015839 -0.003933 -0.003608 -0.002297 0.006097 0.000660
# 2 -0.003933 0.016112 -0.001292 -0.013361 0.012865 -0.012527
# 3 -0.003608 -0.001292 0.015500 -0.005731 0.003854 -0.010534
# 4 -0.002297 -0.013361 -0.005731 0.048140 -0.027092 0.026089
# 5 0.006097 0.012865 0.003854 -0.027092 0.078683 -0.015277
# 6 0.000660 -0.012527 -0.010534 0.026089 -0.015277 0.059062
#
#
# Mechanical properties :
#
#
# Convention : Reuss Voigt Hill
#
# Bulk Modulus (GPa) = 33.57494 65.22244 49.39869
# Shear Modulus (GPa) = 19.16212 28.18650 23.67431
#
# Velocity S-wave (km/s) = 3.05397 3.70393 3.39454
# Velocity P-wave (km/s) = 5.36446 7.07373 6.27754
#
# Compressibility (1/GPa) = 0.02978412
#
# Stress axis : x y z
#
# Youngs Moduli (GPa) = 63.13500 62.06530 64.51614
#
# Poissons Ratio (x) = 0.24412 0.23276
# Poissons Ratio (y) = 0.24833 0.08338
# Poissons Ratio (z) = 0.22778 0.08021
#
# Static dielectric constant tensor:
#      x y z
#    x 1.788230 0.024950 -0.060680 
#    y 0.024950 1.778160 -0.028090 
#    z -0.060680 -0.028090 1.853910 
# 
# From -- ./inp_files/509679.got.cif
#   From: 2010.05.17/outbox.cif.g08.bks.cpg/sg2_255_cif.got.tgz:509679.got - 2010.06.03 11:33:40.
