data_PCOD9028588
_publ_section_title
;
Structure prediction by ZEFSAII (Michael W. Deem and Ramdas Pophale) SiO2 
 PCOD9028588
Probable space group: P -1
;
_chemical_formula_sum "Si O2"
_cell_formula_units_Z 16
_cell_length_a 8.354891
_cell_length_b 11.465442
_cell_length_c 17.004711
_cell_angle_alpha 147.369116
_cell_angle_beta 64.751559
_cell_angle_gamma 124.111171
_cell_volume 723.409098
_symmetry_space_group_name_H-M "P -1"
_symmetry_group_IT_number 2
_symmetry_cell_setting 'triclinic'
loop_
_space_group_symop_operation_xyz
x,y,z
-x,-y,-z
loop_
_atom_site_type_symbol
_atom_site_label
_atom_site_fract_x
_atom_site_fract_y
_atom_site_fract_z
Si Si1 0.278042 0.142987 0.593272
Si Si2 0.677534 0.422933 0.407178
Si Si3 0.020870 0.055012 0.329263
Si Si4 0.124052 0.202493 0.028630
Si Si5 0.368503 0.734294 0.288719
Si Si6 0.333198 0.032488 0.767673
Si Si7 0.413026 0.655624 0.792849
Si Si8 0.224920 0.919649 0.081894
O O1 0.452783 0.193776 0.647357
O O2 0.343655 0.377927 0.661791
O O3 0.263852 0.911269 0.418900
O O4 0.083336 0.084178 0.650048
O O5 0.500000 0.500000 0.500000
O O6 0.867029 0.665527 0.518269
O O7 0.658387 0.216325 0.354575
O O8 0.670061 0.321875 0.262820
O O9 0.848848 0.019777 0.282809
O O10 0.167082 0.954991 0.202387
O O11 0.225233 0.468632 0.188877
O O12 0.973672 0.197527 0.990295
O O13 0.286436 0.137626 0.916453
O O14 0.000000 0.000000 0.000000
O O15 0.472719 0.782139 0.209315
O O16 0.642839 0.814814 0.826808
O O17 0.342284 0.766141 0.943751
#
# Coordination Sequence:
#
# PCOD9028588 Si02
#       8
#     2   2   2   2   2   2   2   2
#     4  10  23  41  66  91 132 166 208 272 323 378
#     4  12  23  40  66  99 130 167 217 262 321 387
#     4  10  23  43  64  95 129 167 221 261 320 377
#     4  11  22  39  66  96 126 167 222 265 314 378
#     4  10  22  42  63  97 124 167 218 263 323 379
#     4  10  23  42  67  90 131 174 210 268 316 379
#     4  11  23  42  64  92 134 171 212 259 334 379
#     4  10  23  42  61  92 130 170 215 262 313 393
#
# _framework density 22.117497
#
# number of rings (size 3 to 8) (size 9 to 14) (size 15 to 20)
#    0.000    1.500    1.250    3.000    3.500    2.000 
#    2.250    0.000    0.000    0.000    0.000    0.000 
#    0.000    0.000    0.000    0.000    0.000    0.000 
#
# Total GULP energy -89437.042898 kJ/mol
# GULP energy per Si atom -5589.815181 kJ/mol
# Density = 2.206716 g / cm^3
# Si number density = 22.117497 Si / 1000 Ang^3
#
#
#
# Elastic Constant Matrix: (Units=GPa)
#
#
# Indices 1 2 3 4 5 6 
#
# 1 24.3601 11.4209 8.5599 -4.2509 -7.6294 6.6591
# 2 11.4209 126.9473 54.6219 0.5283 -13.4819 19.3764
# 3 8.5599 54.6219 107.4031 8.9727 -7.0581 18.1926
# 4 -4.2509 0.5283 8.9727 42.8742 4.4228 -3.3828
# 5 -7.6294 -13.4819 -7.0581 4.4228 18.7821 -0.3274
# 6 6.6591 19.3764 18.1926 -3.3828 -0.3274 27.8314
#
#
#
# Elastic Compliance Matrix: (Units=1/GPa)
#
#
# Indices 1 2 3 4 5 6 
#
# 1 0.050996 -0.000523 -0.000922 0.002426 0.019235 -0.010713
# 2 -0.000523 0.011208 -0.004428 -0.000272 0.006150 -0.004744
# 3 -0.000922 -0.004428 0.013001 -0.003409 0.002038 -0.005585
# 4 0.002426 -0.000272 -0.003409 0.025320 -0.006369 0.004840
# 5 0.019235 0.006150 0.002038 -0.006369 0.067558 -0.010195
# 6 -0.010713 -0.004744 -0.005585 0.004840 -0.010195 0.045916
#
#
# Mechanical properties :
#
#
# Convention : Reuss Voigt Hill
#
# Bulk Modulus (GPa) = 15.75835 45.32398 30.54116
# Shear Modulus (GPa) = 20.25127 30.17141 25.21134
#
# Velocity S-wave (km/s) = 3.02921 3.69744 3.37988
# Velocity P-wave (km/s) = 4.40172 6.22615 5.39166
#
# Compressibility (1/GPa) = 0.06345844
#
# Stress axis : x y z
#
# Youngs Moduli (GPa) = 19.60930 89.22266 76.91818
#
# Poissons Ratio (x) = 0.04669 0.07093
# Poissons Ratio (y) = 0.01026 0.34058
# Poissons Ratio (z) = 0.01808 0.39506
#
# Static dielectric constant tensor:
#      x y z
#    x 1.817020 0.004380 0.006140 
#    y 0.004380 1.794870 -0.051200 
#    z 0.006140 -0.051200 1.821540 
# 
# From -- ./inp_files/189452.got.cif
#   From: 2010.05.17/outbox.cif.g08.bks.cpg/sg2_95_cif.got.tgz:189452.got - 2010.06.03 11:33:40.
