data_PCOD9028874
_publ_section_title
;
Structure prediction by ZEFSAII (Michael W. Deem and Ramdas Pophale) SiO2 
 PCOD9028874
Probable space group: P -1
;
_chemical_formula_sum "Si O2"
_cell_formula_units_Z 14
_cell_length_a 20.601496
_cell_length_b 10.867610
_cell_length_c 7.529149
_cell_angle_alpha 42.694141
_cell_angle_beta 128.955387
_cell_angle_gamma 150.789397
_cell_volume 557.411545
_symmetry_space_group_name_H-M "P -1"
_symmetry_group_IT_number 2
_symmetry_cell_setting 'triclinic'
loop_
_space_group_symop_operation_xyz
x,y,z
-x,-y,-z
loop_
_atom_site_type_symbol
_atom_site_label
_atom_site_fract_x
_atom_site_fract_y
_atom_site_fract_z
Si Si1 0.201476 0.724261 0.430863
Si Si2 0.624614 0.426512 0.838113
Si Si3 0.899358 0.097107 0.103796
Si Si4 0.820283 0.451182 0.027923
Si Si5 0.282818 0.096231 0.702436
Si Si6 0.683356 0.446341 0.308613
Si Si7 0.507256 0.700300 0.583835
O O1 0.106909 0.711170 0.193726
O O2 0.149524 0.564093 0.701291
O O3 0.242359 0.620809 0.491591
O O4 0.343837 0.063072 0.348000
O O5 0.498606 0.225408 0.703875
O O6 0.687882 0.734764 0.601315
O O7 0.725909 0.462650 0.877245
O O8 0.612255 0.342802 0.105129
O O9 0.046969 0.276358 0.139503
O O10 0.839334 0.020482 0.277701
O O11 0.797444 0.791373 0.153627
O O12 0.751306 0.166374 0.113663
O O13 0.416690 0.365719 0.762250
O O14 0.576270 0.310358 0.419111
#
# Coordination Sequence:
#
# PCOD9028874 Si02
#       7
#     2   2   2   2   2   2   2
#     4  11  24  41  63  94 125 166 205 259 314 368
#     4   9  22  42  63  94 124 161 210 253 311 369
#     4  11  24  40  62  95 127 165 214 248 311 378
#     4  11  23  40  65  92 123 172 207 253 314 364
#     4   9  22  41  61  94 124 165 205 263 307 358
#     4  10  22  42  65  93 124 169 200 262 314 357
#     4   9  22  45  61  97 126 157 213 254 316 369
#
# _framework density 25.116092999999999
#
# number of rings (size 3 to 8) (size 9 to 14) (size 15 to 20)
#    0.857    1.143    0.000    2.143    2.000    9.143 
#    5.143    0.000    0.000    0.000    0.000    0.000 
#    0.000    0.000    0.000    0.000    0.000    0.000 
#
# Total GULP energy -78439.317690 kJ/mol
# GULP energy per Si atom -5602.808406 kJ/mol
# Density = 2.505893 g / cm^3
# Si number density = 25.116093 Si / 1000 Ang^3
#
#
#
# Elastic Constant Matrix: (Units=GPa)
#
#
# Indices 1 2 3 4 5 6 
#
# 1 130.0926 42.2757 13.2121 -12.0433 5.2280 -8.0084
# 2 42.2757 65.2783 12.8063 -16.2229 -2.6774 7.2891
# 3 13.2121 12.8063 75.0986 0.2189 0.6664 -8.1094
# 4 -12.0433 -16.2229 0.2189 30.4857 -2.5055 -7.9846
# 5 5.2280 -2.6774 0.6664 -2.5055 46.8259 -11.5186
# 6 -8.0084 7.2891 -8.1094 -7.9846 -11.5186 32.7229
#
#
#
# Elastic Compliance Matrix: (Units=1/GPa)
#
#
# Indices 1 2 3 4 5 6 
#
# 1 0.010319 -0.006741 -0.000212 0.001559 -0.000416 0.004208
# 2 -0.006741 0.023048 -0.003331 0.008399 0.001313 -0.005098
# 3 -0.000212 -0.003331 0.014381 -0.000784 0.000642 0.004288
# 4 0.001559 0.008399 -0.000784 0.040937 0.004982 0.010059
# 5 -0.000416 0.001313 0.000642 0.004982 0.024059 0.009449
# 6 0.004208 -0.005098 0.004288 0.010059 0.009449 0.039568
#
#
# Mechanical properties :
#
#
# Convention : Reuss Voigt Hill
#
# Bulk Modulus (GPa) = 36.79178 45.22863 41.01020
# Shear Modulus (GPa) = 27.48139 35.48526 31.48332
#
# Velocity S-wave (km/s) = 3.31142 3.76287 3.54434
# Velocity P-wave (km/s) = 5.41305 6.07666 5.75443
#
# Compressibility (1/GPa) = 0.02717999
#
# Stress axis : x y z
#
# Youngs Moduli (GPa) = 96.90875 43.38715 69.53668
#
# Poissons Ratio (x) = 0.29246 0.01477
# Poissons Ratio (y) = 0.65323 0.23163
# Poissons Ratio (z) = 0.02058 0.14453
#
# Static dielectric constant tensor:
#      x y z
#    x 1.964130 -0.026640 -0.014330 
#    y -0.026640 1.934450 -0.003370 
#    z -0.014330 -0.003370 1.974940 
# 
# From -- ./inp_files/344978.got.cif
#   From: 2010.05.17/outbox.cif.g08.bks.cpg/sg2_173_cif.got.tgz:344978.got - 2010.06.03 11:33:40.
