data_PCOD9028145
_publ_section_title
;
Structure prediction by ZEFSAII (Michael W. Deem and Ramdas Pophale) SiO2 
 PCOD9028145
Probable space group: P -1
;
_chemical_formula_sum "Si O2"
_cell_formula_units_Z 15
_cell_length_a 9.895623
_cell_length_b 13.690103
_cell_length_c 14.783461
_cell_angle_alpha 159.751309
_cell_angle_beta 82.854148
_cell_angle_gamma 95.350847
_cell_volume 686.152072
_symmetry_space_group_name_H-M "P -1"
_symmetry_group_IT_number 2
_symmetry_cell_setting 'triclinic'
loop_
_space_group_symop_operation_xyz
x,y,z
-x,-y,-z
loop_
_atom_site_type_symbol
_atom_site_label
_atom_site_fract_x
_atom_site_fract_y
_atom_site_fract_z
Si Si1 0.500000 0.000000 0.000000
Si Si2 0.975354 0.382158 0.277255
Si Si3 0.358060 0.890367 0.726348
Si Si4 0.060638 0.017644 0.792296
Si Si5 0.358286 0.367462 0.827415
Si Si6 0.532176 0.077354 0.711081
Si Si7 0.762103 0.641031 0.654051
Si Si8 0.066336 0.188940 0.732178
O O1 0.589755 0.034687 0.114317
O O2 0.356348 0.142263 0.185350
O O3 0.836935 0.435765 0.393147
O O4 0.103937 0.249036 0.211246
O O5 0.020701 0.697220 0.527662
O O6 0.967542 0.214556 0.038866
O O7 0.322249 0.562509 0.450913
O O8 0.215053 0.043338 0.837920
O O9 0.471763 0.966673 0.711797
O O10 0.054443 0.090967 0.751277
O O11 0.423042 0.291000 0.853680
O O12 0.219940 0.216868 0.713719
O O13 0.441194 0.193126 0.590850
O O14 0.348389 0.703736 0.100444
O O15 0.000000 0.000000 0.500000
O O16 0.000000 0.500000 0.000000
#
# Coordination Sequence:
#
# PCOD9028145 Si02
#       8
#     1   2   2   2   2   2   2   2
#     4  12  24  44  64 106 136 184 228 302 346 406
#     4  10  23  43  72 100 131 187 238 280 344 427
#     4  11  24  43  69  99 135 187 229 285 351 423
#     4  11  23  45  72  98 131 186 238 281 349 433
#     4  10  22  43  67 101 131 176 222 287 342 414
#     4  10  22  41  71  97 134 173 229 277 343 417
#     4  10  24  42  68  97 143 179 235 292 349 410
#     4  12  25  45  69 101 141 178 229 297 354 412
#
# _framework density 21.861042000000001
#
# number of rings (size 3 to 8) (size 9 to 14) (size 15 to 20)
#    0.000    1.333    2.667    2.000    3.733    1.600 
#    7.200    0.000    0.000    0.000    0.000    0.000 
#    0.000    0.000    0.000    0.000    0.000    0.000 
#
# Total GULP energy -83505.701140 kJ/mol
# GULP energy per Si atom -5567.046743 kJ/mol
# Density = 2.181129 g / cm^3
# Si number density = 21.861042 Si / 1000 Ang^3
#
#
#
# Elastic Constant Matrix: (Units=GPa)
#
#
# Indices 1 2 3 4 5 6 
#
# 1 83.0808 46.1442 25.5593 -1.8283 0.6370 -7.5338
# 2 46.1442 101.4144 30.4981 -12.6506 21.4874 7.1515
# 3 25.5593 30.4981 100.7684 -12.5346 10.4888 -5.1383
# 4 -1.8283 -12.6506 -12.5346 28.5314 -1.0892 5.5748
# 5 0.6370 21.4874 10.4888 -1.0892 30.6216 1.2601
# 6 -7.5338 7.1515 -5.1383 5.5748 1.2601 32.4184
#
#
#
# Elastic Compliance Matrix: (Units=1/GPa)
#
#
# Indices 1 2 3 4 5 6 
#
# 1 0.019381 -0.010841 -0.002801 -0.005904 0.007658 0.007169
# 2 -0.010841 0.019381 -0.001185 0.008462 -0.012340 -0.007958
# 3 -0.002801 -0.001185 0.011883 0.004225 -0.003067 0.000887
# 4 -0.005904 0.008462 0.004225 0.041944 -0.005376 -0.009573
# 5 0.007658 -0.012340 -0.003067 -0.005376 0.041879 0.003312
# 6 0.007169 -0.007958 0.000887 -0.009573 0.003312 0.035926
#
#
# Mechanical properties :
#
#
# Convention : Reuss Voigt Hill
#
# Bulk Modulus (GPa) = 47.63779 54.40743 51.02261
# Shear Modulus (GPa) = 24.14962 30.51842 27.33402
#
# Velocity S-wave (km/s) = 3.32729 3.74039 3.53987
# Velocity P-wave (km/s) = 6.04976 6.60272 6.33228
#
# Compressibility (1/GPa) = 0.02099174
#
# Stress axis : x y z
#
# Youngs Moduli (GPa) = 51.59817 51.59803 84.15589
#
# Poissons Ratio (x) = 0.55935 0.23570
# Poissons Ratio (y) = 0.55935 0.09971
# Poissons Ratio (z) = 0.14451 0.06113
#
# Static dielectric constant tensor:
#      x y z
#    x 1.725550 -0.038610 0.041750 
#    y -0.038610 1.775520 0.001370 
#    z 0.041750 0.001370 1.932550 
# 
# From -- ./inp_files/483808.got.cif
#   From: 2010.05.17/outbox.cif.g08.bks.cpg/sg2_242_cif.got.tgz:483808.got - 2010.06.03 11:33:40.
