data_PCOD9028416
_publ_section_title
;
Structure prediction by ZEFSAII (Michael W. Deem and Ramdas Pophale) SiO2 
 PCOD9028416
Probable space group: P -1
;
_chemical_formula_sum "Si O2"
_cell_formula_units_Z 15
_cell_length_a 12.162435
_cell_length_b 9.484891
_cell_length_c 18.338594
_cell_angle_alpha 140.920348
_cell_angle_beta 33.817577
_cell_angle_gamma 141.752743
_cell_volume 680.201824
_symmetry_space_group_name_H-M "P -1"
_symmetry_group_IT_number 2
_symmetry_cell_setting 'triclinic'
loop_
_space_group_symop_operation_xyz
x,y,z
-x,-y,-z
loop_
_atom_site_type_symbol
_atom_site_label
_atom_site_fract_x
_atom_site_fract_y
_atom_site_fract_z
Si Si1 0.878361 0.788590 0.666552
Si Si2 0.638809 0.378988 0.529201
Si Si3 0.500000 0.500000 0.500000
Si Si4 0.834964 0.005396 0.997300
Si Si5 0.974819 0.825823 0.376054
Si Si6 0.106951 0.411592 0.109224
Si Si7 0.485163 0.197210 0.031183
Si Si8 0.220152 0.034439 0.694384
O O1 0.828767 0.567838 0.549558
O O2 0.689347 0.716781 0.801465
O O3 0.098709 0.891426 0.631460
O O4 0.880381 0.010273 0.703636
O O5 0.598908 0.502223 0.528707
O O6 0.692763 0.147239 0.386188
O O7 0.422577 0.273351 0.654908
O O8 0.732756 0.713021 0.434008
O O9 0.820794 0.767418 0.954612
O O10 0.623320 0.938532 0.038711
O O11 0.041393 0.074845 0.858012
O O12 0.894795 0.232379 0.110350
O O13 0.048266 0.606485 0.264439
O O14 0.000000 0.000000 0.500000
O O15 0.296564 0.573841 0.015621
O O16 0.500000 0.000000 0.000000
#
# Coordination Sequence:
#
# PCOD9028416 Si02
#       8
#     2   2   1   2   2   2   2   2
#     4  11  22  41  64  95 129 167 215 265 321 383
#     4  11  22  38  65  90 131 170 215 266 319 382
#     4  12  24  40  62  96 128 170 216 262 324 390
#     4  10  24  43  67  95 131 170 218 267 321 386
#     4  12  25  42  65  97 133 169 215 264 324 386
#     4  11  24  46  68  95 131 173 217 267 324 383
#     4  11  23  42  68 100 128 171 218 268 325 385
#     4  10  22  42  61  95 126 171 215 263 320 381
#
# _framework density 22.052278000000001
#
# number of rings (size 3 to 8) (size 9 to 14) (size 15 to 20)
#    0.000    1.067    4.000    2.400    0.000    2.667 
#    0.000    1.333    0.000    0.000    0.000    0.000 
#    0.000    0.000    0.000    0.000    0.000    0.000 
#
# Total GULP energy -83610.529149 kJ/mol
# GULP energy per Si atom -5574.035277 kJ/mol
# Density = 2.200209 g / cm^3
# Si number density = 22.052278 Si / 1000 Ang^3
#
#
#
# Elastic Constant Matrix: (Units=GPa)
#
#
# Indices 1 2 3 4 5 6 
#
# 1 106.1218 33.5165 1.1842 21.6692 17.2701 3.4924
# 2 33.5165 117.5262 22.9340 2.8047 5.1136 -2.8177
# 3 1.1842 22.9340 48.8377 10.4085 9.3095 2.8185
# 4 21.6692 2.8047 10.4085 30.0427 1.4245 -0.3393
# 5 17.2701 5.1136 9.3095 1.4245 18.8425 -1.8172
# 6 3.4924 -2.8177 2.8185 -0.3393 -1.8172 34.8470
#
#
#
# Elastic Compliance Matrix: (Units=1/GPa)
#
#
# Indices 1 2 3 4 5 6 
#
# 1 0.016911 -0.005521 0.008737 -0.013916 -0.017642 -0.003903
# 2 -0.005521 0.011230 -0.007459 0.005283 0.005531 0.002405
# 3 0.008737 -0.007459 0.031347 -0.015539 -0.020803 -0.005250
# 4 -0.013916 0.005283 -0.015539 0.047513 0.015828 0.004367
# 5 -0.017642 0.005531 -0.020803 0.015828 0.077603 0.008099
# 6 -0.003903 0.002405 -0.005250 0.004367 0.008099 0.030172
#
#
# Mechanical properties :
#
#
# Convention : Reuss Voigt Hill
#
# Bulk Modulus (GPa) = 19.60735 43.08390 31.34562
# Shear Modulus (GPa) = 20.81065 31.06984 25.94024
#
# Velocity S-wave (km/s) = 3.07530 3.75763 3.43345
# Velocity P-wave (km/s) = 4.63902 6.19725 5.47387
#
# Compressibility (1/GPa) = 0.05100128
#
# Stress axis : x y z
#
# Youngs Moduli (GPa) = 59.13452 89.04917 31.90105
#
# Poissons Ratio (x) = 0.49168 -0.27872
# Poissons Ratio (y) = 0.32651 0.23794
# Poissons Ratio (z) = -0.51666 0.66418
#
# Static dielectric constant tensor:
#      x y z
#    x 1.807110 -0.012540 -0.024240 
#    y -0.012540 1.807240 -0.017260 
#    z -0.024240 -0.017260 1.864110 
# 
# From -- ./inp_files/398071.got.cif
#   From: 2010.05.17/outbox.cif.g08.bks.cpg/sg2_200_cif.got.tgz:398071.got - 2010.06.03 11:33:40.
