data_PCOD9028705
_publ_section_title
;
Structure prediction by ZEFSAII (Michael W. Deem and Ramdas Pophale) SiO2 
 PCOD9028705
Probable space group: P -1
;
_chemical_formula_sum "Si O2"
_cell_formula_units_Z 14
_cell_length_a 10.371076
_cell_length_b 8.519903
_cell_length_c 13.653957
_cell_angle_alpha 52.619650
_cell_angle_beta 37.024560
_cell_angle_gamma 57.208134
_cell_volume 573.187047
_symmetry_space_group_name_H-M "P -1"
_symmetry_group_IT_number 2
_symmetry_cell_setting 'triclinic'
loop_
_space_group_symop_operation_xyz
x,y,z
-x,-y,-z
loop_
_atom_site_type_symbol
_atom_site_label
_atom_site_fract_x
_atom_site_fract_y
_atom_site_fract_z
Si Si1 0.442796 0.152231 0.120404
Si Si2 0.774853 0.156552 0.764486
Si Si3 0.869528 0.152857 0.332849
Si Si4 0.020553 0.541559 0.088274
Si Si5 0.595021 0.237203 0.286519
Si Si6 0.767444 0.925938 0.164578
Si Si7 0.187554 0.251837 0.408699
O O1 0.618449 0.039003 0.129823
O O2 0.324540 0.982013 0.202524
O O3 0.290708 0.302316 0.224600
O O4 0.582604 0.245275 0.916581
O O5 0.945944 0.994964 0.780244
O O6 0.935142 0.301635 0.566486
O O7 0.989780 0.330224 0.233483
O O8 0.678027 0.243838 0.344403
O O9 0.799590 0.993131 0.511686
O O10 0.826820 0.696537 0.188276
O O11 0.000000 0.500000 0.000000
O O12 0.247097 0.633017 0.920182
O O13 0.349755 0.293084 0.381690
O O14 0.657642 0.007958 0.300943
O O15 0.000000 0.000000 0.000000
#
# Coordination Sequence:
#
# PCOD9028705 Si02
#       7
#     2   2   2   2   2   2   2
#     4  10  17  32  47  77  98 132 167 208 251 287
#     4   9  19  29  51  73 102 129 167 211 243 301
#     4   9  18  31  50  79 103 130 166 206 255 298
#     4   9  16  28  48  74 103 133 165 201 253 304
#     4   9  16  30  49  73 103 133 164 208 250 293
#     4   9  17  28  50  74  98 127 168 208 238 295
#     4   9  19  30  51  76 101 126 170 215 242 294
#
# _framework density 24.424835999999999
#
# number of rings (size 3 to 8) (size 9 to 14) (size 15 to 20)
#    0.857    2.000    0.000    3.429    0.000    0.000 
#    0.000    2.857    0.000    9.429    0.000   14.000 
#    0.000    0.143    0.000    0.000    0.000    0.000 
#
# Total GULP energy -78005.937883 kJ/mol
# GULP energy per Si atom -5571.852706 kJ/mol
# Density = 2.436924 g / cm^3
# Si number density = 24.424836 Si / 1000 Ang^3
#
#
#
# Elastic Constant Matrix: (Units=GPa)
#
#
# Indices 1 2 3 4 5 6 
#
# 1 115.8835 7.7431 27.9416 1.9062 -21.3950 14.8457
# 2 7.7431 87.9204 19.3777 -8.2799 -1.3428 -6.2425
# 3 27.9416 19.3777 122.4848 9.9674 -34.1962 9.5641
# 4 1.9062 -8.2799 9.9674 24.6067 4.8176 -3.0328
# 5 -21.3950 -1.3428 -34.1962 4.8176 31.7029 -2.3242
# 6 14.8457 -6.2425 9.5641 -3.0328 -2.3242 20.2600
#
#
#
# Elastic Compliance Matrix: (Units=1/GPa)
#
#
# Indices 1 2 3 4 5 6 
#
# 1 0.011478 -0.002411 0.001602 -0.005393 0.009485 -0.009628
# 2 -0.002411 0.014222 -0.005334 0.009758 -0.007582 0.009257
# 3 0.001602 -0.005334 0.015916 -0.013395 0.019316 -0.010120
# 4 -0.005393 0.009758 -0.013395 0.056986 -0.024945 0.018951
# 5 0.009485 -0.007582 0.019316 -0.024945 0.061140 -0.015125
# 6 -0.009628 0.009257 -0.010120 0.018951 -0.015125 0.065145
#
#
# Mechanical properties :
#
#
# Convention : Reuss Voigt Hill
#
# Bulk Modulus (GPa) = 34.09423 48.49040 41.29232
# Shear Modulus (GPa) = 20.24714 33.39567 26.82141
#
# Velocity S-wave (km/s) = 2.88229 3.70169 3.31738
# Velocity P-wave (km/s) = 5.00659 6.17787 5.62281
#
# Compressibility (1/GPa) = 0.02933048
#
# Stress axis : x y z
#
# Youngs Moduli (GPa) = 87.12653 70.31202 62.83077
#
# Poissons Ratio (x) = 0.16949 -0.10064
# Poissons Ratio (y) = 0.21002 0.33513
# Poissons Ratio (z) = -0.13956 0.37504
#
# Static dielectric constant tensor:
#      x y z
#    x 1.911920 -0.010890 -0.022800 
#    y -0.010890 1.989180 0.054200 
#    z -0.022800 0.054200 2.102970 
# 
# From -- ./inp_files/496941.got.cif
#   From: 2010.05.17/outbox.cif.g08.bks.cpg/sg2_249_cif.got.tgz:496941.got - 2010.06.03 11:33:40.
