data_PCOD9028254
_publ_section_title
;
Structure prediction by ZEFSAII (Michael W. Deem and Ramdas Pophale) SiO2 
 PCOD9028254
Probable space group: P -1
;
_chemical_formula_sum "Si O2"
_cell_formula_units_Z 16
_cell_length_a 5.483197
_cell_length_b 9.480523
_cell_length_c 20.513346
_cell_angle_alpha 124.680903
_cell_angle_beta 126.930613
_cell_angle_gamma 71.858521
_cell_volume 700.207196
_symmetry_space_group_name_H-M "P -1"
_symmetry_group_IT_number 2
_symmetry_cell_setting 'triclinic'
loop_
_space_group_symop_operation_xyz
x,y,z
-x,-y,-z
loop_
_atom_site_type_symbol
_atom_site_label
_atom_site_fract_x
_atom_site_fract_y
_atom_site_fract_z
Si Si1 0.819206 0.990667 0.902135
Si Si2 0.754508 0.794945 0.281008
Si Si3 0.852519 0.657890 0.746475
Si Si4 0.797939 0.895977 0.175123
Si Si5 0.491639 0.468925 0.212481
Si Si6 0.875166 0.679296 0.006641
Si Si7 0.574888 0.870673 0.653586
Si Si8 0.262555 0.891842 0.478308
O O1 0.457408 0.961973 0.835614
O O2 0.957570 0.842870 0.843045
O O3 0.857745 0.180332 0.929119
O O4 0.000000 0.000000 0.000000
O O5 0.785020 0.770533 0.202796
O O6 0.505094 0.665952 0.240674
O O7 0.065939 0.775310 0.365830
O O8 0.665209 0.993662 0.323291
O O9 0.681901 0.561076 0.754637
O O10 0.623568 0.710708 0.666362
O O11 0.153941 0.578730 0.744828
O O12 0.732594 0.774029 0.070084
O O13 0.114184 0.008366 0.263449
O O14 0.326975 0.354388 0.099020
O O15 0.000000 0.500000 0.000000
O O16 0.458634 0.817464 0.549084
O O17 0.500000 0.000000 0.500000
O O18 0.000000 0.000000 0.500000
#
# Coordination Sequence:
#
# PCOD9028254 Si02
#       8
#     2   2   2   2   2   2   2   2
#     4  12  24  40  63  93 135 184 238 279 337 409
#     4  11  25  45  71 102 139 182 235 289 358 415
#     4  12  26  45  67 101 137 190 231 284 345 416
#     4  12  22  40  72  96 137 182 239 285 347 408
#     4  12  29  45  67  98 148 186 231 285 352 413
#     4  12  27  41  63 101 139 182 236 288 349 401
#     4  11  23  43  74 105 135 179 240 292 351 416
#     4  10  22  41  73 111 137 171 231 299 348 412
#
# _framework density 22.850380000000001
#
# number of rings (size 3 to 8) (size 9 to 14) (size 15 to 20)
#    0.000    0.500    5.000    3.000    3.500    2.000 
#    0.000    1.250    0.000    0.000    0.000    0.000 
#    0.000    0.000    0.000    0.000    0.000    0.000 
#
# Total GULP energy -89370.584954 kJ/mol
# GULP energy per Si atom -5585.661560 kJ/mol
# Density = 2.279837 g / cm^3
# Si number density = 22.850380 Si / 1000 Ang^3
#
#
#
# Elastic Constant Matrix: (Units=GPa)
#
#
# Indices 1 2 3 4 5 6 
#
# 1 106.9857 43.7381 25.9291 -15.3541 -2.5674 19.2979
# 2 43.7381 79.5948 18.9761 -18.4297 -2.0986 12.3301
# 3 25.9291 18.9761 105.8016 -40.4015 -3.7513 15.4332
# 4 -15.3541 -18.4297 -40.4015 44.3567 13.7747 -6.0110
# 5 -2.5674 -2.0986 -3.7513 13.7747 29.4607 -2.5549
# 6 19.2979 12.3301 15.4332 -6.0110 -2.5549 46.7741
#
#
#
# Elastic Compliance Matrix: (Units=1/GPa)
#
#
# Indices 1 2 3 4 5 6 
#
# 1 0.012825 -0.006196 -0.001603 -0.000096 0.000246 -0.003128
# 2 -0.006196 0.017436 0.001065 0.006583 -0.002386 -0.001675
# 3 -0.001603 0.001065 0.015913 0.015710 -0.005657 -0.003160
# 4 -0.000096 0.006583 0.015710 0.045113 -0.018815 -0.002110
# 5 0.000246 -0.002386 -0.005657 -0.018815 0.042069 0.002274
# 6 -0.003128 -0.001675 -0.003160 -0.002110 0.002274 0.024007
#
#
# Mechanical properties :
#
#
# Convention : Reuss Voigt Hill
#
# Bulk Modulus (GPa) = 30.57657 52.18542 41.38099
# Shear Modulus (GPa) = 27.51272 37.70089 32.60680
#
# Velocity S-wave (km/s) = 3.47369 4.06631 3.78162
# Velocity P-wave (km/s) = 5.43129 6.70328 6.10053
#
# Compressibility (1/GPa) = 0.03270479
#
# Stress axis : x y z
#
# Youngs Moduli (GPa) = 77.97131 57.35357 62.84165
#
# Poissons Ratio (x) = 0.35539 0.10075
# Poissons Ratio (y) = 0.48315 -0.06694
# Poissons Ratio (z) = 0.12501 -0.06109
#
# Static dielectric constant tensor:
#      x y z
#    x 1.951320 0.008020 -0.025020 
#    y 0.008020 1.913820 0.002500 
#    z -0.025020 0.002500 1.865420 
# 
# From -- ./inp_files/51194.got.cif
#   From: 2010.05.17/outbox.cif.g08.bks.cpg/sg2_26_cif.got.tgz:51194.got - 2010.06.03 11:33:40.
