data_PCOD9028269
_publ_section_title
;
Structure prediction by ZEFSAII (Michael W. Deem and Ramdas Pophale) SiO2 
 PCOD9028269
Probable space group: P -1
;
_chemical_formula_sum "Si O2"
_cell_formula_units_Z 16
_cell_length_a 8.113732
_cell_length_b 10.797502
_cell_length_c 7.968192
_cell_angle_alpha 70.079212
_cell_angle_beta 106.343751
_cell_angle_gamma 93.804443
_cell_volume 629.449537
_symmetry_space_group_name_H-M "P -1"
_symmetry_group_IT_number 2
_symmetry_cell_setting 'triclinic'
loop_
_space_group_symop_operation_xyz
x,y,z
-x,-y,-z
loop_
_atom_site_type_symbol
_atom_site_label
_atom_site_fract_x
_atom_site_fract_y
_atom_site_fract_z
Si Si1 0.083776 0.448418 0.266773
Si Si2 0.686245 0.265215 0.541532
Si Si3 0.779382 0.825651 0.972721
Si Si4 0.259920 0.983561 0.570431
Si Si5 0.565408 0.074970 0.818331
Si Si6 0.078500 0.342150 0.663943
Si Si7 0.413608 0.408542 0.159433
Si Si8 0.024251 0.823692 0.773897
O O1 0.944533 0.562352 0.224926
O O2 0.243856 0.470252 0.178831
O O3 0.982904 0.323721 0.227881
O O4 0.153573 0.407527 0.490344
O O5 0.698197 0.133206 0.492712
O O6 0.882987 0.307748 0.584360
O O7 0.555721 0.364874 0.360522
O O8 0.626138 0.222577 0.731649
O O9 0.720471 0.974229 0.864466
O O10 0.655264 0.726071 0.885809
O O11 0.968195 0.817211 0.951213
O O12 0.800677 0.779619 0.190370
O O13 0.419249 0.060211 0.644258
O O14 0.190838 0.902493 0.747574
O O15 0.122254 0.089798 0.408237
O O16 0.500000 0.000000 0.000000
O O17 0.500000 0.500000 0.000000
#
# Coordination Sequence:
#
# PCOD9028269 Si02
#       8
#     2   2   2   2   2   2   2   2
#     4  10  24  48  67 100 142 187 230 290 356 413
#     4  12  25  48  71 103 143 188 227 290 360 420
#     4  11  25  44  68 103 140 178 241 287 343 418
#     4  11  22  43  69 101 136 183 231 284 358 421
#     4  12  27  42  69 104 148 181 231 292 358 416
#     4  11  27  44  71 104 144 184 236 296 349 414
#     4  11  27  46  74 101 138 191 241 284 349 431
#     4  10  22  41  73  98 132 188 233 287 343 426
#
# _framework density 25.419034
#
# number of rings (size 3 to 8) (size 9 to 14) (size 15 to 20)
#    0.000    1.000    3.750    1.875    8.750    5.000 
#    0.000    0.000    0.000    0.000    0.000    0.000 
#    0.000    0.000    0.000    0.000    0.000    0.000 
#
# Total GULP energy -89494.309949 kJ/mol
# GULP energy per Si atom -5593.394372 kJ/mol
# Density = 2.536118 g / cm^3
# Si number density = 25.419034 Si / 1000 Ang^3
#
#
#
# Elastic Constant Matrix: (Units=GPa)
#
#
# Indices 1 2 3 4 5 6 
#
# 1 65.0505 31.0728 31.6737 -2.9551 -16.9150 16.5461
# 2 31.0728 57.5604 9.1234 -1.3760 -8.8954 0.3447
# 3 31.6737 9.1234 141.8775 -28.3189 -17.6327 3.0622
# 4 -2.9551 -1.3760 -28.3189 32.4648 6.2281 1.0380
# 5 -16.9150 -8.8954 -17.6327 6.2281 57.0966 -4.6773
# 6 16.5461 0.3447 3.0622 1.0380 -4.6773 31.1569
#
#
#
# Elastic Compliance Matrix: (Units=1/GPa)
#
#
# Indices 1 2 3 4 5 6 
#
# 1 0.029402 -0.014386 -0.005435 -0.002977 0.003950 -0.014229
# 2 -0.014386 0.024947 0.001707 0.000880 0.000651 0.007264
# 3 -0.005435 0.001707 0.009809 0.007891 0.000971 0.001786
# 4 -0.002977 0.000880 0.007891 0.037962 -0.002518 -0.000847
# 5 0.003950 0.000651 0.000971 -0.002518 0.019426 0.000800
# 6 -0.014229 0.007264 0.001786 -0.000847 0.000800 0.039544
#
#
# Mechanical properties :
#
#
# Convention : Reuss Voigt Hill
#
# Bulk Modulus (GPa) = 35.80430 45.35868 40.58149
# Shear Modulus (GPa) = 24.19819 36.98490 30.59154
#
# Velocity S-wave (km/s) = 3.08875 3.81859 3.47290
# Velocity P-wave (km/s) = 5.18042 6.10945 5.66401
#
# Compressibility (1/GPa) = 0.02792960
#
# Stress axis : x y z
#
# Youngs Moduli (GPa) = 34.01151 40.08562 101.94758
#
# Poissons Ratio (x) = 0.57667 0.55409
# Poissons Ratio (y) = 0.48929 -0.17405
# Poissons Ratio (z) = 0.18485 -0.06843
#
# Static dielectric constant tensor:
#      x y z
#    x 2.035340 -0.056570 -0.108460 
#    y -0.056570 2.035810 0.018090 
#    z -0.108460 0.018090 2.079750 
# 
# From -- ./inp_files/175353.got.cif
#   From: 2010.05.17/outbox.cif.g08.bks.cpg/sg2_88_cif.got.tgz:175353.got - 2010.06.03 11:33:40.
