data_PCOD9028340
_publ_section_title
;
Structure prediction by ZEFSAII (Michael W. Deem and Ramdas Pophale) SiO2 
 PCOD9028340
Probable space group: P -1
;
_chemical_formula_sum "Si O2"
_cell_formula_units_Z 14
_cell_length_a 16.453150
_cell_length_b 5.425479
_cell_length_c 9.635417
_cell_angle_alpha 113.122119
_cell_angle_beta 126.044068
_cell_angle_gamma 67.394559
_cell_volume 625.851439
_symmetry_space_group_name_H-M "P -1"
_symmetry_group_IT_number 2
_symmetry_cell_setting 'triclinic'
loop_
_space_group_symop_operation_xyz
x,y,z
-x,-y,-z
loop_
_atom_site_type_symbol
_atom_site_label
_atom_site_fract_x
_atom_site_fract_y
_atom_site_fract_z
Si Si1 0.955570 0.930037 0.583866
Si Si2 0.883651 0.510818 0.733690
Si Si3 0.436701 0.305501 0.474050
Si Si4 0.066370 0.773294 0.918166
Si Si5 0.754184 0.860119 0.250265
Si Si6 0.697462 0.521437 0.359065
Si Si7 0.235163 0.368910 0.097270
O O1 0.868702 0.771493 0.411815
O O2 0.054013 0.829221 0.756245
O O3 0.893588 0.184198 0.669041
O O4 0.000000 0.000000 0.500000
O O5 0.793089 0.608992 0.555594
O O6 0.849235 0.661295 0.876801
O O7 0.995345 0.545686 0.809298
O O8 0.500000 0.500000 0.500000
O O9 0.394431 0.414045 0.607172
O O10 0.339453 0.315280 0.276246
O O11 0.500000 0.000000 0.500000
O O12 0.182489 0.677753 0.063423
O O13 0.000000 0.000000 0.000000
O O14 0.686861 0.696511 0.244098
O O15 0.722459 0.191686 0.294994
O O16 0.755121 0.785863 0.072492
#
# Coordination Sequence:
#
# PCOD9028340 Si02
#       7
#     2   2   2   2   2   2   2
#     4  11  24  39  60  94 148 192 227 275 341 407
#     4  10  22  42  57  95 138 185 228 275 335 415
#     4  11  26  52  79 103 134 183 236 296 361 420
#     4  12  24  38  66  99 141 187 240 281 335 412
#     4  11  24  43  67 106 144 182 228 283 347 413
#     4  10  23  45  73 100 141 183 223 283 350 420
#     4  11  26  42  69 102 136 181 242 289 347 418
#
# _framework density 22.369526
#
# number of rings (size 3 to 8) (size 9 to 14) (size 15 to 20)
#    0.000    1.143    2.857    2.143    6.000    4.571 
#    0.000    4.286    0.000    0.000    0.000    0.000 
#    0.000    0.000    0.000    0.000    0.000    0.000 
#
# Total GULP energy -78044.503852 kJ/mol
# GULP energy per Si atom -5574.607418 kJ/mol
# Density = 2.231861 g / cm^3
# Si number density = 22.369526 Si / 1000 Ang^3
#
#
#
# Elastic Constant Matrix: (Units=GPa)
#
#
# Indices 1 2 3 4 5 6 
#
# 1 125.1804 46.0006 45.6801 -7.2977 -39.4715 12.6364
# 2 46.0006 117.6725 59.7005 -3.0826 -21.7583 -8.0077
# 3 45.6801 59.7005 106.7454 -11.6470 -46.0655 -4.3393
# 4 -7.2977 -3.0826 -11.6470 41.6913 -6.5343 -5.6999
# 5 -39.4715 -21.7583 -46.0655 -6.5343 48.1341 -4.9904
# 6 12.6364 -8.0077 -4.3393 -5.6999 -4.9904 38.9118
#
#
#
# Elastic Compliance Matrix: (Units=1/GPa)
#
#
# Indices 1 2 3 4 5 6 
#
# 1 0.012572 -0.003864 0.001378 0.003475 0.010051 -0.002926
# 2 -0.003864 0.013283 -0.008167 -0.002495 -0.005106 0.002057
# 3 0.001378 -0.008167 0.024712 0.010870 0.023101 0.005182
# 4 0.003475 -0.002495 0.010870 0.030967 0.016980 0.006284
# 5 0.010051 -0.005106 0.023101 0.016980 0.051890 0.007404
# 6 -0.002926 0.002057 0.005182 0.006284 0.007404 0.029521
#
#
# Mechanical properties :
#
#
# Convention : Reuss Voigt Hill
#
# Bulk Modulus (GPa) = 34.17440 72.48452 53.32946
# Shear Modulus (GPa) = 25.77258 38.96192 32.36725
#
# Velocity S-wave (km/s) = 3.39798 4.17794 3.80799
# Velocity P-wave (km/s) = 5.54125 7.46641 6.57467
#
# Compressibility (1/GPa) = 0.02926167
#
# Stress axis : x y z
#
# Youngs Moduli (GPa) = 79.53875 75.28545 40.46610
#
# Poissons Ratio (x) = 0.29089 -0.05577
# Poissons Ratio (y) = 0.30732 0.33050
# Poissons Ratio (z) = -0.10963 0.61488
#
# Static dielectric constant tensor:
#      x y z
#    x 1.856890 0.054650 0.008160 
#    y 0.054650 2.013310 0.000650 
#    z 0.008160 0.000650 1.848730 
# 
# From -- ./inp_files/137350.got.cif
#   From: 2010.05.17/outbox.cif.g08.bks.cpg/sg2_69_cif.got.tgz:137350.got - 2010.06.03 11:33:40.
