data_PCOD9028708
_publ_section_title
;
Structure prediction by ZEFSAII (Michael W. Deem and Ramdas Pophale) SiO2 
 PCOD9028708
Probable space group: P -1
;
_chemical_formula_sum "Si O2"
_cell_formula_units_Z 13
_cell_length_a 8.347906
_cell_length_b 11.334674
_cell_length_c 14.341561
_cell_angle_alpha 135.188883
_cell_angle_beta 143.709461
_cell_angle_gamma 43.595119
_cell_volume 526.928607
_symmetry_space_group_name_H-M "P -1"
_symmetry_group_IT_number 2
_symmetry_cell_setting 'triclinic'
loop_
_space_group_symop_operation_xyz
x,y,z
-x,-y,-z
loop_
_atom_site_type_symbol
_atom_site_label
_atom_site_fract_x
_atom_site_fract_y
_atom_site_fract_z
Si Si1 0.892107 0.450690 0.630137
Si Si2 0.000000 0.500000 0.500000
Si Si3 0.018076 0.091407 0.288447
Si Si4 0.246515 0.883810 0.621164
Si Si5 0.576769 0.240146 0.800161
Si Si6 0.865736 0.520765 0.050309
Si Si7 0.616457 0.102567 0.933293
O O1 0.843342 0.543986 0.558608
O O2 0.708232 0.323331 0.487352
O O3 0.233836 0.314429 0.698694
O O4 0.922050 0.536098 0.792360
O O5 0.982268 0.708286 0.601447
O O6 0.880045 0.065716 0.306331
O O7 0.810314 0.075680 0.099221
O O8 0.315190 0.925805 0.312545
O O9 0.000000 0.000000 0.500000
O O10 0.526949 0.936167 0.770614
O O11 0.728147 0.173295 0.933553
O O12 0.657535 0.405352 0.893688
O O13 0.678993 0.730918 0.089093
O O14 0.000000 0.500000 0.000000
#
# Coordination Sequence:
#
# PCOD9028708 Si02
#       7
#     2   1   2   2   2   2   2
#     4  10  22  42  66  96 133 177 215 275 330 392
#     4  10  22  42  64  94 136 164 216 274 332 382
#     4  11  24  40  68  95 130 173 221 271 331 393
#     4  11  21  40  63  91 130 175 212 270 328 385
#     4  11  22  38  68  96 126 174 222 266 326 395
#     4  11  22  38  66  95 135 172 220 267 331 398
#     4  11  22  43  65  95 135 172 222 272 324 394
#
# _framework density 24.671272999999999
#
# number of rings (size 3 to 8) (size 9 to 14) (size 15 to 20)
#    0.000    1.231    3.077    5.538    0.000    2.462 
#    0.000    3.077    0.000    5.538    0.000    0.000 
#    0.000    0.000    0.000    0.000    0.000    0.000 
#
# Total GULP energy -72526.493838 kJ/mol
# GULP energy per Si atom -5578.961064 kJ/mol
# Density = 2.461512 g / cm^3
# Si number density = 24.671273 Si / 1000 Ang^3
#
#
#
# Elastic Constant Matrix: (Units=GPa)
#
#
# Indices 1 2 3 4 5 6 
#
# 1 105.7088 13.9706 25.2459 8.3489 -13.6011 36.1292
# 2 13.9706 58.1072 37.9450 9.9905 19.6622 23.1630
# 3 25.2459 37.9450 122.7578 9.6938 -1.4515 14.3906
# 4 8.3489 9.9905 9.6938 40.1665 13.0341 -6.2550
# 5 -13.6011 19.6622 -1.4515 13.0341 37.1815 3.8667
# 6 36.1292 23.1630 14.3906 -6.2550 3.8667 44.2576
#
#
#
# Elastic Compliance Matrix: (Units=1/GPa)
#
#
# Indices 1 2 3 4 5 6 
#
# 1 0.017550 0.001269 -0.001099 -0.009894 0.010941 -0.016988
# 2 0.001269 0.034970 -0.009080 -0.004255 -0.015263 -0.015654
# 3 -0.001099 -0.009080 0.011229 -0.001748 0.005317 0.001287
# 4 -0.009894 -0.004255 -0.001748 0.036330 -0.015983 0.017403
# 5 0.010941 -0.015263 0.005317 -0.015983 0.045707 -0.008924
# 6 -0.016988 -0.015654 0.001287 0.017403 -0.008924 0.047476
#
#
# Mechanical properties :
#
#
# Convention : Reuss Voigt Hill
#
# Bulk Modulus (GPa) = 21.77284 48.98854 35.38069
# Shear Modulus (GPa) = 22.08556 38.28192 30.18374
#
# Velocity S-wave (km/s) = 2.99522 3.94341 3.50156
# Velocity P-wave (km/s) = 4.56138 6.37445 5.54255
#
# Compressibility (1/GPa) = 0.04592878
#
# Stress axis : x y z
#
# Youngs Moduli (GPa) = 56.97993 28.59587 89.05617
#
# Poissons Ratio (x) = -0.03629 0.09792
# Poissons Ratio (y) = -0.07232 0.80861
# Poissons Ratio (z) = 0.06265 0.25965
#
# Static dielectric constant tensor:
#      x y z
#    x 1.976560 -0.106580 -0.021400 
#    y -0.106580 2.032930 -0.061090 
#    z -0.021400 -0.061090 1.969800 
# 
# From -- ./inp_files/498571.got.cif
#   From: 2010.05.17/outbox.cif.g08.bks.cpg/sg2_250_cif.got.tgz:498571.got - 2010.06.03 11:33:40.
