data_PCOD9028117
_publ_section_title
;
Structure prediction by ZEFSAII (Michael W. Deem and Ramdas Pophale) SiO2 
 PCOD9028117
Probable space group: P -1
;
_chemical_formula_sum "Si O2"
_cell_formula_units_Z 14
_cell_length_a 17.270109
_cell_length_b 7.141307
_cell_length_c 18.491470
_cell_angle_alpha 131.325887
_cell_angle_beta 157.866334
_cell_angle_gamma 59.138150
_cell_volume 604.725497
_symmetry_space_group_name_H-M "P -1"
_symmetry_group_IT_number 2
_symmetry_cell_setting 'triclinic'
loop_
_space_group_symop_operation_xyz
x,y,z
-x,-y,-z
loop_
_atom_site_type_symbol
_atom_site_label
_atom_site_fract_x
_atom_site_fract_y
_atom_site_fract_z
Si Si1 0.347516 0.158795 0.048675
Si Si2 0.058197 0.413652 0.923857
Si Si3 0.757016 0.183247 0.986153
Si Si4 0.042786 0.796296 0.581856
Si Si5 0.264263 0.145518 0.553499
Si Si6 0.246686 0.330982 0.220313
Si Si7 0.163863 0.607361 0.496211
O O1 0.605399 0.239274 0.301814
O O2 0.236085 0.954538 0.964779
O O3 0.255330 0.400432 0.039565
O O4 0.260137 0.004715 0.859503
O O5 0.930082 0.621630 0.866170
O O6 0.174315 0.424377 0.105105
O O7 0.862647 0.132451 0.667406
O O8 0.521488 0.210332 0.791744
O O9 0.767620 0.970142 0.881756
O O10 0.966076 0.450246 0.233071
O O11 0.078019 0.773380 0.521709
O O12 0.000000 0.500000 0.500000
O O13 0.844740 0.869685 0.465015
O O14 0.221664 0.383872 0.535301
O O15 0.500000 0.500000 0.500000
#
# Coordination Sequence:
#
# PCOD9028117 Si02
#       7
#     2   2   2   2   2   2   2
#     4  10  20  38  60  81 116 149 183 231 279 330
#     4   9  18  34  56  83 109 147 186 226 280 331
#     4  11  21  37  57  84 113 147 187 235 278 327
#     4   9  17  37  61  79 111 154 183 224 281 329
#     4  10  19  36  59  82 114 148 185 231 278 328
#     4  10  17  31  61  83 105 148 191 224 277 336
#     4  11  21  39  56  82 116 150 186 228 279 334
#
# _framework density 23.151001000000001
#
# number of rings (size 3 to 8) (size 9 to 14) (size 15 to 20)
#    0.000    2.000    7.143    0.429    0.000    0.571 
#    5.143    1.429    0.000    4.286    0.000    0.000 
#    0.000    0.000    0.000    0.000    0.000    0.000 
#
# Total GULP energy -78210.030389 kJ/mol
# GULP energy per Si atom -5586.430742 kJ/mol
# Density = 2.309831 g / cm^3
# Si number density = 23.151001 Si / 1000 Ang^3
#
#
#
# Elastic Constant Matrix: (Units=GPa)
#
#
# Indices 1 2 3 4 5 6 
#
# 1 70.3766 39.2026 46.5083 6.8700 0.2601 -17.7297
# 2 39.2026 108.7919 68.0928 -29.2446 -2.7401 -39.1936
# 3 46.5083 68.0928 201.1008 -18.4646 10.2851 -41.1278
# 4 6.8700 -29.2446 -18.4646 41.4329 -7.3601 -1.5150
# 5 0.2601 -2.7401 10.2851 -7.3601 35.6538 7.2733
# 6 -17.7297 -39.1936 -41.1278 -1.5150 7.2733 33.2269
#
#
#
# Elastic Compliance Matrix: (Units=1/GPa)
#
#
# Indices 1 2 3 4 5 6 
#
# 1 0.023733 -0.013327 -0.004078 -0.015743 -0.001540 -0.008485
# 2 -0.013327 0.033029 0.001510 0.027611 0.000800 0.034802
# 3 -0.004078 0.001510 0.008268 0.005224 -0.003367 0.010815
# 4 -0.015743 0.027611 0.005224 0.050556 0.004654 0.031921
# 5 -0.001540 0.000800 -0.003367 0.004654 0.032276 -0.010898
# 6 -0.008485 0.034802 0.010815 0.031921 -0.010898 0.083847
#
#
# Mechanical properties :
#
#
# Convention : Reuss Voigt Hill
#
# Bulk Modulus (GPa) = 30.08460 76.43073 53.25767
# Shear Modulus (GPa) = 18.20964 37.16042 27.68503
#
# Velocity S-wave (km/s) = 2.80761 4.01076 3.46185
# Velocity P-wave (km/s) = 4.85112 7.38471 6.24769
#
# Compressibility (1/GPa) = 0.03323959
#
# Stress axis : x y z
#
# Youngs Moduli (GPa) = 42.13540 30.27630 120.94778
#
# Poissons Ratio (x) = 0.40350 0.49325
# Poissons Ratio (y) = 0.56155 -0.18266
# Poissons Ratio (z) = 0.17184 -0.04572
#
# Static dielectric constant tensor:
#      x y z
#    x 1.925100 0.031680 0.002410 
#    y 0.031680 1.916350 -0.000900 
#    z 0.002410 -0.000900 1.807050 
# 
# From -- ./inp_files/276902.got.cif
#   From: 2010.05.17/outbox.cif.g08.bks.cpg/sg2_139_cif.got.tgz:276902.got - 2010.06.03 11:33:40.
