data_PCOD9028805
_publ_section_title
;
Structure prediction by ZEFSAII (Michael W. Deem and Ramdas Pophale) SiO2 
 PCOD9028805
Probable space group: P -1
;
_chemical_formula_sum "Si O2"
_cell_formula_units_Z 16
_cell_length_a 12.443950
_cell_length_b 14.772632
_cell_length_c 21.513719
_cell_angle_alpha 151.541170
_cell_angle_beta 25.777680
_cell_angle_gamma 156.359409
_cell_volume 655.463295
_symmetry_space_group_name_H-M "P -1"
_symmetry_group_IT_number 2
_symmetry_cell_setting 'triclinic'
loop_
_space_group_symop_operation_xyz
x,y,z
-x,-y,-z
loop_
_atom_site_type_symbol
_atom_site_label
_atom_site_fract_x
_atom_site_fract_y
_atom_site_fract_z
Si Si1 0.167573 0.483870 0.027225
Si Si2 0.182298 0.276526 0.500719
Si Si3 0.520945 0.836105 0.811019
Si Si4 0.563927 0.753298 0.877952
Si Si5 0.564714 0.760374 0.211288
Si Si6 0.118651 0.615536 0.666104
Si Si7 0.460866 0.902487 0.218245
Si Si8 0.141816 0.759637 0.611868
O O1 0.401374 0.731253 0.090370
O O2 0.823366 0.398707 0.164544
O O3 0.264813 0.520255 0.926189
O O4 0.193683 0.289400 0.926979
O O5 0.500000 0.500000 0.500000
O O6 0.250091 0.110174 0.331423
O O7 0.128359 0.403079 0.550394
O O8 0.867776 0.147311 0.625651
O O9 0.609409 0.777347 0.794541
O O10 0.482969 0.044041 0.962838
O O11 0.847340 0.766711 0.768023
O O12 0.570427 0.835304 0.182170
O O13 0.237320 0.505100 0.232540
O O14 0.595569 0.951850 0.358992
O O15 0.274273 0.735773 0.592963
O O16 0.278614 0.817897 0.757108
O O17 0.000000 0.500000 0.500000
#
# Coordination Sequence:
#
# PCOD9028805 Si02
#       8
#     2   2   2   2   2   2   2   2
#     4  12  22  42  69 101 142 185 226 284 347 418
#     4  11  23  43  69  98 140 185 226 285 348 409
#     4  11  25  45  65  99 145 181 238 282 342 420
#     4  11  25  43  68 100 135 188 232 285 344 413
#     4  10  22  42  65 103 138 179 224 288 353 407
#     4  10  23  43  64 103 136 173 238 282 342 408
#     4  10  24  40  70 104 139 182 231 284 347 411
#     4  11  22  43  70  97 134 179 234 286 344 415
#
# _framework density 24.410215000000001
#
# number of rings (size 3 to 8) (size 9 to 14) (size 15 to 20)
#    0.000    1.250    3.750    1.500    1.750    2.500 
#    0.000    7.500    0.000    0.000    0.000    0.000 
#    0.000    0.000    0.000    0.000    0.000    0.000 
#
# Total GULP energy -89260.984594 kJ/mol
# GULP energy per Si atom -5578.811537 kJ/mol
# Density = 2.435466 g / cm^3
# Si number density = 24.410215 Si / 1000 Ang^3
#
#
#
# Elastic Constant Matrix: (Units=GPa)
#
#
# Indices 1 2 3 4 5 6 
#
# 1 87.7752 -0.0742 22.3839 -0.4117 -9.4105 -9.1837
# 2 -0.0742 84.2563 20.7174 12.6744 1.7310 7.6786
# 3 22.3839 20.7174 100.8894 7.1617 1.4849 -0.5784
# 4 -0.4117 12.6744 7.1617 37.0858 11.2686 4.5677
# 5 -9.4105 1.7310 1.4849 11.2686 33.0050 0.3857
# 6 -9.1837 7.6786 -0.5784 4.5677 0.3857 20.7176
#
#
#
# Elastic Compliance Matrix: (Units=1/GPa)
#
#
# Indices 1 2 3 4 5 6 
#
# 1 0.013209 0.000321 -0.002925 -0.001430 0.004301 0.005890
# 2 0.000321 0.013440 -0.002594 -0.003849 0.000865 -0.004079
# 3 -0.002925 -0.002594 0.011184 -0.001080 -0.000835 0.000231
# 4 -0.001430 -0.003849 -0.001080 0.032653 -0.011233 -0.006228
# 5 0.004301 0.000865 -0.000835 -0.011233 0.035312 0.003382
# 6 0.005890 -0.004079 0.000231 -0.006228 0.003382 0.053707
#
#
# Mechanical properties :
#
#
# Convention : Reuss Voigt Hill
#
# Bulk Modulus (GPa) = 36.44658 39.88611 38.16634
# Shear Modulus (GPa) = 27.92568 33.48794 30.70681
#
# Velocity S-wave (km/s) = 3.38600 3.70791 3.55061
# Velocity P-wave (km/s) = 5.50000 5.89125 5.69898
#
# Compressibility (1/GPa) = 0.02743742
#
# Stress axis : x y z
#
# Youngs Moduli (GPa) = 75.70318 74.40705 89.41613
#
# Poissons Ratio (x) = -0.02387 0.26151
# Poissons Ratio (y) = -0.02428 0.23193
# Poissons Ratio (z) = 0.22140 0.19300
#
# Static dielectric constant tensor:
#      x y z
#    x 1.975360 -0.005020 0.023390 
#    y -0.005020 2.048260 -0.023870 
#    z 0.023390 -0.023870 1.993420 
# 
# From -- ./inp_files/428468.got.cif
#   From: 2010.05.17/outbox.cif.g08.bks.cpg/sg2_215_cif.got.tgz:428468.got - 2010.06.03 11:33:40.
