data_PCOD9028835
_publ_section_title
;
Structure prediction by ZEFSAII (Michael W. Deem and Ramdas Pophale) SiO2 
 PCOD9028835
Probable space group: P -1
;
_chemical_formula_sum "Si O2"
_cell_formula_units_Z 16
_cell_length_a 24.397366
_cell_length_b 21.788531
_cell_length_c 9.926232
_cell_angle_alpha 26.922805
_cell_angle_beta 36.081718
_cell_angle_gamma 19.946786
_cell_volume 799.598766
_symmetry_space_group_name_H-M "P -1"
_symmetry_group_IT_number 2
_symmetry_cell_setting 'triclinic'
loop_
_space_group_symop_operation_xyz
x,y,z
-x,-y,-z
loop_
_atom_site_type_symbol
_atom_site_label
_atom_site_fract_x
_atom_site_fract_y
_atom_site_fract_z
Si Si1 0.132929 0.731265 0.822138
Si Si2 0.424665 0.565122 0.671361
Si Si3 0.454147 0.199004 0.136163
Si Si4 0.855320 0.640971 0.111582
Si Si5 0.429910 0.829945 0.306225
Si Si6 0.985254 0.620332 0.420641
Si Si7 0.385379 0.889507 0.749001
Si Si8 0.411180 0.238352 0.647602
O O1 0.259643 0.670653 0.779206
O O2 0.270251 0.482393 0.948159
O O3 0.000000 0.000000 0.500000
O O4 0.036057 0.716571 0.102834
O O5 0.500000 0.500000 0.500000
O O6 0.391246 0.742258 0.471527
O O7 0.567330 0.322755 0.950409
O O8 0.557626 0.163200 0.106225
O O9 0.500000 0.000000 0.500000
O O10 0.512277 0.136033 0.991775
O O11 0.770911 0.597871 0.331576
O O12 0.904293 0.572921 0.302962
O O13 0.000000 0.500000 0.000000
O O14 0.729905 0.915042 0.808911
O O15 0.562979 0.673281 0.468057
O O16 0.000000 0.500000 0.500000
O O17 0.800812 0.844359 0.405376
O O18 0.500181 0.832147 0.530050
O O19 0.500000 0.000000 0.000000
#
# Coordination Sequence:
#
# PCOD9028835 Si02
#       8
#     2   2   2   2   2   2   2   2
#     4  11  24  38  64 100 146 171 209 289 350 379
#     4  11  22  43  65  93 134 176 222 271 326 408
#     4  11  21  39  66  98 125 176 234 273 322 403
#     4  11  24  43  64  98 139 167 219 291 337 382
#     4  11  22  41  69  91 126 181 229 263 330 414
#     4  12  25  39  66 103 133 173 227 279 338 394
#     4  11  22  40  65  88 130 171 216 271 326 391
#     4  10  22  42  65  90 126 174 224 267 326 399
#
# _framework density 20.010037000000001
#
# number of rings (size 3 to 8) (size 9 to 14) (size 15 to 20)
#    0.000    1.000    2.500    7.500    1.750    1.500 
#    0.000    0.000    0.000    3.000    0.000    0.000 
#    0.000    0.000    0.000    0.000    0.000    0.000 
#
# Total GULP energy -89088.213242 kJ/mol
# GULP energy per Si atom -5568.013328 kJ/mol
# Density = 1.996449 g / cm^3
# Si number density = 20.010037 Si / 1000 Ang^3
#
#
#
# Elastic Constant Matrix: (Units=GPa)
#
#
# Indices 1 2 3 4 5 6 
#
# 1 135.0097 44.2277 28.1503 14.1541 -10.1289 -2.3110
# 2 44.2277 118.6732 15.8749 7.0679 -13.9234 -1.6400
# 3 28.1503 15.8749 70.1998 -2.7910 -22.8441 -0.4811
# 4 14.1541 7.0679 -2.7910 40.1808 -0.9121 1.2988
# 5 -10.1289 -13.9234 -22.8441 -0.9121 35.5783 -3.5142
# 6 -2.3110 -1.6400 -0.4811 1.2988 -3.5142 26.8686
#
#
#
# Elastic Compliance Matrix: (Units=1/GPa)
#
#
# Indices 1 2 3 4 5 6 
#
# 1 0.009359 -0.002920 -0.003439 -0.003058 -0.000703 0.000621
# 2 -0.002920 0.009938 -0.000106 -0.000683 0.003050 0.000786
# 3 -0.003439 -0.000106 0.019604 0.002812 0.011783 0.001454
# 4 -0.003058 -0.000683 0.002812 0.026352 0.001208 -0.001370
# 5 -0.000703 0.003050 0.011783 0.001208 0.037205 0.005144
# 6 0.000621 0.000786 0.001454 -0.001370 0.005144 0.038085
#
#
# Mechanical properties :
#
#
# Convention : Reuss Voigt Hill
#
# Bulk Modulus (GPa) = 38.50253 55.59870 47.05062
# Shear Modulus (GPa) = 30.83971 36.23419 33.53695
#
# Velocity S-wave (km/s) = 3.93009 4.25997 4.09835
# Velocity P-wave (km/s) = 6.31486 7.21402 6.77937
#
# Compressibility (1/GPa) = 0.02597232
#
# Stress axis : x y z
#
# Youngs Moduli (GPa) = 106.85108 100.62200 51.01011
#
# Poissons Ratio (x) = 0.29378 0.17542
# Poissons Ratio (y) = 0.31197 0.00540
# Poissons Ratio (z) = 0.36744 0.01065
#
# Static dielectric constant tensor:
#      x y z
#    x 1.820390 -0.014710 -0.094440 
#    y -0.014710 1.742480 -0.054380 
#    z -0.094440 -0.054380 1.838430 
# 
# From -- ./inp_files/227375.got.cif
#   From: 2010.05.17/outbox.cif.g08.bks.cpg/sg2_114_cif.got.tgz:227375.got - 2010.06.03 11:33:40.
