data_PCOD9028086
_publ_section_title
;
Structure prediction by ZEFSAII (Michael W. Deem and Ramdas Pophale) SiO2 
 PCOD9028086
Probable space group: P -1
;
_chemical_formula_sum "Si O2"
_cell_formula_units_Z 14
_cell_length_a 8.898014
_cell_length_b 11.726931
_cell_length_c 9.772914
_cell_angle_alpha 105.737576
_cell_angle_beta 87.429995
_cell_angle_gamma 38.534631
_cell_volume 552.474643
_symmetry_space_group_name_H-M "P -1"
_symmetry_group_IT_number 2
_symmetry_cell_setting 'triclinic'
loop_
_space_group_symop_operation_xyz
x,y,z
-x,-y,-z
loop_
_atom_site_type_symbol
_atom_site_label
_atom_site_fract_x
_atom_site_fract_y
_atom_site_fract_z
Si Si1 0.147177 0.999523 0.396391
Si Si2 0.636876 0.649338 0.444974
Si Si3 0.850156 0.757218 0.830694
Si Si4 0.521238 0.194229 0.036232
Si Si5 0.188767 0.223611 0.576496
Si Si6 0.149653 0.949951 0.775450
Si Si7 0.072985 0.643088 0.088664
O O1 0.065816 0.185054 0.505089
O O2 0.043823 0.027305 0.261672
O O3 0.455478 0.782755 0.357980
O O4 0.000000 0.000000 0.500000
O O5 0.799796 0.663719 0.470010
O O6 0.417615 0.769899 0.610184
O O7 0.879221 0.405504 0.319613
O O8 0.678290 0.747685 0.831427
O O9 0.949548 0.694574 0.964031
O O10 0.651592 0.996167 0.890434
O O11 0.735518 0.120407 0.099479
O O12 0.360031 0.395333 0.020002
O O13 0.087461 0.306726 0.760869
O O14 0.500000 0.000000 0.500000
O O15 0.980486 0.181371 0.835784
#
# Coordination Sequence:
#
# PCOD9028086 Si02
#       7
#     2   2   2   2   2   2   2
#     4   9  17  34  60  87 117 154 191 245 297 350
#     4  10  19  35  62  92 115 150 203 247 292 344
#     4  10  22  37  56  88 122 157 193 242 295 350
#     4  10  22  37  56  89 120 160 194 236 298 358
#     4  10  17  31  60  95 110 143 210 242 287 347
#     4  10  21  39  64  86 121 153 194 247 298 348
#     4  11  19  37  61  84 118 159 190 242 295 349
#
# _framework density 25.340530999999999
#
# number of rings (size 3 to 8) (size 9 to 14) (size 15 to 20)
#    0.000    2.000    5.714    0.429    0.000    0.571 
#    0.000    5.000    0.000    1.714    0.000    0.000 
#    0.000    0.000    0.000    0.000    0.000    0.000 
#
# Total GULP energy -78213.644824 kJ/mol
# GULP energy per Si atom -5586.688916 kJ/mol
# Density = 2.528285 g / cm^3
# Si number density = 25.340531 Si / 1000 Ang^3
#
#
#
# Elastic Constant Matrix: (Units=GPa)
#
#
# Indices 1 2 3 4 5 6 
#
# 1 133.8772 37.6938 31.0551 -7.7448 5.5568 -14.9508
# 2 37.6938 160.6533 55.7631 21.6219 1.8649 -13.0187
# 3 31.0551 55.7631 90.9702 15.7036 3.1620 -4.3568
# 4 -7.7448 21.6219 15.7036 49.1260 -9.1407 5.3187
# 5 5.5568 1.8649 3.1620 -9.1407 29.3761 -11.8667
# 6 -14.9508 -13.0187 -4.3568 5.3187 -11.8667 14.2633
#
#
#
# Elastic Compliance Matrix: (Units=1/GPa)
#
#
# Indices 1 2 3 4 5 6 
#
# 1 0.009479 -0.000752 -0.002779 0.002227 0.003472 0.010458
# 2 -0.000752 0.009141 -0.004417 -0.003240 0.003049 0.009951
# 3 -0.002779 -0.004417 0.015204 -0.003588 -0.003518 -0.003889
# 4 0.002227 -0.003240 -0.003588 0.024978 0.005251 -0.006664
# 5 0.003472 0.003049 -0.003518 0.005251 0.055086 0.049220
# 6 0.010458 0.009951 -0.003889 -0.006664 0.049220 0.132401
#
#
# Mechanical properties :
#
#
# Convention : Reuss Voigt Hill
#
# Bulk Modulus (GPa) = 55.77819 70.50273 63.14046
# Shear Modulus (GPa) = 18.64549 35.95234 27.29891
#
# Velocity S-wave (km/s) = 2.71550 3.77074 3.28576
# Velocity P-wave (km/s) = 5.64723 6.84401 6.27422
#
# Compressibility (1/GPa) = 0.01792815
#
# Stress axis : x y z
#
# Youngs Moduli (GPa) = 105.50129 109.39564 65.77182
#
# Poissons Ratio (x) = 0.08225 0.18279
# Poissons Ratio (y) = 0.07933 0.29050
# Poissons Ratio (z) = 0.29321 0.48317
#
# Static dielectric constant tensor:
#      x y z
#    x 1.974740 0.011300 -0.010140 
#    y 0.011300 1.994690 -0.012140 
#    z -0.010140 -0.012140 2.112850 
# 
# From -- ./inp_files/390713.got.cif
#   From: 2010.05.17/outbox.cif.g08.bks.cpg/sg2_196_cif.got.tgz:390713.got - 2010.06.03 11:33:40.
