data_PCOD9028122
_publ_section_title
;
Structure prediction by ZEFSAII (Michael W. Deem and Ramdas Pophale) SiO2 
 PCOD9028122
Probable space group: P -1
;
_chemical_formula_sum "Si O2"
_cell_formula_units_Z 14
_cell_length_a 13.720749
_cell_length_b 9.866521
_cell_length_c 14.071099
_cell_angle_alpha 99.237229
_cell_angle_beta 27.237647
_cell_angle_gamma 81.156829
_cell_volume 649.315255
_symmetry_space_group_name_H-M "P -1"
_symmetry_group_IT_number 2
_symmetry_cell_setting 'triclinic'
loop_
_space_group_symop_operation_xyz
x,y,z
-x,-y,-z
loop_
_atom_site_type_symbol
_atom_site_label
_atom_site_fract_x
_atom_site_fract_y
_atom_site_fract_z
Si Si1 0.583690 0.294719 0.182791
Si Si2 0.745727 0.013742 0.686125
Si Si3 0.783681 0.810990 0.157861
Si Si4 0.786861 0.044250 0.433938
Si Si5 0.719916 0.337533 0.411846
Si Si6 0.738280 0.703841 0.715069
Si Si7 0.497527 0.793297 0.556964
O O1 0.481449 0.484054 0.331026
O O2 0.431993 0.306152 0.220407
O O3 0.497429 0.232134 0.338453
O O4 0.918439 0.155496 0.862499
O O5 0.712808 0.062170 0.609958
O O6 0.813015 0.823769 0.622749
O O7 0.470163 0.172947 0.002895
O O8 0.000000 0.000000 0.500000
O O9 0.772815 0.739138 0.260045
O O10 0.490403 0.891145 0.372386
O O11 0.749911 0.988799 0.220845
O O12 0.038685 0.676598 0.851096
O O13 0.843281 0.172817 0.358866
O O14 0.575729 0.313758 0.448574
O O15 0.000000 0.500000 0.500000
#
# Coordination Sequence:
#
# PCOD9028122 Si02
#       7
#     2   2   2   2   2   2   2
#     4  12  25  44  68 100 140 175 227 282 339 403
#     4  11  25  48  75  99 136 181 225 285 350 407
#     4  10  22  41  71  93 137 186 222 274 336 400
#     4  11  25  44  67 102 137 178 225 277 341 407
#     4  11  25  43  68 101 140 180 221 284 331 401
#     4  11  28  47  73 104 136 176 232 289 341 409
#     4  10  22  43  65  99 137 181 226 274 335 402
#
# _framework density 21.561176
#
# number of rings (size 3 to 8) (size 9 to 14) (size 15 to 20)
#    0.000    1.143    2.857    1.714    8.000    2.286 
#    7.714    0.000    0.000    0.000    0.000    0.000 
#    0.000    0.000    0.000    0.000    0.000    0.000 
#
# Total GULP energy -78286.130250 kJ/mol
# GULP energy per Si atom -5591.866446 kJ/mol
# Density = 2.151210 g / cm^3
# Si number density = 21.561176 Si / 1000 Ang^3
#
#
#
# Elastic Constant Matrix: (Units=GPa)
#
#
# Indices 1 2 3 4 5 6 
#
# 1 121.0987 34.6553 51.2376 -7.9113 11.9072 -18.0403
# 2 34.6553 51.1933 41.1877 -8.8118 2.5429 -10.5198
# 3 51.2376 41.1877 129.0711 0.7748 12.5037 -9.5564
# 4 -7.9113 -8.8118 0.7748 38.9724 -1.4750 8.8398
# 5 11.9072 2.5429 12.5037 -1.4750 38.8501 -10.4501
# 6 -18.0403 -10.5198 -9.5564 8.8398 -10.4501 36.7548
#
#
#
# Elastic Compliance Matrix: (Units=1/GPa)
#
#
# Indices 1 2 3 4 5 6 
#
# 1 0.011366 -0.004815 -0.002613 0.000542 -0.001510 0.002962
# 2 -0.004815 0.030790 -0.007968 0.005354 0.003313 0.004032
# 3 -0.002613 -0.007968 0.011549 -0.002500 -0.002684 -0.000722
# 4 0.000542 0.005354 -0.002500 0.028318 -0.000173 -0.005712
# 5 -0.001510 0.003313 -0.002684 -0.000173 0.028935 0.007778
# 6 0.002962 0.004032 -0.000722 -0.005712 0.007778 0.033212
#
#
# Mechanical properties :
#
#
# Convention : Reuss Voigt Hill
#
# Bulk Modulus (GPa) = 43.64521 61.72492 52.68506
# Shear Modulus (GPa) = 27.38192 34.53430 30.95811
#
# Velocity S-wave (km/s) = 3.56752 4.00645 3.79334
# Velocity P-wave (km/s) = 6.10377 7.07758 6.60864
#
# Compressibility (1/GPa) = 0.02291202
#
# Stress axis : x y z
#
# Youngs Moduli (GPa) = 87.97787 32.47828 86.58491
#
# Poissons Ratio (x) = 0.15639 0.22627
# Poissons Ratio (y) = 0.42363 0.68994
# Poissons Ratio (z) = 0.22991 0.25880
#
# Static dielectric constant tensor:
#      x y z
#    x 1.823400 -0.010160 0.010360 
#    y -0.010160 1.852160 0.001610 
#    z 0.010360 0.001610 1.782790 
# 
# From -- ./inp_files/529860.got.cif
#   From: 2010.05.17/outbox.cif.g08.bks.cpg/sg2_265_cif.got.tgz:529860.got - 2010.06.03 11:33:40.
