data_PCOD9028691
_publ_section_title
;
Structure prediction by ZEFSAII (Michael W. Deem and Ramdas Pophale) SiO2 
 PCOD9028691
Probable space group: P -1
;
_chemical_formula_sum "Si O2"
_cell_formula_units_Z 14
_cell_length_a 12.614789
_cell_length_b 14.841341
_cell_length_c 5.228188
_cell_angle_alpha 91.210781
_cell_angle_beta 125.358866
_cell_angle_gamma 123.251665
_cell_volume 579.578092
_symmetry_space_group_name_H-M "P -1"
_symmetry_group_IT_number 2
_symmetry_cell_setting 'triclinic'
loop_
_space_group_symop_operation_xyz
x,y,z
-x,-y,-z
loop_
_atom_site_type_symbol
_atom_site_label
_atom_site_fract_x
_atom_site_fract_y
_atom_site_fract_z
Si Si1 0.983163 0.727449 0.340964
Si Si2 0.135623 0.480999 0.457558
Si Si3 0.656914 0.567001 0.519654
Si Si4 0.574857 0.814569 0.691187
Si Si5 0.788843 0.295185 0.604184
Si Si6 0.661424 0.750814 0.329531
Si Si7 0.959048 0.062752 0.253501
O O1 0.894809 0.598330 0.349640
O O2 0.165250 0.776259 0.474488
O O3 0.015308 0.827797 0.570769
O O4 0.838970 0.684112 0.924628
O O5 0.290748 0.506089 0.512600
O O6 0.189233 0.610645 0.558279
O O7 0.950247 0.386437 0.036202
O O8 0.500000 0.500000 0.500000
O O9 0.629751 0.628948 0.267285
O O10 0.399299 0.786539 0.520859
O O11 0.548538 0.738271 0.404085
O O12 0.622786 0.779907 0.009429
O O13 0.752216 0.956928 0.880500
O O14 0.872388 0.865482 0.696548
O O15 0.000000 0.000000 0.500000
#
# Coordination Sequence:
#
# PCOD9028691 Si02
#       7
#     2   2   2   2   2   2   2
#     4  11  23  42  67  93 136 179 221 278 342 403
#     4  10  22  42  64  93 133 180 220 282 339 401
#     4  11  23  37  65 101 134 172 226 280 343 408
#     4  11  25  42  71  99 136 182 230 280 328 404
#     4  10  24  42  65  95 133 178 234 270 338 400
#     4  11  23  43  66 102 139 174 224 283 345 398
#     4  10  22  44  69  97 135 177 223 280 346 398
#
# _framework density 24.155501999999998
#
# number of rings (size 3 to 8) (size 9 to 14) (size 15 to 20)
#    0.000    1.429    1.429    3.429    4.000    2.286 
#    0.000    0.714    0.000    0.000    0.000    0.000 
#    0.000    0.000    0.000    0.000    0.000    0.000 
#
# Total GULP energy -78366.963461 kJ/mol
# GULP energy per Si atom -5597.640247 kJ/mol
# Density = 2.410052 g / cm^3
# Si number density = 24.155502 Si / 1000 Ang^3
#
#
#
# Elastic Constant Matrix: (Units=GPa)
#
#
# Indices 1 2 3 4 5 6 
#
# 1 191.5150 33.1631 30.5880 7.6134 37.9641 -0.6947
# 2 33.1631 63.2533 22.0743 -4.8618 13.9974 11.3489
# 3 30.5880 22.0743 85.5405 -2.5107 26.4583 1.5236
# 4 7.6134 -4.8618 -2.5107 39.3644 12.0806 -4.7625
# 5 37.9641 13.9974 26.4583 12.0806 47.2614 6.4125
# 6 -0.6947 11.3489 1.5236 -4.7625 6.4125 30.4741
#
#
#
# Elastic Compliance Matrix: (Units=1/GPa)
#
#
# Indices 1 2 3 4 5 6 
#
# 1 0.006681 -0.002758 -0.000254 0.000066 -0.004723 0.002196
# 2 -0.002758 0.020228 -0.003584 0.002445 -0.001482 -0.006723
# 3 -0.000254 -0.003584 0.015455 0.003624 -0.008714 0.002956
# 4 0.000066 0.002445 0.003624 0.030124 -0.011320 0.006000
# 5 -0.004723 -0.001482 -0.008714 -0.011320 0.034263 -0.008099
# 6 0.002196 -0.006723 0.002956 0.006000 -0.008099 0.037863
#
#
# Mechanical properties :
#
#
# Convention : Reuss Voigt Hill
#
# Bulk Modulus (GPa) = 34.27841 56.88441 45.58141
# Shear Modulus (GPa) = 29.84544 40.38555 35.11550
#
# Velocity S-wave (km/s) = 3.51886 4.09332 3.81691
# Velocity P-wave (km/s) = 5.54359 6.77796 6.19161
#
# Compressibility (1/GPa) = 0.02917288
#
# Stress axis : x y z
#
# Youngs Moduli (GPa) = 149.67341 49.43557 64.70350
#
# Poissons Ratio (x) = 0.13635 0.01641
# Poissons Ratio (y) = 0.41283 0.23190
# Poissons Ratio (z) = 0.03797 0.17718
#
# Static dielectric constant tensor:
#      x y z
#    x 1.917550 0.018980 -0.002170 
#    y 0.018980 1.963010 0.020630 
#    z -0.002170 0.020630 1.962290 
# 
# From -- ./inp_files/72190.got.cif
#   From: 2010.05.17/outbox.cif.g08.bks.cpg/sg2_37_cif.got.tgz:72190.got - 2010.06.03 11:33:40.
