data_PCOD9028512
_publ_section_title
;
Structure prediction by ZEFSAII (Michael W. Deem and Ramdas Pophale) SiO2 
 PCOD9028512
Probable space group: P -1
;
_chemical_formula_sum "Si O2"
_cell_formula_units_Z 16
_cell_length_a 17.046008
_cell_length_b 17.595237
_cell_length_c 5.983450
_cell_angle_alpha 130.334486
_cell_angle_beta 59.431211
_cell_angle_gamma 148.483045
_cell_volume 710.904303
_symmetry_space_group_name_H-M "P -1"
_symmetry_group_IT_number 2
_symmetry_cell_setting 'triclinic'
loop_
_space_group_symop_operation_xyz
x,y,z
-x,-y,-z
loop_
_atom_site_type_symbol
_atom_site_label
_atom_site_fract_x
_atom_site_fract_y
_atom_site_fract_z
Si Si1 0.485006 0.370526 0.842129
Si Si2 0.542760 0.080020 0.837341
Si Si3 0.988264 0.288751 0.023288
Si Si4 0.323122 0.064683 0.181323
Si Si5 0.857712 0.435207 0.993611
Si Si6 0.941363 0.838890 0.610818
Si Si7 0.779281 0.883757 0.947626
Si Si8 0.803475 0.577271 0.642652
O O1 0.385664 0.210787 0.519461
O O2 0.387780 0.286272 0.048418
O O3 0.650438 0.463089 0.785432
O O4 0.500000 0.500000 0.000000
O O5 0.500000 0.000000 0.500000
O O6 0.464756 0.120046 0.027699
O O7 0.721154 0.240708 0.851218
O O8 0.500000 0.000000 0.000000
O O9 0.080338 0.464719 0.137349
O O10 0.047991 0.242155 0.725685
O O11 0.810745 0.128365 0.915150
O O12 0.045499 0.320821 0.249972
O O13 0.243388 0.043988 0.043541
O O14 0.795598 0.478453 0.296174
O O15 0.000000 0.500000 0.000000
O O16 0.835294 0.707772 0.715464
O O17 0.862771 0.865770 0.668391
O O18 0.104661 0.999556 0.791731
#
# Coordination Sequence:
#
# PCOD9028512 Si02
#       8
#     2   2   2   2   2   2   2   2
#     4  12  26  44  68 104 153 193 241 312 384 459
#     4  12  31  53  83 116 156 203 259 323 396 466
#     4  11  25  43  73  98 141 193 248 310 375 459
#     4  12  27  46  73 108 145 199 253 315 386 460
#     4  11  27  48  73 105 146 191 252 321 388 456
#     4  10  22  42  63 103 137 193 246 302 367 461
#     4  11  24  39  69  97 146 188 250 301 377 450
#     4  11  24  44  67 102 142 183 245 303 384 449
#
# _framework density 22.506547000000001
#
# number of rings (size 3 to 8) (size 9 to 14) (size 15 to 20)
#    0.000    0.750    5.000    0.750    8.750    1.500 
#    0.000    0.000    0.000    0.000    0.000    0.000 
#    0.000    0.000    0.000    0.000    0.000    0.000 
#
# Total GULP energy -89161.011863 kJ/mol
# GULP energy per Si atom -5572.563241 kJ/mol
# Density = 2.245532 g / cm^3
# Si number density = 22.506547 Si / 1000 Ang^3
#
#
#
# Elastic Constant Matrix: (Units=GPa)
#
#
# Indices 1 2 3 4 5 6 
#
# 1 112.8259 28.5181 5.8491 0.0066 -11.6639 13.2295
# 2 28.5181 137.4715 21.6216 17.0604 6.7651 25.5560
# 3 5.8491 21.6216 44.3758 4.5105 2.4891 5.6244
# 4 0.0066 17.0604 4.5105 22.3119 10.4944 0.3284
# 5 -11.6639 6.7651 2.4891 10.4944 20.3463 -0.7998
# 6 13.2295 25.5560 5.6244 0.3284 -0.7998 40.7302
#
#
#
# Elastic Compliance Matrix: (Units=1/GPa)
#
#
# Indices 1 2 3 4 5 6 
#
# 1 0.010366 -0.001829 -0.000439 -0.002054 0.007586 -0.001993
# 2 -0.001829 0.009977 -0.003256 -0.006511 -0.000813 -0.005180
# 3 -0.000439 -0.003256 0.024595 -0.001871 -0.001261 -0.001220
# 4 -0.002054 -0.006511 -0.001871 0.065325 -0.032327 0.003850
# 5 0.007586 -0.000813 -0.001261 -0.032327 0.070591 -0.000133
# 6 -0.001993 -0.005180 -0.001220 0.003850 -0.000133 0.028584
#
#
# Mechanical properties :
#
#
# Convention : Reuss Voigt Hill
#
# Bulk Modulus (GPa) = 29.50813 45.18341 37.34577
# Shear Modulus (GPa) = 21.57192 32.58997 27.08094
#
# Velocity S-wave (km/s) = 3.09928 3.80942 3.47255
# Velocity P-wave (km/s) = 5.09380 6.28237 5.71904
#
# Compressibility (1/GPa) = 0.03388896
#
# Stress axis : x y z
#
# Youngs Moduli (GPa) = 96.46542 100.23306 40.65909
#
# Poissons Ratio (x) = 0.18335 0.01786
# Poissons Ratio (y) = 0.17646 0.13239
# Poissons Ratio (z) = 0.04236 0.32636
#
# Static dielectric constant tensor:
#      x y z
#    x 1.710230 0.144190 0.113990 
#    y 0.144190 1.574490 -0.117600 
#    z 0.113990 -0.117600 1.870770 
# 
# From -- ./inp_files/38098.got.cif
#   From: 2010.05.17/outbox.cif.g08.bks.cpg/sg2_20_cif.got.tgz:38098.got - 2010.06.03 11:33:40.
