data_PCOD9028336
_publ_section_title
;
Structure prediction by ZEFSAII (Michael W. Deem and Ramdas Pophale) SiO2 
 PCOD9028336
Probable space group: P -1
;
_chemical_formula_sum "Si O2"
_cell_formula_units_Z 16
_cell_length_a 18.495387
_cell_length_b 6.422322
_cell_length_c 8.572344
_cell_angle_alpha 58.075960
_cell_angle_beta 97.587415
_cell_angle_gamma 126.316784
_cell_volume 671.495229
_symmetry_space_group_name_H-M "P -1"
_symmetry_group_IT_number 2
_symmetry_cell_setting 'triclinic'
loop_
_space_group_symop_operation_xyz
x,y,z
-x,-y,-z
loop_
_atom_site_type_symbol
_atom_site_label
_atom_site_fract_x
_atom_site_fract_y
_atom_site_fract_z
Si Si1 0.591309 0.846755 0.007368
Si Si2 0.284550 0.602851 0.931767
Si Si3 0.148375 0.577326 0.715261
Si Si4 0.001716 0.612894 0.780067
Si Si5 0.402876 0.694770 0.651503
Si Si6 0.137527 0.361451 0.452779
Si Si7 0.383031 0.375298 0.177558
Si Si8 0.286561 0.307051 0.477061
O O1 0.584976 0.551027 0.176383
O O2 0.484500 0.710291 0.046849
O O3 0.665577 0.133039 0.024637
O O4 0.616159 0.875653 0.819537
O O5 0.181370 0.443275 0.903055
O O6 0.352499 0.759805 0.738108
O O7 0.298085 0.353263 0.090476
O O8 0.047161 0.485673 0.743752
O O9 0.164862 0.533176 0.559626
O O10 0.218709 0.941032 0.637386
O O11 0.907023 0.521231 0.715074
O O12 0.066589 0.992279 0.629557
O O13 0.000000 0.500000 0.000000
O O14 0.335394 0.508280 0.563068
O O15 0.500000 0.000000 0.500000
O O16 0.218733 0.386951 0.374994
O O17 0.362241 0.357909 0.359705
#
# Coordination Sequence:
#
# PCOD9028336 Si02
#       8
#     2   2   2   2   2   2   2   2
#     4  10  22  42  57  84 129 171 219 279 319 378
#     4  11  22  40  61  90 125 170 213 270 325 384
#     4  11  23  42  69  95 133 173 207 271 330 390
#     4  10  24  45  73 104 128 171 213 260 330 407
#     4  11  23  37  64  90 124 175 225 266 324 376
#     4  10  23  46  69  98 144 164 211 272 326 398
#     4  10  24  37  60  89 125 172 222 269 324 375
#     4  11  23  41  62  99 128 172 221 268 325 384
#
# _framework density 23.827423
#
# number of rings (size 3 to 8) (size 9 to 14) (size 15 to 20)
#    0.000    1.500    2.500    1.500    3.500    4.500 
#    2.250    0.000    0.000    0.000    0.000    0.000 
#    0.000    0.000    0.000    0.000    0.000    0.000 
#
# Total GULP energy -89380.729670 kJ/mol
# GULP energy per Si atom -5586.295604 kJ/mol
# Density = 2.377319 g / cm^3
# Si number density = 23.827423 Si / 1000 Ang^3
#
#
#
# Elastic Constant Matrix: (Units=GPa)
#
#
# Indices 1 2 3 4 5 6 
#
# 1 100.3102 9.8892 27.9719 14.0676 17.6583 -8.9396
# 2 9.8892 81.8941 20.6984 25.6783 -5.9767 -1.8813
# 3 27.9719 20.6984 79.5912 14.9997 10.6466 -6.3602
# 4 14.0676 25.6783 14.9997 38.7174 -5.5557 -0.8410
# 5 17.6583 -5.9767 10.6466 -5.5557 51.1658 16.5687
# 6 -8.9396 -1.8813 -6.3602 -0.8410 16.5687 26.5955
#
#
#
# Elastic Compliance Matrix: (Units=1/GPa)
#
#
# Indices 1 2 3 4 5 6 
#
# 1 0.013297 0.000145 -0.002106 -0.004991 -0.007407 0.008433
# 2 0.000145 0.015905 -0.002703 -0.009340 0.001605 -0.000768
# 3 -0.002106 -0.002703 0.016027 -0.004290 -0.005382 0.006151
# 4 -0.004991 -0.009340 -0.004290 0.036460 0.007766 -0.007050
# 5 -0.007407 0.001605 -0.005382 0.007766 0.031766 -0.023208
# 6 0.008433 -0.000768 0.006151 -0.007050 -0.023208 0.056087
#
#
# Mechanical properties :
#
#
# Convention : Reuss Voigt Hill
#
# Bulk Modulus (GPa) = 27.85376 42.10161 34.97769
# Shear Modulus (GPa) = 26.20043 36.84479 31.52261
#
# Velocity S-wave (km/s) = 3.31961 3.93659 3.64119
# Velocity P-wave (km/s) = 5.13889 6.19436 5.69115
#
# Compressibility (1/GPa) = 0.03590179
#
# Stress axis : x y z
#
# Youngs Moduli (GPa) = 75.20268 62.87451 62.39471
#
# Poissons Ratio (x) = -0.00910 0.13138
# Poissons Ratio (y) = -0.01088 0.16864
# Poissons Ratio (z) = 0.15834 0.16993
#
# Static dielectric constant tensor:
#      x y z
#    x 1.982030 -0.010930 0.013240 
#    y -0.010930 1.876390 -0.009840 
#    z 0.013240 -0.009840 1.988130 
# 
# From -- ./inp_files/105555.got.cif
#   From: 2010.05.17/outbox.cif.g08.bks.cpg/sg2_53_cif.got.tgz:105555.got - 2010.06.03 11:33:40.
