data_PCOD9028233
_publ_section_title
;
Structure prediction by ZEFSAII (Michael W. Deem and Ramdas Pophale) SiO2 
 PCOD9028233
Probable space group: P -1
;
_chemical_formula_sum "Si O2"
_cell_formula_units_Z 16
_cell_length_a 8.884424
_cell_length_b 14.170944
_cell_length_c 17.940852
_cell_angle_alpha 139.486874
_cell_angle_beta 139.532676
_cell_angle_gamma 30.946137
_cell_volume 713.459639
_symmetry_space_group_name_H-M "P -1"
_symmetry_group_IT_number 2
_symmetry_cell_setting 'triclinic'
loop_
_space_group_symop_operation_xyz
x,y,z
-x,-y,-z
loop_
_atom_site_type_symbol
_atom_site_label
_atom_site_fract_x
_atom_site_fract_y
_atom_site_fract_z
Si Si1 0.598958 0.620770 0.584177
Si Si2 0.299493 0.378223 0.704481
Si Si3 0.485740 0.965061 0.311585
Si Si4 0.930303 0.058936 0.097138
Si Si5 0.767013 0.704685 0.994829
Si Si6 0.481963 0.728003 0.437715
Si Si7 0.204312 0.073406 0.738749
Si Si8 0.231626 0.657332 0.048896
O O1 0.500000 0.500000 0.500000
O O2 0.596390 0.612755 0.488491
O O3 0.367929 0.847659 0.657630
O O4 0.940475 0.531625 0.684820
O O5 0.304198 0.362810 0.608340
O O6 0.551719 0.397327 0.830851
O O7 0.435585 0.186237 0.687603
O O8 0.574945 0.080958 0.448718
O O9 0.669410 0.875165 0.248997
O O10 0.131658 0.107744 0.235148
O O11 0.574621 0.218803 0.082397
O O12 0.071742 0.863799 0.077245
O O13 0.000000 0.000000 0.000000
O O14 0.950640 0.665306 0.964795
O O15 0.740016 0.868796 0.127851
O O16 0.000000 0.500000 0.000000
O O17 0.156074 0.795785 0.332729
O O18 0.500000 0.500000 0.000000
#
# Coordination Sequence:
#
# PCOD9028233 Si02
#       8
#     2   2   2   2   2   2   2   2
#     4  11  24  43  68 104 139 182 225 280 349 420
#     4  11  23  42  67 102 136 175 231 285 346 413
#     4  10  22  41  72  99 137 186 223 283 354 412
#     4  11  23  45  71 102 138 181 234 286 351 415
#     4  12  26  46  71 101 138 184 238 293 347 416
#     4  11  22  43  68  97 142 180 231 283 341 411
#     4  11  23  44  71  97 140 183 226 286 346 414
#     4  11  26  45  70  98 137 187 233 294 350 414
#
# _framework density 22.425936
#
# number of rings (size 3 to 8) (size 9 to 14) (size 15 to 20)
#    0.000    1.000    2.500    4.875    3.500    2.000 
#    2.250    0.000    0.000    0.000    0.000    0.000 
#    0.000    0.000    0.000    0.000    0.000    0.000 
#
# Total GULP energy -89377.404703 kJ/mol
# GULP energy per Si atom -5586.087794 kJ/mol
# Density = 2.237489 g / cm^3
# Si number density = 22.425936 Si / 1000 Ang^3
#
#
#
# Elastic Constant Matrix: (Units=GPa)
#
#
# Indices 1 2 3 4 5 6 
#
# 1 125.9042 45.9905 11.2598 -3.2768 1.6142 -13.6949
# 2 45.9905 96.7068 12.2187 -16.6854 2.1761 -14.8155
# 3 11.2598 12.2187 27.8180 -18.0242 -1.3560 -7.9533
# 4 -3.2768 -16.6854 -18.0242 29.2784 -11.8781 10.9907
# 5 1.6142 2.1761 -1.3560 -11.8781 35.3244 -7.2907
# 6 -13.6949 -14.8155 -7.9533 10.9907 -7.2907 46.2951
#
#
#
# Elastic Compliance Matrix: (Units=1/GPa)
#
#
# Indices 1 2 3 4 5 6 
#
# 1 0.010392 -0.005083 -0.006330 -0.007282 -0.002504 0.001695
# 2 -0.005083 0.014309 0.002916 0.010038 0.003188 0.001696
# 3 -0.006330 0.002916 0.074458 0.054805 0.021868 0.002285
# 4 -0.007282 0.010038 0.054805 0.086999 0.029944 -0.005465
# 5 -0.002504 0.003188 0.021868 0.029944 0.039795 0.003195
# 6 0.001695 0.001696 0.002285 -0.005465 0.003195 0.024838
#
#
# Mechanical properties :
#
#
# Convention : Reuss Voigt Hill
#
# Bulk Modulus (GPa) = 12.17026 43.26299 27.71663
# Shear Modulus (GPa) = 16.93925 34.24361 25.59143
#
# Velocity S-wave (km/s) = 2.75133 3.91188 3.38176
# Velocity P-wave (km/s) = 3.94103 6.30374 5.25685
#
# Compressibility (1/GPa) = 0.08216752
#
# Stress axis : x y z
#
# Youngs Moduli (GPa) = 96.22591 69.88480 13.43032
#
# Poissons Ratio (x) = 0.35522 0.08501
# Poissons Ratio (y) = 0.48911 -0.03917
# Poissons Ratio (z) = 0.60908 -0.20381
#
# Static dielectric constant tensor:
#      x y z
#    x 1.942370 -0.023660 -0.028350 
#    y -0.023660 1.798180 0.009030 
#    z -0.028350 0.009030 1.877520 
# 
# From -- ./inp_files/274366.got.cif
#   From: 2010.05.17/outbox.cif.g08.bks.cpg/sg2_138_cif.got.tgz:274366.got - 2010.06.03 11:33:40.
