data_PCOD9028749
_publ_section_title
;
Structure prediction by ZEFSAII (Michael W. Deem and Ramdas Pophale) SiO2 
 PCOD9028749
Probable space group: P -1
;
_chemical_formula_sum "Si O2"
_cell_formula_units_Z 14
_cell_length_a 7.719647
_cell_length_b 6.902596
_cell_length_c 9.983652
_cell_angle_alpha 101.851338
_cell_angle_beta 79.571883
_cell_angle_gamma 83.222279
_cell_volume 505.345902
_symmetry_space_group_name_H-M "P -1"
_symmetry_group_IT_number 2
_symmetry_cell_setting 'triclinic'
loop_
_space_group_symop_operation_xyz
x,y,z
-x,-y,-z
loop_
_atom_site_type_symbol
_atom_site_label
_atom_site_fract_x
_atom_site_fract_y
_atom_site_fract_z
Si Si1 0.422116 0.954941 0.822159
Si Si2 0.254685 0.494944 0.853391
Si Si3 0.553333 0.167111 0.620216
Si Si4 0.636003 0.670364 0.920003
Si Si5 0.930524 0.297130 0.529080
Si Si6 0.067783 0.150524 0.778467
Si Si7 0.967175 0.797789 0.785056
O O1 0.477085 0.732846 0.842769
O O2 0.002163 0.832537 0.628400
O O3 0.585155 0.028167 0.729285
O O4 0.376905 0.122888 0.965714
O O5 0.398220 0.351159 0.715606
O O6 0.106649 0.346514 0.876638
O O7 0.256766 0.000493 0.750562
O O8 0.332773 0.500366 0.995333
O O9 0.500000 0.000000 0.500000
O O10 0.722547 0.271599 0.571313
O O11 0.812433 0.666916 0.807522
O O12 0.022414 0.225684 0.645589
O O13 0.862578 0.323919 0.181355
O O14 0.000000 0.500000 0.500000
O O15 0.933130 0.032994 0.862564
#
# Coordination Sequence:
#
# PCOD9028749 Si02
#       7
#     2   2   2   2   2   2   2
#     4   9  20  42  68  97 131 181 235 289 344 417
#     4  10  23  44  65 100 138 177 241 289 341 421
#     4  10  22  44  73 100 141 189 232 286 355 425
#     4   9  20  40  68  94 136 178 235 290 344 415
#     4  12  24  43  67 104 143 181 233 290 355 419
#     4  10  22  42  64  97 135 178 231 282 352 415
#     4  12  23  41  67  98 139 183 225 292 353 419
#
# _framework density 27.703797000000002
#
# number of rings (size 3 to 8) (size 9 to 14) (size 15 to 20)
#    0.000    2.000    1.429    3.429    0.000    5.143 
#    2.571    0.714    0.000    0.000    0.000    0.000 
#    0.000    0.000    0.000    0.000    0.000    0.000 
#
# Total GULP energy -78142.121089 kJ/mol
# GULP energy per Si atom -5581.580078 kJ/mol
# Density = 2.764074 g / cm^3
# Si number density = 27.703797 Si / 1000 Ang^3
#
#
#
# Elastic Constant Matrix: (Units=GPa)
#
#
# Indices 1 2 3 4 5 6 
#
# 1 137.7700 29.7886 40.4091 -6.5387 12.6926 -24.4203
# 2 29.7886 178.6178 42.4056 -39.6650 -4.3439 -3.7764
# 3 40.4091 42.4056 116.8140 -12.2271 -5.0659 -15.3181
# 4 -6.5387 -39.6650 -12.2271 41.7707 -0.6919 3.0727
# 5 12.6926 -4.3439 -5.0659 -0.6919 51.0163 -14.9816
# 6 -24.4203 -3.7764 -15.3181 3.0727 -14.9816 49.8690
#
#
#
# Elastic Compliance Matrix: (Units=1/GPa)
#
#
# Indices 1 2 3 4 5 6 
#
# 1 0.008852 -0.000990 -0.002427 -0.000517 -0.001638 0.003054
# 2 -0.000990 0.007673 -0.001809 0.006662 0.000609 -0.000687
# 3 -0.002427 -0.001809 0.010578 0.000848 0.002261 0.002551
# 4 -0.000517 0.006662 0.000848 0.030530 0.000869 -0.001108
# 5 -0.001638 0.000609 0.002261 0.000869 0.022224 0.006561
# 6 0.003054 -0.000687 0.002551 -0.001108 0.006561 0.024319
#
#
# Mechanical properties :
#
#
# Convention : Reuss Voigt Hill
#
# Bulk Modulus (GPa) = 60.06012 73.15650 66.60831
# Shear Modulus (GPa) = 41.60425 49.90444 45.75434
#
# Velocity S-wave (km/s) = 3.87945 4.24884 4.06834
# Velocity P-wave (km/s) = 6.46477 7.10874 6.79439
#
# Compressibility (1/GPa) = 0.01664998
#
# Stress axis : x y z
#
# Youngs Moduli (GPa) = 112.96570 130.32869 94.53176
#
# Poissons Ratio (x) = 0.12903 0.22947
# Poissons Ratio (y) = 0.11184 0.17104
# Poissons Ratio (z) = 0.27422 0.23581
#
# Static dielectric constant tensor:
#      x y z
#    x 2.489440 0.171230 0.060680 
#    y 0.171230 2.272490 0.138610 
#    z 0.060680 0.138610 2.288200 
# 
# From -- ./inp_files/412614.got.cif
#   From: 2010.05.17/outbox.cif.g08.bks.cpg/sg2_207_cif.got.tgz:412614.got - 2010.06.03 11:33:40.
