data_PCOD9028536
_publ_section_title
;
Structure prediction by ZEFSAII (Michael W. Deem and Ramdas Pophale) SiO2 
 PCOD9028536
Probable space group: P -1
;
_chemical_formula_sum "Si O2"
_cell_formula_units_Z 16
_cell_length_a 6.808273
_cell_length_b 22.044133
_cell_length_c 8.833249
_cell_angle_alpha 46.721316
_cell_angle_beta 52.551748
_cell_angle_gamma 55.900687
_cell_volume 742.152870
_symmetry_space_group_name_H-M "P -1"
_symmetry_group_IT_number 2
_symmetry_cell_setting 'triclinic'
loop_
_space_group_symop_operation_xyz
x,y,z
-x,-y,-z
loop_
_atom_site_type_symbol
_atom_site_label
_atom_site_fract_x
_atom_site_fract_y
_atom_site_fract_z
Si Si1 0.737537 0.049729 0.617151
Si Si2 0.418357 0.751450 0.625153
Si Si3 0.378319 0.531502 0.255303
Si Si4 0.690443 0.380672 0.546336
Si Si5 0.004214 0.355835 0.967623
Si Si6 0.508117 0.765693 0.210712
Si Si7 0.803918 0.610506 0.853756
Si Si8 0.286865 0.965394 0.982521
O O1 0.700901 0.151184 0.436107
O O2 0.483312 0.019872 0.740078
O O3 0.742913 0.032527 0.824620
O O4 0.000000 0.000000 0.500000
O O5 0.211977 0.694755 0.808045
O O6 0.532093 0.755009 0.398537
O O7 0.631215 0.702381 0.725442
O O8 0.459111 0.438743 0.454662
O O9 0.351580 0.597492 0.295922
O O10 0.131168 0.564030 0.212802
O O11 0.626061 0.544842 0.026857
O O12 0.700717 0.283271 0.667338
O O13 0.943785 0.407719 0.333372
O O14 0.110748 0.385950 0.019683
O O15 0.230485 0.286135 0.899627
O O16 0.414494 0.866376 0.048147
O O17 0.000000 0.000000 0.000000
#
# Coordination Sequence:
#
# PCOD9028536 Si02
#       8
#     2   2   2   2   2   2   2   2
#     4  10  22  42  63  91 123 164 203 253 309 367
#     4  10  23  39  63  88 122 160 203 244 301 364
#     4  10  24  42  59  89 121 159 204 249 299 354
#     4  11  22  41  63  86 121 162 201 246 304 361
#     4  11  22  40  61  91 122 155 204 253 294 358
#     4  11  22  41  62  90 122 162 199 248 306 360
#     4  11  22  40  61  89 120 159 201 250 298 355
#     4  10  24  41  63  93 127 158 205 258 305 365
#
# _framework density 21.558900999999999
#
# number of rings (size 3 to 8) (size 9 to 14) (size 15 to 20)
#    0.000    1.500    2.500    1.875    1.750    2.500 
#    4.500    0.000    0.000    0.000    0.000    0.000 
#    0.000    0.000    0.000    0.000    0.000    0.000 
#
# Total GULP energy -89499.546739 kJ/mol
# GULP energy per Si atom -5593.721671 kJ/mol
# Density = 2.150983 g / cm^3
# Si number density = 21.558901 Si / 1000 Ang^3
#
#
#
# Elastic Constant Matrix: (Units=GPa)
#
#
# Indices 1 2 3 4 5 6 
#
# 1 115.4336 26.7853 28.5045 -3.4728 -4.9254 -23.1237
# 2 26.7853 81.2915 7.0085 10.8012 1.9200 -4.8544
# 3 28.5045 7.0085 41.5055 6.3721 -0.4450 -6.1881
# 4 -3.4728 10.8012 6.3721 29.8951 -10.8109 -11.1749
# 5 -4.9254 1.9200 -0.4450 -10.8109 30.0721 -3.6902
# 6 -23.1237 -4.8544 -6.1881 -11.1749 -3.6902 31.2745
#
#
#
# Elastic Compliance Matrix: (Units=1/GPa)
#
#
# Indices 1 2 3 4 5 6 
#
# 1 0.017112 -0.006216 -0.010649 0.016878 0.011187 0.016931
# 2 -0.006216 0.015491 0.002394 -0.011951 -0.007106 -0.006826
# 3 -0.010649 0.002394 0.032052 -0.014295 -0.007439 -0.007146
# 4 0.016878 -0.011951 -0.014295 0.067747 0.032062 0.035786
# 5 0.011187 -0.007106 -0.007439 0.032062 0.049781 0.023027
# 6 0.016931 -0.006826 -0.007146 0.035786 0.023027 0.057524
#
#
# Mechanical properties :
#
#
# Convention : Reuss Voigt Hill
#
# Bulk Modulus (GPa) = 28.00134 40.31412 34.15773
# Shear Modulus (GPa) = 17.82192 29.97715 23.89953
#
# Velocity S-wave (km/s) = 2.87829 3.73295 3.33313
# Velocity P-wave (km/s) = 4.90536 6.10901 5.53997
#
# Compressibility (1/GPa) = 0.03571258
#
# Stress axis : x y z
#
# Youngs Moduli (GPa) = 58.43985 64.55283 31.19941
#
# Poissons Ratio (x) = 0.40125 0.33224
# Poissons Ratio (y) = 0.36325 -0.07469
# Poissons Ratio (z) = 0.62233 -0.15453
#
# Static dielectric constant tensor:
#      x y z
#    x 1.777380 -0.005710 -0.018740 
#    y -0.005710 1.752260 0.004830 
#    z -0.018740 0.004830 1.785110 
# 
# From -- ./inp_files/47360.got.cif
#   From: 2010.05.17/outbox.cif.g08.bks.cpg/sg2_24_cif.got.tgz:47360.got - 2010.06.03 11:33:40.
