data_PCOD9028167
_publ_section_title
;
Structure prediction by ZEFSAII (Michael W. Deem and Ramdas Pophale) SiO2 
 PCOD9028167
Probable space group: P -1
;
_chemical_formula_sum "Si O2"
_cell_formula_units_Z 12
_cell_length_a 11.688973
_cell_length_b 11.138044
_cell_length_c 9.493033
_cell_angle_alpha 152.912705
_cell_angle_beta 85.682486
_cell_angle_gamma 103.123058
_cell_volume 525.172370
_symmetry_space_group_name_H-M "P -1"
_symmetry_group_IT_number 2
_symmetry_cell_setting 'triclinic'
loop_
_space_group_symop_operation_xyz
x,y,z
-x,-y,-z
loop_
_atom_site_type_symbol
_atom_site_label
_atom_site_fract_x
_atom_site_fract_y
_atom_site_fract_z
Si Si1 0.228761 0.331002 0.056636
Si Si2 0.374888 0.234225 0.707656
Si Si3 0.710402 0.920018 0.761380
Si Si4 0.582341 0.334125 0.249023
Si Si5 0.985151 0.225006 0.125221
Si Si6 0.631293 0.045127 0.310441
O O1 0.326853 0.635095 0.408622
O O2 0.093479 0.298396 0.076840
O O3 0.261823 0.304482 0.862566
O O4 0.265013 0.087124 0.874203
O O5 0.348912 0.144705 0.456367
O O6 0.376154 0.981982 0.547580
O O7 0.500000 0.500000 0.000000
O O8 0.698689 0.610157 0.492277
O O9 0.634644 0.086287 0.028757
O O10 0.851630 0.109500 0.947271
O O11 0.500000 0.500000 0.500000
O O12 0.494898 0.173225 0.961670
O O13 0.000000 0.500000 0.500000
O O14 0.000000 0.000000 0.000000
#
# Coordination Sequence:
#
# PCOD9028167 Si02
#       6
#     2   2   2   2   2   2
#     4  10  24  42  71  99 136 190 224 285 344 406
#     4  10  22  43  71 108 141 175 229 286 358 420
#     4  12  27  43  71 103 135 188 236 284 347 418
#     4  12  26  42  67 104 143 179 230 293 351 415
#     4  12  28  50  71  95 144 191 242 286 333 413
#     4  10  22  41  71  99 144 176 222 280 363 401
#
# _framework density 22.849640000000001
#
# number of rings (size 3 to 8) (size 9 to 14) (size 15 to 20)
#    1.000    0.000    1.667    4.500    9.333    2.000 
#    0.000    0.833    0.000    0.000    0.000    0.000 
#    0.000    0.000    0.000    0.000    0.000    0.000 
#
# Total GULP energy -66975.392040 kJ/mol
# GULP energy per Si atom -5581.282670 kJ/mol
# Density = 2.279763 g / cm^3
# Si number density = 22.849640 Si / 1000 Ang^3
#
#
#
# Elastic Constant Matrix: (Units=GPa)
#
#
# Indices 1 2 3 4 5 6 
#
# 1 115.8158 21.2096 54.4706 2.3930 -9.0414 27.1964
# 2 21.2096 64.6701 44.1114 0.5237 -12.0155 10.5993
# 3 54.4706 44.1114 153.2405 4.8295 -11.0528 3.4968
# 4 2.3930 0.5237 4.8295 42.8242 -4.3656 -5.1088
# 5 -9.0414 -12.0155 -11.0528 -4.3656 49.2087 4.7150
# 6 27.1964 10.5993 3.4968 -5.1088 4.7150 44.5198
#
#
#
# Elastic Compliance Matrix: (Units=1/GPa)
#
#
# Indices 1 2 3 4 5 6 
#
# 1 0.012554 0.000445 -0.004230 -0.000941 0.002127 -0.007776
# 2 0.000445 0.020916 -0.005747 0.000192 0.004418 -0.005246
# 3 -0.004230 -0.005747 0.009598 -0.000433 -0.000369 0.003188
# 4 -0.000941 0.000192 -0.000433 0.023989 0.001604 0.003146
# 5 0.002127 0.004418 -0.000369 0.001604 0.022282 -0.004498
# 6 -0.007776 -0.005246 0.003188 0.003146 -0.004498 0.029048
#
#
# Mechanical properties :
#
#
# Convention : Reuss Voigt Hill
#
# Bulk Modulus (GPa) = 41.65867 63.70107 52.67987
# Shear Modulus (GPa) = 34.37583 41.57287 37.97435
#
# Velocity S-wave (km/s) = 3.88291 4.27008 4.08109
# Velocity P-wave (km/s) = 6.19467 7.22844 6.73143
#
# Compressibility (1/GPa) = 0.02400461
#
# Stress axis : x y z
#
# Youngs Moduli (GPa) = 79.65744 47.81016 104.18966
#
# Poissons Ratio (x) = -0.02129 0.44073
# Poissons Ratio (y) = -0.03547 0.59876
# Poissons Ratio (z) = 0.33695 0.27476
#
# Static dielectric constant tensor:
#      x y z
#    x 1.869910 0.012080 -0.049960 
#    y 0.012080 1.911210 -0.019350 
#    z -0.049960 -0.019350 1.817610 
# 
# From -- ./inp_files/430675.got.cif
#   From: 2010.05.17/outbox.cif.g08.bks.cpg/sg2_216_cif.got.tgz:430675.got - 2010.06.03 11:33:40.
