data_PCOD9028214
_publ_section_title
;
Structure prediction by ZEFSAII (Michael W. Deem and Ramdas Pophale) SiO2 
 PCOD9028214
Probable space group: P -1
;
_chemical_formula_sum "Si O2"
_cell_formula_units_Z 16
_cell_length_a 10.586470
_cell_length_b 8.343495
_cell_length_c 14.632039
_cell_angle_alpha 126.843483
_cell_angle_beta 64.669724
_cell_angle_gamma 82.779852
_cell_volume 793.674333
_symmetry_space_group_name_H-M "P -1"
_symmetry_group_IT_number 2
_symmetry_cell_setting 'triclinic'
loop_
_space_group_symop_operation_xyz
x,y,z
-x,-y,-z
loop_
_atom_site_type_symbol
_atom_site_label
_atom_site_fract_x
_atom_site_fract_y
_atom_site_fract_z
Si Si1 0.826019 0.102884 0.539238
Si Si2 0.163306 0.325760 0.712042
Si Si3 0.642943 0.513157 0.590735
Si Si4 0.908198 0.857465 0.965512
Si Si5 0.567087 0.144377 0.078485
Si Si6 0.718728 0.810401 0.177588
Si Si7 0.431180 0.310884 0.512714
Si Si8 0.496317 0.591772 0.135288
O O1 0.772144 0.310970 0.550827
O O2 0.679176 0.205729 0.696222
O O3 0.847440 0.881806 0.401049
O O4 0.000000 0.000000 0.500000
O O5 0.160498 0.320720 0.820002
O O6 0.340277 0.271719 0.609035
O O7 0.033303 0.587145 0.807699
O O8 0.542124 0.753027 0.760922
O O9 0.508252 0.450329 0.580491
O O10 0.691388 0.557485 0.490511
O O11 0.818067 0.847651 0.081196
O O12 0.759698 0.986180 0.984644
O O13 0.000000 0.000000 0.000000
O O14 0.541523 0.368599 0.108105
O O15 0.500000 0.000000 0.000000
O O16 0.626161 0.676305 0.130571
O O17 0.578863 0.065947 0.345292
O O18 0.500000 0.500000 0.000000
#
# Coordination Sequence:
#
# PCOD9028214 Si02
#       8
#     2   2   2   2   2   2   2   2
#     4  11  25  44  65 100 140 181 228 287 347 404
#     4  12  25  41  69 105 136 170 229 290 350 402
#     4  10  22  41  72  95 131 179 228 278 345 407
#     4  12  27  45  67 104 143 178 229 290 355 407
#     4  11  24  44  69  96 139 187 230 274 340 428
#     4  12  23  45  72 100 136 181 232 285 345 422
#     4  11  21  42  73 101 129 172 232 289 338 415
#     4  11  25  45  71 100 133 185 239 278 339 422
#
# _framework density 20.159400999999999
#
# number of rings (size 3 to 8) (size 9 to 14) (size 15 to 20)
#    0.000    0.750    3.750    4.500    7.000    0.000 
#    2.250    0.625    0.000    0.000    0.000    0.000 
#    0.000    0.000    0.000    0.000    0.000    0.000 
#
# Total GULP energy -89372.389460 kJ/mol
# GULP energy per Si atom -5585.774341 kJ/mol
# Density = 2.011352 g / cm^3
# Si number density = 20.159401 Si / 1000 Ang^3
#
#
#
# Elastic Constant Matrix: (Units=GPa)
#
#
# Indices 1 2 3 4 5 6 
#
# 1 141.2491 46.2664 55.9626 11.1616 15.2040 0.8735
# 2 46.2664 81.4320 33.7176 -1.1521 -6.0091 -4.7252
# 3 55.9626 33.7176 118.6692 14.0510 9.1541 0.5067
# 4 11.1616 -1.1521 14.0510 44.3457 0.2485 -3.1571
# 5 15.2040 -6.0091 9.1541 0.2485 38.9901 3.4430
# 6 0.8735 -4.7252 0.5067 -3.1571 3.4430 42.0667
#
#
#
# Elastic Compliance Matrix: (Units=1/GPa)
#
#
# Indices 1 2 3 4 5 6 
#
# 1 0.010527 -0.005115 -0.002970 -0.001858 -0.004135 -0.000558
# 2 -0.005115 0.017029 -0.003170 0.002837 0.005182 0.001846
# 3 -0.002970 -0.003170 0.011222 -0.002915 -0.001903 -0.000493
# 4 -0.001858 0.002837 -0.002915 0.024155 0.001508 0.002082
# 5 -0.004135 0.005182 -0.001903 0.001508 0.028632 -0.001539
# 6 -0.000558 0.001846 -0.000493 0.002082 -0.001539 0.024279
#
#
# Mechanical properties :
#
#
# Convention : Reuss Voigt Hill
#
# Bulk Modulus (GPa) = 61.46838 68.13817 64.80328
# Shear Modulus (GPa) = 34.77659 38.77410 36.77535
#
# Velocity S-wave (km/s) = 4.15791 4.39039 4.27573
# Velocity P-wave (km/s) = 7.32177 7.71840 7.52270
#
# Compressibility (1/GPa) = 0.01626853
#
# Stress axis : x y z
#
# Youngs Moduli (GPa) = 94.99221 58.72496 89.11204
#
# Poissons Ratio (x) = 0.30040 0.26463
# Poissons Ratio (y) = 0.48592 0.28244
# Poissons Ratio (z) = 0.28209 0.18613
#
# Static dielectric constant tensor:
#      x y z
#    x 1.698530 -0.013610 -0.000840 
#    y -0.013610 1.734240 0.024700 
#    z -0.000840 0.024700 1.713970 
# 
# From -- ./inp_files/273591.got.cif
#   From: 2010.05.17/outbox.cif.g08.bks.cpg/sg2_137_cif.got.tgz:273591.got - 2010.06.03 11:33:40.
