data_PCOD9028644
_publ_section_title
;
Structure prediction by ZEFSAII (Michael W. Deem and Ramdas Pophale) SiO2 
 PCOD9028644
Probable space group: P -1
;
_chemical_formula_sum "Si O2"
_cell_formula_units_Z 16
_cell_length_a 8.896339
_cell_length_b 7.990086
_cell_length_c 15.630609
_cell_angle_alpha 103.800918
_cell_angle_beta 60.371131
_cell_angle_gamma 131.224751
_cell_volume 719.899416
_symmetry_space_group_name_H-M "P -1"
_symmetry_group_IT_number 2
_symmetry_cell_setting 'triclinic'
loop_
_space_group_symop_operation_xyz
x,y,z
-x,-y,-z
loop_
_atom_site_type_symbol
_atom_site_label
_atom_site_fract_x
_atom_site_fract_y
_atom_site_fract_z
Si Si1 0.258181 0.107293 0.943424
Si Si2 0.515408 0.622111 0.255942
Si Si3 0.395610 0.109402 0.082972
Si Si4 0.022317 0.265001 0.390437
Si Si5 0.128505 0.438589 0.566643
Si Si6 0.561491 0.853241 0.426974
Si Si7 0.804099 0.338989 0.104464
Si Si8 0.076698 0.312942 0.758149
O O1 0.248954 0.896229 0.902740
O O2 0.401698 0.286699 0.850858
O O3 0.356052 0.200920 0.022046
O O4 0.000000 0.000000 0.000000
O O5 0.270017 0.381057 0.300810
O O6 0.494211 0.784860 0.338622
O O7 0.709351 0.649316 0.257837
O O8 0.579326 0.283713 0.121994
O O9 0.155103 0.911811 0.167481
O O10 0.500000 0.000000 0.000000
O O11 0.027392 0.276649 0.493379
O O12 0.961205 0.420872 0.395901
O O13 0.828333 0.013836 0.383248
O O14 0.397710 0.620478 0.495863
O O15 0.074629 0.324713 0.658728
O O16 0.500000 0.000000 0.500000
O O17 0.888447 0.474199 0.185264
O O18 0.000000 0.500000 0.000000
#
# Coordination Sequence:
#
# PCOD9028644 Si02
#       8
#     2   2   2   2   2   2   2   2
#     4  11  22  44  66  92 133 167 207 269 312 372
#     4  11  24  40  63  96 131 163 209 267 313 371
#     4  10  22  42  64  89 132 167 212 262 316 370
#     4   9  20  40  64  92 124 161 217 253 320 380
#     4   9  21  38  64  89 125 165 205 269 309 378
#     4   9  20  41  62  92 125 160 211 259 313 377
#     4  11  23  41  65  89 124 170 216 254 315 381
#     4  12  24  42  62  97 130 165 213 260 324 379
#
# _framework density 22.225327
#
# number of rings (size 3 to 8) (size 9 to 14) (size 15 to 20)
#    0.000    1.750    3.750    0.750    7.000    4.000 
#    0.000    2.500    0.000    0.000    0.000    0.000 
#    0.000    0.000    0.000    0.000    0.000    0.000 
#
# Total GULP energy -89452.481024 kJ/mol
# GULP energy per Si atom -5590.780064 kJ/mol
# Density = 2.217474 g / cm^3
# Si number density = 22.225327 Si / 1000 Ang^3
#
#
#
# Elastic Constant Matrix: (Units=GPa)
#
#
# Indices 1 2 3 4 5 6 
#
# 1 111.9279 28.6906 61.4836 -21.0578 4.1308 25.0940
# 2 28.6906 76.6125 32.5157 -1.5095 1.3535 26.6775
# 3 61.4836 32.5157 158.1129 -30.3695 20.1331 19.7750
# 4 -21.0578 -1.5095 -30.3695 25.0543 6.3686 -10.6979
# 5 4.1308 1.3535 20.1331 6.3686 43.9462 -8.4314
# 6 25.0940 26.6775 19.7750 -10.6979 -8.4314 39.9714
#
#
#
# Elastic Compliance Matrix: (Units=1/GPa)
#
#
# Indices 1 2 3 4 5 6 
#
# 1 0.013160 -0.002176 -0.002751 0.006246 -0.001604 -0.004115
# 2 -0.002176 0.019635 -0.003705 -0.010651 0.000410 -0.012669
# 3 -0.002751 -0.003705 0.011498 0.013398 -0.006706 0.000683
# 4 0.006246 -0.010651 0.013398 0.069562 -0.014138 0.012195
# 5 -0.001604 0.000410 -0.006706 -0.014138 0.029249 0.006437
# 6 -0.004115 -0.012669 0.000683 0.012195 0.006437 0.040341
#
#
# Mechanical properties :
#
#
# Convention : Reuss Voigt Hill
#
# Bulk Modulus (GPa) = 36.99894 65.78143 51.39019
# Shear Modulus (GPa) = 23.84128 36.72529 30.28329
#
# Velocity S-wave (km/s) = 3.27877 4.06939 3.69529
# Velocity P-wave (km/s) = 5.56931 7.19317 6.43268
#
# Compressibility (1/GPa) = 0.02702780
#
# Stress axis : x y z
#
# Youngs Moduli (GPa) = 75.98547 50.93003 86.96932
#
# Poissons Ratio (x) = 0.11084 0.23929
# Poissons Ratio (y) = 0.16537 0.32223
# Poissons Ratio (z) = 0.20907 0.18870
#
# Static dielectric constant tensor:
#      x y z
#    x 1.425070 0.025620 0.159730 
#    y 0.025620 1.822780 0.028870 
#    z 0.159730 0.028870 1.705640 
# 
# From -- ./inp_files/216869.got.cif
#   From: 2010.05.17/outbox.cif.g08.bks.cpg/sg2_109_cif.got.tgz:216869.got - 2010.06.03 11:33:40.
