data_PCOD9028330
_publ_section_title
;
Structure prediction by ZEFSAII (Michael W. Deem and Ramdas Pophale) SiO2 
 PCOD9028330
Probable space group: P -1
;
_chemical_formula_sum "Si O2"
_cell_formula_units_Z 16
_cell_length_a 11.456103
_cell_length_b 8.188424
_cell_length_c 11.001976
_cell_angle_alpha 45.376773
_cell_angle_beta 63.663644
_cell_angle_gamma 49.027205
_cell_volume 554.335853
_symmetry_space_group_name_H-M "P -1"
_symmetry_group_IT_number 2
_symmetry_cell_setting 'triclinic'
loop_
_space_group_symop_operation_xyz
x,y,z
-x,-y,-z
loop_
_atom_site_type_symbol
_atom_site_label
_atom_site_fract_x
_atom_site_fract_y
_atom_site_fract_z
Si Si1 0.269423 0.131754 0.628363
Si Si2 0.353269 0.006147 0.966584
Si Si3 0.043275 0.796555 0.697885
Si Si4 0.822792 0.240502 0.939389
Si Si5 0.075405 0.687906 0.388478
Si Si6 0.613768 0.435646 0.253394
Si Si7 0.490629 0.810945 0.387686
Si Si8 0.209846 0.288406 0.142479
O O1 0.174476 0.451018 0.563926
O O2 0.342601 0.815310 0.724582
O O3 0.434110 0.097288 0.593995
O O4 0.100581 0.233622 0.585720
O O5 0.421345 0.160386 0.783815
O O6 0.262884 0.924138 0.955337
O O7 0.498719 0.715099 0.091745
O O8 0.265379 0.163825 0.047127
O O9 0.946293 0.022396 0.727876
O O10 0.220494 0.644274 0.729220
O O11 0.967682 0.620600 0.810269
O O12 0.000000 0.000000 0.500000
O O13 0.776856 0.460561 0.952061
O O14 0.819961 0.401026 0.735575
O O15 0.000000 0.000000 0.000000
O O16 0.514835 0.427312 0.417113
O O17 0.312984 0.042453 0.316927
#
# Coordination Sequence:
#
# PCOD9028330 Si02
#       8
#     2   2   2   2   2   2   2   2
#     4  10  22  41  77 118 155 216 270 339 410 488
#     4  12  29  55  81 124 170 213 280 345 407 501
#     4  11  24  49  81 121 160 219 278 340 412 496
#     4  12  27  51  82 115 163 220 270 344 420 483
#     4  10  22  44  73 114 161 205 280 336 405 491
#     4  11  25  49  85 119 168 222 271 346 419 480
#     4  12  25  48  80 120 168 217 276 339 416 492
#     4  12  28  52  82 122 162 213 284 336 410 504
#
# _framework density 28.863368000000001
#
# number of rings (size 3 to 8) (size 9 to 14) (size 15 to 20)
#    0.000    0.750    2.500    3.750    3.500    6.000 
#    4.500    0.000    0.000    0.000    0.000    0.000 
#    0.000    0.000    0.000    0.000    0.000    0.000 
#
# Total GULP energy -89298.013670 kJ/mol
# GULP energy per Si atom -5581.125854 kJ/mol
# Density = 2.879767 g / cm^3
# Si number density = 28.863368 Si / 1000 Ang^3
#
#
#
# Elastic Constant Matrix: (Units=GPa)
#
#
# Indices 1 2 3 4 5 6 
#
# 1 185.0999 27.2817 37.1981 1.9370 -25.9819 3.9387
# 2 27.2817 172.2345 55.5713 3.8051 12.8845 11.7764
# 3 37.1981 55.5713 115.4967 -7.8930 -30.2229 8.8820
# 4 1.9370 3.8051 -7.8930 53.5677 1.5125 7.8020
# 5 -25.9819 12.8845 -30.2229 1.5125 50.7468 -13.0274
# 6 3.9387 11.7764 8.8820 7.8020 -13.0274 25.1796
#
#
#
# Elastic Compliance Matrix: (Units=1/GPa)
#
#
# Indices 1 2 3 4 5 6 
#
# 1 0.006170 -0.001119 -0.000713 -0.000611 0.003502 0.001811
# 2 -0.001119 0.008651 -0.005319 -0.000315 -0.007398 -0.005725
# 3 -0.000713 -0.005319 0.013975 0.001871 0.009808 0.002165
# 4 -0.000611 -0.000315 0.001871 0.020128 -0.001645 -0.007505
# 5 0.003502 -0.007398 0.009808 -0.001645 0.033739 0.017418
# 6 0.001811 -0.005725 0.002165 -0.007505 0.017418 0.052682
#
#
# Mechanical properties :
#
#
# Convention : Reuss Voigt Hill
#
# Bulk Modulus (GPa) = 68.99947 79.21480 74.10714
# Shear Modulus (GPa) = 32.36651 49.41749 40.89200
#
# Velocity S-wave (km/s) = 3.35232 4.14226 3.76805
# Velocity P-wave (km/s) = 6.24031 7.09804 6.68295
#
# Compressibility (1/GPa) = 0.01449286
#
# Stress axis : x y z
#
# Youngs Moduli (GPa) = 162.06886 115.58812 71.55429
#
# Poissons Ratio (x) = 0.12940 0.05105
# Poissons Ratio (y) = 0.18143 0.38061
# Poissons Ratio (z) = 0.11562 0.61484
#
# Static dielectric constant tensor:
#      x y z
#    x 2.329120 0.234720 0.142460 
#    y 0.234720 2.575670 0.436810 
#    z 0.142460 0.436810 3.538840 
# 
# From -- ./inp_files/423015.got.cif
#   From: 2010.05.17/outbox.cif.g08.bks.cpg/sg2_212_cif.got.tgz:423015.got - 2010.06.03 11:33:40.
