data_PCOD9028114
_publ_section_title
;
Structure prediction by ZEFSAII (Michael W. Deem and Ramdas Pophale) SiO2 
 PCOD9028114
Probable space group: P -1
;
_chemical_formula_sum "Si O2"
_cell_formula_units_Z 14
_cell_length_a 8.410745
_cell_length_b 14.360144
_cell_length_c 13.973250
_cell_angle_alpha 151.610804
_cell_angle_beta 104.449997
_cell_angle_gamma 58.340409
_cell_volume 581.572886
_symmetry_space_group_name_H-M "P -1"
_symmetry_group_IT_number 2
_symmetry_cell_setting 'triclinic'
loop_
_space_group_symop_operation_xyz
x,y,z
-x,-y,-z
loop_
_atom_site_type_symbol
_atom_site_label
_atom_site_fract_x
_atom_site_fract_y
_atom_site_fract_z
Si Si1 0.899323 0.985762 0.828711
Si Si2 0.275278 0.427959 0.372614
Si Si3 0.660872 0.059228 0.461193
Si Si4 0.257625 0.033780 0.915746
Si Si5 0.585204 0.524066 0.765947
Si Si6 0.132910 0.374945 0.025990
Si Si7 0.737933 0.915189 0.547598
O O1 0.829667 0.967757 0.696120
O O2 0.062704 0.689970 0.626544
O O3 0.050044 0.058107 0.915742
O O4 0.667343 0.213091 0.048317
O O5 0.298537 0.521065 0.358035
O O6 0.510459 0.259568 0.305484
O O7 0.247146 0.220623 0.158399
O O8 0.610509 0.285933 0.594203
O O9 0.466712 0.053403 0.422083
O O10 0.872651 0.766730 0.193110
O O11 0.683950 0.089343 0.604112
O O12 0.252913 0.142024 0.911063
O O13 0.709767 0.560622 0.895883
O O14 0.912699 0.620203 0.266063
#
# Coordination Sequence:
#
# PCOD9028114 Si02
#       7
#     2   2   2   2   2   2   2
#     4  12  22  41  64  95 129 166 204 267 310 376
#     4  10  23  46  61  98 126 166 214 255 308 390
#     4  11  25  44  64  92 128 171 209 268 302 379
#     4  10  22  41  71  87 131 169 204 258 324 363
#     4  11  24  39  67  95 126 163 217 256 315 370
#     4  11  22  45  64  95 123 170 212 262 308 381
#     4  11  24  44  64  93 130 165 217 253 323 368
#
# _framework density 24.072649999999999
#
# number of rings (size 3 to 8) (size 9 to 14) (size 15 to 20)
#    0.000    1.143    4.286    2.571    0.000    1.714 
#    2.571    7.857    0.000    0.000    0.000    0.000 
#    0.000    0.000    0.000    0.000    0.000    0.000 
#
# Total GULP energy -78344.871457 kJ/mol
# GULP energy per Si atom -5596.062247 kJ/mol
# Density = 2.401786 g / cm^3
# Si number density = 24.072650 Si / 1000 Ang^3
#
#
#
# Elastic Constant Matrix: (Units=GPa)
#
#
# Indices 1 2 3 4 5 6 
#
# 1 67.0630 13.2879 36.3460 -1.1084 -2.1791 -16.0668
# 2 13.2879 58.0100 0.3124 5.9363 2.6168 5.0815
# 3 36.3460 0.3124 112.7737 19.0251 -12.5881 11.8145
# 4 -1.1084 5.9363 19.0251 35.9919 -4.4214 7.1187
# 5 -2.1791 2.6168 -12.5881 -4.4214 34.1169 7.0243
# 6 -16.0668 5.0815 11.8145 7.1187 7.0243 31.3183
#
#
#
# Elastic Compliance Matrix: (Units=1/GPa)
#
#
# Indices 1 2 3 4 5 6 
#
# 1 0.028421 -0.008439 -0.012717 0.004054 -0.006066 0.021186
# 2 -0.008439 0.020281 0.004327 -0.004129 0.000712 -0.008473
# 3 -0.012717 0.004327 0.016158 -0.006153 0.006789 -0.013446
# 4 0.004054 -0.004129 -0.006153 0.032852 0.003204 -0.003115
# 5 -0.006066 0.000712 0.006789 0.003204 0.034735 -0.014307
# 6 0.021186 -0.008473 -0.013446 -0.003115 -0.014307 0.053163
#
#
# Mechanical properties :
#
#
# Convention : Reuss Voigt Hill
#
# Bulk Modulus (GPa) = 32.04808 37.52658 34.78733
# Shear Modulus (GPa) = 21.77046 32.81212 27.29129
#
# Velocity S-wave (km/s) = 3.01053 3.69595 3.37071
# Velocity P-wave (km/s) = 5.04245 5.81688 5.44346
#
# Compressibility (1/GPa) = 0.03120311
#
# Stress axis : x y z
#
# Youngs Moduli (GPa) = 35.18485 49.30782 61.88739
#
# Poissons Ratio (x) = 0.41610 0.78703
# Poissons Ratio (y) = 0.29692 -0.26780
# Poissons Ratio (z) = 0.44745 -0.21337
#
# Static dielectric constant tensor:
#      x y z
#    x 1.855150 -0.016090 -0.000030 
#    y -0.016090 1.997210 -0.038250 
#    z -0.000030 -0.038250 1.955400 
# 
# From -- ./inp_files/504648.got.cif
#   From: 2010.05.17/outbox.cif.g08.bks.cpg/sg2_253_cif.got.tgz:504648.got - 2010.06.03 11:33:40.
