data_PCOD9028922
_publ_section_title
;
Structure prediction by ZEFSAII (Michael W. Deem and Ramdas Pophale) SiO2 
 PCOD9028922
Probable space group: P -1
;
_chemical_formula_sum "Si O2"
_cell_formula_units_Z 16
_cell_length_a 9.858350
_cell_length_b 11.944457
_cell_length_c 12.598957
_cell_angle_alpha 96.510824
_cell_angle_beta 51.845242
_cell_angle_gamma 130.761208
_cell_volume 771.831478
_symmetry_space_group_name_H-M "P -1"
_symmetry_group_IT_number 2
_symmetry_cell_setting 'triclinic'
loop_
_space_group_symop_operation_xyz
x,y,z
-x,-y,-z
loop_
_atom_site_type_symbol
_atom_site_label
_atom_site_fract_x
_atom_site_fract_y
_atom_site_fract_z
Si Si1 0.243742 0.009290 0.654250
Si Si2 0.447615 0.067516 0.122731
Si Si3 0.848060 0.788322 0.338587
Si Si4 0.797673 0.613793 0.851664
Si Si5 0.526245 0.478440 0.329853
Si Si6 0.404421 0.962179 0.362299
Si Si7 0.773884 0.443087 0.032634
Si Si8 0.105975 0.426069 0.429905
O O1 0.361524 0.033167 0.484170
O O2 0.976642 0.810698 0.775069
O O3 0.204107 0.122030 0.688454
O O4 0.428187 0.052093 0.661798
O O5 0.602712 0.258341 0.047700
O O6 0.518054 0.061907 0.207677
O O7 0.139174 0.936204 0.255415
O O8 0.500000 0.000000 0.000000
O O9 0.786101 0.651730 0.278288
O O10 0.643454 0.674137 0.520616
O O11 0.827608 0.560545 0.723221
O O12 0.500000 0.500000 0.000000
O O13 0.885767 0.577665 0.901581
O O14 0.594510 0.434569 0.192496
O O15 0.352688 0.502507 0.384769
O O16 0.126623 0.772278 0.450644
O O17 0.000000 0.500000 0.000000
O O18 0.000000 0.500000 0.500000
#
# Coordination Sequence:
#
# PCOD9028922 Si02
#       8
#     2   2   2   2   2   2   2   2
#     4  10  22  42  67  98 129 176 221 284 333 400
#     4  12  26  43  66  99 138 179 226 281 341 409
#     4  11  24  42  69  99 134 171 228 279 343 397
#     4  11  23  42  66  97 135 176 236 272 339 412
#     4  11  24  44  68  99 137 176 232 281 338 414
#     4  10  22  42  65  95 130 168 231 267 335 405
#     4  12  26  44  70  98 138 185 222 283 347 405
#     4  11  23  40  70  94 132 179 223 284 331 399
#
# _framework density 20.729914000000001
#
# number of rings (size 3 to 8) (size 9 to 14) (size 15 to 20)
#    0.000    1.000    2.500    3.750    3.500    5.000 
#    0.000    1.250    0.000    0.000    0.000    0.000 
#    0.000    0.000    0.000    0.000    0.000    0.000 
#
# Total GULP energy -89481.647768 kJ/mol
# GULP energy per Si atom -5592.602985 kJ/mol
# Density = 2.068273 g / cm^3
# Si number density = 20.729914 Si / 1000 Ang^3
#
#
#
# Elastic Constant Matrix: (Units=GPa)
#
#
# Indices 1 2 3 4 5 6 
#
# 1 88.5445 24.7302 15.0119 -14.2455 -1.2123 -5.0208
# 2 24.7302 98.4561 33.7207 -5.5251 -1.8759 -7.0275
# 3 15.0119 33.7207 80.4206 -1.4011 11.7028 -15.0055
# 4 -14.2455 -5.5251 -1.4011 16.4732 0.8832 -6.2394
# 5 -1.2123 -1.8759 11.7028 0.8832 33.3793 -3.9641
# 6 -5.0208 -7.0275 -15.0055 -6.2394 -3.9641 33.7137
#
#
#
# Elastic Compliance Matrix: (Units=1/GPa)
#
#
# Indices 1 2 3 4 5 6 
#
# 1 0.014403 -0.002290 -0.000920 0.012989 0.000820 0.003758
# 2 -0.002290 0.012679 -0.005080 0.001971 0.002441 0.000692
# 3 -0.000920 -0.005080 0.016650 0.001420 -0.005501 0.005830
# 4 0.012989 0.001971 0.001420 0.079413 0.000084 0.017684
# 5 0.000820 0.002441 -0.005501 0.000084 0.032289 0.001994
# 6 0.003758 0.000692 0.005830 0.017684 0.001994 0.036468
#
#
# Mechanical properties :
#
#
# Convention : Reuss Voigt Hill
#
# Bulk Modulus (GPa) = 36.83127 46.03855 41.43491
# Shear Modulus (GPa) = 22.98509 29.64380 26.31445
#
# Velocity S-wave (km/s) = 3.33346 3.78564 3.56672
# Velocity P-wave (km/s) = 5.71154 6.43157 6.08222
#
# Compressibility (1/GPa) = 0.02715084
#
# Stress axis : x y z
#
# Youngs Moduli (GPa) = 69.42819 78.87353 60.06081
#
# Poissons Ratio (x) = 0.18061 0.05527
# Poissons Ratio (y) = 0.15898 0.30513
# Poissons Ratio (z) = 0.06389 0.40070
#
# Static dielectric constant tensor:
#      x y z
#    x 1.836340 -0.039300 -0.180120 
#    y -0.039300 1.788230 0.158980 
#    z -0.180120 0.158980 2.217210 
# 
# From -- ./inp_files/278711.got.cif
#   From: 2010.05.17/outbox.cif.g08.bks.cpg/sg2_140_cif.got.tgz:278711.got - 2010.06.03 11:33:40.
