data_PCOD9028651
_publ_section_title
;
Structure prediction by ZEFSAII (Michael W. Deem and Ramdas Pophale) SiO2 
 PCOD9028651
Probable space group: P -1
;
_chemical_formula_sum "Si O2"
_cell_formula_units_Z 14
_cell_length_a 8.549997
_cell_length_b 6.538205
_cell_length_c 18.076716
_cell_angle_alpha 51.402586
_cell_angle_beta 63.797056
_cell_angle_gamma 86.490599
_cell_volume 674.725059
_symmetry_space_group_name_H-M "P -1"
_symmetry_group_IT_number 2
_symmetry_cell_setting 'triclinic'
loop_
_space_group_symop_operation_xyz
x,y,z
-x,-y,-z
loop_
_atom_site_type_symbol
_atom_site_label
_atom_site_fract_x
_atom_site_fract_y
_atom_site_fract_z
Si Si1 0.009396 0.795342 0.897066
Si Si2 0.947896 0.271305 0.432050
Si Si3 0.923137 0.700236 0.763809
Si Si4 0.753663 0.175216 0.708800
Si Si5 0.605949 0.809524 0.305110
Si Si6 0.545702 0.197279 0.514558
Si Si7 0.290794 0.911703 0.087886
O O1 0.993188 0.762733 0.818638
O O2 0.205418 0.032905 0.811035
O O3 0.843915 0.900824 0.939654
O O4 0.000000 0.500000 0.000000
O O5 0.739993 0.232556 0.504734
O O6 0.955214 0.302583 0.333774
O O7 0.086355 0.531992 0.385711
O O8 0.000000 0.000000 0.500000
O O9 0.793616 0.388466 0.861683
O O10 0.826092 0.934687 0.715386
O O11 0.568072 0.177194 0.708025
O O12 0.710162 0.109796 0.818597
O O13 0.566831 0.492872 0.407717
O O14 0.602085 0.924792 0.363103
O O15 0.500000 0.000000 0.500000
O O16 0.500000 0.000000 0.000000
#
# Coordination Sequence:
#
# PCOD9028651 Si02
#       7
#     2   2   2   2   2   2   2
#     4  11  26  44  66  96 134 177 218 272 337 391
#     4  11  22  40  64  97 129 172 220 266 330 394
#     4  10  22  42  64  90 130 170 214 270 321 393
#     4  10  23  40  65  94 130 170 219 270 326 394
#     4  11  24  41  62  97 130 168 219 270 328 392
#     4  11  23  40  65  93 133 170 214 273 326 388
#     4  10  24  44  66  93 124 171 223 269 322 389
#
# _framework density 20.749192000000001
#
# number of rings (size 3 to 8) (size 9 to 14) (size 15 to 20)
#    0.000    1.429    0.000    5.143    4.000    7.429 
#    2.571    0.000    0.000    0.000    0.000    0.000 
#    0.000    0.000    0.000    0.000    0.000    0.000 
#
# Total GULP energy -78119.740381 kJ/mol
# GULP energy per Si atom -5579.981456 kJ/mol
# Density = 2.070197 g / cm^3
# Si number density = 20.749192 Si / 1000 Ang^3
#
#
#
# Elastic Constant Matrix: (Units=GPa)
#
#
# Indices 1 2 3 4 5 6 
#
# 1 117.7251 49.2395 53.1015 -15.5980 0.4230 -18.4640
# 2 49.2395 103.2347 21.5073 -13.7670 -12.5996 -8.5479
# 3 53.1015 21.5073 85.6927 -16.1025 -19.6430 -23.2028
# 4 -15.5980 -13.7670 -16.1025 29.8936 -10.4812 8.5857
# 5 0.4230 -12.5996 -19.6430 -10.4812 40.2228 0.4185
# 6 -18.4640 -8.5479 -23.2028 8.5857 0.4185 33.8501
#
#
#
# Elastic Compliance Matrix: (Units=1/GPa)
#
#
# Indices 1 2 3 4 5 6 
#
# 1 0.015679 -0.006754 -0.010423 -0.003679 -0.008337 0.000738
# 2 -0.006754 0.014235 0.004381 0.008282 0.008820 0.000704
# 3 -0.010423 0.004381 0.026513 0.014410 0.018084 0.009716
# 4 -0.003679 0.008282 0.014410 0.052326 0.023343 -0.003598
# 5 -0.008337 0.008820 0.018084 0.023343 0.042588 0.003628
# 6 0.000738 0.000704 0.009716 -0.003598 0.003628 0.037650
#
#
# Mechanical properties :
#
#
# Convention : Reuss Voigt Hill
#
# Bulk Modulus (GPa) = 32.43117 61.59434 47.01276
# Shear Modulus (GPa) = 22.23594 32.98025 27.60809
#
# Velocity S-wave (km/s) = 3.27716 3.99114 3.65164
# Velocity P-wave (km/s) = 5.47574 7.14063 6.36287
#
# Compressibility (1/GPa) = 0.03083453
#
# Stress axis : x y z
#
# Youngs Moduli (GPa) = 63.77904 70.25185 37.71766
#
# Poissons Ratio (x) = 0.47448 0.39314
# Poissons Ratio (y) = 0.43076 -0.16525
# Poissons Ratio (z) = 0.66479 -0.30780
#
# Static dielectric constant tensor:
#      x y z
#    x 1.762240 -0.012320 0.001440 
#    y -0.012320 1.791020 0.029980 
#    z 0.001440 0.029980 1.760550 
# 
# From -- ./inp_files/28431.got.cif
#   From: 2010.05.17/outbox.cif.g08.bks.cpg/sg2_15_cif.got.tgz:28431.got - 2010.06.03 11:33:40.
