data_PCOD9028213
_publ_section_title
;
Structure prediction by ZEFSAII (Michael W. Deem and Ramdas Pophale) SiO2 
 PCOD9028213
Probable space group: P -1
;
_chemical_formula_sum "Si O2"
_cell_formula_units_Z 12
_cell_length_a 7.448050
_cell_length_b 9.278038
_cell_length_c 15.498917
_cell_angle_alpha 50.643505
_cell_angle_beta 143.121614
_cell_angle_gamma 120.788023
_cell_volume 496.953969
_symmetry_space_group_name_H-M "P -1"
_symmetry_group_IT_number 2
_symmetry_cell_setting 'triclinic'
loop_
_space_group_symop_operation_xyz
x,y,z
-x,-y,-z
loop_
_atom_site_type_symbol
_atom_site_label
_atom_site_fract_x
_atom_site_fract_y
_atom_site_fract_z
Si Si1 0.134834 0.199087 0.510360
Si Si2 0.846693 0.213971 0.575792
Si Si3 0.847735 0.807849 0.949325
Si Si4 0.785444 0.767292 0.748083
Si Si5 0.842862 0.227074 0.755480
Si Si6 0.727999 0.333004 0.162554
O O1 0.483449 0.223943 0.614360
O O2 0.067373 0.224515 0.575574
O O3 0.941978 0.339889 0.324905
O O4 0.000000 0.000000 0.500000
O O5 0.529136 0.293995 0.391643
O O6 0.946908 0.296454 0.675111
O O7 0.789786 0.993608 0.656655
O O8 0.048953 0.700648 0.137012
O O9 0.806246 0.712368 0.876861
O O10 0.516093 0.831891 0.852430
O O11 0.964428 0.014604 0.892760
O O12 0.067025 0.702621 0.826658
O O13 0.500000 0.500000 0.000000
#
# Coordination Sequence:
#
# PCOD9028213 Si02
#       6
#     2   2   2   2   2   2
#     4  12  18  36  61  85 111 152 195 235 275 338
#     4  10  17  31  62  89 106 143 194 239 279 332
#     4  10  21  37  55  90 120 143 183 244 293 325
#     4  10  18  34  59  85 112 148 192 234 280 334
#     4  10  20  34  61  90 116 140 186 247 290 328
#     4  12  24  37  57  86 119 155 192 229 278 345
#
# _framework density 24.147107999999999
#
# number of rings (size 3 to 8) (size 9 to 14) (size 15 to 20)
#    0.000    1.333    6.667    1.000    0.000    2.000 
#    0.000    5.833    0.000    2.000    0.000    0.000 
#    0.000    0.000    0.000    0.000    0.000    0.000 
#
# Total GULP energy -67066.126981 kJ/mol
# GULP energy per Si atom -5588.843915 kJ/mol
# Density = 2.409215 g / cm^3
# Si number density = 24.147108 Si / 1000 Ang^3
#
#
#
# Elastic Constant Matrix: (Units=GPa)
#
#
# Indices 1 2 3 4 5 6 
#
# 1 196.6671 12.1913 79.0441 12.3231 -29.6580 -0.3723
# 2 12.1913 31.9183 27.0207 -1.6070 -3.1189 -9.9258
# 3 79.0441 27.0207 180.1345 13.3067 -39.1216 -18.9589
# 4 12.3231 -1.6070 13.3067 24.4458 4.4412 -4.1046
# 5 -29.6580 -3.1189 -39.1216 4.4412 50.6233 1.2890
# 6 -0.3723 -9.9258 -18.9589 -4.1046 1.2890 16.6680
#
#
#
# Elastic Compliance Matrix: (Units=1/GPa)
#
#
# Indices 1 2 3 4 5 6 
#
# 1 0.006737 -0.001982 -0.002382 -0.003470 0.002410 -0.004781
# 2 -0.001982 0.043698 -0.004863 0.011154 -0.003804 0.023487
# 3 -0.002382 -0.004863 0.009622 -0.004354 0.005958 0.006462
# 4 -0.003470 0.011154 -0.004354 0.049937 -0.009464 0.014642
# 5 0.002410 -0.003804 0.005958 -0.009464 0.026361 0.000196
# 6 -0.004781 0.023487 0.006462 0.014642 0.000196 0.084816
#
#
# Mechanical properties :
#
#
# Convention : Reuss Voigt Hill
#
# Bulk Modulus (GPa) = 24.03762 71.69247 47.86505
# Shear Modulus (GPa) = 19.72439 37.71166 28.71802
#
# Velocity S-wave (km/s) = 2.86115 3.95618 3.45236
# Velocity P-wave (km/s) = 4.57068 7.11497 5.97971
#
# Compressibility (1/GPa) = 0.04160145
#
# Stress axis : x y z
#
# Youngs Moduli (GPa) = 148.43613 22.88445 103.92919
#
# Poissons Ratio (x) = 0.04537 0.24759
# Poissons Ratio (y) = 0.29425 0.50540
# Poissons Ratio (z) = 0.35362 0.11129
#
# Static dielectric constant tensor:
#      x y z
#    x 1.890370 -0.009480 -0.050300 
#    y -0.009480 2.107510 -0.027360 
#    z -0.050300 -0.027360 1.931370 
# 
# From -- ./inp_files/462489.got.cif
#   From: 2010.05.17/outbox.cif.g08.bks.cpg/sg2_232_cif.got.tgz:462489.got - 2010.06.03 11:33:40.
