data_PCOD9028424
_publ_section_title
;
Structure prediction by ZEFSAII (Michael W. Deem and Ramdas Pophale) SiO2 
 PCOD9028424
Probable space group: P -1
;
_chemical_formula_sum "Si O2"
_cell_formula_units_Z 14
_cell_length_a 10.556421
_cell_length_b 13.906241
_cell_length_c 17.252740
_cell_angle_alpha 149.739443
_cell_angle_beta 131.553083
_cell_angle_gamma 30.927338
_cell_volume 625.809482
_symmetry_space_group_name_H-M "P -1"
_symmetry_group_IT_number 2
_symmetry_cell_setting 'triclinic'
loop_
_space_group_symop_operation_xyz
x,y,z
-x,-y,-z
loop_
_atom_site_type_symbol
_atom_site_label
_atom_site_fract_x
_atom_site_fract_y
_atom_site_fract_z
Si Si1 0.871718 0.317005 0.679785
Si Si2 0.524299 0.263520 0.319286
Si Si3 0.721273 0.353000 0.052785
Si Si4 0.269454 0.313214 0.404876
Si Si5 0.727873 0.686799 0.191352
Si Si6 0.907727 0.368432 0.893895
Si Si7 0.140510 0.656437 0.734304
O O1 0.650163 0.588267 0.724200
O O2 0.097459 0.278832 0.731415
O O3 0.776291 0.397109 0.784920
O O4 0.000000 0.000000 0.500000
O O5 0.500000 0.500000 0.500000
O O6 0.410026 0.239537 0.328737
O O7 0.822023 0.967148 0.215507
O O8 0.831206 0.463516 0.144698
O O9 0.674091 0.438476 0.184830
O O10 0.500000 0.500000 0.000000
O O11 0.929469 0.006255 0.889486
O O12 0.245768 0.518236 0.594164
O O13 0.006151 0.419816 0.358754
O O14 0.447069 0.013356 0.316058
O O15 0.729550 0.551097 0.021733
O O16 0.000000 0.500000 0.000000
#
# Coordination Sequence:
#
# PCOD9028424 Si02
#       7
#     2   2   2   2   2   2   2
#     4  11  22  42  64  93 132 172 216 262 320 393
#     4  12  23  41  66  95 133 170 213 267 323 388
#     4  11  23  47  66  97 129 170 222 275 329 386
#     4  11  22  46  66  97 132 174 219 273 327 391
#     4  11  23  43  67  95 132 170 214 272 326 385
#     4  10  22  42  61  96 133 165 218 261 322 394
#     4  10  25  44  69  95 131 170 224 273 326 388
#
# _framework density 22.371026000000001
#
# number of rings (size 3 to 8) (size 9 to 14) (size 15 to 20)
#    0.000    1.143    5.714    0.857    2.000    2.857 
#   10.286    0.000    0.000    0.000    0.000    0.000 
#    0.000    0.000    0.000    0.000    0.000    0.000 
#
# Total GULP energy -78065.907872 kJ/mol
# GULP energy per Si atom -5576.136277 kJ/mol
# Density = 2.232011 g / cm^3
# Si number density = 22.371026 Si / 1000 Ang^3
#
#
#
# Elastic Constant Matrix: (Units=GPa)
#
#
# Indices 1 2 3 4 5 6 
#
# 1 71.1185 9.1853 17.2102 -8.0187 8.4597 13.5100
# 2 9.1853 131.0025 44.9307 -22.6821 -9.4836 19.8267
# 3 17.2102 44.9307 135.0687 -4.2840 -4.5373 16.1471
# 4 -8.0187 -22.6821 -4.2840 32.2519 6.5486 1.2258
# 5 8.4597 -9.4836 -4.5373 6.5486 35.5232 -2.6276
# 6 13.5100 19.8267 16.1471 1.2258 -2.6276 28.6137
#
#
#
# Elastic Compliance Matrix: (Units=1/GPa)
#
#
# Indices 1 2 3 4 5 6 
#
# 1 0.017456 0.001442 -0.001593 0.006686 -0.005887 -0.009169
# 2 0.001442 0.010910 -0.002715 0.007887 0.000249 -0.007023
# 3 -0.001593 -0.002715 0.008760 -0.001229 0.000839 -0.002180
# 4 0.006686 0.007887 -0.001229 0.040027 -0.007789 -0.010358
# 5 -0.005887 0.000249 0.000839 -0.007789 0.031559 0.005365
# 6 -0.009169 -0.007023 -0.002180 -0.010358 0.005365 0.046311
#
#
# Mechanical properties :
#
#
# Convention : Reuss Voigt Hill
#
# Bulk Modulus (GPa) = 31.85436 53.31577 42.58507
# Shear Modulus (GPa) = 29.20232 37.00200 33.10216
#
# Velocity S-wave (km/s) = 3.61690 4.07137 3.85085
# Velocity P-wave (km/s) = 5.63140 6.78127 6.23291
#
# Compressibility (1/GPa) = 0.03139288
#
# Stress axis : x y z
#
# Youngs Moduli (GPa) = 57.28611 91.65884 114.16123
#
# Poissons Ratio (x) = -0.13215 0.18190
# Poissons Ratio (y) = -0.08259 0.30992
# Poissons Ratio (z) = 0.09128 0.24883
#
# Static dielectric constant tensor:
#      x y z
#    x 1.955840 -0.040100 -0.074520 
#    y -0.040100 1.825310 -0.035360 
#    z -0.074520 -0.035360 1.870200 
# 
# From -- ./inp_files/203977.got.cif
#   From: 2010.05.17/outbox.cif.g08.bks.cpg/sg2_102_cif.got.tgz:203977.got - 2010.06.03 11:33:40.
