data_PCOD9028235
_publ_section_title
;
Structure prediction by ZEFSAII (Michael W. Deem and Ramdas Pophale) SiO2 
 PCOD9028235
Probable space group: P -1
;
_chemical_formula_sum "Si O2"
_cell_formula_units_Z 14
_cell_length_a 8.503260
_cell_length_b 10.186324
_cell_length_c 9.138773
_cell_angle_alpha 63.043617
_cell_angle_beta 113.940931
_cell_angle_gamma 71.397090
_cell_volume 507.292095
_symmetry_space_group_name_H-M "P -1"
_symmetry_group_IT_number 2
_symmetry_cell_setting 'triclinic'
loop_
_space_group_symop_operation_xyz
x,y,z
-x,-y,-z
loop_
_atom_site_type_symbol
_atom_site_label
_atom_site_fract_x
_atom_site_fract_y
_atom_site_fract_z
Si Si1 0.474162 0.639130 0.173294
Si Si2 0.018509 0.818387 0.569137
Si Si3 0.500000 0.500000 0.000000
Si Si4 0.291594 0.271390 0.989057
Si Si5 0.938695 0.331473 0.642626
Si Si6 0.391510 0.891115 0.262008
Si Si7 0.709192 0.781592 0.658839
Si Si8 0.000000 0.000000 0.000000
O O1 0.542952 0.687472 0.020017
O O2 0.689311 0.501331 0.421463
O O3 0.331452 0.824379 0.126707
O O4 0.368972 0.560982 0.090100
O O5 0.274486 0.656377 0.754032
O O6 0.947529 0.796290 0.393971
O O7 0.891021 0.783500 0.651507
O O8 0.000000 0.000000 0.500000
O O9 0.089811 0.379753 0.745298
O O10 0.230004 0.315266 0.112352
O O11 0.407035 0.050439 0.132049
O O12 0.952295 0.197277 0.834763
O O13 0.597951 0.739423 0.512838
O O14 0.165289 0.974322 0.213169
O O15 0.500000 0.000000 0.500000
#
# Coordination Sequence:
#
# PCOD9028235 Si02
#       8
#     2   2   1   2   2   2   2   1
#     4  11  23  44  66 100 141 187 235 314 352 450
#     4  11  26  45  77  99 152 201 241 309 371 444
#     4  10  28  42  68 114 140 190 260 292 372 440
#     4  10  22  41  73 100 142 182 245 294 369 433
#     4  10  24  43  67 101 136 188 249 291 374 433
#     4  10  23  41  73 101 144 187 248 293 377 435
#     4  10  24  42  70 112 139 189 249 300 368 442
#     4  10  24  42  68 102 138 192 242 302 352 462
#
# _framework density 27.597515000000001
#
# number of rings (size 3 to 8) (size 9 to 14) (size 15 to 20)
#    0.000    1.714    0.000    1.714   14.000    2.857 
#    0.000    7.857    0.000    0.000    0.000    0.000 
#    0.000    0.000    0.000    0.000    0.000    0.000 
#
# Total GULP energy -77953.853741 kJ/mol
# GULP energy per Si atom -5568.132410 kJ/mol
# Density = 2.753470 g / cm^3
# Si number density = 27.597515 Si / 1000 Ang^3
#
#
#
# Elastic Constant Matrix: (Units=GPa)
#
#
# Indices 1 2 3 4 5 6 
#
# 1 101.3840 13.8261 29.8049 1.3137 -6.8362 21.7253
# 2 13.8261 131.9805 31.8912 36.3692 -13.0514 -1.4340
# 3 29.8049 31.8912 129.5949 43.6477 17.2121 7.3935
# 4 1.3137 36.3692 43.6477 43.2208 3.6076 -0.9763
# 5 -6.8362 -13.0514 17.2121 3.6076 45.3597 8.2563
# 6 21.7253 -1.4340 7.3935 -0.9763 8.2563 26.7047
#
#
#
# Elastic Compliance Matrix: (Units=1/GPa)
#
#
# Indices 1 2 3 4 5 6 
#
# 1 0.014181 -0.001226 -0.004470 0.004406 0.005285 -0.011838
# 2 -0.001226 0.010587 0.000458 -0.009621 0.003449 0.000021
# 3 -0.004470 0.000458 0.013900 -0.013863 -0.004861 0.000809
# 4 0.004406 -0.009621 -0.013863 0.045197 -0.000733 0.001616
# 5 0.005285 0.003449 -0.004861 -0.000733 0.027812 -0.011394
# 6 -0.011838 0.000021 0.000809 0.001616 -0.011394 0.050436
#
#
# Mechanical properties :
#
#
# Convention : Reuss Voigt Hill
#
# Bulk Modulus (GPa) = 35.47120 57.11155 46.29138
# Shear Modulus (GPa) = 27.47453 42.21950 34.84702
#
# Velocity S-wave (km/s) = 3.15865 3.91555 3.55729
# Velocity P-wave (km/s) = 5.11700 6.41727 5.80367
#
# Compressibility (1/GPa) = 0.02819188
#
# Stress axis : x y z
#
# Youngs Moduli (GPa) = 70.51804 94.45271 71.94052
#
# Poissons Ratio (x) = 0.11576 0.32160
# Poissons Ratio (y) = 0.08642 -0.03292
# Poissons Ratio (z) = 0.31524 -0.04323
#
# Static dielectric constant tensor:
#      x y z
#    x 0.045210 -1.062090 -0.750590 
#    y -1.062090 1.295040 -0.287640 
#    z -0.750590 -0.287640 1.902290 
# 
# From -- ./inp_files/185220.got.cif
#   From: 2010.05.17/outbox.cif.g08.bks.cpg/sg2_93_cif.got.tgz:185220.got - 2010.06.03 11:33:40.
