data_PCOD9028742
_publ_section_title
;
Structure prediction by ZEFSAII (Michael W. Deem and Ramdas Pophale) SiO2 
 PCOD9028742
Probable space group: P -1
;
_chemical_formula_sum "Si O2"
_cell_formula_units_Z 16
_cell_length_a 7.020932
_cell_length_b 17.655087
_cell_length_c 9.806315
_cell_angle_alpha 107.793892
_cell_angle_beta 136.146610
_cell_angle_gamma 73.175059
_cell_volume 797.451817
_symmetry_space_group_name_H-M "P -1"
_symmetry_group_IT_number 2
_symmetry_cell_setting 'triclinic'
loop_
_space_group_symop_operation_xyz
x,y,z
-x,-y,-z
loop_
_atom_site_type_symbol
_atom_site_label
_atom_site_fract_x
_atom_site_fract_y
_atom_site_fract_z
Si Si1 0.725125 0.949032 0.678318
Si Si2 0.264141 0.042948 0.996374
Si Si3 0.641841 0.576601 0.064565
Si Si4 0.030012 0.219877 0.968506
Si Si5 0.959686 0.774656 0.701179
Si Si6 0.292143 0.574244 0.384518
Si Si7 0.538072 0.318464 0.227641
Si Si8 0.498538 0.326375 0.685334
O O1 0.794946 0.857904 0.615496
O O2 0.500000 0.000000 0.500000
O O3 0.636775 0.948946 0.791563
O O4 0.007897 0.990290 0.839369
O O5 0.152052 0.131775 0.937130
O O6 0.500000 0.000000 0.000000
O O7 0.577733 0.643458 0.185714
O O8 0.972875 0.557754 0.211059
O O9 0.500000 0.500000 0.000000
O O10 0.517370 0.613433 0.879374
O O11 0.983107 0.215999 0.104418
O O12 0.253159 0.282049 0.090887
O O13 0.742764 0.254251 0.772698
O O14 0.768871 0.703551 0.539398
O O15 0.242296 0.751230 0.754927
O O16 0.500000 0.500000 0.500000
O O17 0.336890 0.644760 0.553302
O O18 0.387129 0.602792 0.302298
#
# Coordination Sequence:
#
# PCOD9028742 Si02
#       8
#     2   2   2   2   2   2   2   2
#     4  10  22  42  64  97 132 169 213 260 317 377
#     4  10  22  42  64  97 132 169 213 260 317 377
#     4  12  28  44  68  96 126 171 212 266 324 379
#     4  11  23  41  68  95 131 170 211 269 314 372
#     4  11  23  41  68  95 131 170 211 269 314 372
#     4  12  28  44  66  96 130 166 212 264 322 392
#     4  12  24  44  66  96 129 167 219 259 320 382
#     4  12  24  44  66  96 129 167 219 259 320 382
#
# _framework density 20.063908999999999
#
# number of rings (size 3 to 8) (size 9 to 14) (size 15 to 20)
#    0.000    0.750    5.000    2.250    3.500    2.500 
#    4.500    0.000    0.000    0.000    0.000    0.000 
#    0.000    0.000    0.000    0.000    0.000    0.000 
#
# Total GULP energy -89504.622499 kJ/mol
# GULP energy per Si atom -5594.038906 kJ/mol
# Density = 2.001824 g / cm^3
# Si number density = 20.063909 Si / 1000 Ang^3
#
#
#
# Elastic Constant Matrix: (Units=GPa)
#
#
# Indices 1 2 3 4 5 6 
#
# 1 58.1197 0.1642 14.1306 -10.6774 2.2504 -12.7777
# 2 0.1642 66.5341 -10.9504 -15.5876 1.9059 -5.3539
# 3 14.1306 -10.9504 37.4505 -11.1213 10.5626 -5.5239
# 4 -10.6774 -15.5876 -11.1213 42.9442 1.1040 4.2334
# 5 2.2504 1.9059 10.5626 1.1040 26.6153 0.7171
# 6 -12.7777 -5.3539 -5.5239 4.2334 0.7171 38.9846
#
#
#
# Elastic Compliance Matrix: (Units=1/GPa)
#
#
# Indices 1 2 3 4 5 6 
#
# 1 0.020433 0.000070 -0.006114 0.002968 0.000422 0.005510
# 2 0.000070 0.019533 0.010808 0.009741 -0.006187 0.003293
# 3 -0.006114 0.010808 0.041644 0.013215 -0.017447 0.004267
# 4 0.002968 0.009741 0.013215 0.031082 -0.007508 0.000946
# 5 0.000422 -0.006187 -0.017447 -0.007508 0.045302 -0.003201
# 6 0.005510 0.003293 0.004267 0.000946 -0.003201 0.028470
#
#
# Mechanical properties :
#
#
# Convention : Reuss Voigt Hill
#
# Bulk Modulus (GPa) = 10.97240 18.75478 14.86359
# Shear Modulus (GPa) = 24.11812 32.29279 28.20546
#
# Velocity S-wave (km/s) = 3.47084 4.01621 3.75344
# Velocity P-wave (km/s) = 4.64144 5.55647 5.11944
#
# Compressibility (1/GPa) = 0.09113772
#
# Stress axis : x y z
#
# Youngs Moduli (GPa) = 48.94153 51.19594 24.01328
#
# Poissons Ratio (x) = -0.00359 0.14681
# Poissons Ratio (y) = -0.00343 -0.25954
# Poissons Ratio (z) = 0.29922 -0.55333
#
# Static dielectric constant tensor:
#      x y z
#    x 1.681050 -0.001540 -0.013820 
#    y -0.001540 1.711200 0.004990 
#    z -0.013820 0.004990 1.676030 
# 
# From -- ./inp_files/47266.got.cif
#   From: 2010.05.17/outbox.cif.g08.bks.cpg/sg2_24_cif.got.tgz:47266.got - 2010.06.03 11:33:40.
