data_PCOD9028599
_publ_section_title
;
Structure prediction by ZEFSAII (Michael W. Deem and Ramdas Pophale) SiO2 
 PCOD9028599
Probable space group: P -1
;
_chemical_formula_sum "Si O2"
_cell_formula_units_Z 16
_cell_length_a 17.968789
_cell_length_b 10.610561
_cell_length_c 7.615562
_cell_angle_alpha 136.979501
_cell_angle_beta 48.917980
_cell_angle_gamma 141.844278
_cell_volume 600.245818
_symmetry_space_group_name_H-M "P -1"
_symmetry_group_IT_number 2
_symmetry_cell_setting 'triclinic'
loop_
_space_group_symop_operation_xyz
x,y,z
-x,-y,-z
loop_
_atom_site_type_symbol
_atom_site_label
_atom_site_fract_x
_atom_site_fract_y
_atom_site_fract_z
Si Si1 0.349316 0.818912 0.161184
Si Si2 0.643080 0.975925 0.303316
Si Si3 0.824506 0.455874 0.319555
Si Si4 0.447264 0.203622 0.112752
Si Si5 0.104614 0.787008 0.291388
Si Si6 0.751446 0.726731 0.534486
Si Si7 0.880604 0.657018 0.946309
Si Si8 0.147861 0.996283 0.820278
O O1 0.411856 0.000943 0.409621
O O2 0.372167 0.963621 0.097612
O O3 0.210573 0.613471 0.218518
O O4 0.417981 0.697353 0.927103
O O5 0.736289 0.229851 0.338702
O O6 0.728431 0.905846 0.168347
O O7 0.557993 0.829088 0.122961
O O8 0.751678 0.564903 0.510520
O O9 0.958420 0.640965 0.380776
O O10 0.861675 0.374882 0.006215
O O11 0.377592 0.320477 0.363668
O O12 0.156377 0.914652 0.528958
O O13 0.162030 0.999735 0.282620
O O14 0.825248 0.701952 0.243749
O O15 0.872430 0.807536 0.965346
O O16 0.023556 0.770951 0.863459
#
# Coordination Sequence:
#
# PCOD9028599 Si02
#       8
#     2   2   2   2   2   2   2   2
#     4  11  25  48  75  99 139 183 245 293 348 423
#     4  12  25  43  72 103 139 184 232 294 349 423
#     4  11  24  38  67 102 138 192 238 272 359 430
#     4  11  26  48  71 101 137 190 236 299 354 401
#     4  10  22  42  63  98 147 194 225 290 347 418
#     4  11  23  41  68  98 146 180 236 297 344 418
#     4  10  23  42  69 106 139 189 231 285 355 426
#     4  10  24  42  67 103 148 181 226 287 360 419
#
# _framework density 26.655746000000001
#
# number of rings (size 3 to 8) (size 9 to 14) (size 15 to 20)
#    0.000    1.250    1.250    3.750    5.250    5.500 
#    0.000    3.750    0.000    0.000    0.000    0.000 
#    0.000    0.000    0.000    0.000    0.000    0.000 
#
# Total GULP energy -89551.709736 kJ/mol
# GULP energy per Si atom -5596.981858 kJ/mol
# Density = 2.659508 g / cm^3
# Si number density = 26.655746 Si / 1000 Ang^3
#
#
#
# Elastic Constant Matrix: (Units=GPa)
#
#
# Indices 1 2 3 4 5 6 
#
# 1 108.2028 -9.4496 39.7461 14.2603 -17.2695 -17.0547
# 2 -9.4496 35.1005 5.2211 8.9455 1.1418 -8.0458
# 3 39.7461 5.2211 119.9901 16.4121 -6.3151 -14.0174
# 4 14.2603 8.9455 16.4121 37.1144 -9.8482 -11.9462
# 5 -17.2695 1.1418 -6.3151 -9.8482 61.3548 2.2624
# 6 -17.0547 -8.0458 -14.0174 -11.9462 2.2624 26.8457
#
#
#
# Elastic Compliance Matrix: (Units=1/GPa)
#
#
# Indices 1 2 3 4 5 6 
#
# 1 0.012739 0.005948 -0.003250 -0.001922 0.002570 0.007107
# 2 0.005948 0.034429 -0.001354 -0.006785 -0.000579 0.010420
# 3 -0.003250 -0.001354 0.009977 -0.002367 -0.000306 0.001711
# 4 -0.001922 -0.006785 -0.002367 0.035024 0.004569 0.010710
# 5 0.002570 -0.000579 -0.000306 0.004569 0.017667 0.001844
# 6 0.007107 0.010420 0.001711 0.010710 0.001844 0.050392
#
#
# Mechanical properties :
#
#
# Convention : Reuss Voigt Hill
#
# Bulk Modulus (GPa) = 16.71306 37.14760 26.93033
# Shear Modulus (GPa) = 28.17176 40.24804 34.20990
#
# Velocity S-wave (km/s) = 3.25449 3.88998 3.58634
# Velocity P-wave (km/s) = 4.51728 5.84314 5.22246
#
# Compressibility (1/GPa) = 0.05983344
#
# Stress axis : x y z
#
# Youngs Moduli (GPa) = 78.50021 29.04550 100.22910
#
# Poissons Ratio (x) = -0.17277 0.32576
# Poissons Ratio (y) = -0.46693 0.13566
# Poissons Ratio (z) = 0.25514 0.03931
#
# Static dielectric constant tensor:
#      x y z
#    x 2.207100 -0.027740 0.020130 
#    y -0.027740 2.071230 -0.012460 
#    z 0.020130 -0.012460 2.123640 
# 
# From -- ./inp_files/346431.got.cif
#   From: 2010.05.17/outbox.cif.g08.bks.cpg/sg2_174_cif.got.tgz:346431.got - 2010.06.03 11:33:40.
