data_PCOD9028276
_publ_section_title
;
Structure prediction by ZEFSAII (Michael W. Deem and Ramdas Pophale) SiO2 
 PCOD9028276
Probable space group: P -1
;
_chemical_formula_sum "Si O2"
_cell_formula_units_Z 12
_cell_length_a 16.936477
_cell_length_b 14.252975
_cell_length_c 8.662458
_cell_angle_alpha 46.841680
_cell_angle_beta 157.293200
_cell_angle_gamma 145.883163
_cell_volume 420.937655
_symmetry_space_group_name_H-M "P -1"
_symmetry_group_IT_number 2
_symmetry_cell_setting 'triclinic'
loop_
_space_group_symop_operation_xyz
x,y,z
-x,-y,-z
loop_
_atom_site_type_symbol
_atom_site_label
_atom_site_fract_x
_atom_site_fract_y
_atom_site_fract_z
Si Si1 0.493474 0.653382 0.858565
Si Si2 0.807766 0.433524 0.843949
Si Si3 0.719478 0.918796 0.219306
Si Si4 0.146857 0.690873 0.623581
Si Si5 0.339109 0.372863 0.497496
Si Si6 0.100551 0.154949 0.889388
O O1 0.169744 0.558528 0.322829
O O2 0.500000 0.500000 0.000000
O O3 0.673934 0.862992 0.020486
O O4 0.449222 0.592337 0.031750
O O5 0.843298 0.593379 0.797286
O O6 0.434560 0.281437 0.293638
O O7 0.759074 0.313017 0.031654
O O8 0.816556 0.829246 0.582991
O O9 0.958258 0.115917 0.505064
O O10 0.426555 0.838119 0.857810
O O11 0.000000 0.500000 0.500000
O O12 0.500000 0.500000 0.500000
O O13 0.017489 0.247380 0.726551
O O14 0.000000 0.000000 0.000000
#
# Coordination Sequence:
#
# PCOD9028276 Si02
#       6
#     2   2   2   2   2   2
#     4  10  24  43  70 104 140 192 237 286 356 429
#     4  12  23  40  66 105 143 178 232 301 350 412
#     4  10  24  46  69 100 144 182 238 282 358 419
#     4  12  27  44  72 107 140 184 247 298 349 415
#     4  10  22  41  73  99 146 180 238 288 362 409
#     4  12  27  47  73 101 146 194 232 290 362 428
#
# _framework density 28.507784999999998
#
# number of rings (size 3 to 8) (size 9 to 14) (size 15 to 20)
#    1.000    0.000    1.667    4.500    4.667    0.000 
#    0.000    1.667    0.000    0.000    0.000    0.000 
#    0.000    0.000    0.000    0.000    0.000    0.000 
#
# Total GULP energy -66886.336900 kJ/mol
# GULP energy per Si atom -5573.861408 kJ/mol
# Density = 2.844290 g / cm^3
# Si number density = 28.507785 Si / 1000 Ang^3
#
#
#
# Elastic Constant Matrix: (Units=GPa)
#
#
# Indices 1 2 3 4 5 6 
#
# 1 280.3347 63.4627 69.0440 -6.4463 19.0192 -23.1836
# 2 63.4627 113.7385 51.0932 -19.6583 4.2124 -15.7565
# 3 69.0440 51.0932 229.6301 -5.7832 -18.8574 -14.1170
# 4 -6.4463 -19.6583 -5.7832 59.1053 1.9444 -6.0064
# 5 19.0192 4.2124 -18.8574 1.9444 60.5953 -5.7051
# 6 -23.1836 -15.7565 -14.1170 -6.0064 -5.7051 67.2026
#
#
#
# Elastic Compliance Matrix: (Units=1/GPa)
#
#
# Indices 1 2 3 4 5 6 
#
# 1 0.004392 -0.001872 -0.000983 -0.000117 -0.001482 0.000733
# 2 -0.001872 0.011613 -0.001868 0.003698 -0.000736 0.001952
# 3 -0.000983 -0.001868 0.005265 -0.000234 0.002131 0.000489
# 4 -0.000117 0.003698 -0.000234 0.018375 -0.000660 0.002364
# 5 -0.001482 -0.000736 0.002131 -0.000660 0.017818 0.001218
# 6 0.000733 0.001952 0.000489 0.002364 0.001218 0.016008
#
#
# Mechanical properties :
#
#
# Convention : Reuss Voigt Hill
#
# Bulk Modulus (GPa) = 84.58788 110.10033 97.34411
# Shear Modulus (GPa) = 57.56369 66.72087 62.14228
#
# Velocity S-wave (km/s) = 4.49846 4.84306 4.67394
# Velocity P-wave (km/s) = 7.53112 8.36532 7.95916
#
# Compressibility (1/GPa) = 0.01182202
#
# Stress axis : x y z
#
# Youngs Moduli (GPa) = 227.70144 86.11060 189.92229
#
# Poissons Ratio (x) = 0.16124 0.18677
# Poissons Ratio (y) = 0.42635 0.35481
# Poissons Ratio (z) = 0.22392 0.16087
#
# Static dielectric constant tensor:
#      x y z
#    x 2.339290 -0.087780 -0.038790 
#    y -0.087780 3.204100 0.793490 
#    z -0.038790 0.793490 2.913160 
# 
# From -- ./inp_files/303169.got.cif
#   From: 2010.05.17/outbox.cif.g08.bks.cpg/sg2_152_cif.got.tgz:303169.got - 2010.06.03 11:33:40.
