data_PCOD9028724
_publ_section_title
;
Structure prediction by ZEFSAII (Michael W. Deem and Ramdas Pophale) SiO2 
 PCOD9028724
Probable space group: P -1
;
_chemical_formula_sum "Si O2"
_cell_formula_units_Z 14
_cell_length_a 6.988168
_cell_length_b 13.535633
_cell_length_c 7.346123
_cell_angle_alpha 61.705114
_cell_angle_beta 63.066136
_cell_angle_gamma 76.904441
_cell_volume 545.412987
_symmetry_space_group_name_H-M "P -1"
_symmetry_group_IT_number 2
_symmetry_cell_setting 'triclinic'
loop_
_space_group_symop_operation_xyz
x,y,z
-x,-y,-z
loop_
_atom_site_type_symbol
_atom_site_label
_atom_site_fract_x
_atom_site_fract_y
_atom_site_fract_z
Si Si1 0.194689 0.741357 0.475698
Si Si2 0.113335 0.369501 0.873044
Si Si3 0.263889 0.963780 0.067965
Si Si4 0.682100 0.915114 0.429689
Si Si5 0.760139 0.663273 0.556670
Si Si6 0.071176 0.134819 0.260988
Si Si7 0.340760 0.557318 0.820523
O O1 0.246428 0.829156 0.216390
O O2 0.344852 0.641584 0.566977
O O3 0.970719 0.680511 0.575860
O O4 0.156045 0.823254 0.596010
O O5 0.153771 0.384102 0.630109
O O6 0.277309 0.439705 0.863159
O O7 0.147456 0.239033 0.018789
O O8 0.868653 0.403892 0.005794
O O9 0.100869 0.025806 0.222416
O O10 0.500000 0.000000 0.000000
O O11 0.227052 0.016028 0.841050
O O12 0.658516 0.789059 0.471340
O O13 0.790725 0.884598 0.602000
O O14 0.500000 0.000000 0.500000
O O15 0.574291 0.582775 0.780503
#
# Coordination Sequence:
#
# PCOD9028724 Si02
#       7
#     2   2   2   2   2   2   2
#     4  10  25  42  65 105 135 176 239 283 342 430
#     4  10  22  45  70  99 133 186 232 284 353 411
#     4  12  22  41  68  96 139 188 223 287 357 404
#     4  11  23  38  63 102 136 178 235 273 340 425
#     4  11  23  44  67 101 140 181 231 288 349 413
#     4  10  22  42  64  95 139 176 229 286 341 410
#     4  10  23  45  72  97 140 183 230 293 350 405
#
# _framework density 25.668624000000001
#
# number of rings (size 3 to 8) (size 9 to 14) (size 15 to 20)
#    0.000    1.429    2.857    1.714    0.000    4.000 
#    5.143   11.429    0.000    0.000    0.000    0.000 
#    0.000    0.000    0.000    0.000    0.000    0.000 
#
# Total GULP energy -78308.859944 kJ/mol
# GULP energy per Si atom -5593.489996 kJ/mol
# Density = 2.561020 g / cm^3
# Si number density = 25.668624 Si / 1000 Ang^3
#
#
#
# Elastic Constant Matrix: (Units=GPa)
#
#
# Indices 1 2 3 4 5 6 
#
# 1 98.4588 8.7986 6.7184 3.2529 -18.9369 24.3886
# 2 8.7986 72.1032 20.4303 5.5275 -6.8847 10.0846
# 3 6.7184 20.4303 119.2670 -4.5742 -7.7132 21.9771
# 4 3.2529 5.5275 -4.5742 57.5954 9.2173 6.3868
# 5 -18.9369 -6.8847 -7.7132 9.2173 33.3982 -6.0519
# 6 24.3886 10.0846 21.9771 6.3868 -6.0519 32.8086
#
#
#
# Elastic Compliance Matrix: (Units=1/GPa)
#
#
# Indices 1 2 3 4 5 6 
#
# 1 0.013783 -0.000042 0.001450 -0.000606 0.006518 -0.009884
# 2 -0.000042 0.015186 -0.002047 -0.001779 0.002686 -0.002424
# 3 0.001450 -0.002047 0.010134 0.001581 0.000970 -0.007366
# 4 -0.000606 -0.001779 0.001581 0.019305 -0.006585 -0.005035
# 5 0.006518 0.002686 0.000970 -0.006585 0.036541 0.001702
# 6 -0.009884 -0.002424 -0.007366 -0.005035 0.001702 0.044801
#
#
# Mechanical properties :
#
#
# Convention : Reuss Voigt Hill
#
# Bulk Modulus (GPa) = 26.43597 40.19151 33.31374
# Shear Modulus (GPa) = 32.54455 41.68591 37.11523
#
# Velocity S-wave (km/s) = 3.56458 4.03426 3.80667
# Velocity P-wave (km/s) = 5.22140 6.11492 5.68574
#
# Compressibility (1/GPa) = 0.03782725
#
# Stress axis : x y z
#
# Youngs Moduli (GPa) = 72.55160 65.85061 98.67572
#
# Poissons Ratio (x) = 0.00274 -0.14311
# Poissons Ratio (y) = 0.00302 0.20197
# Poissons Ratio (z) = -0.10523 0.13478
#
# Static dielectric constant tensor:
#      x y z
#    x 2.115560 0.009830 -0.085810 
#    y 0.009830 2.063330 -0.045330 
#    z -0.085810 -0.045330 2.119310 
# 
# From -- ./inp_files/195529.got.cif
#   From: 2010.05.17/outbox.cif.g08.bks.cpg/sg2_98_cif.got.tgz:195529.got - 2010.06.03 11:33:40.
