data_PCOD9028815
_publ_section_title
;
Structure prediction by ZEFSAII (Michael W. Deem and Ramdas Pophale) SiO2 
 PCOD9028815
Probable space group: P -1
;
_chemical_formula_sum "Si O2"
_cell_formula_units_Z 14
_cell_length_a 7.941760
_cell_length_b 8.390798
_cell_length_c 12.518492
_cell_angle_alpha 64.840048
_cell_angle_beta 99.599546
_cell_angle_gamma 62.374550
_cell_volume 596.139724
_symmetry_space_group_name_H-M "P -1"
_symmetry_group_IT_number 2
_symmetry_cell_setting 'triclinic'
loop_
_space_group_symop_operation_xyz
x,y,z
-x,-y,-z
loop_
_atom_site_type_symbol
_atom_site_label
_atom_site_fract_x
_atom_site_fract_y
_atom_site_fract_z
Si Si1 0.081047 0.483810 0.295885
Si Si2 0.402936 0.841085 0.207439
Si Si3 0.714479 0.302730 0.143582
Si Si4 0.871536 0.704606 0.849828
Si Si5 0.748549 0.331591 0.595057
Si Si6 0.156735 0.022777 0.931664
Si Si7 0.203138 0.646193 0.630833
O O1 0.217380 0.350300 0.244290
O O2 0.173769 0.530261 0.392249
O O3 0.999112 0.344808 0.362824
O O4 0.917738 0.730047 0.159369
O O5 0.245046 0.803507 0.265033
O O6 0.632464 0.613365 0.309229
O O7 0.326051 0.071664 0.182884
O O8 0.366633 0.879390 0.067038
O O9 0.785158 0.085543 0.148260
O O10 0.694544 0.316291 0.267160
O O11 0.928151 0.290763 0.157482
O O12 0.500000 0.500000 0.000000
O O13 0.000000 0.500000 0.000000
O O14 0.500000 0.500000 0.500000
O O15 0.840452 0.220141 0.521277
O O16 0.000000 0.000000 0.000000
#
# Coordination Sequence:
#
# PCOD9028815 Si02
#       7
#     2   2   2   2   2   2   2
#     4  11  22  39  61  91 124 154 202 260 303 342
#     4  11  21  40  63  90 122 163 205 239 299 371
#     4  11  22  36  59  92 121 157 199 252 301 352
#     4  11  22  36  59  92 122 156 198 250 305 356
#     4  10  22  42  65  83 119 171 205 241 293 370
#     4  12  20  37  65  90 121 161 202 248 303 360
#     4  10  24  40  60  92 127 156 202 251 302 355
#
# _framework density 23.484425999999999
#
# number of rings (size 3 to 8) (size 9 to 14) (size 15 to 20)
#    0.000    1.143    5.714    0.429    0.000    1.714 
#    0.000   10.714    0.000    0.000    0.000    0.000 
#    0.000    0.000    0.000    0.000    0.000    0.000 
#
# Total GULP energy -77961.421831 kJ/mol
# GULP energy per Si atom -5568.672988 kJ/mol
# Density = 2.343097 g / cm^3
# Si number density = 23.484426 Si / 1000 Ang^3
#
#
#
# Elastic Constant Matrix: (Units=GPa)
#
#
# Indices 1 2 3 4 5 6 
#
# 1 23.0807 -13.4784 13.6528 9.9123 -2.5817 5.0013
# 2 -13.4784 118.2511 27.6350 35.3530 0.0644 3.9355
# 3 13.6528 27.6350 123.5775 48.8278 0.4313 10.9500
# 4 9.9123 35.3530 48.8278 50.8904 -0.8785 10.2568
# 5 -2.5817 0.0644 0.4313 -0.8785 31.8066 -3.7211
# 6 5.0013 3.9355 10.9500 10.2568 -3.7211 20.7712
#
#
#
# Elastic Compliance Matrix: (Units=1/GPa)
#
#
# Indices 1 2 3 4 5 6 
#
# 1 0.061614 0.012983 -0.002226 -0.017441 0.003723 -0.006843
# 2 0.012983 0.013528 0.000390 -0.012356 0.000719 0.000335
# 3 -0.002226 0.000390 0.013205 -0.012419 -0.000762 -0.000503
# 4 -0.017441 -0.012356 -0.012419 0.045453 -0.001084 -0.009551
# 5 0.003723 0.000719 -0.000762 -0.001084 0.032389 0.005707
# 6 -0.006843 0.000335 -0.000503 -0.009551 0.005707 0.055732
#
#
# Mechanical properties :
#
#
# Convention : Reuss Voigt Hill
#
# Bulk Modulus (GPa) = 9.03814 35.61423 22.32619
# Shear Modulus (GPa) = 21.14116 36.50030 28.82073
#
# Velocity S-wave (km/s) = 3.00362 3.94665 3.50698
# Velocity P-wave (km/s) = 3.98571 5.99717 5.09176
#
# Compressibility (1/GPa) = 0.11064218
#
# Stress axis : x y z
#
# Youngs Moduli (GPa) = 16.23008 73.92263 75.72886
#
# Poissons Ratio (x) = -0.95974 0.16855
# Poissons Ratio (y) = -0.21072 -0.02957
# Poissons Ratio (z) = 0.03612 -0.02886
#
# Static dielectric constant tensor:
#      x y z
#    x 1.978820 -0.024960 -0.056400 
#    y -0.024960 1.978400 0.111020 
#    z -0.056400 0.111020 2.083500 
# 
# From -- ./inp_files/178828.got.cif
#   From: 2010.05.17/outbox.cif.g08.bks.cpg/sg2_90_cif.got.tgz:178828.got - 2010.06.03 11:33:40.
