data_PCOD9028847
_publ_section_title
;
Structure prediction by ZEFSAII (Michael W. Deem and Ramdas Pophale) SiO2 
 PCOD9028847
Probable space group: P -1
;
_chemical_formula_sum "Si O2"
_cell_formula_units_Z 16
_cell_length_a 13.571082
_cell_length_b 14.194005
_cell_length_c 9.376079
_cell_angle_alpha 70.044885
_cell_angle_beta 87.093403
_cell_angle_gamma 147.048996
_cell_volume 694.257378
_symmetry_space_group_name_H-M "P -1"
_symmetry_group_IT_number 2
_symmetry_cell_setting 'triclinic'
loop_
_space_group_symop_operation_xyz
x,y,z
-x,-y,-z
loop_
_atom_site_type_symbol
_atom_site_label
_atom_site_fract_x
_atom_site_fract_y
_atom_site_fract_z
Si Si1 0.308699 0.410586 0.584762
Si Si2 0.964633 0.229037 0.123027
Si Si3 0.476169 0.226422 0.813629
Si Si4 0.257106 0.147522 0.113684
Si Si5 0.784040 0.377128 0.271783
Si Si6 0.769831 0.128459 0.473765
Si Si7 0.116455 0.498966 0.481073
Si Si8 0.594124 0.489342 0.154045
O O1 0.500000 0.500000 0.500000
O O2 0.355560 0.533623 0.394113
O O3 0.376403 0.513689 0.683073
O O4 0.029414 0.119856 0.750656
O O5 0.875778 0.158760 0.325875
O O6 0.754271 0.994981 0.156990
O O7 0.036490 0.404072 0.963414
O O8 0.192745 0.368146 0.020875
O O9 0.646326 0.287160 0.747330
O O10 0.384914 0.177846 0.998106
O O11 0.346486 0.231023 0.227437
O O12 0.359025 0.347943 0.942348
O O13 0.812585 0.284591 0.341572
O O14 0.815631 0.458900 0.382243
O O15 0.515169 0.146915 0.354227
O O16 0.910429 0.243511 0.551235
O O17 0.000000 0.500000 0.500000
#
# Coordination Sequence:
#
# PCOD9028847 Si02
#       8
#     2   2   2   2   2   2   2   2
#     4  12  24  44  68  95 131 175 209 267 328 375
#     4  12  23  41  68  95 129 171 218 264 325 382
#     4  12  24  43  68  94 134 174 216 266 324 385
#     4  11  25  46  65  97 134 167 219 268 317 391
#     4  10  22  43  64  92 128 168 212 269 321 383
#     4  10  22  42  65  91 128 167 215 266 324 380
#     4  10  22  43  65  93 130 168 213 270 322 378
#     4  11  24  44  67  97 130 169 218 267 319 386
#
# _framework density 23.046209000000001
#
# number of rings (size 3 to 8) (size 9 to 14) (size 15 to 20)
#    0.000    1.000    3.750    3.000    0.000    1.500 
#    4.500    1.250    0.000    0.000    0.000    0.000 
#    0.000    0.000    0.000    0.000    0.000    0.000 
#
# Total GULP energy -89543.891223 kJ/mol
# GULP energy per Si atom -5596.493201 kJ/mol
# Density = 2.299375 g / cm^3
# Si number density = 23.046209 Si / 1000 Ang^3
#
#
#
# Elastic Constant Matrix: (Units=GPa)
#
#
# Indices 1 2 3 4 5 6 
#
# 1 94.5547 12.8905 20.0941 0.6609 -24.5850 5.4630
# 2 12.8905 177.8744 41.0722 8.0935 -13.4801 15.5852
# 3 20.0941 41.0722 76.8787 -1.9646 -14.6271 -7.3227
# 4 0.6609 8.0935 -1.9646 16.7739 -4.4384 -8.2958
# 5 -24.5850 -13.4801 -14.6271 -4.4384 41.2566 -2.6175
# 6 5.4630 15.5852 -7.3227 -8.2958 -2.6175 31.7107
#
#
#
# Elastic Compliance Matrix: (Units=1/GPa)
#
#
# Indices 1 2 3 4 5 6 
#
# 1 0.012975 0.000426 -0.002605 -0.000546 0.006722 -0.002635
# 2 0.000426 0.007772 -0.005234 -0.008065 -0.000389 -0.007244
# 3 -0.002605 -0.005234 0.018833 0.011617 0.005353 0.010851
# 4 -0.000546 -0.008065 0.011617 0.082536 0.011897 0.029315
# 5 0.006722 -0.000389 0.005353 0.011897 0.031675 0.005996
# 6 -0.002635 -0.007244 0.010851 0.029315 0.005996 0.046219
#
#
# Mechanical properties :
#
#
# Convention : Reuss Voigt Hill
#
# Bulk Modulus (GPa) = 40.39544 55.26904 47.83224
# Shear Modulus (GPa) = 22.41283 36.29832 29.35557
#
# Velocity S-wave (km/s) = 3.12190 3.97296 3.57286
# Velocity P-wave (km/s) = 5.52821 6.71415 6.14983
#
# Compressibility (1/GPa) = 0.02475527
#
# Stress axis : x y z
#
# Youngs Moduli (GPa) = 77.07061 128.67258 53.09755
#
# Poissons Ratio (x) = -0.05486 0.13833
# Poissons Ratio (y) = -0.03286 0.27789
# Poissons Ratio (z) = 0.20078 0.67342
#
# Static dielectric constant tensor:
#      x y z
#    x 1.962380 -0.027230 0.007200 
#    y -0.027230 1.850720 0.002960 
#    z 0.007200 0.002960 1.825870 
# 
# From -- ./inp_files/315088.got.cif
#   From: 2010.05.17/outbox.cif.g08.bks.cpg/sg2_158_cif.got.tgz:315088.got - 2010.06.03 11:33:40.
