data_PCOD9028331
_publ_section_title
;
Structure prediction by ZEFSAII (Michael W. Deem and Ramdas Pophale) SiO2 
 PCOD9028331
Probable space group: P -1
;
_chemical_formula_sum "Si O2"
_cell_formula_units_Z 16
_cell_length_a 16.905196
_cell_length_b 5.873472
_cell_length_c 8.103564
_cell_angle_alpha 115.611843
_cell_angle_beta 119.234156
_cell_angle_gamma 78.591366
_cell_volume 633.056713
_symmetry_space_group_name_H-M "P -1"
_symmetry_group_IT_number 2
_symmetry_cell_setting 'triclinic'
loop_
_space_group_symop_operation_xyz
x,y,z
-x,-y,-z
loop_
_atom_site_type_symbol
_atom_site_label
_atom_site_fract_x
_atom_site_fract_y
_atom_site_fract_z
Si Si1 0.488348 0.256053 0.170401
Si Si2 0.588052 0.088879 0.524102
Si Si3 0.281500 0.286504 0.925799
Si Si4 0.054336 0.901723 0.862461
Si Si5 0.993339 0.379269 0.768118
Si Si6 0.773728 0.239371 0.850946
Si Si7 0.353978 0.437026 0.705058
Si Si8 0.792780 0.216237 0.481594
O O1 0.544255 0.456358 0.180788
O O2 0.547473 0.264758 0.398616
O O3 0.381363 0.258480 0.098718
O O4 0.500000 0.000000 0.000000
O O5 0.634517 0.855274 0.410482
O O6 0.500000 0.000000 0.500000
O O7 0.666857 0.195489 0.752043
O O8 0.307703 0.448117 0.839293
O O9 0.236689 0.026353 0.733275
O O10 0.216313 0.458405 0.021958
O O11 0.033281 0.598029 0.754979
O O12 0.161731 0.911437 0.010694
O O13 0.029790 0.093595 0.750031
O O14 0.000000 0.000000 0.000000
O O15 0.891101 0.334351 0.584468
O O16 0.000000 0.500000 0.000000
O O17 0.797195 0.161024 0.664332
O O18 0.285353 0.580068 0.561283
#
# Coordination Sequence:
#
# PCOD9028331 Si02
#       8
#     2   2   2   2   2   2   2   2
#     4  12  23  46  64  99 146 193 243 302 366 431
#     4  12  28  43  70 109 139 195 250 301 366 445
#     4  12  28  45  70 107 144 191 251 299 373 444
#     4  10  22  44  75 112 143 195 247 309 381 454
#     4  10  22  41  78 107 146 190 247 308 382 447
#     4  12  25  48  74 106 145 191 248 306 372 446
#     4  12  24  44  72  96 147 196 238 308 370 436
#     4  12  25  47  72 106 142 193 243 308 367 448
#
# _framework density 25.2742
#
# number of rings (size 3 to 8) (size 9 to 14) (size 15 to 20)
#    0.000    0.500    7.500    1.125    8.750    1.000 
#    2.250    1.250    0.000    0.000    0.000    0.000 
#    0.000    0.000    0.000    0.000    0.000    0.000 
#
# Total GULP energy -89456.480738 kJ/mol
# GULP energy per Si atom -5591.030046 kJ/mol
# Density = 2.521667 g / cm^3
# Si number density = 25.274200 Si / 1000 Ang^3
#
#
#
# Elastic Constant Matrix: (Units=GPa)
#
#
# Indices 1 2 3 4 5 6 
#
# 1 71.8274 25.8563 51.0703 -3.6380 30.6535 -1.6427
# 2 25.8563 122.5614 52.9232 -11.3215 19.8474 -3.7745
# 3 51.0703 52.9232 115.4088 -1.6102 34.7715 -11.6302
# 4 -3.6380 -11.3215 -1.6102 43.0428 -3.8364 2.8450
# 5 30.6535 19.8474 34.7715 -3.8364 40.4715 -1.8468
# 6 -1.6427 -3.7745 -11.6302 2.8450 -1.8468 51.5985
#
#
#
# Elastic Compliance Matrix: (Units=1/GPa)
#
#
# Indices 1 2 3 4 5 6 
#
# 1 0.024229 -0.000013 -0.007172 0.000779 -0.012170 -0.001325
# 2 -0.000013 0.010494 -0.004497 0.002525 -0.001053 -0.000423
# 3 -0.007172 -0.004497 0.016035 -0.001935 -0.006188 0.002942
# 4 0.000779 0.002525 -0.001935 0.024172 0.002058 -0.001486
# 5 -0.012170 -0.001053 -0.006188 0.002058 0.039930 -0.000544
# 6 -0.001325 -0.000423 0.002942 -0.001486 -0.000544 0.020033
#
#
# Mechanical properties :
#
#
# Convention : Reuss Voigt Hill
#
# Bulk Modulus (GPa) = 36.50289 63.27746 49.89017
# Shear Modulus (GPa) = 29.87086 39.01907 34.44497
#
# Velocity S-wave (km/s) = 3.44157 3.93342 3.69569
# Velocity P-wave (km/s) = 5.50151 6.76164 6.16386
#
# Compressibility (1/GPa) = 0.02739509
#
# Stress axis : x y z
#
# Youngs Moduli (GPa) = 41.27290 95.28838 62.36515
#
# Poissons Ratio (x) = 0.00121 0.44728
# Poissons Ratio (y) = 0.00052 0.28045
# Poissons Ratio (z) = 0.29600 0.42851
#
# Static dielectric constant tensor:
#      x y z
#    x 2.101710 0.000210 0.004570 
#    y 0.000210 2.116740 0.072130 
#    z 0.004570 0.072130 2.142540 
# 
# From -- ./inp_files/340707.got.cif
#   From: 2010.05.17/outbox.cif.g08.bks.cpg/sg2_171_cif.got.tgz:340707.got - 2010.06.03 11:33:40.
