data_PCOD9028745
_publ_section_title
;
Structure prediction by ZEFSAII (Michael W. Deem and Ramdas Pophale) SiO2 
 PCOD9028745
Probable space group: P -1
;
_chemical_formula_sum "Si O2"
_cell_formula_units_Z 16
_cell_length_a 17.569578
_cell_length_b 14.399497
_cell_length_c 23.351075
_cell_angle_alpha 159.390699
_cell_angle_beta 157.920050
_cell_angle_gamma 33.950868
_cell_volume 749.022348
_symmetry_space_group_name_H-M "P -1"
_symmetry_group_IT_number 2
_symmetry_cell_setting 'triclinic'
loop_
_space_group_symop_operation_xyz
x,y,z
-x,-y,-z
loop_
_atom_site_type_symbol
_atom_site_label
_atom_site_fract_x
_atom_site_fract_y
_atom_site_fract_z
Si Si1 0.447958 0.287729 0.393058
Si Si2 0.703888 0.948315 0.320783
Si Si3 0.344208 0.555361 0.153151
Si Si4 0.853806 0.067530 0.372076
Si Si5 0.735601 0.906088 0.555991
Si Si6 0.973739 0.193227 0.199323
Si Si7 0.345853 0.467656 0.818463
Si Si8 0.650563 0.497016 0.431815
O O1 0.500000 0.500000 0.500000
O O2 0.443136 0.427197 0.530965
O O3 0.620575 0.119171 0.408964
O O4 0.214950 0.080870 0.101208
O O5 0.792531 0.121019 0.425340
O O6 0.496826 0.703409 0.018980
O O7 0.895776 0.831936 0.406084
O O8 0.507601 0.737703 0.326215
O O9 0.481145 0.471375 0.249621
O O10 0.229461 0.770013 0.222613
O O11 0.203713 0.263127 0.864054
O O12 0.727703 0.225736 0.336828
O O13 0.722109 0.812546 0.426658
O O14 0.908672 0.820022 0.666102
O O15 0.859685 0.433381 0.257326
O O16 0.148996 0.257752 0.308975
O O17 0.500000 0.500000 0.000000
#
# Coordination Sequence:
#
# PCOD9028745 Si02
#       8
#     2   2   2   2   2   2   2   2
#     4  11  23  42  64  99 133 171 219 275 334 388
#     4  10  23  38  64  94 129 173 219 268 329 397
#     4  10  23  40  65  93 131 178 222 272 331 390
#     4  11  21  42  65  93 132 174 223 266 333 395
#     4  10  22  42  64  97 134 175 220 273 332 396
#     4  10  24  41  69  99 132 178 220 271 332 401
#     4  11  22  41  67  99 134 171 222 276 328 390
#     4  11  23  43  66  97 131 175 226 275 326 398
#
# _framework density 21.361180000000001
#
# number of rings (size 3 to 8) (size 9 to 14) (size 15 to 20)
#    0.000    1.500    2.500    1.875    5.250    0.000 
#    4.500    1.875    0.000    0.000    0.000    0.000 
#    0.000    0.000    0.000    0.000    0.000    0.000 
#
# Total GULP energy -89321.334773 kJ/mol
# GULP energy per Si atom -5582.583423 kJ/mol
# Density = 2.131256 g / cm^3
# Si number density = 21.361180 Si / 1000 Ang^3
#
#
#
# Elastic Constant Matrix: (Units=GPa)
#
#
# Indices 1 2 3 4 5 6 
#
# 1 75.4719 27.3488 18.8498 -1.2228 2.3403 -5.2894
# 2 27.3488 109.8961 5.4096 -5.4688 -6.9139 1.1462
# 3 18.8498 5.4096 44.3141 7.7514 4.4118 -7.2685
# 4 -1.2228 -5.4688 7.7514 32.1121 -5.4086 1.1761
# 5 2.3403 -6.9139 4.4118 -5.4086 26.8637 0.7970
# 6 -5.2894 1.1462 -7.2685 1.1761 0.7970 33.6806
#
#
#
# Elastic Compliance Matrix: (Units=1/GPa)
#
#
# Indices 1 2 3 4 5 6 
#
# 1 0.016364 -0.003778 -0.006400 0.001287 -0.001126 0.001299
# 2 -0.003778 0.010438 -0.000669 0.002458 0.003658 -0.001265
# 3 -0.006400 -0.000669 0.028374 -0.008445 -0.006140 0.005581
# 4 0.001287 0.002458 -0.008445 0.035296 0.009107 -0.003152
# 5 -0.001126 0.003658 -0.006140 0.009107 0.041193 -0.002919
# 6 0.001299 -0.001265 0.005581 -0.003152 -0.002919 0.031321
#
#
# Mechanical properties :
#
#
# Convention : Reuss Voigt Hill
#
# Bulk Modulus (GPa) = 29.86503 36.98871 33.42687
# Shear Modulus (GPa) = 25.53090 30.40285 27.96688
#
# Velocity S-wave (km/s) = 3.46092 3.77673 3.62227
# Velocity P-wave (km/s) = 5.47558 6.03089 5.75993
#
# Compressibility (1/GPa) = 0.03348398
#
# Stress axis : x y z
#
# Youngs Moduli (GPa) = 61.10946 95.80222 35.24348
#
# Poissons Ratio (x) = 0.36191 0.22554
# Poissons Ratio (y) = 0.23085 0.02357
# Poissons Ratio (z) = 0.39107 0.06408
#
# Static dielectric constant tensor:
#      x y z
#    x 1.795140 0.005960 0.012340 
#    y 0.005960 1.792570 0.031640 
#    z 0.012340 0.031640 1.762280 
# 
# From -- ./inp_files/189154.got.cif
#   From: 2010.05.17/outbox.cif.g08.bks.cpg/sg2_95_cif.got.tgz:189154.got - 2010.06.03 11:33:40.
