data_PCOD9028314
_publ_section_title
;
Structure prediction by ZEFSAII (Michael W. Deem and Ramdas Pophale) SiO2 
 PCOD9028314
Probable space group: P -1
;
_chemical_formula_sum "Si O2"
_cell_formula_units_Z 12
_cell_length_a 14.291549
_cell_length_b 9.086481
_cell_length_c 29.827819
_cell_angle_alpha 27.059983
_cell_angle_beta 160.658916
_cell_angle_gamma 152.362947
_cell_volume 556.187886
_symmetry_space_group_name_H-M "P -1"
_symmetry_group_IT_number 2
_symmetry_cell_setting 'triclinic'
loop_
_space_group_symop_operation_xyz
x,y,z
-x,-y,-z
loop_
_atom_site_type_symbol
_atom_site_label
_atom_site_fract_x
_atom_site_fract_y
_atom_site_fract_z
Si Si1 0.991014 0.690850 0.045976
Si Si2 0.211446 0.272789 0.650702
Si Si3 0.761350 0.809913 0.051687
Si Si4 0.321852 0.670865 0.075930
Si Si5 0.258680 0.471984 0.360405
Si Si6 0.574908 0.640595 0.631233
O O1 0.103794 0.390862 0.199088
O O2 0.703620 0.505873 0.935899
O O3 0.223503 0.906663 0.055973
O O4 0.000000 0.000000 0.000000
O O5 0.423170 0.354116 0.768354
O O6 0.363328 0.395700 0.638065
O O7 0.000000 0.500000 0.500000
O O8 0.004580 0.884718 0.661817
O O9 0.077737 0.742359 0.212199
O O10 0.500000 0.500000 0.000000
O O11 0.673466 0.936809 0.024982
O O12 0.000000 0.500000 0.000000
O O13 0.500000 0.500000 0.500000
O O14 0.431589 0.495539 0.385234
O O15 0.500000 0.000000 0.500000
#
# Coordination Sequence:
#
# PCOD9028314 Si02
#       6
#     2   2   2   2   2   2
#     4  11  23  42  71 100 137 182 238 296 352 427
#     4  12  25  46  72 105 146 189 240 297 360 435
#     4  11  21  43  69 100 137 183 241 291 353 424
#     4  10  22  41  75  97 138 192 230 292 366 417
#     4  12  28  44  73 106 147 192 238 299 367 427
#     4  12  25  45  72 103 146 189 243 295 362 433
#
# _framework density 21.575443
#
# number of rings (size 3 to 8) (size 9 to 14) (size 15 to 20)
#    0.000    0.667    8.333    0.000    7.000    0.667 
#    0.000    5.000    0.000    0.000    0.000    0.000 
#    0.000    0.000    0.000    0.000    0.000    0.000 
#
# Total GULP energy -66829.371566 kJ/mol
# GULP energy per Si atom -5569.114297 kJ/mol
# Density = 2.152634 g / cm^3
# Si number density = 21.575443 Si / 1000 Ang^3
#
#
#
# Elastic Constant Matrix: (Units=GPa)
#
#
# Indices 1 2 3 4 5 6 
#
# 1 140.6786 41.7783 55.7127 10.2980 -12.6121 -26.5390
# 2 41.7783 102.7540 48.6071 9.6231 -17.1288 -31.1103
# 3 55.7127 48.6071 197.1941 -0.9620 -10.3684 -29.6463
# 4 10.2980 9.6231 -0.9620 47.1706 -11.2225 -3.6364
# 5 -12.6121 -17.1288 -10.3684 -11.2225 34.5183 -2.0311
# 6 -26.5390 -31.1103 -29.6463 -3.6364 -2.0311 40.9987
#
#
#
# Elastic Compliance Matrix: (Units=1/GPa)
#
#
# Indices 1 2 3 4 5 6 
#
# 1 0.009100 -0.001402 -0.001563 -0.000954 0.002068 0.003714
# 2 -0.001402 0.015207 -0.001502 -0.000393 0.007035 0.009859
# 3 -0.001563 -0.001502 0.006340 0.001251 0.001148 0.002601
# 4 -0.000954 -0.000393 0.001251 0.023516 0.007622 0.002452
# 5 0.002068 0.007035 0.001148 0.007622 0.036628 0.009997
# 6 0.003714 0.009859 0.002601 0.002452 0.009997 0.036870
#
#
# Mechanical properties :
#
#
# Convention : Reuss Voigt Hill
#
# Bulk Modulus (GPa) = 46.05427 81.42478 63.73952
# Shear Modulus (GPa) = 34.76265 44.17277 39.46771
#
# Velocity S-wave (km/s) = 4.01835 4.52969 4.28166
# Velocity P-wave (km/s) = 6.55145 8.07335 7.35189
#
# Compressibility (1/GPa) = 0.02171351
#
# Stress axis : x y z
#
# Youngs Moduli (GPa) = 109.89513 65.75851 157.71739
#
# Poissons Ratio (x) = 0.09218 0.24649
# Poissons Ratio (y) = 0.15405 0.23692
# Poissons Ratio (z) = 0.17175 0.09878
#
# Static dielectric constant tensor:
#      x y z
#    x 1.882690 -0.059730 0.032770 
#    y -0.059730 1.876680 -0.129060 
#    z 0.032770 -0.129060 1.874660 
# 
# From -- ./inp_files/242473.got.cif
#   From: 2010.05.17/outbox.cif.g08.bks.cpg/sg2_122_cif.got.tgz:242473.got - 2010.06.03 11:33:40.
