data_PCOD9028080
_publ_section_title
;
Structure prediction by ZEFSAII (Michael W. Deem and Ramdas Pophale) SiO2 
 PCOD9028080
Probable space group: P -1
;
_chemical_formula_sum "Si O2"
_cell_formula_units_Z 14
_cell_length_a 17.699691
_cell_length_b 8.952565
_cell_length_c 6.681640
_cell_angle_alpha 123.553079
_cell_angle_beta 96.686786
_cell_angle_gamma 126.492175
_cell_volume 530.140939
_symmetry_space_group_name_H-M "P -1"
_symmetry_group_IT_number 2
_symmetry_cell_setting 'triclinic'
loop_
_space_group_symop_operation_xyz
x,y,z
-x,-y,-z
loop_
_atom_site_type_symbol
_atom_site_label
_atom_site_fract_x
_atom_site_fract_y
_atom_site_fract_z
Si Si1 0.120927 0.495368 0.412830
Si Si2 0.400665 0.126269 0.875953
Si Si3 0.249162 0.263145 0.264654
Si Si4 0.952027 0.021965 0.694255
Si Si5 0.947942 0.241075 0.499085
Si Si6 0.397891 0.221779 0.479574
Si Si7 0.509457 0.073166 0.324565
O O1 0.169427 0.221506 0.378226
O O2 0.265647 0.809847 0.671823
O O3 0.047878 0.538977 0.356684
O O4 0.068459 0.257487 0.058380
O O5 0.378473 0.142513 0.649795
O O6 0.494920 0.131873 0.927853
O O7 0.467873 0.421415 0.216437
O O8 0.300613 0.179726 0.327055
O O9 0.357771 0.589910 0.445403
O O10 0.162514 0.036755 0.885946
O O11 0.928197 0.615872 0.458100
O O12 0.000000 0.000000 0.500000
O O13 0.924994 0.151230 0.654044
O O14 0.411412 0.052392 0.256242
O O15 0.500000 0.000000 0.500000
#
# Coordination Sequence:
#
# PCOD9028080 Si02
#       7
#     2   2   2   2   2   2   2
#     4  10  22  42  69 104 136 187 240 295 356 433
#     4  10  22  41  71 101 145 187 235 297 355 427
#     4  11  24  44  76 102 148 191 235 298 367 428
#     4  11  26  43  69 107 142 186 236 293 362 434
#     4  10  23  43  72 100 140 185 238 297 364 423
#     4  10  22  45  68 105 145 187 238 296 362 426
#     4  10  23  41  68 104 139 185 241 289 357 428
#
# _framework density 26.408072000000001
#
# number of rings (size 3 to 8) (size 9 to 14) (size 15 to 20)
#    0.000    1.714    0.000    2.571    4.000    6.286 
#    2.571    1.429    0.000    0.000    0.000    0.000 
#    0.000    0.000    0.000    0.000    0.000    0.000 
#
# Total GULP energy -78388.029881 kJ/mol
# GULP energy per Si atom -5599.144992 kJ/mol
# Density = 2.634797 g / cm^3
# Si number density = 26.408072 Si / 1000 Ang^3
#
#
#
# Elastic Constant Matrix: (Units=GPa)
#
#
# Indices 1 2 3 4 5 6 
#
# 1 151.2593 59.9549 61.8045 -10.6632 -10.6544 -1.2171
# 2 59.9549 184.7383 58.1904 -18.5001 7.0430 22.3760
# 3 61.8045 58.1904 114.5446 -9.4913 -8.3733 19.6974
# 4 -10.6632 -18.5001 -9.4913 28.6818 0.6527 0.6455
# 5 -10.6544 7.0430 -8.3733 0.6527 48.2867 6.7778
# 6 -1.2171 22.3760 19.6974 0.6455 6.7778 60.9209
#
#
#
# Elastic Compliance Matrix: (Units=1/GPa)
#
#
# Indices 1 2 3 4 5 6 
#
# 1 0.009253 -0.001898 -0.004235 0.000738 0.001279 0.002101
# 2 -0.001898 0.007362 -0.002235 0.003383 -0.001664 -0.001870
# 3 -0.004235 -0.002235 0.013064 0.001342 0.002164 -0.003742
# 4 0.000738 0.003383 0.001342 0.037819 -0.000325 -0.002026
# 5 0.001279 -0.001664 0.002164 -0.000325 0.021966 -0.002504
# 6 0.002101 -0.001870 -0.003742 -0.002026 -0.002504 0.018654
#
#
# Mechanical properties :
#
#
# Convention : Reuss Voigt Hill
#
# Bulk Modulus (GPa) = 77.27158 90.04909 83.66034
# Shear Modulus (GPa) = 38.70927 45.61735 42.16331
#
# Velocity S-wave (km/s) = 3.83275 4.16071 4.00009
# Velocity P-wave (km/s) = 6.99362 7.56671 7.28580
#
# Compressibility (1/GPa) = 0.01294137
#
# Stress axis : x y z
#
# Youngs Moduli (GPa) = 108.07237 135.83258 76.54748
#
# Poissons Ratio (x) = 0.25787 0.32417
# Poissons Ratio (y) = 0.20517 0.17111
# Poissons Ratio (z) = 0.45768 0.30364
#
# Static dielectric constant tensor:
#      x y z
#    x 2.153950 -0.087360 -0.044590 
#    y -0.087360 2.230330 -0.000370 
#    z -0.044590 -0.000370 2.004940 
# 
# From -- ./inp_files/201632.got.cif
#   From: 2010.05.17/outbox.cif.g08.bks.cpg/sg2_101_cif.got.tgz:201632.got - 2010.06.03 11:33:40.
