data_PCOD9028923
_publ_section_title
;
Structure prediction by ZEFSAII (Michael W. Deem and Ramdas Pophale) SiO2 
 PCOD9028923
Probable space group: P -1
;
_chemical_formula_sum "Si O2"
_cell_formula_units_Z 12
_cell_length_a 20.181670
_cell_length_b 15.595810
_cell_length_c 5.118596
_cell_angle_alpha 113.243564
_cell_angle_beta 57.400745
_cell_angle_gamma 157.997252
_cell_volume 479.607205
_symmetry_space_group_name_H-M "P -1"
_symmetry_group_IT_number 2
_symmetry_cell_setting 'triclinic'
loop_
_space_group_symop_operation_xyz
x,y,z
-x,-y,-z
loop_
_atom_site_type_symbol
_atom_site_label
_atom_site_fract_x
_atom_site_fract_y
_atom_site_fract_z
Si Si1 0.114143 0.505700 0.824226
Si Si2 0.724942 0.028500 0.735095
Si Si3 0.725572 0.216346 0.691931
Si Si4 0.644629 0.411289 0.666993
Si Si5 0.401801 0.277408 0.649048
Si Si6 0.214662 0.257805 0.980466
O O1 0.128865 0.579259 0.148523
O O2 0.235325 0.542040 0.658353
O O3 0.896717 0.241849 0.839393
O O4 0.226155 0.689702 0.582169
O O5 0.747190 0.946949 0.488101
O O6 0.733227 0.113773 0.591287
O O7 0.519233 0.709655 0.294436
O O8 0.500000 0.000000 0.000000
O O9 0.505300 0.217361 0.960350
O O10 0.796143 0.658629 0.736211
O O11 0.293540 0.251446 0.954271
O O12 0.605209 0.527676 0.355855
O O13 0.000000 0.000000 0.000000
#
# Coordination Sequence:
#
# PCOD9028923 Si02
#       6
#     2   2   2   2   2   2
#     4  12  27  43  70 101 135 183 226 273 335 395
#     4  11  25  42  66  98 133 175 225 275 330 399
#     4  12  25  46  69  97 140 181 225 278 331 393
#     4  11  24  41  67  97 132 176 218 283 333 396
#     4  10  23  41  66  94 134 168 220 277 334 396
#     4  10  22  42  65  95 130 171 219 274 339 403
#
# _framework density 25.020474
#
# number of rings (size 3 to 8) (size 9 to 14) (size 15 to 20)
#    0.000    1.000    1.667    4.000    7.000    2.000 
#    0.000    0.000    0.000    0.000    0.000    0.000 
#    0.000    0.000    0.000    0.000    0.000    0.000 
#
# Total GULP energy -67240.218707 kJ/mol
# GULP energy per Si atom -5603.351559 kJ/mol
# Density = 2.496353 g / cm^3
# Si number density = 25.020474 Si / 1000 Ang^3
#
#
#
# Elastic Constant Matrix: (Units=GPa)
#
#
# Indices 1 2 3 4 5 6 
#
# 1 145.7392 43.4870 33.6370 -0.1553 -8.7874 -17.7257
# 2 43.4870 158.4078 25.3376 -1.3739 1.1288 -13.1429
# 3 33.6370 25.3376 59.5964 11.7049 6.2724 -21.8708
# 4 -0.1553 -1.3739 11.7049 18.1792 8.8232 -3.2907
# 5 -8.7874 1.1288 6.2724 8.8232 31.5183 7.2822
# 6 -17.7257 -13.1429 -21.8708 -3.2907 7.2822 40.3825
#
#
#
# Elastic Compliance Matrix: (Units=1/GPa)
#
#
# Indices 1 2 3 4 5 6 
#
# 1 0.008638 -0.001598 -0.004693 0.001651 0.002856 0.000349
# 2 -0.001598 0.007217 -0.002256 0.002734 -0.001221 0.000869
# 3 -0.004693 -0.002256 0.028194 -0.013173 -0.006037 0.012490
# 4 0.001651 0.002734 -0.013173 0.073333 -0.018418 0.003778
# 5 0.002856 -0.001221 -0.006037 -0.018418 0.041561 -0.011409
# 6 0.000349 0.000869 0.012490 0.003778 -0.011409 0.034329
#
#
# Mechanical properties :
#
#
# Convention : Reuss Voigt Hill
#
# Bulk Modulus (GPa) = 37.09906 63.18517 50.14211
# Shear Modulus (GPa) = 22.79464 35.43478 29.11471
#
# Velocity S-wave (km/s) = 3.02162 3.76737 3.41491
# Velocity P-wave (km/s) = 5.19935 6.65074 5.96932
#
# Compressibility (1/GPa) = 0.02695486
#
# Stress axis : x y z
#
# Youngs Moduli (GPa) = 115.76856 138.56539 35.46892
#
# Poissons Ratio (x) = 0.22139 0.16645
# Poissons Ratio (y) = 0.18497 0.08003
# Poissons Ratio (z) = 0.54328 0.31264
#
# Static dielectric constant tensor:
#      x y z
#    x 1.998940 0.014310 0.014870 
#    y 0.014310 2.004600 0.016160 
#    z 0.014870 0.016160 2.004420 
# 
# From -- ./inp_files/124565.got.cif
#   From: 2010.05.17/outbox.cif.g08.bks.cpg/sg2_63_cif.got.tgz:124565.got - 2010.06.03 11:33:40.
