data_PCOD9028521
_publ_section_title
;
Structure prediction by ZEFSAII (Michael W. Deem and Ramdas Pophale) SiO2 
 PCOD9028521
Probable space group: P -1
;
_chemical_formula_sum "Si O2"
_cell_formula_units_Z 16
_cell_length_a 12.205979
_cell_length_b 18.882997
_cell_length_c 22.151042
_cell_angle_alpha 18.378214
_cell_angle_beta 31.247034
_cell_angle_gamma 39.362246
_cell_volume 811.925538
_symmetry_space_group_name_H-M "P -1"
_symmetry_group_IT_number 2
_symmetry_cell_setting 'triclinic'
loop_
_space_group_symop_operation_xyz
x,y,z
-x,-y,-z
loop_
_atom_site_type_symbol
_atom_site_label
_atom_site_fract_x
_atom_site_fract_y
_atom_site_fract_z
Si Si1 0.835375 0.482603 0.681069
Si Si2 0.805091 0.469019 0.333391
Si Si3 0.831242 0.202157 0.031220
Si Si4 0.870931 0.139150 0.835504
Si Si5 0.628396 0.911100 0.596797
Si Si6 0.509198 0.808766 0.200587
Si Si7 0.557934 0.367654 0.204893
Si Si8 0.934247 0.803352 0.640064
O O1 0.821389 0.291294 0.790710
O O2 0.621017 0.582316 0.705205
O O3 0.040109 0.687805 0.401613
O O4 0.852802 0.365214 0.831484
O O5 0.630054 0.612637 0.279712
O O6 0.709213 0.323281 0.556114
O O7 0.866273 0.302329 0.389505
O O8 0.024093 0.655043 0.098790
O O9 0.584143 0.125219 0.231327
O O10 0.937264 0.989379 0.137289
O O11 0.664009 0.946026 0.069113
O O12 0.568065 0.718408 0.728722
O O13 0.831958 0.891503 0.557031
O O14 0.655208 0.157479 0.352521
O O15 0.500000 0.000000 0.000000
O O16 0.744428 0.594815 0.922928
O O17 0.000000 0.000000 0.500000
#
# Coordination Sequence:
#
# PCOD9028521 Si02
#       8
#     2   2   2   2   2   2   2   2
#     4  11  21  36  60  90 123 153 197 261 316 366
#     4  10  23  40  62  92 121 160 219 252 302 389
#     4  11  19  39  65  89 119 158 210 265 308 362
#     4  10  23  37  58  94 121 156 207 253 316 373
#     4  11  23  41  68  95 124 168 222 263 314 378
#     4  10  22  42  63  87 121 167 205 255 310 371
#     4  11  23  41  67  93 125 169 217 266 315 380
#     4  12  26  43  63  96 136 172 207 262 329 383
#
# _framework density 19.706240000000001
#
# number of rings (size 3 to 8) (size 9 to 14) (size 15 to 20)
#    0.000    1.250    3.750    2.250    1.750    1.500 
#    2.250    0.000    0.000    0.000    0.000    0.000 
#    0.000    0.000    0.000    0.000    0.000    0.000 
#
# Total GULP energy -89430.773651 kJ/mol
# GULP energy per Si atom -5589.423353 kJ/mol
# Density = 1.966139 g / cm^3
# Si number density = 19.706240 Si / 1000 Ang^3
#
#
#
# Elastic Constant Matrix: (Units=GPa)
#
#
# Indices 1 2 3 4 5 6 
#
# 1 51.1403 31.6676 42.2676 -9.7460 7.9753 0.0808
# 2 31.6676 138.2084 32.2501 -14.2370 -10.9261 14.1527
# 3 42.2676 32.2501 65.5517 -21.5079 3.2403 5.3774
# 4 -9.7460 -14.2370 -21.5079 26.2225 0.5259 -1.0396
# 5 7.9753 -10.9261 3.2403 0.5259 30.0205 -4.5701
# 6 0.0808 14.1527 5.3774 -1.0396 -4.5701 17.5318
#
#
#
# Elastic Compliance Matrix: (Units=1/GPa)
#
#
# Indices 1 2 3 4 5 6 
#
# 1 0.051611 -0.007210 -0.034212 -0.012082 -0.010510 0.012620
# 2 -0.007210 0.010023 0.001196 0.003375 0.004294 -0.007106
# 3 -0.034212 0.001196 0.045877 0.025010 0.002182 -0.012828
# 4 -0.012082 0.003375 0.025010 0.055715 -0.000321 -0.007120
# 5 -0.010510 0.004294 0.002182 -0.000321 0.038332 0.005886
# 6 0.012620 -0.007106 -0.012828 -0.007120 0.005886 0.067764
#
#
# Mechanical properties :
#
#
# Convention : Reuss Voigt Hill
#
# Bulk Modulus (GPa) = 36.95521 51.91903 44.43712
# Shear Modulus (GPa) = 13.93560 24.66930 19.30245
#
# Velocity S-wave (km/s) = 2.66215 3.54199 3.13311
# Velocity P-wave (km/s) = 5.31443 6.56744 5.97388
#
# Compressibility (1/GPa) = 0.02705979
#
# Stress axis : x y z
#
# Youngs Moduli (GPa) = 19.37554 99.76851 21.79759
#
# Poissons Ratio (x) = 0.71937 0.74573
# Poissons Ratio (y) = 0.13971 -0.02607
# Poissons Ratio (z) = 0.66287 -0.11934
#
# Static dielectric constant tensor:
#      x y z
#    x 1.674900 -0.022450 0.014750 
#    y -0.022450 1.691820 -0.008000 
#    z 0.014750 -0.008000 1.678760 
# 
# From -- ./inp_files/258803.got.cif
#   From: 2010.05.17/outbox.cif.g08.bks.cpg/sg2_130_cif.got.tgz:258803.got - 2010.06.03 11:33:40.
