data_PCOD9028523
_publ_section_title
;
Structure prediction by ZEFSAII (Michael W. Deem and Ramdas Pophale) SiO2 
 PCOD9028523
Probable space group: P -1
;
_chemical_formula_sum "Si O2"
_cell_formula_units_Z 16
_cell_length_a 18.734164
_cell_length_b 6.139855
_cell_length_c 7.211137
_cell_angle_alpha 59.926749
_cell_angle_beta 106.213068
_cell_angle_gamma 123.446610
_cell_volume 598.930116
_symmetry_space_group_name_H-M "P -1"
_symmetry_group_IT_number 2
_symmetry_cell_setting 'triclinic'
loop_
_space_group_symop_operation_xyz
x,y,z
-x,-y,-z
loop_
_atom_site_type_symbol
_atom_site_label
_atom_site_fract_x
_atom_site_fract_y
_atom_site_fract_z
Si Si1 0.416757 0.433592 0.698429
Si Si2 0.827402 0.244641 0.288990
Si Si3 0.395873 0.337059 0.285438
Si Si4 0.138118 0.200113 0.419767
Si Si5 0.293512 0.669386 0.454208
Si Si6 0.011318 0.796875 0.243290
Si Si7 0.672162 0.245316 0.997465
Si Si8 0.097492 0.658763 0.065353
O O1 0.413603 0.422497 0.477068
O O2 0.515456 0.628412 0.744124
O O3 0.355185 0.567131 0.636935
O O4 0.383921 0.104462 0.881204
O O5 0.918085 0.514635 0.298657
O O6 0.805703 0.955643 0.509633
O O7 0.751926 0.310553 0.161717
O O8 0.848491 0.138216 0.149626
O O9 0.371833 0.560142 0.075079
O O10 0.324733 0.002020 0.373619
O O11 0.194136 0.435074 0.518641
O O12 0.127264 0.422488 0.186189
O O13 0.043049 0.926900 0.416968
O O14 0.301678 0.675700 0.232337
O O15 0.087725 0.766396 0.212420
O O16 0.000000 0.000000 0.000000
O O17 0.000000 0.500000 0.000000
#
# Coordination Sequence:
#
# PCOD9028523 Si02
#       8
#     2   2   2   2   2   2   2   2
#     4  10  22  44  69  96 132 166 217 268 322 394
#     4  11  23  43  63  93 128 171 217 266 314 381
#     4  10  24  42  68  99 128 172 213 268 328 382
#     4  12  23  43  63  93 130 167 218 261 321 379
#     4  11  23  41  65  96 134 167 213 271 323 381
#     4  11  22  43  67  89 127 169 209 267 320 370
#     4  11  22  43  65  96 134 168 217 267 320 388
#     4  10  22  42  63  87 124 163 210 268 313 374
#
# _framework density 26.714303000000001
#
# number of rings (size 3 to 8) (size 9 to 14) (size 15 to 20)
#    0.000    1.250    5.000    1.125    0.000    6.500 
#    2.250    0.000    0.000    0.000    0.000    0.000 
#    0.000    0.000    0.000    0.000    0.000    0.000 
#
# Total GULP energy -89243.490936 kJ/mol
# GULP energy per Si atom -5577.718183 kJ/mol
# Density = 2.665350 g / cm^3
# Si number density = 26.714303 Si / 1000 Ang^3
#
#
#
# Elastic Constant Matrix: (Units=GPa)
#
#
# Indices 1 2 3 4 5 6 
#
# 1 126.3927 56.5892 70.5625 -5.1702 33.7188 -1.0182
# 2 56.5892 124.9543 59.0613 -13.5200 25.0262 23.8734
# 3 70.5625 59.0613 141.7882 -25.0663 30.4986 -6.3717
# 4 -5.1702 -13.5200 -25.0663 62.6331 -15.1892 -1.6808
# 5 33.7188 25.0262 30.4986 -15.1892 49.2880 0.0380
# 6 -1.0182 23.8734 -6.3717 -1.6808 0.0380 25.3760
#
#
#
# Elastic Compliance Matrix: (Units=1/GPa)
#
#
# Indices 1 2 3 4 5 6 
#
# 1 0.013323 -0.003789 -0.004231 -0.002641 -0.005389 0.002870
# 2 -0.003789 0.015475 -0.004763 0.000147 -0.002261 -0.015894
# 3 -0.004231 -0.004763 0.012375 0.003470 -0.001281 0.007650
# 4 -0.002641 0.000147 0.003470 0.018499 0.005285 0.001845
# 5 -0.005389 -0.002261 -0.001281 0.005285 0.027544 0.001898
# 6 0.002870 -0.015894 0.007650 0.001845 0.001898 0.056515
#
#
# Mechanical properties :
#
#
# Convention : Reuss Voigt Hill
#
# Bulk Modulus (GPa) = 64.06655 85.06236 74.56446
# Shear Modulus (GPa) = 28.65356 41.25423 34.95389
#
# Velocity S-wave (km/s) = 3.27860 3.93399 3.62115
# Velocity P-wave (km/s) = 6.19407 7.24884 6.74211
#
# Compressibility (1/GPa) = 0.01560877
#
# Stress axis : x y z
#
# Youngs Moduli (GPa) = 75.05903 64.61984 80.80798
#
# Poissons Ratio (x) = 0.24481 0.34190
# Poissons Ratio (y) = 0.28436 0.38485
# Poissons Ratio (z) = 0.31758 0.30776
#
# Static dielectric constant tensor:
#      x y z
#    x 2.191470 -0.037490 -0.066450 
#    y -0.037490 2.192920 0.033910 
#    z -0.066450 0.033910 2.090380 
# 
# From -- ./inp_files/340155.got.cif
#   From: 2010.05.17/outbox.cif.g08.bks.cpg/sg2_171_cif.got.tgz:340155.got - 2010.06.03 11:33:40.
