data_PCOD9028954
_publ_section_title
;
Structure prediction by ZEFSAII (Michael W. Deem and Ramdas Pophale) SiO2 
 PCOD9028954
Probable space group: P -1
;
_chemical_formula_sum "Si O2"
_cell_formula_units_Z 15
_cell_length_a 14.348862
_cell_length_b 12.327894
_cell_length_c 6.551044
_cell_angle_alpha 107.044002
_cell_angle_beta 83.857244
_cell_angle_gamma 142.295921
_cell_volume 661.952458
_symmetry_space_group_name_H-M "P -1"
_symmetry_group_IT_number 2
_symmetry_cell_setting 'triclinic'
loop_
_space_group_symop_operation_xyz
x,y,z
-x,-y,-z
loop_
_atom_site_type_symbol
_atom_site_label
_atom_site_fract_x
_atom_site_fract_y
_atom_site_fract_z
Si Si1 0.000000 0.500000 0.000000
Si Si2 0.906470 0.994509 0.874307
Si Si3 0.327690 0.833502 0.849156
Si Si4 0.409318 0.541555 0.919094
Si Si5 0.960117 0.213442 0.635966
Si Si6 0.370175 0.421538 0.278968
Si Si7 0.719690 0.452961 0.407666
Si Si8 0.281048 0.033634 0.783427
O O1 0.969771 0.344641 0.816306
O O2 0.180138 0.678338 0.951836
O O3 0.765339 0.782803 0.699682
O O4 0.987071 0.139081 0.750629
O O5 0.830964 0.016680 0.050306
O O6 0.000000 0.000000 0.000000
O O7 0.318378 0.713895 0.640683
O O8 0.304919 0.926710 0.781511
O O9 0.500000 0.000000 0.000000
O O10 0.477883 0.509881 0.738211
O O11 0.322450 0.552766 0.817667
O O12 0.318844 0.392784 0.038995
O O13 0.557680 0.743590 0.103604
O O14 0.798637 0.037875 0.458071
O O15 0.096661 0.346862 0.507088
O O16 0.377585 0.553346 0.440852
#
# Coordination Sequence:
#
# PCOD9028954 Si02
#       8
#     1   2   2   2   2   2   2   2
#     4  10  24  46  72 104 148 188 240 302 354 428
#     4  11  23  43  69  97 143 185 231 293 359 429
#     4  11  23  47  73 103 145 190 243 299 363 425
#     4  10  22  42  65  96 138 180 234 294 355 427
#     4  11  25  44  70 103 139 185 239 294 362 422
#     4  10  23  39  63  98 133 180 232 297 354 419
#     4  11  23  41  67  99 136 184 237 296 352 433
#     4  11  24  44  69 102 139 185 238 296 356 428
#
# _framework density 22.660238
#
# number of rings (size 3 to 8) (size 9 to 14) (size 15 to 20)
#    0.000    1.333    2.667    2.000    0.000   10.667 
#    7.200    1.333    0.000    0.000    0.000    0.000 
#    0.000    0.000    0.000    0.000    0.000    0.000 
#
# Total GULP energy -83572.276533 kJ/mol
# GULP energy per Si atom -5571.485102 kJ/mol
# Density = 2.260866 g / cm^3
# Si number density = 22.660238 Si / 1000 Ang^3
#
#
#
# Elastic Constant Matrix: (Units=GPa)
#
#
# Indices 1 2 3 4 5 6 
#
# 1 125.5195 34.2756 39.5260 11.7978 -6.9217 -27.0167
# 2 34.2756 115.8314 34.5001 17.3964 -8.1464 0.0539
# 3 39.5260 34.5001 51.8779 17.4071 -8.7719 -1.5917
# 4 11.7978 17.3964 17.4071 26.1604 1.3505 -1.9607
# 5 -6.9217 -8.1464 -8.7719 1.3505 43.6934 12.1415
# 6 -27.0167 0.0539 -1.5917 -1.9607 12.1415 37.9990
#
#
#
# Elastic Compliance Matrix: (Units=1/GPa)
#
#
# Indices 1 2 3 4 5 6 
#
# 1 0.013424 -0.001532 -0.010371 0.002800 -0.003183 0.010273
# 2 -0.001532 0.011197 -0.004807 -0.003786 0.001552 -0.001998
# 3 -0.010371 -0.004807 0.037599 -0.018266 0.008170 -0.009345
# 4 0.002800 -0.003786 -0.018266 0.052481 -0.007294 0.006270
# 5 -0.003183 0.001552 0.008170 -0.007294 0.027630 -0.011127
# 6 0.010273 -0.001998 -0.009345 0.006270 -0.011127 0.037111
#
#
# Mechanical properties :
#
#
# Convention : Reuss Voigt Hill
#
# Bulk Modulus (GPa) = 34.72472 56.64802 45.68637
# Shear Modulus (GPa) = 22.47569 33.89902 28.18736
#
# Velocity S-wave (km/s) = 3.15279 3.87197 3.53074
# Velocity P-wave (km/s) = 5.34891 6.71139 6.06850
#
# Compressibility (1/GPa) = 0.02879793
#
# Stress axis : x y z
#
# Youngs Moduli (GPa) = 74.49545 89.30760 26.59665
#
# Poissons Ratio (x) = 0.13685 0.27583
# Poissons Ratio (y) = 0.11416 0.12786
# Poissons Ratio (z) = 0.77259 0.42934
#
# Static dielectric constant tensor:
#      x y z
#    x 1.830180 0.016610 0.015560 
#    y 0.016610 1.830320 -0.012340 
#    z 0.015560 -0.012340 1.883730 
# 
# From -- ./inp_files/95308.got.cif
#   From: 2010.05.17/outbox.cif.g08.bks.cpg/sg2_48_cif.got.tgz:95308.got - 2010.06.03 11:33:40.
