data_PCOD9028484
_publ_section_title
;
Structure prediction by ZEFSAII (Michael W. Deem and Ramdas Pophale) SiO2 
 PCOD9028484
Probable space group: P -1
;
_chemical_formula_sum "Si O2"
_cell_formula_units_Z 16
_cell_length_a 14.740591
_cell_length_b 18.310316
_cell_length_c 10.019891
_cell_angle_alpha 140.110135
_cell_angle_beta 24.972971
_cell_angle_gamma 144.701327
_cell_volume 655.580295
_symmetry_space_group_name_H-M "P -1"
_symmetry_group_IT_number 2
_symmetry_cell_setting 'triclinic'
loop_
_space_group_symop_operation_xyz
x,y,z
-x,-y,-z
loop_
_atom_site_type_symbol
_atom_site_label
_atom_site_fract_x
_atom_site_fract_y
_atom_site_fract_z
Si Si1 0.085017 0.421139 0.376213
Si Si2 0.956832 0.818760 0.359392
Si Si3 0.336015 0.273792 0.134034
Si Si4 0.462609 0.548799 0.287517
Si Si5 0.696320 0.972110 0.272727
Si Si6 0.853560 0.921414 0.375403
Si Si7 0.811807 0.200814 0.615990
Si Si8 0.660092 0.257146 0.167807
O O1 0.270991 0.511631 0.369049
O O2 0.000000 0.500000 0.500000
O O3 0.857027 0.303030 0.581091
O O4 0.260308 0.364865 0.001281
O O5 0.717259 0.766354 0.696641
O O6 0.910634 0.840719 0.299905
O O7 0.119327 0.954348 0.403807
O O8 0.104643 0.737192 0.066256
O O9 0.481271 0.423294 0.135101
O O10 0.075290 0.250236 0.395483
O O11 0.394164 0.178997 0.831698
O O12 0.359201 0.611596 0.619959
O O13 0.736411 0.057855 0.469620
O O14 0.500000 0.000000 0.500000
O O15 0.944890 0.033846 0.944340
O O16 0.582735 0.842151 0.577079
O O17 0.655071 0.209545 0.957928
#
# Coordination Sequence:
#
# PCOD9028484 Si02
#       8
#     2   2   2   2   2   2   2   2
#     4  10  23  43  67  92 133 169 219 266 315 384
#     4   9  21  39  65  93 128 171 213 271 320 381
#     4   9  21  43  64  90 129 166 216 270 318 383
#     4  10  23  43  65  97 130 174 215 263 320 389
#     4  11  24  40  66  94 127 166 214 274 325 378
#     4  10  22  42  62  96 130 166 220 265 321 386
#     4  10  23  41  64  96 125 171 216 261 328 387
#     4  11  23  41  68  94 135 172 213 262 325 388
#
# _framework density 24.405857999999998
#
# number of rings (size 3 to 8) (size 9 to 14) (size 15 to 20)
#    0.000    2.000    0.000    1.500    7.000    6.500 
#    6.750    1.250    0.000    0.000    0.000    0.000 
#    0.000    0.000    0.000    0.000    0.000    0.000 
#
# Total GULP energy -89442.998365 kJ/mol
# GULP energy per Si atom -5590.187398 kJ/mol
# Density = 2.435031 g / cm^3
# Si number density = 24.405858 Si / 1000 Ang^3
#
#
#
# Elastic Constant Matrix: (Units=GPa)
#
#
# Indices 1 2 3 4 5 6 
#
# 1 78.8493 24.9316 33.7925 16.2837 -0.4843 -16.9944
# 2 24.9316 87.5834 46.6325 14.3004 9.7560 -21.3927
# 3 33.7925 46.6325 144.1899 34.5860 11.3148 2.2119
# 4 16.2837 14.3004 34.5860 30.5802 11.4640 -9.7929
# 5 -0.4843 9.7560 11.3148 11.4640 39.8465 4.3520
# 6 -16.9944 -21.3927 2.2119 -9.7929 4.3520 34.6591
#
#
#
# Elastic Compliance Matrix: (Units=1/GPa)
#
#
# Indices 1 2 3 4 5 6 
#
# 1 0.016367 -0.001255 -0.002789 -0.003610 0.001660 0.006200
# 2 -0.001255 0.018481 -0.007021 0.006647 -0.005973 0.013868
# 3 -0.002789 -0.007021 0.013453 -0.015411 0.003539 -0.011359
# 4 -0.003610 0.006647 -0.015411 0.063216 -0.018043 0.023443
# 5 0.001660 -0.005973 0.003539 -0.018043 0.032101 -0.012228
# 6 0.006200 0.013868 -0.011359 0.023443 -0.012228 0.049336
#
#
# Mechanical properties :
#
#
# Convention : Reuss Voigt Hill
#
# Bulk Modulus (GPa) = 38.21257 57.92621 48.06939
# Shear Modulus (GPa) = 22.34075 34.70155 28.52115
#
# Velocity S-wave (km/s) = 3.02882 3.77484 3.42222
# Velocity P-wave (km/s) = 5.28420 6.54105 5.94592
#
# Compressibility (1/GPa) = 0.02616940
#
# Stress axis : x y z
#
# Youngs Moduli (GPa) = 61.09978 54.11103 74.33487
#
# Poissons Ratio (x) = 0.06790 0.20733
# Poissons Ratio (y) = 0.07667 0.52191
# Poissons Ratio (z) = 0.17042 0.37992
#
# Static dielectric constant tensor:
#      x y z
#    x 2.055830 0.009190 0.028190 
#    y 0.009190 2.099420 -0.007660 
#    z 0.028190 -0.007660 1.914370 
# 
# From -- ./inp_files/467152.got.cif
#   From: 2010.05.17/outbox.cif.g08.bks.cpg/sg2_234_cif.got.tgz:467152.got - 2010.06.03 11:33:40.
