data_PCOD9028479
_publ_section_title
;
Structure prediction by ZEFSAII (Michael W. Deem and Ramdas Pophale) SiO2 
 PCOD9028479
Probable space group: P -1
;
_chemical_formula_sum "Si O2"
_cell_formula_units_Z 16
_cell_length_a 11.622411
_cell_length_b 10.942400
_cell_length_c 7.768818
_cell_angle_alpha 109.800836
_cell_angle_beta 126.254624
_cell_angle_gamma 63.084945
_cell_volume 706.952281
_symmetry_space_group_name_H-M "P -1"
_symmetry_group_IT_number 2
_symmetry_cell_setting 'triclinic'
loop_
_space_group_symop_operation_xyz
x,y,z
-x,-y,-z
loop_
_atom_site_type_symbol
_atom_site_label
_atom_site_fract_x
_atom_site_fract_y
_atom_site_fract_z
Si Si1 0.119352 0.873631 0.937800
Si Si2 0.004044 0.361676 0.335700
Si Si3 0.210568 0.738941 0.300630
Si Si4 0.567449 0.116169 0.408167
Si Si5 0.652249 0.807654 0.054410
Si Si6 0.163645 0.487855 0.065885
Si Si7 0.903426 0.930881 0.266757
Si Si8 0.652221 0.809221 0.442353
O O1 0.047486 0.770828 0.723561
O O2 0.183641 0.954961 0.896029
O O3 0.224708 0.785734 0.138531
O O4 0.000000 0.000000 0.000000
O O5 0.179676 0.289053 0.411373
O O6 0.000000 0.500000 0.500000
O O7 0.887929 0.426621 0.112996
O O8 0.317925 0.808897 0.521188
O O9 0.034541 0.807398 0.230095
O O10 0.246438 0.577651 0.285339
O O11 0.456158 0.197072 0.500381
O O12 0.648366 0.967251 0.494521
O O13 0.470124 0.106457 0.150559
O O14 0.732278 0.663621 0.958902
O O15 0.785459 0.873490 0.226545
O O16 0.606995 0.779011 0.193992
O O17 0.000000 0.500000 0.000000
O O18 0.000000 0.000000 0.500000
#
# Coordination Sequence:
#
# PCOD9028479 Si02
#       8
#     2   2   2   2   2   2   2   2
#     4   9  20  35  62  90 129 168 221 281 334 393
#     4  11  21  39  68  98 130 175 225 293 341 403
#     4  10  22  42  62  95 130 179 228 273 343 411
#     4  11  26  43  70  95 142 191 223 278 346 418
#     4  12  24  43  69 103 136 179 231 283 345 410
#     4  11  22  40  68  97 135 173 224 284 351 407
#     4  11  22  37  65  99 131 165 232 297 334 390
#     4  11  24  43  68  98 140 180 232 276 345 412
#
# _framework density 22.632363999999999
#
# number of rings (size 3 to 8) (size 9 to 14) (size 15 to 20)
#    0.000    1.250    2.500    4.125    7.000    0.500 
#    0.000    0.625    0.000    0.000    0.000    0.000 
#    0.000    0.000    0.000    0.000    0.000    0.000 
#
# Total GULP energy -89268.576803 kJ/mol
# GULP energy per Si atom -5579.286050 kJ/mol
# Density = 2.258085 g / cm^3
# Si number density = 22.632364 Si / 1000 Ang^3
#
#
#
# Elastic Constant Matrix: (Units=GPa)
#
#
# Indices 1 2 3 4 5 6 
#
# 1 75.9558 14.1424 18.3866 7.1512 -0.9713 -5.5262
# 2 14.1424 95.6531 13.7184 26.0171 11.0718 -5.3228
# 3 18.3866 13.7184 77.2983 11.4948 8.3035 3.7664
# 4 7.1512 26.0171 11.4948 40.2046 4.1866 2.6932
# 5 -0.9713 11.0718 8.3035 4.1866 33.2324 0.3789
# 6 -5.5262 -5.3228 3.7664 2.6932 0.3789 28.1037
#
#
#
# Elastic Compliance Matrix: (Units=1/GPa)
#
#
# Indices 1 2 3 4 5 6 
#
# 1 0.014611 -0.001407 -0.003412 -0.001117 0.001853 0.003146
# 2 -0.001407 0.013557 -0.000643 -0.008200 -0.003401 0.003209
# 3 -0.003412 -0.000643 0.014726 -0.002689 -0.003198 -0.002466
# 4 -0.001117 -0.008200 -0.002689 0.031500 -0.000547 -0.004424
# 5 0.001853 -0.003401 -0.003198 -0.000547 0.032149 -0.000232
# 6 0.003146 0.003209 -0.002466 -0.004424 -0.000232 0.037566
#
#
# Mechanical properties :
#
#
# Convention : Reuss Voigt Hill
#
# Bulk Modulus (GPa) = 31.27847 37.93355 34.60601
# Shear Modulus (GPa) = 30.17680 33.81879 31.99780
#
# Velocity S-wave (km/s) = 3.65546 3.86977 3.76414
# Velocity P-wave (km/s) = 5.62733 6.06333 5.84939
#
# Compressibility (1/GPa) = 0.03197087
#
# Stress axis : x y z
#
# Youngs Moduli (GPa) = 68.44082 73.76178 67.90613
#
# Poissons Ratio (x) = 0.10375 0.23170
# Poissons Ratio (y) = 0.09627 0.04367
# Poissons Ratio (z) = 0.23353 0.04744
#
# Static dielectric constant tensor:
#      x y z
#    x 1.840680 0.023390 -0.014450 
#    y 0.023390 1.918900 0.090070 
#    z -0.014450 0.090070 1.932390 
# 
# From -- ./inp_files/260351.got.cif
#   From: 2010.05.17/outbox.cif.g08.bks.cpg/sg2_131_cif.got.tgz:260351.got - 2010.06.03 11:33:40.
