data_PCOD9028933
_publ_section_title
;
Structure prediction by ZEFSAII (Michael W. Deem and Ramdas Pophale) SiO2 
 PCOD9028933
Probable space group: P -1
;
_chemical_formula_sum "Si O2"
_cell_formula_units_Z 16
_cell_length_a 19.809102
_cell_length_b 7.136528
_cell_length_c 11.858198
_cell_angle_alpha 53.850050
_cell_angle_beta 29.798331
_cell_angle_gamma 48.666640
_cell_volume 624.902946
_symmetry_space_group_name_H-M "P -1"
_symmetry_group_IT_number 2
_symmetry_cell_setting 'triclinic'
loop_
_space_group_symop_operation_xyz
x,y,z
-x,-y,-z
loop_
_atom_site_type_symbol
_atom_site_label
_atom_site_fract_x
_atom_site_fract_y
_atom_site_fract_z
Si Si1 0.018032 0.796525 0.452540
Si Si2 0.350129 0.424650 0.094254
Si Si3 0.058937 0.759048 0.746979
Si Si4 0.980989 0.344553 0.903034
Si Si5 0.482433 0.242341 0.572722
Si Si6 0.764093 0.620819 0.962549
Si Si7 0.382442 0.519033 0.397234
Si Si8 0.302727 0.040174 0.464475
O O1 0.186393 0.621311 0.279052
O O2 0.899118 0.674181 0.692859
O O3 0.000000 0.000000 0.500000
O O4 0.974318 0.962172 0.344990
O O5 0.339093 0.373428 0.994662
O O6 0.366639 0.199490 0.234207
O O7 0.490183 0.502431 0.867911
O O8 0.968114 0.627316 0.853516
O O9 0.225702 0.567814 0.552157
O O10 0.027290 0.760410 0.924562
O O11 0.132244 0.193730 0.677364
O O12 0.845604 0.373418 0.007081
O O13 0.500000 0.500000 0.500000
O O14 0.444628 0.297704 0.476938
O O15 0.622048 0.025639 0.498569
O O16 0.346377 0.206662 0.846423
O O17 0.336287 0.780790 0.441351
#
# Coordination Sequence:
#
# PCOD9028933 Si02
#       8
#     2   2   2   2   2   2   2   2
#     4  12  26  45  67  99 136 176 222 268 331 398
#     4  12  25  42  67 102 134 173 220 272 335 393
#     4  11  25  46  66  95 135 178 219 270 331 394
#     4  11  25  44  68  94 133 176 225 271 326 392
#     4  10  22  42  65  95 139 167 216 276 330 387
#     4  12  22  44  68  97 135 172 222 278 325 389
#     4  11  24  42  66  99 132 170 219 276 329 393
#     4  11  23  43  64  98 133 171 218 272 329 389
#
# _framework density 25.603975999999999
#
# number of rings (size 3 to 8) (size 9 to 14) (size 15 to 20)
#    0.000    0.750    6.250    1.500    5.250    0.500 
#    2.250    1.875    0.000    0.000    0.000    0.000 
#    0.000    0.000    0.000    0.000    0.000    0.000 
#
# Total GULP energy -89578.909420 kJ/mol
# GULP energy per Si atom -5598.681839 kJ/mol
# Density = 2.554570 g / cm^3
# Si number density = 25.603976 Si / 1000 Ang^3
#
#
#
# Elastic Constant Matrix: (Units=GPa)
#
#
# Indices 1 2 3 4 5 6 
#
# 1 88.8940 25.0071 6.8497 -10.2570 6.3164 -18.2861
# 2 25.0071 98.5865 17.2908 -7.7789 15.9652 -27.2366
# 3 6.8497 17.2908 130.1083 -2.3720 4.1918 -2.2916
# 4 -10.2570 -7.7789 -2.3720 35.9593 -19.8568 5.7958
# 5 6.3164 15.9652 4.1918 -19.8568 32.2571 -2.8945
# 6 -18.2861 -27.2366 -2.2916 5.7958 -2.8945 40.3183
#
#
#
# Elastic Compliance Matrix: (Units=1/GPa)
#
#
# Indices 1 2 3 4 5 6 
#
# 1 0.012975 -0.001958 -0.000317 0.002949 0.000659 0.004167
# 2 -0.001958 0.014252 -0.001451 -0.003191 -0.007678 0.008565
# 3 -0.000317 -0.001451 0.007893 0.000090 -0.000253 -0.000706
# 4 0.002949 -0.003191 0.000090 0.044069 0.027655 -0.005163
# 5 0.000659 -0.007678 -0.000253 0.027655 0.051263 -0.005198
# 6 0.004167 0.008565 -0.000706 -0.005163 -0.005198 0.032808
#
#
# Mechanical properties :
#
#
# Convention : Reuss Voigt Hill
#
# Bulk Modulus (GPa) = 36.14278 46.20933 41.17605
# Shear Modulus (GPa) = 27.78775 39.60301 33.69538
#
# Velocity S-wave (km/s) = 3.29795 3.93714 3.63164
# Velocity P-wave (km/s) = 5.35245 6.22535 5.80533
#
# Compressibility (1/GPa) = 0.02766804
#
# Stress axis : x y z
#
# Youngs Moduli (GPa) = 77.06909 70.16349 126.69809
#
# Poissons Ratio (x) = 0.13741 0.04015
# Poissons Ratio (y) = 0.15093 0.18383
# Poissons Ratio (z) = 0.02442 0.10180
#
# Static dielectric constant tensor:
#      x y z
#    x 1.954200 0.038110 -0.019270 
#    y 0.038110 2.000730 -0.027000 
#    z -0.019270 -0.027000 2.001710 
# 
# From -- ./inp_files/262628.got.cif
#   From: 2010.05.17/outbox.cif.g08.bks.cpg/sg2_132_cif.got.tgz:262628.got - 2010.06.03 11:33:40.
