data_PCOD9028886
_publ_section_title
;
Structure prediction by ZEFSAII (Michael W. Deem and Ramdas Pophale) SiO2 
 PCOD9028886
Probable space group: P -1
;
_chemical_formula_sum "Si O2"
_cell_formula_units_Z 16
_cell_length_a 6.202830
_cell_length_b 20.092323
_cell_length_c 18.794611
_cell_angle_alpha 25.422252
_cell_angle_beta 137.642400
_cell_angle_gamma 133.526430
_cell_volume 675.651708
_symmetry_space_group_name_H-M "P -1"
_symmetry_group_IT_number 2
_symmetry_cell_setting 'triclinic'
loop_
_space_group_symop_operation_xyz
x,y,z
-x,-y,-z
loop_
_atom_site_type_symbol
_atom_site_label
_atom_site_fract_x
_atom_site_fract_y
_atom_site_fract_z
Si Si1 0.402623 0.317180 0.810943
Si Si2 0.715064 0.518181 0.238679
Si Si3 0.250722 0.242477 0.456163
Si Si4 0.461881 0.819985 0.642029
Si Si5 0.341269 0.945996 0.341072
Si Si6 0.843106 0.733745 0.941077
Si Si7 0.711584 0.857003 0.181380
Si Si8 0.387616 0.378679 0.507340
O O1 0.274603 0.346178 0.830193
O O2 0.231091 0.188571 0.842149
O O3 0.391562 0.480285 0.608035
O O4 0.776788 0.280564 0.943885
O O5 0.453191 0.387359 0.329428
O O6 0.055240 0.446142 0.384418
O O7 0.664228 0.591977 0.077918
O O8 0.356212 0.076713 0.614257
O O9 0.321376 0.260081 0.540199
O O10 0.877316 0.253076 0.341728
O O11 0.420843 0.832421 0.535567
O O12 0.740453 0.738801 0.828841
O O13 0.500000 0.000000 0.500000
O O14 0.038544 0.888704 0.274328
O O15 0.266583 0.109857 0.198553
O O16 0.510703 0.713817 0.310076
O O17 0.500000 0.000000 0.000000
#
# Coordination Sequence:
#
# PCOD9028886 Si02
#       8
#     2   2   2   2   2   2   2   2
#     4  10  23  41  66  94 132 176 208 264 327 378
#     4  10  22  42  65  93 135 168 217 265 316 393
#     4  11  21  42  70  93 129 175 212 267 327 385
#     4  10  23  41  68  94 132 173 212 268 327 384
#     4  11  23  43  65  98 134 167 220 264 329 388
#     4  10  23  42  63  99 131 168 217 267 322 385
#     4  12  22  41  69  96 131 170 213 271 320 382
#     4  10  22  44  64  92 135 171 214 264 322 387
#
# _framework density 23.680841000000001
#
# number of rings (size 3 to 8) (size 9 to 14) (size 15 to 20)
#    0.000    1.500    3.750    0.375    0.000    7.000 
#    4.500   10.000    0.000    0.000    0.000    0.000 
#    0.000    0.000    0.000    0.000    0.000    0.000 
#
# Total GULP energy -89475.889581 kJ/mol
# GULP energy per Si atom -5592.243099 kJ/mol
# Density = 2.362694 g / cm^3
# Si number density = 23.680841 Si / 1000 Ang^3
#
#
#
# Elastic Constant Matrix: (Units=GPa)
#
#
# Indices 1 2 3 4 5 6 
#
# 1 82.7552 22.3291 29.3342 3.0291 4.9138 -19.7605
# 2 22.3291 67.0539 14.9205 21.3250 5.6482 -11.7468
# 3 29.3342 14.9205 113.6611 9.0244 -7.4105 -12.5280
# 4 3.0291 21.3250 9.0244 30.0167 -8.9557 -0.1807
# 5 4.9138 5.6482 -7.4105 -8.9557 28.2339 -9.3026
# 6 -19.7605 -11.7468 -12.5280 -0.1807 -9.3026 36.6934
#
#
#
# Elastic Compliance Matrix: (Units=1/GPa)
#
#
# Indices 1 2 3 4 5 6 
#
# 1 0.015652 -0.004258 -0.002994 0.002416 0.000113 0.006084
# 2 -0.004258 0.023818 -0.000851 -0.019038 -0.009445 0.002553
# 3 -0.002994 -0.000851 0.010309 -0.001000 0.003947 0.002631
# 4 0.002416 -0.019038 -0.001000 0.052850 0.019950 0.000183
# 5 0.000113 -0.009445 0.003947 0.019950 0.048177 0.010697
# 6 0.006084 0.002553 0.002631 0.000183 0.010697 0.034958
#
#
# Mechanical properties :
#
#
# Convention : Reuss Voigt Hill
#
# Bulk Modulus (GPa) = 29.78531 44.07087 36.92809
# Shear Modulus (GPa) = 23.45654 32.11456 27.78555
#
# Velocity S-wave (km/s) = 3.15068 3.68658 3.42911
# Velocity P-wave (km/s) = 5.08339 6.06398 5.59521
#
# Compressibility (1/GPa) = 0.03357360
#
# Stress axis : x y z
#
# Youngs Moduli (GPa) = 63.89070 41.98496 97.00081
#
# Poissons Ratio (x) = 0.17876 0.29046
# Poissons Ratio (y) = 0.27203 0.08250
# Poissons Ratio (z) = 0.19132 0.03571
#
# Static dielectric constant tensor:
#      x y z
#    x 1.902160 -0.015960 -0.014140 
#    y -0.015960 1.949080 -0.024320 
#    z -0.014140 -0.024320 1.900750 
# 
# From -- ./inp_files/85177.got.cif
#   From: 2010.05.17/outbox.cif.g08.bks.cpg/sg2_43_cif.got.tgz:85177.got - 2010.06.03 11:33:40.
