data_PCOD9028732
_publ_section_title
;
Structure prediction by ZEFSAII (Michael W. Deem and Ramdas Pophale) SiO2 
 PCOD9028732
Probable space group: P -1
;
_chemical_formula_sum "Si O2"
_cell_formula_units_Z 14
_cell_length_a 12.344577
_cell_length_b 10.706168
_cell_length_c 6.462843
_cell_angle_alpha 80.728932
_cell_angle_beta 51.542945
_cell_angle_gamma 67.581556
_cell_volume 614.888131
_symmetry_space_group_name_H-M "P -1"
_symmetry_group_IT_number 2
_symmetry_cell_setting 'triclinic'
loop_
_space_group_symop_operation_xyz
x,y,z
-x,-y,-z
loop_
_atom_site_type_symbol
_atom_site_label
_atom_site_fract_x
_atom_site_fract_y
_atom_site_fract_z
Si Si1 0.661406 0.385391 0.280561
Si Si2 0.139042 0.064398 0.379255
Si Si3 0.903565 0.504332 0.813228
Si Si4 0.633530 0.910163 0.594186
Si Si5 0.131725 0.287531 0.884354
Si Si6 0.347604 0.888176 0.832836
Si Si7 0.097567 0.813050 0.665166
O O1 0.500000 0.500000 0.500000
O O2 0.647950 0.260717 0.194076
O O3 0.756473 0.309761 0.394581
O O4 0.766622 0.451274 0.014967
O O5 0.259102 0.111786 0.333205
O O6 0.983039 0.180263 0.465913
O O7 0.119890 0.955093 0.591962
O O8 0.206191 0.977351 0.114138
O O9 0.000000 0.500000 0.500000
O O10 0.034007 0.410076 0.829519
O O11 0.849269 0.654703 0.933021
O O12 0.711141 0.787924 0.377930
O O13 0.477471 0.897909 0.825530
O O14 0.628097 0.040151 0.428017
O O15 0.031354 0.195323 0.030158
#
# Coordination Sequence:
#
# PCOD9028732 Si02
#       7
#     2   2   2   2   2   2   2
#     4  11  24  48  72  98 146 191 232 292 358 418
#     4  11  23  41  67 107 140 173 233 290 349 427
#     4  10  24  42  68  98 132 187 239 287 343 412
#     4  11  23  42  68 102 139 181 225 289 360 414
#     4  10  22  42  64  96 137 173 234 284 344 414
#     4  11  24  42  69 101 139 181 230 286 357 421
#     4  10  23  40  70 100 139 175 232 284 354 411
#
# _framework density 22.768370999999998
#
# number of rings (size 3 to 8) (size 9 to 14) (size 15 to 20)
#    0.000    1.429    2.857    1.286    4.000    4.571 
#    2.571    0.714    0.000    0.000    0.000    0.000 
#    0.000    0.000    0.000    0.000    0.000    0.000 
#
# Total GULP energy -77997.127191 kJ/mol
# GULP energy per Si atom -5571.223371 kJ/mol
# Density = 2.271655 g / cm^3
# Si number density = 22.768371 Si / 1000 Ang^3
#
#
#
# Elastic Constant Matrix: (Units=GPa)
#
#
# Indices 1 2 3 4 5 6 
#
# 1 154.8444 57.8509 34.8766 -7.9500 -6.6244 -2.6326
# 2 57.8509 95.2522 58.3957 -0.0802 0.0298 4.9688
# 3 34.8766 58.3957 111.7991 4.1238 -8.4928 4.1858
# 4 -7.9500 -0.0802 4.1238 37.9957 0.8626 4.7696
# 5 -6.6244 0.0298 -8.4928 0.8626 30.0845 2.2613
# 6 -2.6326 4.9688 4.1858 4.7696 2.2613 37.5763
#
#
#
# Elastic Compliance Matrix: (Units=1/GPa)
#
#
# Indices 1 2 3 4 5 6 
#
# 1 0.008608 -0.005382 0.000169 0.001607 0.001829 0.000982
# 2 -0.005382 0.019058 -0.008478 0.000134 -0.003469 -0.001761
# 3 0.000169 -0.008478 0.013695 -0.001504 0.003988 -0.000442
# 4 0.001607 0.000134 -0.001504 0.027229 -0.000614 -0.003157
# 5 0.001829 -0.003469 0.003988 -0.000614 0.034931 -0.001882
# 6 0.000982 -0.001761 -0.000442 -0.003157 -0.001882 0.027477
#
#
# Mechanical properties :
#
#
# Convention : Reuss Voigt Hill
#
# Bulk Modulus (GPa) = 71.53783 73.79358 72.66570
# Shear Modulus (GPa) = 30.66730 35.18280 32.92505
#
# Velocity S-wave (km/s) = 3.67403 3.93523 3.80687
# Velocity P-wave (km/s) = 7.03463 7.28896 7.16293
#
# Compressibility (1/GPa) = 0.01397862
#
# Stress axis : x y z
#
# Youngs Moduli (GPa) = 116.16715 52.47209 73.01812
#
# Poissons Ratio (x) = 0.28241 -0.01231
# Poissons Ratio (y) = 0.62521 0.61904
# Poissons Ratio (z) = -0.01959 0.44485
#
# Static dielectric constant tensor:
#      x y z
#    x 1.946210 0.016560 0.064160 
#    y 0.016560 1.930980 -0.009890 
#    z 0.064160 -0.009890 1.878780 
# 
# From -- ./inp_files/69515.got.cif
#   From: 2010.05.17/outbox.cif.g08.bks.cpg/sg2_35_cif.got.tgz:69515.got - 2010.06.03 11:33:40.
