data_PCOD9028470
_publ_section_title
;
Structure prediction by ZEFSAII (Michael W. Deem and Ramdas Pophale) SiO2 
 PCOD9028470
Probable space group: P -1
;
_chemical_formula_sum "Si O2"
_cell_formula_units_Z 14
_cell_length_a 11.780799
_cell_length_b 6.007515
_cell_length_c 12.391608
_cell_angle_alpha 86.679104
_cell_angle_beta 125.395244
_cell_angle_gamma 118.725478
_cell_volume 596.368763
_symmetry_space_group_name_H-M "P -1"
_symmetry_group_IT_number 2
_symmetry_cell_setting 'triclinic'
loop_
_space_group_symop_operation_xyz
x,y,z
-x,-y,-z
loop_
_atom_site_type_symbol
_atom_site_label
_atom_site_fract_x
_atom_site_fract_y
_atom_site_fract_z
Si Si1 0.575875 0.455673 0.647029
Si Si2 0.482211 0.376676 0.173314
Si Si3 0.121815 0.001393 0.261103
Si Si4 0.215582 0.663325 0.729208
Si Si5 0.898195 0.102059 0.503608
Si Si6 0.274854 0.811538 0.181447
Si Si7 0.223026 0.484722 0.957497
O O1 0.500000 0.500000 0.500000
O O2 0.484220 0.482514 0.696959
O O3 0.580184 0.197030 0.676001
O O4 0.770945 0.705242 0.739687
O O5 0.643309 0.392466 0.219848
O O6 0.348156 0.070109 0.139737
O O7 0.394370 0.494524 0.053613
O O8 0.169809 0.032745 0.413226
O O9 0.171592 0.831069 0.220525
O O10 0.922604 0.818829 0.144691
O O11 0.223127 0.886486 0.650720
O O12 0.224856 0.681453 0.863234
O O13 0.036208 0.401813 0.610765
O O14 0.000000 0.000000 0.500000
O O15 0.198614 0.572402 0.059275
#
# Coordination Sequence:
#
# PCOD9028470 Si02
#       7
#     2   2   2   2   2   2   2
#     4  10  24  38  61  94 124 165 204 252 311 361
#     4  10  23  39  63  93 127 162 207 252 302 372
#     4  10  23  40  64  91 125 160 207 257 302 372
#     4  10  23  41  63  91 127 162 207 253 303 371
#     4  10  24  40  63  93 122 165 205 253 311 362
#     4  10  23  39  62  92 122 166 203 253 310 359
#     4  10  22  42  62  94 125 163 209 251 307 360
#
# _framework density 23.475408999999999
#
# number of rings (size 3 to 8) (size 9 to 14) (size 15 to 20)
#    0.000    2.000    0.000    0.857    6.000   13.714 
#    0.000    0.000    0.000    0.000    0.000    0.000 
#    0.000    0.000    0.000    0.000    0.000    0.000 
#
# Total GULP energy -78136.073155 kJ/mol
# GULP energy per Si atom -5581.148082 kJ/mol
# Density = 2.342198 g / cm^3
# Si number density = 23.475409 Si / 1000 Ang^3
#
#
#
# Elastic Constant Matrix: (Units=GPa)
#
#
# Indices 1 2 3 4 5 6 
#
# 1 94.4456 0.7922 42.1688 -20.4941 -20.4357 3.5235
# 2 0.7922 47.7825 29.9073 -18.8833 -10.4597 5.0204
# 3 42.1688 29.9073 163.9425 -35.9833 -19.6287 -5.3974
# 4 -20.4941 -18.8833 -35.9833 28.6748 10.7253 9.3012
# 5 -20.4357 -10.4597 -19.6287 10.7253 33.4937 -7.2924
# 6 3.5235 5.0204 -5.3974 9.3012 -7.2924 25.2750
#
#
#
# Elastic Compliance Matrix: (Units=1/GPa)
#
#
# Indices 1 2 3 4 5 6 
#
# 1 0.016429 0.009749 -0.002049 0.017168 0.004246 -0.009757
# 2 0.009749 0.039676 -0.002183 0.038255 -0.000394 -0.023898
# 3 -0.002049 -0.002183 0.008858 0.008015 0.000661 -0.000148
# 4 0.017168 0.038255 0.008015 0.106405 -0.018441 -0.052758
# 5 0.004246 -0.000394 0.000661 -0.018441 0.042695 0.018732
# 6 -0.009757 -0.023898 -0.000148 -0.052758 0.018732 0.070460
#
#
# Mechanical properties :
#
#
# Convention : Reuss Voigt Hill
#
# Bulk Modulus (GPa) = 13.15821 50.21188 31.68505
# Shear Modulus (GPa) = 16.73243 33.04219 24.88731
#
# Velocity S-wave (km/s) = 2.67266 3.75577 3.25952
# Velocity P-wave (km/s) = 3.89120 6.34376 5.26235
#
# Compressibility (1/GPa) = 0.07599817
#
# Stress axis : x y z
#
# Youngs Moduli (GPa) = 60.86673 25.20431 112.88689
#
# Poissons Ratio (x) = -0.24573 0.23133
# Poissons Ratio (y) = -0.59342 0.24642
# Poissons Ratio (z) = 0.12473 0.05502
#
# Static dielectric constant tensor:
#      x y z
#    x 1.882700 0.045540 0.015110 
#    y 0.045540 1.915660 0.016150 
#    z 0.015110 0.016150 1.916380 
# 
# From -- ./inp_files/68878.got.cif
#   From: 2010.05.17/outbox.cif.g08.bks.cpg/sg2_35_cif.got.tgz:68878.got - 2010.06.03 11:33:40.
