data_PCOD9028222
_publ_section_title
;
Structure prediction by ZEFSAII (Michael W. Deem and Ramdas Pophale) SiO2 
 PCOD9028222
Probable space group: P -1
;
_chemical_formula_sum "Si O2"
_cell_formula_units_Z 14
_cell_length_a 12.576925
_cell_length_b 17.855725
_cell_length_c 10.026281
_cell_angle_alpha 134.224660
_cell_angle_beta 143.960997
_cell_angle_gamma 28.340014
_cell_volume 628.022023
_symmetry_space_group_name_H-M "P -1"
_symmetry_group_IT_number 2
_symmetry_cell_setting 'triclinic'
loop_
_space_group_symop_operation_xyz
x,y,z
-x,-y,-z
loop_
_atom_site_type_symbol
_atom_site_label
_atom_site_fract_x
_atom_site_fract_y
_atom_site_fract_z
Si Si1 0.133284 0.378601 0.364507
Si Si2 0.253112 0.411278 0.244265
Si Si3 0.290145 0.819931 0.224999
Si Si4 0.466332 0.143119 0.962261
Si Si5 0.971241 0.228053 0.905790
Si Si6 0.137308 0.684562 0.404835
Si Si7 0.727386 0.190781 0.104269
O O1 0.152893 0.439459 0.327005
O O2 0.448369 0.223898 0.531378
O O3 0.000000 0.500000 0.500000
O O4 0.987384 0.334418 0.122690
O O5 0.458564 0.229066 0.185425
O O6 0.314605 0.503882 0.388315
O O7 0.000000 0.500000 0.000000
O O8 0.233042 0.758255 0.203157
O O9 0.331622 0.752276 0.036547
O O10 0.021189 0.007053 0.177713
O O11 0.515589 0.196326 0.950662
O O12 0.726286 0.955064 0.007220
O O13 0.178871 0.207932 0.743443
O O14 0.891870 0.273975 0.728315
O O15 0.250524 0.724971 0.665341
#
# Coordination Sequence:
#
# PCOD9028222 Si02
#       7
#     2   2   2   2   2   2   2
#     4  12  27  45  68  95 142 180 218 277 334 402
#     4  10  23  43  64 100 134 170 226 270 335 396
#     4  10  26  45  64 102 137 177 227 267 337 404
#     4  10  22  41  72  97 133 168 229 279 326 393
#     4  11  24  43  71 102 126 178 225 280 333 387
#     4  11  23  40  69  99 133 174 224 272 338 390
#     4  10  24  43  69  98 137 177 221 280 329 397
#
# _framework density 22.292211000000002
#
# number of rings (size 3 to 8) (size 9 to 14) (size 15 to 20)
#    0.000    1.429    2.857    1.286   10.000    2.286 
#    0.000    4.286    0.000    0.000    0.000    0.000 
#    0.000    0.000    0.000    0.000    0.000    0.000 
#
# Total GULP energy -78341.563524 kJ/mol
# GULP energy per Si atom -5595.825966 kJ/mol
# Density = 2.224147 g / cm^3
# Si number density = 22.292211 Si / 1000 Ang^3
#
#
#
# Elastic Constant Matrix: (Units=GPa)
#
#
# Indices 1 2 3 4 5 6 
#
# 1 99.5688 27.4650 15.6736 12.3989 -19.0887 -6.5262
# 2 27.4650 76.4083 20.2760 16.9458 -6.3340 -5.2685
# 3 15.6736 20.2760 83.3514 18.1286 -4.3329 -4.7147
# 4 12.3989 16.9458 18.1286 42.2610 -14.0806 9.7412
# 5 -19.0887 -6.3340 -4.3329 -14.0806 39.6010 4.5616
# 6 -6.5262 -5.2685 -4.7147 9.7412 4.5616 31.6356
#
#
#
# Elastic Compliance Matrix: (Units=1/GPa)
#
#
# Indices 1 2 3 4 5 6 
#
# 1 0.012262 -0.003565 -0.001042 -0.000333 0.004974 0.001166
# 2 -0.003565 0.016357 -0.001817 -0.006310 -0.001999 0.003949
# 3 -0.001042 -0.001817 0.014198 -0.006651 -0.002058 0.003943
# 4 -0.000333 -0.006310 -0.006651 0.037039 0.013046 -0.015397
# 5 0.004974 -0.001999 -0.002058 0.013046 0.032704 -0.008346
# 6 0.001166 0.003949 0.003943 -0.015397 -0.008346 0.039040
#
#
# Mechanical properties :
#
#
# Convention : Reuss Voigt Hill
#
# Bulk Modulus (GPa) = 33.36610 42.90641 38.13625
# Shear Modulus (GPa) = 28.66364 35.76045 32.21205
#
# Velocity S-wave (km/s) = 3.58972 4.00955 3.80543
# Velocity P-wave (km/s) = 5.67287 6.38157 6.03763
#
# Compressibility (1/GPa) = 0.02997054
#
# Stress axis : x y z
#
# Youngs Moduli (GPa) = 81.55300 61.13586 70.43316
#
# Poissons Ratio (x) = 0.21792 0.07337
# Poissons Ratio (y) = 0.29070 0.12797
# Poissons Ratio (z) = 0.08496 0.11107
#
# Static dielectric constant tensor:
#      x y z
#    x 1.835520 -0.028740 0.024100 
#    y -0.028740 1.854760 0.000580 
#    z 0.024100 0.000580 1.786740 
# 
# From -- ./inp_files/280002.got.cif
#   From: 2010.05.17/outbox.cif.g08.bks.cpg/sg2_141_cif.got.tgz:280002.got - 2010.06.03 11:33:40.
