data_PCOD9028192
_publ_section_title
;
Structure prediction by ZEFSAII (Michael W. Deem and Ramdas Pophale) SiO2 
 PCOD9028192
Probable space group: P -1
;
_chemical_formula_sum "Si O2"
_cell_formula_units_Z 14
_cell_length_a 5.758574
_cell_length_b 11.329905
_cell_length_c 15.304876
_cell_angle_alpha 130.781115
_cell_angle_beta 51.501261
_cell_angle_gamma 131.739318
_cell_volume 532.173027
_symmetry_space_group_name_H-M "P -1"
_symmetry_group_IT_number 2
_symmetry_cell_setting 'triclinic'
loop_
_space_group_symop_operation_xyz
x,y,z
-x,-y,-z
loop_
_atom_site_type_symbol
_atom_site_label
_atom_site_fract_x
_atom_site_fract_y
_atom_site_fract_z
Si Si1 0.687752 0.501284 0.867286
Si Si2 0.742536 0.373536 0.073113
Si Si3 0.404356 0.253160 0.328198
Si Si4 0.732947 0.179730 0.723121
Si Si5 0.534396 0.625016 0.424777
Si Si6 0.320185 0.883363 0.566452
Si Si7 0.621788 0.967340 0.087565
O O1 0.574653 0.590785 0.860225
O O2 0.609460 0.306446 0.763358
O O3 0.050750 0.573868 0.860346
O O4 0.500000 0.500000 0.000000
O O5 0.606855 0.165336 0.997182
O O6 0.000000 0.500000 0.000000
O O7 0.443892 0.423728 0.348527
O O8 0.441179 0.318260 0.451530
O O9 0.026270 0.115998 0.336846
O O10 0.605859 0.146975 0.200417
O O11 0.570972 0.157090 0.845218
O O12 0.122428 0.263944 0.653658
O O13 0.572619 0.986006 0.632486
O O14 0.277486 0.688471 0.474713
O O15 0.500000 0.000000 0.500000
O O16 0.000000 0.000000 0.000000
#
# Coordination Sequence:
#
# PCOD9028192 Si02
#       7
#     2   2   2   2   2   2   2
#     4  10  22  41  72 104 144 198 253 317 377 471
#     4  10  22  45  72 102 149 196 266 309 389 457
#     4  11  26  48  74 108 155 193 257 320 394 464
#     4  12  24  45  76 106 151 196 262 313 396 467
#     4  11  25  48  74 109 149 200 252 322 391 467
#     4  12  24  45  78 115 146 196 256 324 392 470
#     4  12  27  48  75 111 156 204 261 327 393 472
#
# _framework density 26.307236
#
# number of rings (size 3 to 8) (size 9 to 14) (size 15 to 20)
#    0.000    0.857    5.714    1.714    6.000    1.143 
#    2.571    1.429    0.000    0.000    0.000    0.000 
#    0.000    0.000    0.000    0.000    0.000    0.000 
#
# Total GULP energy -78200.331665 kJ/mol
# GULP energy per Si atom -5585.737976 kJ/mol
# Density = 2.624736 g / cm^3
# Si number density = 26.307236 Si / 1000 Ang^3
#
#
#
# Elastic Constant Matrix: (Units=GPa)
#
#
# Indices 1 2 3 4 5 6 
#
# 1 113.9179 47.5059 46.0046 2.6087 -17.8234 -9.5649
# 2 47.5059 142.0358 68.1277 17.1186 -12.6530 -9.0561
# 3 46.0046 68.1277 134.1418 0.5058 -39.7960 1.7096
# 4 2.6087 17.1186 0.5058 55.0488 1.2460 -2.8658
# 5 -17.8234 -12.6530 -39.7960 1.2460 45.1992 0.9981
# 6 -9.5649 -9.0561 1.7096 -2.8658 0.9981 40.9709
#
#
#
# Elastic Compliance Matrix: (Units=1/GPa)
#
#
# Indices 1 2 3 4 5 6 
#
# 1 0.011087 -0.002478 -0.002026 0.000332 0.001838 0.002103
# 2 -0.002478 0.010698 -0.005394 -0.003002 -0.002690 0.001867
# 3 -0.002026 -0.005394 0.013853 0.001297 0.009905 -0.002394
# 4 0.000332 -0.003002 0.001297 0.019110 -0.000110 0.000699
# 5 0.001838 -0.002690 0.009905 -0.000110 0.030850 -0.001338
# 6 0.002103 0.001867 -0.002394 0.000699 -0.001338 0.025493
#
#
# Mechanical properties :
#
#
# Convention : Reuss Voigt Hill
#
# Bulk Modulus (GPa) = 63.12622 79.26353 71.19488
# Shear Modulus (GPa) = 36.71955 43.47427 40.09691
#
# Velocity S-wave (km/s) = 3.74009 4.06958 3.90831
# Velocity P-wave (km/s) = 6.53444 7.23030 6.89116
#
# Compressibility (1/GPa) = 0.01584128
#
# Stress axis : x y z
#
# Youngs Moduli (GPa) = 90.19841 93.47892 72.18523
#
# Poissons Ratio (x) = 0.23167 0.14626
# Poissons Ratio (y) = 0.22354 0.38934
# Poissons Ratio (z) = 0.18276 0.50419
#
# Static dielectric constant tensor:
#      x y z
#    x 2.044180 -0.039730 -0.065860 
#    y -0.039730 2.172510 -0.018650 
#    z -0.065860 -0.018650 1.983380 
# 
# From -- ./inp_files/549231.got.cif
#   From: 2010.05.17/outbox.cif.g08.bks.cpg/sg2_275_cif.got.tgz:549231.got - 2010.06.03 11:33:40.
