data_PCOD9028319
_publ_section_title
;
Structure prediction by ZEFSAII (Michael W. Deem and Ramdas Pophale) SiO2 
 PCOD9028319
Probable space group: P -1
;
_chemical_formula_sum "Si O2"
_cell_formula_units_Z 14
_cell_length_a 5.090357
_cell_length_b 16.367932
_cell_length_c 15.435544
_cell_angle_alpha 27.157076
_cell_angle_beta 100.288175
_cell_angle_gamma 108.246583
_cell_volume 542.452122
_symmetry_space_group_name_H-M "P -1"
_symmetry_group_IT_number 2
_symmetry_cell_setting 'triclinic'
loop_
_space_group_symop_operation_xyz
x,y,z
-x,-y,-z
loop_
_atom_site_type_symbol
_atom_site_label
_atom_site_fract_x
_atom_site_fract_y
_atom_site_fract_z
Si Si1 0.772566 0.595529 0.868716
Si Si2 0.182904 0.757181 0.101980
Si Si3 0.703694 0.650703 0.302752
Si Si4 0.702078 0.932861 0.635660
Si Si5 0.793777 0.761355 0.538193
Si Si6 0.554210 0.101547 0.178375
Si Si7 0.029064 0.124820 0.738203
O O1 0.861235 0.813706 0.705293
O O2 0.689638 0.605232 0.753608
O O3 0.500000 0.500000 0.000000
O O4 0.000000 0.500000 0.000000
O O5 0.472617 0.739426 0.171574
O O6 0.892590 0.622574 0.258919
O O7 0.206108 0.746799 0.008702
O O8 0.188142 0.974076 0.906956
O O9 0.500000 0.500000 0.500000
O O10 0.956858 0.773966 0.265396
O O11 0.525500 0.814687 0.818281
O O12 0.500000 0.000000 0.500000
O O13 0.896455 0.120935 0.518494
O O14 0.820567 0.725033 0.471719
O O15 0.649791 0.923231 0.377010
O O16 0.273925 0.004759 0.194603
#
# Coordination Sequence:
#
# PCOD9028319 Si02
#       7
#     2   2   2   2   2   2   2
#     4  12  27  44  67 104 145 184 229 294 367 425
#     4  11  23  45  70 101 135 177 243 292 341 423
#     4  12  26  44  69 103 144 186 222 284 371 433
#     4  11  22  44  75  99 138 190 251 293 346 429
#     4  10  23  43  70 100 135 185 245 294 348 418
#     4  10  22  41  76 105 129 183 256 300 342 403
#     4  10  23  43  73 100 135 179 244 295 344 417
#
# _framework density 25.808726
#
# number of rings (size 3 to 8) (size 9 to 14) (size 15 to 20)
#    0.000    1.143    2.857    2.571    8.000    0.000 
#    2.571    0.000    0.000    0.000    0.000    0.000 
#    0.000    0.000    0.000    0.000    0.000    0.000 
#
# Total GULP energy -78242.970457 kJ/mol
# GULP energy per Si atom -5588.783604 kJ/mol
# Density = 2.574998 g / cm^3
# Si number density = 25.808726 Si / 1000 Ang^3
#
#
#
# Elastic Constant Matrix: (Units=GPa)
#
#
# Indices 1 2 3 4 5 6 
#
# 1 159.3680 42.1326 64.4117 36.2216 -1.8401 -8.3483
# 2 42.1326 57.2357 36.9977 19.2429 6.0522 -9.7764
# 3 64.4117 36.9977 171.1283 53.9814 -13.9575 -8.0061
# 4 36.2216 19.2429 53.9814 38.0875 -2.9379 -6.0584
# 5 -1.8401 6.0522 -13.9575 -2.9379 62.2395 21.0512
# 6 -8.3483 -9.7764 -8.0061 -6.0584 21.0512 44.1159
#
#
#
# Elastic Compliance Matrix: (Units=1/GPa)
#
#
# Indices 1 2 3 4 5 6 
#
# 1 0.008918 -0.004433 -0.000733 -0.005224 0.000397 -0.000335
# 2 -0.004433 0.025605 -0.002637 -0.004392 -0.005592 0.006422
# 3 -0.000733 -0.002637 0.011236 -0.013988 0.002741 -0.001913
# 4 -0.005224 -0.004392 -0.013988 0.053724 -0.001552 0.003618
# 5 0.000397 -0.005592 0.002741 -0.001552 0.020822 -0.010816
# 6 -0.000335 0.006422 -0.001913 0.003618 -0.010816 0.029338
#
#
# Mechanical properties :
#
#
# Convention : Reuss Voigt Hill
#
# Bulk Modulus (GPa) = 33.16637 74.97957 54.07297
# Shear Modulus (GPa) = 28.52245 45.16790 36.84517
#
# Velocity S-wave (km/s) = 3.32798 4.18796 3.78249
# Velocity P-wave (km/s) = 5.25795 7.24572 6.33034
#
# Compressibility (1/GPa) = 0.03015102
#
# Stress axis : x y z
#
# Youngs Moduli (GPa) = 112.13734 39.05562 88.99635
#
# Poissons Ratio (x) = 0.17314 0.06528
# Poissons Ratio (y) = 0.49712 0.23469
# Poissons Ratio (z) = 0.08225 0.10299
#
# Static dielectric constant tensor:
#      x y z
#    x 2.079470 0.000310 -0.104150 
#    y 0.000310 2.173460 0.106820 
#    z -0.104150 0.106820 2.211900 
# 
# From -- ./inp_files/480479.got.cif
#   From: 2010.05.17/outbox.cif.g08.bks.cpg/sg2_241_cif.got.tgz:480479.got - 2010.06.03 11:33:40.
