data_PCOD9028221
_publ_section_title
;
Structure prediction by ZEFSAII (Michael W. Deem and Ramdas Pophale) SiO2 
 PCOD9028221
Probable space group: P -1
;
_chemical_formula_sum "Si O2"
_cell_formula_units_Z 14
_cell_length_a 6.812166
_cell_length_b 12.001524
_cell_length_c 14.271480
_cell_angle_alpha 135.720834
_cell_angle_beta 72.182099
_cell_angle_gamma 128.677462
_cell_volume 614.153499
_symmetry_space_group_name_H-M "P -1"
_symmetry_group_IT_number 2
_symmetry_cell_setting 'triclinic'
loop_
_space_group_symop_operation_xyz
x,y,z
-x,-y,-z
loop_
_atom_site_type_symbol
_atom_site_label
_atom_site_fract_x
_atom_site_fract_y
_atom_site_fract_z
Si Si1 0.418416 0.557116 0.893405
Si Si2 0.660275 0.213417 0.831318
Si Si3 0.424113 0.142189 0.272251
Si Si4 0.831603 0.388055 0.213410
Si Si5 0.217190 0.020601 0.419768
Si Si6 0.984881 0.102612 0.972811
Si Si7 0.556437 0.258088 0.676866
O O1 0.339308 0.606926 0.838494
O O2 0.434576 0.377742 0.763615
O O3 0.712842 0.728123 0.991681
O O4 0.264461 0.583715 0.011848
O O5 0.491241 0.170432 0.738471
O O6 0.537270 0.030229 0.813229
O O7 0.870075 0.189095 0.740087
O O8 0.680173 0.331537 0.299795
O O9 0.334808 0.167981 0.401570
O O10 0.187249 0.047024 0.176522
O O11 0.853924 0.210517 0.080669
O O12 0.130305 0.586974 0.286825
O O13 0.442554 0.108760 0.516381
O O14 0.000000 0.000000 0.500000
O O15 0.000000 0.000000 0.000000
#
# Coordination Sequence:
#
# PCOD9028221 Si02
#       7
#     2   2   2   2   2   2   2
#     4  11  23  40  70 104 139 168 220 284 338 397
#     4  10  23  44  71  96 134 181 229 271 329 397
#     4  10  22  41  72  97 129 180 226 275 325 392
#     4  11  22  43  64 103 142 165 219 285 343 389
#     4  10  25  47  68  95 134 182 234 269 323 405
#     4  11  20  37  69 103 136 173 223 272 341 394
#     4  11  26  43  68 101 138 183 212 277 344 396
#
# _framework density 22.795604999999998
#
# number of rings (size 3 to 8) (size 9 to 14) (size 15 to 20)
#    0.857    0.571    2.857    2.143    4.000    1.143 
#    0.000    0.714    0.000    0.000    0.000    0.000 
#    0.000    0.000    0.000    0.000    0.000    0.000 
#
# Total GULP energy -78061.027387 kJ/mol
# GULP energy per Si atom -5575.787671 kJ/mol
# Density = 2.274372 g / cm^3
# Si number density = 22.795605 Si / 1000 Ang^3
#
#
#
# Elastic Constant Matrix: (Units=GPa)
#
#
# Indices 1 2 3 4 5 6 
#
# 1 125.5278 61.3957 26.7745 -14.4469 0.4348 -10.5583
# 2 61.3957 72.5233 45.3914 -28.7238 12.5410 -6.4401
# 3 26.7745 45.3914 118.0077 -25.1619 0.8131 3.1276
# 4 -14.4469 -28.7238 -25.1619 36.7187 -1.7820 2.5353
# 5 0.4348 12.5410 0.8131 -1.7820 46.6995 -10.0272
# 6 -10.5583 -6.4401 3.1276 2.5353 -10.0272 48.7046
#
#
#
# Elastic Compliance Matrix: (Units=1/GPa)
#
#
# Indices 1 2 3 4 5 6 
#
# 1 0.015499 -0.017238 0.001712 -0.006141 0.004706 0.002259
# 2 -0.017238 0.043838 -0.008306 0.021346 -0.010813 -0.000744
# 3 0.001712 -0.008306 0.011823 0.002453 0.001837 -0.001236
# 4 -0.006141 0.021346 0.002453 0.043107 -0.004466 -0.001830
# 5 0.004706 -0.010813 0.001837 -0.004466 0.025118 0.004876
# 6 0.002259 -0.000744 -0.001236 -0.001830 0.004876 0.022102
#
#
# Mechanical properties :
#
#
# Convention : Reuss Voigt Hill
#
# Bulk Modulus (GPa) = 42.55630 64.79800 53.67715
# Shear Modulus (GPa) = 23.04324 38.59104 30.81714
#
# Velocity S-wave (km/s) = 3.18286 4.11897 3.68079
# Velocity P-wave (km/s) = 5.67597 7.14903 6.45466
#
# Compressibility (1/GPa) = 0.02349828
#
# Stress axis : x y z
#
# Youngs Moduli (GPa) = 64.51884 22.81105 84.57828
#
# Poissons Ratio (x) = 0.39322 -0.14483
# Poissons Ratio (y) = 1.11220 0.70247
# Poissons Ratio (z) = -0.11048 0.18946
#
# Static dielectric constant tensor:
#      x y z
#    x 1.893620 0.029860 -0.043590 
#    y 0.029860 1.908020 0.019620 
#    z -0.043590 0.019620 1.872750 
# 
# From -- ./inp_files/482337.got.cif
#   From: 2010.05.17/outbox.cif.g08.bks.cpg/sg2_242_cif.got.tgz:482337.got - 2010.06.03 11:33:40.
