data_PCOD9028049
_publ_section_title
;
Structure prediction by ZEFSAII (Michael W. Deem and Ramdas Pophale) SiO2 
 PCOD9028049
Probable space group: P -1
;
_chemical_formula_sum "Si O2"
_cell_formula_units_Z 15
_cell_length_a 4.864512
_cell_length_b 8.998275
_cell_length_c 17.718138
_cell_angle_alpha 133.257409
_cell_angle_beta 103.615867
_cell_angle_gamma 70.432841
_cell_volume 532.189483
_symmetry_space_group_name_H-M "P -1"
_symmetry_group_IT_number 2
_symmetry_cell_setting 'triclinic'
loop_
_space_group_symop_operation_xyz
x,y,z
-x,-y,-z
loop_
_atom_site_type_symbol
_atom_site_label
_atom_site_fract_x
_atom_site_fract_y
_atom_site_fract_z
Si Si1 0.860801 0.238334 0.596551
Si Si2 0.421467 0.931855 0.700959
Si Si3 0.779803 0.509510 0.365105
Si Si4 0.845918 0.192156 0.828661
Si Si5 0.508510 0.183960 0.174056
Si Si6 0.759311 0.162186 0.990325
Si Si7 0.500000 0.500000 0.500000
Si Si8 0.001968 0.513006 0.171607
O O1 0.939601 0.396146 0.592874
O O2 0.017434 0.304437 0.703593
O O3 0.513927 0.309782 0.612122
O O4 0.000000 0.000000 0.500000
O O5 0.596651 0.820999 0.747836
O O6 0.478144 0.757767 0.580502
O O7 0.103243 0.017277 0.745233
O O8 0.552646 0.131145 0.761965
O O9 0.761536 0.309718 0.241987
O O10 0.728751 0.448461 0.425473
O O11 0.907480 0.402366 0.871973
O O12 0.844137 0.179774 0.914438
O O13 0.268774 0.335443 0.160969
O O14 0.514954 0.945981 0.066237
O O15 0.747241 0.393127 0.101775
O O16 0.000000 0.000000 0.000000
#
# Coordination Sequence:
#
# PCOD9028049 Si02
#       8
#     2   2   2   2   2   2   1   2
#     4  11  25  42  63  94 137 175 217 269 339 405
#     4  10  24  42  67  94 136 176 225 279 339 403
#     4  10  23  41  65  94 129 169 227 273 330 392
#     4  11  24  43  66 101 137 170 226 283 344 396
#     4   8  19  41  62  94 126 175 216 275 326 402
#     4   9  19  42  70  98 134 178 226 277 343 407
#     4  10  24  40  70  96 130 176 236 278 330 400
#     4  10  22  41  70  99 136 181 227 279 342 403
#
# _framework density 28.185448000000001
#
# number of rings (size 3 to 8) (size 9 to 14) (size 15 to 20)
#    0.000    2.133    0.000    0.800    3.733   16.000 
#    0.000   20.667    0.000    0.000    0.000    0.000 
#    0.000    0.000    0.000    0.000    0.000    0.000 
#
# Total GULP energy -83786.607257 kJ/mol
# GULP energy per Si atom -5585.773817 kJ/mol
# Density = 2.812130 g / cm^3
# Si number density = 28.185448 Si / 1000 Ang^3
#
#
#
# Elastic Constant Matrix: (Units=GPa)
#
#
# Indices 1 2 3 4 5 6 
#
# 1 97.6086 0.3934 36.2042 3.5046 2.7759 9.7169
# 2 0.3934 125.4789 41.8115 3.6467 -9.3709 20.6095
# 3 36.2042 41.8115 192.1212 22.3043 15.2995 19.7818
# 4 3.5046 3.6467 22.3043 59.2070 14.0120 -3.4280
# 5 2.7759 -9.3709 15.2995 14.0120 35.0176 -0.1336
# 6 9.7169 20.6095 19.7818 -3.4280 -0.1336 48.1429
#
#
#
# Elastic Compliance Matrix: (Units=1/GPa)
#
#
# Indices 1 2 3 4 5 6 
#
# 1 0.011218 0.001014 -0.002165 -0.000102 0.000362 -0.001815
# 2 0.001014 0.009546 -0.002099 -0.000948 0.003758 -0.003486
# 3 -0.002165 -0.002099 0.006633 -0.001712 -0.002609 -0.001519
# 4 -0.000102 -0.000948 -0.001712 0.019466 -0.007277 0.002496
# 5 0.000362 0.003758 -0.002609 -0.007277 0.033582 -0.001035
# 6 -0.001815 -0.003486 -0.001519 0.002496 -0.001035 0.023429
#
#
# Mechanical properties :
#
#
# Convention : Reuss Voigt Hill
#
# Bulk Modulus (GPa) = 47.85118 63.55854 55.70486
# Shear Modulus (GPa) = 42.61162 50.92681 46.76921
#
# Velocity S-wave (km/s) = 3.89244 4.25531 4.07792
# Velocity P-wave (km/s) = 6.10046 6.83686 6.47913
#
# Compressibility (1/GPa) = 0.02089813
#
# Stress axis : x y z
#
# Youngs Moduli (GPa) = 89.14312 104.75121 150.76900
#
# Poissons Ratio (x) = -0.10625 0.32639
# Poissons Ratio (y) = -0.09041 0.31645
# Poissons Ratio (z) = 0.19298 0.21986
#
# Static dielectric constant tensor:
#      x y z
#    x 2.113230 0.024000 -0.023230 
#    y 0.024000 1.895750 0.278360 
#    z -0.023230 0.278360 2.043950 
# 
# From -- ./inp_files/547581.got.cif
#   From: 2010.05.17/outbox.cif.g08.bks.cpg/sg2_274_cif.got.tgz:547581.got - 2010.06.03 11:33:40.
