data_PCOD9028417
_publ_section_title
;
Structure prediction by ZEFSAII (Michael W. Deem and Ramdas Pophale) SiO2 
 PCOD9028417
Probable space group: P -1
;
_chemical_formula_sum "Si O2"
_cell_formula_units_Z 16
_cell_length_a 11.964656
_cell_length_b 18.077603
_cell_length_c 7.298846
_cell_angle_alpha 125.039245
_cell_angle_beta 91.491803
_cell_angle_gamma 49.308126
_cell_volume 811.276400
_symmetry_space_group_name_H-M "P -1"
_symmetry_group_IT_number 2
_symmetry_cell_setting 'triclinic'
loop_
_space_group_symop_operation_xyz
x,y,z
-x,-y,-z
loop_
_atom_site_type_symbol
_atom_site_label
_atom_site_fract_x
_atom_site_fract_y
_atom_site_fract_z
Si Si1 0.551878 0.943900 0.628242
Si Si2 0.208558 0.553473 0.412792
Si Si3 0.659403 0.625427 0.476709
Si Si4 0.396682 0.935236 0.921172
Si Si5 0.894569 0.076191 0.412495
Si Si6 0.009112 0.136243 0.180848
Si Si7 0.509860 0.602286 0.111572
Si Si8 0.100159 0.371130 0.682360
O O1 0.441658 0.934483 0.713097
O O2 0.755400 0.782406 0.426157
O O3 0.500000 0.000000 0.500000
O O4 0.514688 0.052862 0.912908
O O5 0.258281 0.479211 0.501413
O O6 0.142707 0.697417 0.637259
O O7 0.047774 0.595649 0.378653
O O8 0.380174 0.447110 0.137929
O O9 0.469083 0.789850 0.751652
O O10 0.623494 0.580675 0.244175
O O11 0.783467 0.633701 0.445126
O O12 0.189737 0.075296 0.142083
O O13 0.686645 0.229114 0.658371
O O14 0.959087 0.114777 0.332877
O O15 0.000000 0.000000 0.500000
O O16 0.938302 0.961546 0.125191
O O17 0.500000 0.500000 0.000000
O O18 0.000000 0.500000 0.000000
#
# Coordination Sequence:
#
# PCOD9028417 Si02
#       8
#     2   2   2   2   2   2   2   2
#     4  10  23  39  64  93 132 173 212 276 327 384
#     4  12  26  43  72 100 139 184 220 282 341 404
#     4  11  26  43  70  96 140 185 220 279 342 400
#     4  10  22  42  61  95 129 167 228 265 320 403
#     4  11  27  46  71  95 134 178 223 285 340 399
#     4  11  24  46  66  99 131 170 231 277 328 406
#     4  12  26  47  66 103 138 172 233 281 336 410
#     4  11  23  44  65 101 138 174 231 273 332 411
#
# _framework density 19.722007999999999
#
# number of rings (size 3 to 8) (size 9 to 14) (size 15 to 20)
#    0.000    1.000    5.000    0.375    5.250    2.500 
#    0.000    0.000    0.000    0.000    0.000    0.000 
#    0.000    0.000    0.000    0.000    0.000    0.000 
#
# Total GULP energy -89334.913433 kJ/mol
# GULP energy per Si atom -5583.432090 kJ/mol
# Density = 1.967712 g / cm^3
# Si number density = 19.722008 Si / 1000 Ang^3
#
#
#
# Elastic Constant Matrix: (Units=GPa)
#
#
# Indices 1 2 3 4 5 6 
#
# 1 68.0801 44.3047 34.5379 -9.5666 -9.6855 -1.1954
# 2 44.3047 167.9698 79.7774 -13.1236 -5.5196 11.0330
# 3 34.5379 79.7774 115.8530 11.2132 -9.1208 2.9212
# 4 -9.5666 -13.1236 11.2132 33.5908 -0.7025 -0.9992
# 5 -9.6855 -5.5196 -9.1208 -0.7025 31.5064 11.9291
# 6 -1.1954 11.0330 2.9212 -0.9992 11.9291 24.7910
#
#
#
# Elastic Compliance Matrix: (Units=1/GPa)
#
#
# Indices 1 2 3 4 5 6 
#
# 1 0.020192 -0.002590 -0.004540 0.006369 0.004251 0.000872
# 2 -0.002590 0.010691 -0.006970 0.005657 0.000778 -0.004208
# 3 -0.004540 -0.006970 0.015834 -0.009271 0.001855 -0.000249
# 4 0.006369 0.005657 -0.009271 0.036907 0.001160 -0.000189
# 5 0.004251 0.000778 0.001855 0.001160 0.041408 -0.020238
# 6 0.000872 -0.004208 -0.000249 -0.000189 -0.020238 0.052012
#
#
# Mechanical properties :
#
#
# Convention : Reuss Voigt Hill
#
# Bulk Modulus (GPa) = 54.00212 74.34921 64.17566
# Shear Modulus (GPa) = 23.64988 30.86318 27.25653
#
# Velocity S-wave (km/s) = 3.46665 3.96019 3.72161
# Velocity P-wave (km/s) = 6.59277 7.66102 7.14688
#
# Compressibility (1/GPa) = 0.01851779
#
# Stress axis : x y z
#
# Youngs Moduli (GPa) = 49.52392 93.53783 63.15400
#
# Poissons Ratio (x) = 0.24222 0.28674
# Poissons Ratio (y) = 0.12825 0.44018
# Poissons Ratio (z) = 0.22485 0.65196
#
# Static dielectric constant tensor:
#      x y z
#    x 1.758980 -0.012840 -0.009000 
#    y -0.012840 1.673040 0.037180 
#    z -0.009000 0.037180 1.696320 
# 
# From -- ./inp_files/81582.got.cif
#   From: 2010.05.17/outbox.cif.g08.bks.cpg/sg2_41_cif.got.tgz:81582.got - 2010.06.03 11:33:40.
