data_PCOD9028533
_publ_section_title
;
Structure prediction by ZEFSAII (Michael W. Deem and Ramdas Pophale) SiO2 
 PCOD9028533
Probable space group: P -1
;
_chemical_formula_sum "Si O2"
_cell_formula_units_Z 16
_cell_length_a 14.854890
_cell_length_b 8.399187
_cell_length_c 15.547771
_cell_angle_alpha 57.088685
_cell_angle_beta 27.472670
_cell_angle_gamma 64.050317
_cell_volume 746.320302
_symmetry_space_group_name_H-M "P -1"
_symmetry_group_IT_number 2
_symmetry_cell_setting 'triclinic'
loop_
_space_group_symop_operation_xyz
x,y,z
-x,-y,-z
loop_
_atom_site_type_symbol
_atom_site_label
_atom_site_fract_x
_atom_site_fract_y
_atom_site_fract_z
Si Si1 0.593621 0.205808 0.883517
Si Si2 0.512648 0.448957 0.716713
Si Si3 0.030187 0.490301 0.724066
Si Si4 0.436830 0.228503 0.661965
Si Si5 0.336719 0.779959 0.846582
Si Si6 0.025409 0.210931 0.457361
Si Si7 0.562362 0.702308 0.843398
Si Si8 0.836977 0.453793 0.224348
O O1 0.498290 0.339391 0.853979
O O2 0.824336 0.246161 0.662175
O O3 0.555579 0.184943 0.023478
O O4 0.500000 0.000000 0.000000
O O5 0.458769 0.303220 0.723253
O O6 0.390377 0.633702 0.768039
O O7 0.744691 0.523301 0.489169
O O8 0.940198 0.630458 0.692658
O O9 0.049635 0.586454 0.772966
O O10 0.884054 0.297599 0.914341
O O11 0.653424 0.289729 0.420386
O O12 0.277494 0.358867 0.722171
O O13 0.369840 0.010015 0.755351
O O14 0.489163 0.725054 0.804948
O O15 0.208575 0.236831 0.357723
O O16 0.000000 0.000000 0.500000
O O17 0.500000 0.500000 0.000000
O O18 0.000000 0.500000 0.000000
#
# Coordination Sequence:
#
# PCOD9028533 Si02
#       8
#     2   2   2   2   2   2   2   2
#     4  11  21  37  61  87 125 173 216 260 311 374
#     4  10  22  42  63  90 134 169 212 269 322 376
#     4  10  23  41  63  94 129 170 216 268 320 391
#     4  10  24  43  68  98 124 167 218 265 325 397
#     4  12  24  42  66  95 135 171 214 268 328 380
#     4  11  23  39  64  93 128 174 219 261 319 387
#     4  12  23  39  59  93 132 168 216 265 316 378
#     4  10  22  45  69  95 131 164 215 273 326 388
#
# _framework density 21.438517000000001
#
# number of rings (size 3 to 8) (size 9 to 14) (size 15 to 20)
#    0.000    1.250    3.750    1.500    3.500    3.000 
#    2.250    8.750    0.000    0.000    0.000    0.000 
#    0.000    0.000    0.000    0.000    0.000    0.000 
#
# Total GULP energy -89131.401007 kJ/mol
# GULP energy per Si atom -5570.712563 kJ/mol
# Density = 2.138972 g / cm^3
# Si number density = 21.438517 Si / 1000 Ang^3
#
#
#
# Elastic Constant Matrix: (Units=GPa)
#
#
# Indices 1 2 3 4 5 6 
#
# 1 61.8087 -14.2838 13.2014 5.8740 -0.8336 0.9912
# 2 -14.2838 90.9078 34.3637 -27.0404 -5.3358 10.4463
# 3 13.2014 34.3637 108.2406 -13.9848 -14.1250 8.9030
# 4 5.8740 -27.0404 -13.9848 37.9798 6.4105 0.3540
# 5 -0.8336 -5.3358 -14.1250 6.4105 33.2028 -0.4162
# 6 0.9912 10.4463 8.9030 0.3540 -0.4162 21.4731
#
#
#
# Elastic Compliance Matrix: (Units=1/GPa)
#
#
# Indices 1 2 3 4 5 6 
#
# 1 0.017971 0.003918 -0.003517 -0.001241 -0.000192 -0.001260
# 2 0.003918 0.016923 -0.004097 0.010163 -0.000974 -0.006902
# 3 -0.003517 -0.004097 0.011891 0.001353 0.004017 -0.002719
# 4 -0.001241 0.010163 0.001353 0.035102 -0.004676 -0.006117
# 5 -0.000192 -0.000974 0.004017 -0.004676 0.032562 -0.000475
# 6 -0.001260 -0.006902 -0.002719 -0.006117 -0.000475 0.051205
#
#
# Mechanical properties :
#
#
# Convention : Reuss Voigt Hill
#
# Bulk Modulus (GPa) = 25.38570 36.39109 30.88840
# Shear Modulus (GPa) = 26.85603 33.70952 30.28278
#
# Velocity S-wave (km/s) = 3.54319 3.96963 3.76246
# Velocity P-wave (km/s) = 5.34844 6.16620 5.77182
#
# Compressibility (1/GPa) = 0.03939225
#
# Stress axis : x y z
#
# Youngs Moduli (GPa) = 55.64484 59.09046 84.09779
#
# Poissons Ratio (x) = -0.23149 0.29580
# Poissons Ratio (y) = -0.21799 0.34453
# Poissons Ratio (z) = 0.19572 0.24208
#
# Static dielectric constant tensor:
#      x y z
#    x 1.781780 -0.002390 0.036170 
#    y -0.002390 1.784470 0.002470 
#    z 0.036170 0.002470 1.751520 
# 
# From -- ./inp_files/216850.got.cif
#   From: 2010.05.17/outbox.cif.g08.bks.cpg/sg2_109_cif.got.tgz:216850.got - 2010.06.03 11:33:40.
