data_PCOD9028640
_publ_section_title
;
Structure prediction by ZEFSAII (Michael W. Deem and Ramdas Pophale) SiO2 
 PCOD9028640
Probable space group: P -1
;
_chemical_formula_sum "Si O2"
_cell_formula_units_Z 16
_cell_length_a 15.319519
_cell_length_b 30.484708
_cell_length_c 8.652670
_cell_angle_alpha 49.043284
_cell_angle_beta 38.555613
_cell_angle_gamma 18.863190
_cell_volume 739.201678
_symmetry_space_group_name_H-M "P -1"
_symmetry_group_IT_number 2
_symmetry_cell_setting 'triclinic'
loop_
_space_group_symop_operation_xyz
x,y,z
-x,-y,-z
loop_
_atom_site_type_symbol
_atom_site_label
_atom_site_fract_x
_atom_site_fract_y
_atom_site_fract_z
Si Si1 0.144828 0.301925 0.808966
Si Si2 0.093783 0.397506 0.234502
Si Si3 0.230574 0.370649 0.756841
Si Si4 0.661999 0.893426 0.894975
Si Si5 0.358059 0.895680 0.694354
Si Si6 0.213715 0.074538 0.616102
Si Si7 0.921116 0.166643 0.121280
Si Si8 0.536652 0.554479 0.821860
O O1 0.146614 0.341715 0.863212
O O2 0.521084 0.160058 0.520653
O O3 0.836096 0.446744 0.791521
O O4 0.115456 0.245078 0.022471
O O5 0.338354 0.252288 0.287250
O O6 0.068675 0.463870 0.226183
O O7 0.695980 0.521629 0.519640
O O8 0.237594 0.360868 0.953898
O O9 0.599906 0.252880 0.443050
O O10 0.889343 0.841499 0.570742
O O11 0.500000 0.000000 0.000000
O O12 0.304417 0.006267 0.039602
O O13 0.356596 0.963627 0.584149
O O14 0.000000 0.000000 0.000000
O O15 0.500000 0.000000 0.500000
O O16 0.938077 0.155312 0.938655
O O17 0.818958 0.273277 0.046515
O O18 0.500000 0.500000 0.000000
#
# Coordination Sequence:
#
# PCOD9028640 Si02
#       8
#     2   2   2   2   2   2   2   2
#     4  11  24  39  66  93 126 162 209 271 310 373
#     4   9  23  40  65  87 129 166 203 266 316 374
#     4  10  22  43  62  94 124 161 214 264 317 373
#     4  11  22  40  61  93 128 161 207 262 313 366
#     4  11  23  39  62  94 126 170 209 258 320 383
#     4  10  23  39  60  90 129 166 207 256 318 382
#     4  10  23  39  64  88 122 175 203 253 316 385
#     4  10  22  42  64  89 125 168 213 252 318 381
#
# _framework density 21.644971000000002
#
# number of rings (size 3 to 8) (size 9 to 14) (size 15 to 20)
#    0.000    1.750    1.250    1.500   10.500    6.000 
#    0.000    5.000    0.000    0.000    0.000    0.000 
#    0.000    0.000    0.000    0.000    0.000    0.000 
#
# Total GULP energy -89234.411069 kJ/mol
# GULP energy per Si atom -5577.150692 kJ/mol
# Density = 2.159571 g / cm^3
# Si number density = 21.644971 Si / 1000 Ang^3
#
#
#
# Elastic Constant Matrix: (Units=GPa)
#
#
# Indices 1 2 3 4 5 6 
#
# 1 53.8331 6.2225 19.6363 2.2078 9.9567 25.0410
# 2 6.2225 60.7177 15.1457 -19.1531 0.1475 13.9833
# 3 19.6363 15.1457 105.6560 -9.4639 32.0404 2.9088
# 4 2.2078 -19.1531 -9.4639 37.5328 0.8469 -0.9900
# 5 9.9567 0.1475 32.0404 0.8469 29.7648 -3.7178
# 6 25.0410 13.9833 2.9088 -0.9900 -3.7178 35.4821
#
#
#
# Elastic Compliance Matrix: (Units=1/GPa)
#
#
# Indices 1 2 3 4 5 6 
#
# 1 0.033304 0.002601 -0.002480 -0.001670 -0.011633 -0.025591
# 2 0.002601 0.022459 -0.002553 0.010391 0.000202 -0.010166
# 3 -0.002480 -0.002553 0.015354 0.003069 -0.015782 -0.000071
# 4 -0.001670 0.010391 0.003069 0.032839 -0.004065 -0.002678
# 5 -0.011633 0.000202 -0.015782 -0.004065 0.056494 0.015230
# 6 -0.025591 -0.010166 -0.000071 -0.002678 0.015230 0.051777
#
#
# Mechanical properties :
#
#
# Convention : Reuss Voigt Hill
#
# Bulk Modulus (GPa) = 15.09390 33.57953 24.33671
# Shear Modulus (GPa) = 20.90521 32.50276 26.70398
#
# Velocity S-wave (km/s) = 3.11114 3.87929 3.51626
# Velocity P-wave (km/s) = 4.46028 5.96764 5.26815
#
# Compressibility (1/GPa) = 0.06625194
#
# Stress axis : x y z
#
# Youngs Moduli (GPa) = 30.02678 44.52644 65.12813
#
# Poissons Ratio (x) = -0.11579 0.16149
# Poissons Ratio (y) = -0.07809 0.16630
# Poissons Ratio (z) = 0.07445 0.11369
#
# Static dielectric constant tensor:
#      x y z
#    x 1.805160 -0.009150 -0.024050 
#    y -0.009150 1.705050 -0.118040 
#    z -0.024050 -0.118040 1.665780 
# 
# From -- ./inp_files/277255.got.cif
#   From: 2010.05.17/outbox.cif.g08.bks.cpg/sg2_139_cif.got.tgz:277255.got - 2010.06.03 11:33:40.
