data_PCOD9028014
_publ_section_title
;
Structure prediction by ZEFSAII (Michael W. Deem and Ramdas Pophale) SiO2 
 PCOD9028014
Probable space group: P -1
;
_chemical_formula_sum "Si O2"
_cell_formula_units_Z 16
_cell_length_a 8.777453
_cell_length_b 10.351862
_cell_length_c 14.292139
_cell_angle_alpha 122.111878
_cell_angle_beta 119.763043
_cell_angle_gamma 106.636347
_cell_volume 633.458328
_symmetry_space_group_name_H-M "P -1"
_symmetry_group_IT_number 2
_symmetry_cell_setting 'triclinic'
loop_
_space_group_symop_operation_xyz
x,y,z
-x,-y,-z
loop_
_atom_site_type_symbol
_atom_site_label
_atom_site_fract_x
_atom_site_fract_y
_atom_site_fract_z
Si Si1 0.483448 0.157073 0.595174
Si Si2 0.620873 0.254655 0.346436
Si Si3 0.442821 0.872946 0.030047
Si Si4 0.508460 0.642722 0.829022
Si Si5 0.105508 0.082419 0.196661
Si Si6 0.073811 0.138136 0.744595
Si Si7 0.448081 0.617477 0.140116
Si Si8 0.149843 0.458366 0.296959
O O1 0.617024 0.273361 0.780944
O O2 0.629846 0.354255 0.638175
O O3 0.500000 0.000000 0.500000
O O4 0.171405 0.984137 0.442825
O O5 0.650418 0.388289 0.317599
O O6 0.336726 0.118369 0.251479
O O7 0.823055 0.421355 0.555088
O O8 0.611834 0.077287 0.235741
O O9 0.476248 0.724258 0.944379
O O10 0.137511 0.700692 0.895351
O O11 0.500000 0.000000 0.000000
O O12 0.461359 0.442890 0.774167
O O13 0.819261 0.856764 0.978632
O O14 0.177857 0.302042 0.277601
O O15 0.047240 0.030840 0.269543
O O16 0.306409 0.206955 0.786358
O O17 0.208528 0.378725 0.921864
#
# Coordination Sequence:
#
# PCOD9028014 Si02
#       8
#     2   2   2   2   2   2   2   2
#     4  12  28  47  67 102 138 174 228 277 332 403
#     4  11  22  39  66  97 137 172 216 280 336 392
#     4  10  23  43  58  99 138 172 220 270 333 399
#     4  10  22  41  70  97 133 179 219 274 330 403
#     4  11  21  42  69 103 133 163 229 273 329 403
#     4  10  24  47  69 104 129 177 232 271 329 404
#     4  10  24  48  73  94 133 185 225 271 338 388
#     4  12  25  41  68 100 134 178 217 274 345 384
#
# _framework density 25.258172999999999
#
# number of rings (size 3 to 8) (size 9 to 14) (size 15 to 20)
#    0.000    1.250    3.750    1.875    7.000    2.500 
#    6.750    0.000    0.000    0.000    0.000    0.000 
#    0.000    0.000    0.000    0.000    0.000    0.000 
#
# Total GULP energy -89611.979823 kJ/mol
# GULP energy per Si atom -5600.748739 kJ/mol
# Density = 2.520068 g / cm^3
# Si number density = 25.258173 Si / 1000 Ang^3
#
#
#
# Elastic Constant Matrix: (Units=GPa)
#
#
# Indices 1 2 3 4 5 6 
#
# 1 88.0865 22.2733 30.0635 26.3111 -27.8268 16.5651
# 2 22.2733 103.8484 13.3914 13.7542 -8.3966 27.7954
# 3 30.0635 13.3914 101.3760 2.8038 -28.3111 10.8464
# 4 26.3111 13.7542 2.8038 31.3983 7.4772 -1.4874
# 5 -27.8268 -8.3966 -28.3111 7.4772 54.8892 1.1327
# 6 16.5651 27.7954 10.8464 -1.4874 1.1327 28.6482
#
#
#
# Elastic Compliance Matrix: (Units=1/GPa)
#
#
# Indices 1 2 3 4 5 6 
#
# 1 0.035579 0.008418 0.000037 -0.041114 0.025603 -0.031901
# 2 0.008418 0.017193 0.001161 -0.018289 0.010470 -0.023352
# 3 0.000037 0.001161 0.012519 -0.003695 0.007288 -0.006367
# 4 -0.041114 -0.018289 -0.003695 0.086076 -0.038281 0.048899
# 5 0.025603 0.010470 0.007288 -0.038281 0.042422 -0.031387
# 6 -0.031901 -0.023352 -0.006367 0.048899 -0.031387 0.082200
#
#
# Mechanical properties :
#
#
# Convention : Reuss Voigt Hill
#
# Bulk Modulus (GPa) = 11.83107 47.19636 29.51371
# Shear Modulus (GPa) = 17.54813 38.15932 27.85373
#
# Velocity S-wave (km/s) = 2.63867 3.89108 3.32439
# Velocity P-wave (km/s) = 3.73867 6.23807 5.14253
#
# Compressibility (1/GPa) = 0.08452321
#
# Stress axis : x y z
#
# Youngs Moduli (GPa) = 28.10637 58.16224 79.88075
#
# Poissons Ratio (x) = -0.48962 -0.00298
# Poissons Ratio (y) = -0.23661 -0.09270
# Poissons Ratio (z) = -0.00105 -0.06750
#
# Static dielectric constant tensor:
#      x y z
#    x 1.982560 -0.047870 -0.033280 
#    y -0.047870 2.022790 -0.039060 
#    z -0.033280 -0.039060 2.011600 
# 
# From -- ./inp_files/402947.got.cif
#   From: 2010.05.17/outbox.cif.g08.bks.cpg/sg2_202_cif.got.tgz:402947.got - 2010.06.03 11:33:40.
