data_PCOD9028178
_publ_section_title
;
Structure prediction by ZEFSAII (Michael W. Deem and Ramdas Pophale) SiO2 
 PCOD9028178
Probable space group: P -1
;
_chemical_formula_sum "Si O2"
_cell_formula_units_Z 12
_cell_length_a 10.137031
_cell_length_b 8.885131
_cell_length_c 9.628141
_cell_angle_alpha 133.490278
_cell_angle_beta 109.153147
_cell_angle_gamma 80.724673
_cell_volume 591.668203
_symmetry_space_group_name_H-M "P -1"
_symmetry_group_IT_number 2
_symmetry_cell_setting 'triclinic'
loop_
_space_group_symop_operation_xyz
x,y,z
-x,-y,-z
loop_
_atom_site_type_symbol
_atom_site_label
_atom_site_fract_x
_atom_site_fract_y
_atom_site_fract_z
Si Si1 0.358849 0.484951 0.350500
Si Si2 0.762020 0.060808 0.419814
Si Si3 0.044268 0.112555 0.422123
Si Si4 0.621080 0.614704 0.023685
Si Si5 0.078687 0.227882 0.199114
Si Si6 0.079661 0.489379 0.876298
O O1 0.500000 0.500000 0.500000
O O2 0.297528 0.713972 0.470278
O O3 0.399187 0.413377 0.165283
O O4 0.233884 0.316411 0.256495
O O5 0.879518 0.032968 0.321216
O O6 0.838818 0.036408 0.581728
O O7 0.651697 0.858241 0.231967
O O8 0.080911 0.233687 0.370537
O O9 0.049119 0.268967 0.651868
O O10 0.500000 0.500000 0.000000
O O11 0.757208 0.495051 0.028768
O O12 0.976859 0.360925 0.161182
O O13 0.000000 0.000000 0.000000
O O14 0.000000 0.500000 0.000000
#
# Coordination Sequence:
#
# PCOD9028178 Si02
#       6
#     2   2   2   2   2   2
#     4  12  28  46  68 101 147 185 229 290 356 420
#     4  10  23  44  73  96 140 180 231 284 354 410
#     4  10  22  41  72 101 131 175 235 290 346 403
#     4  11  26  44  70 103 137 186 232 284 356 421
#     4  12  26  40  69 108 135 179 241 289 342 412
#     4  11  22  44  71  97 138 179 234 291 340 415
#
# _framework density 20.281638000000001
#
# number of rings (size 3 to 8) (size 9 to 14) (size 15 to 20)
#    0.000    1.000    3.333    1.500   11.667    2.667 
#    0.000    0.000    0.000    0.000    0.000    0.000 
#    0.000    0.000    0.000    0.000    0.000    0.000 
#
# Total GULP energy -66913.128952 kJ/mol
# GULP energy per Si atom -5576.094079 kJ/mol
# Density = 2.023548 g / cm^3
# Si number density = 20.281638 Si / 1000 Ang^3
#
#
#
# Elastic Constant Matrix: (Units=GPa)
#
#
# Indices 1 2 3 4 5 6 
#
# 1 130.6434 67.0075 63.4985 3.1234 13.0268 30.3404
# 2 67.0075 134.5955 46.3851 -11.7741 1.3608 4.7309
# 3 63.4985 46.3851 109.8075 -8.3696 7.4312 17.5197
# 4 3.1234 -11.7741 -8.3696 47.8433 5.8243 -0.5494
# 5 13.0268 1.3608 7.4312 5.8243 36.5427 -5.3246
# 6 30.3404 4.7309 17.5197 -0.5494 -5.3246 51.8920
#
#
#
# Elastic Compliance Matrix: (Units=1/GPa)
#
#
# Indices 1 2 3 4 5 6 
#
# 1 0.015385 -0.005822 -0.005172 -0.002838 -0.004819 -0.007243
# 2 -0.005822 0.011021 -0.001749 0.002570 0.002082 0.003231
# 3 -0.005172 -0.001749 0.013343 0.002395 -0.001396 -0.001439
# 4 -0.002838 0.002570 0.002395 0.022520 -0.003082 0.000539
# 5 -0.004819 0.002082 -0.001396 -0.003082 0.030686 0.006215
# 6 -0.007243 0.003231 -0.001439 0.000539 0.006215 0.024340
#
#
# Mechanical properties :
#
#
# Convention : Reuss Voigt Hill
#
# Bulk Modulus (GPa) = 70.11252 80.98094 75.54673
# Shear Modulus (GPa) = 33.89015 40.46595 37.17805
#
# Velocity S-wave (km/s) = 4.09219 4.47161 4.28610
# Velocity P-wave (km/s) = 7.54802 8.16550 7.86282
#
# Compressibility (1/GPa) = 0.01426279
#
# Stress axis : x y z
#
# Youngs Moduli (GPa) = 65.00020 90.73501 74.94411
#
# Poissons Ratio (x) = 0.52824 0.38760
# Poissons Ratio (y) = 0.37841 0.13111
# Poissons Ratio (z) = 0.33617 0.15874
#
# Static dielectric constant tensor:
#      x y z
#    x 1.743900 -0.001560 0.032840 
#    y -0.001560 2.010620 0.007590 
#    z 0.032840 0.007590 1.777370 
# 
# From -- ./inp_files/156409.got.cif
#   From: 2010.05.17/outbox.cif.g08.bks.cpg/sg2_79_cif.got.tgz:156409.got - 2010.06.03 11:33:40.
