data_PCOD9028971
_publ_section_title
;
Structure prediction by ZEFSAII (Michael W. Deem and Ramdas Pophale) SiO2 
 PCOD9028971
Probable space group: P -1
;
_chemical_formula_sum "Si O2"
_cell_formula_units_Z 16
_cell_length_a 18.251110
_cell_length_b 5.033627
_cell_length_c 8.600732
_cell_angle_alpha 87.668432
_cell_angle_beta 127.999751
_cell_angle_gamma 100.744880
_cell_volume 608.918276
_symmetry_space_group_name_H-M "P -1"
_symmetry_group_IT_number 2
_symmetry_cell_setting 'triclinic'
loop_
_space_group_symop_operation_xyz
x,y,z
-x,-y,-z
loop_
_atom_site_type_symbol
_atom_site_label
_atom_site_fract_x
_atom_site_fract_y
_atom_site_fract_z
Si Si1 0.950890 0.915590 0.600906
Si Si2 0.774991 0.593380 0.193327
Si Si3 0.854143 0.996355 0.001117
Si Si4 0.415290 0.649759 0.426597
Si Si5 0.199227 0.777063 0.549044
Si Si6 0.786740 0.497910 0.746748
Si Si7 0.518917 0.100647 0.786903
Si Si8 0.379566 0.218672 0.827153
O O1 0.903416 0.150006 0.603554
O O2 0.038224 0.862696 0.816421
O O3 0.859061 0.703771 0.426152
O O4 0.000000 0.000000 0.500000
O O5 0.802188 0.782952 0.074092
O O6 0.786721 0.284445 0.244758
O O7 0.672831 0.593142 0.139003
O O8 0.856089 0.779561 0.871062
O O9 0.804431 0.239686 0.876773
O O10 0.500000 0.500000 0.500000
O O11 0.318681 0.460223 0.355374
O O12 0.401445 0.769567 0.235660
O O13 0.447382 0.884386 0.590590
O O14 0.210698 0.586937 0.424618
O O15 0.289318 0.023930 0.635982
O O16 0.459133 0.296574 0.793983
O O17 0.567208 0.942845 0.979954
#
# Coordination Sequence:
#
# PCOD9028971 Si02
#       8
#     2   2   2   2   2   2   2   2
#     4   9  23  46  71 103 141 185 239 290 358 419
#     4  10  24  42  74  98 143 186 238 295 355 424
#     4  11  28  47  76 104 145 190 242 287 357 436
#     4  11  26  41  67  96 141 187 232 293 357 419
#     4  11  25  42  72 104 144 185 235 302 355 419
#     4  12  29  47  72 108 149 187 237 297 361 420
#     4  10  23  42  66  92 135 185 241 288 353 424
#     4  10  22  42  65  97 135 183 242 291 354 416
#
# _framework density 26.276104
#
# number of rings (size 3 to 8) (size 9 to 14) (size 15 to 20)
#    0.000    1.500    1.250    0.750   19.250    2.000 
#    0.000    2.500    0.000    0.000    0.000    0.000 
#    0.000    0.000    0.000    0.000    0.000    0.000 
#
# Total GULP energy -89377.262910 kJ/mol
# GULP energy per Si atom -5586.078932 kJ/mol
# Density = 2.621630 g / cm^3
# Si number density = 26.276104 Si / 1000 Ang^3
#
#
#
# Elastic Constant Matrix: (Units=GPa)
#
#
# Indices 1 2 3 4 5 6 
#
# 1 140.2203 7.8567 46.0970 -15.6327 4.2223 1.3567
# 2 7.8567 50.5082 21.0033 -9.2697 -12.8529 -5.5754
# 3 46.0970 21.0033 103.1216 -9.4113 0.0934 1.4871
# 4 -15.6327 -9.2697 -9.4113 51.8168 -5.7019 -6.8200
# 5 4.2223 -12.8529 0.0934 -5.7019 23.3277 -2.7705
# 6 1.3567 -5.5754 1.4871 -6.8200 -2.7705 29.8152
#
#
#
# Elastic Compliance Matrix: (Units=1/GPa)
#
#
# Indices 1 2 3 4 5 6 
#
# 1 0.008576 0.000388 -0.003740 0.001917 -0.000828 0.000230
# 2 0.000388 0.029367 -0.005605 0.007678 0.019112 0.009286
# 3 -0.003740 -0.005605 0.012503 -0.000410 -0.002782 -0.001854
# 4 0.001917 0.007678 -0.000410 0.023343 0.010503 0.007685
# 5 -0.000828 0.019112 -0.002782 0.010503 0.057491 0.011495
# 6 0.000230 0.009286 -0.001854 0.007685 0.011495 0.038184
#
#
# Mechanical properties :
#
#
# Convention : Reuss Voigt Hill
#
# Bulk Modulus (GPa) = 30.74062 49.30711 40.02386
# Shear Modulus (GPa) = 25.22423 35.58483 30.40453
#
# Velocity S-wave (km/s) = 3.10170 3.68403 3.40533
# Velocity P-wave (km/s) = 4.95498 6.07469 5.54318
#
# Compressibility (1/GPa) = 0.03253025
#
# Stress axis : x y z
#
# Youngs Moduli (GPa) = 116.60654 34.05207 79.98307
#
# Poissons Ratio (x) = -0.01321 0.29915
# Poissons Ratio (y) = -0.04522 0.44832
# Poissons Ratio (z) = 0.43613 0.19087
#
# Static dielectric constant tensor:
#      x y z
#    x 2.034350 0.131080 -0.034970 
#    y 0.131080 2.473250 -0.055610 
#    z -0.034970 -0.055610 2.069790 
# 
# From -- ./inp_files/38769.got.cif
#   From: 2010.05.17/outbox.cif.g08.bks.cpg/sg2_20_cif.got.tgz:38769.got - 2010.06.03 11:33:40.
