data_PCOD9028700
_publ_section_title
;
Structure prediction by ZEFSAII (Michael W. Deem and Ramdas Pophale) SiO2 
 PCOD9028700
Probable space group: P -1
;
_chemical_formula_sum "Si O2"
_cell_formula_units_Z 16
_cell_length_a 10.709530
_cell_length_b 13.838559
_cell_length_c 6.837222
_cell_angle_alpha 112.990326
_cell_angle_beta 127.294480
_cell_angle_gamma 88.801207
_cell_volume 709.159949
_symmetry_space_group_name_H-M "P -1"
_symmetry_group_IT_number 2
_symmetry_cell_setting 'triclinic'
loop_
_space_group_symop_operation_xyz
x,y,z
-x,-y,-z
loop_
_atom_site_type_symbol
_atom_site_label
_atom_site_fract_x
_atom_site_fract_y
_atom_site_fract_z
Si Si1 0.517444 0.078359 0.779359
Si Si2 0.046417 0.053776 0.875461
Si Si3 0.781845 0.055789 0.342685
Si Si4 0.115502 0.405957 0.073174
Si Si5 0.669175 0.736178 0.697648
Si Si6 0.576658 0.409016 0.413304
Si Si7 0.534357 0.326729 0.886253
Si Si8 0.112480 0.536975 0.821992
O O1 0.536814 0.201446 0.818551
O O2 0.500000 0.000000 0.500000
O O3 0.353972 0.033366 0.724702
O O4 0.664400 0.088698 0.090116
O O5 0.910882 0.104876 0.686933
O O6 0.083237 0.966552 0.693970
O O7 0.227330 0.140294 0.131031
O O8 0.000000 0.000000 0.000000
O O9 0.212583 0.319229 0.122238
O O10 0.232245 0.526951 0.348080
O O11 0.959935 0.385028 0.047939
O O12 0.093276 0.427762 0.844351
O O13 0.496458 0.703069 0.622689
O O14 0.620575 0.678146 0.398937
O O15 0.500000 0.500000 0.500000
O O16 0.519242 0.379947 0.118897
O O17 0.701549 0.401173 0.007194
O O18 0.000000 0.500000 0.500000
#
# Coordination Sequence:
#
# PCOD9028700 Si02
#       8
#     2   2   2   2   2   2   2   2
#     4  11  24  44  68 104 137 177 228 278 341 410
#     4  11  23  43  68  98 136 176 230 282 337 403
#     4  10  23  43  68  94 140 177 218 287 339 392
#     4  10  23  42  61  92 131 168 213 273 335 390
#     4  11  24  41  66  96 128 177 222 275 334 404
#     4  10  22  42  64  94 129 171 223 279 326 394
#     4  12  24  40  71  98 130 179 228 270 345 403
#     4  11  23  41  63  93 132 173 214 279 332 404
#
# _framework density 22.561906
#
# number of rings (size 3 to 8) (size 9 to 14) (size 15 to 20)
#    0.000    1.250    2.500    3.000    0.000    9.000 
#    0.000    0.000    0.000    0.000    0.000    0.000 
#    0.000    0.000    0.000    0.000    0.000    0.000 
#
# Total GULP energy -89093.309512 kJ/mol
# GULP energy per Si atom -5568.331844 kJ/mol
# Density = 2.251055 g / cm^3
# Si number density = 22.561906 Si / 1000 Ang^3
#
#
#
# Elastic Constant Matrix: (Units=GPa)
#
#
# Indices 1 2 3 4 5 6 
#
# 1 68.7150 21.0131 9.4317 -11.5209 -17.8971 15.5992
# 2 21.0131 68.0017 20.6789 -13.0322 -12.3914 13.5752
# 3 9.4317 20.6789 133.7636 -33.0911 -11.1153 6.2244
# 4 -11.5209 -13.0322 -33.0911 29.5122 5.7163 2.4893
# 5 -17.8971 -12.3914 -11.1153 5.7163 40.6085 -6.3138
# 6 15.5992 13.5752 6.2244 2.4893 -6.3138 32.2434
#
#
#
# Elastic Compliance Matrix: (Units=1/GPa)
#
#
# Indices 1 2 3 4 5 6 
#
# 1 0.019936 -0.002319 0.001955 0.008487 0.006096 -0.008507
# 2 -0.002319 0.018685 -0.000510 0.006845 0.002538 -0.006678
# 3 0.001955 -0.000510 0.010844 0.012738 0.001329 -0.003548
# 4 0.008487 0.006845 0.012738 0.055811 -0.000700 -0.013893
# 5 0.006096 0.002538 0.001329 -0.000700 0.028769 0.001413
# 6 -0.008507 -0.006678 -0.003548 -0.013893 0.001413 0.039976
#
#
# Mechanical properties :
#
#
# Convention : Reuss Voigt Hill
#
# Bulk Modulus (GPa) = 20.95741 41.41419 31.18580
# Shear Modulus (GPa) = 26.08612 35.09660 30.59136
#
# Velocity S-wave (km/s) = 3.40399 3.94835 3.68623
# Velocity P-wave (km/s) = 4.97579 6.25952 5.65421
#
# Compressibility (1/GPa) = 0.04771582
#
# Stress axis : x y z
#
# Youngs Moduli (GPa) = 50.16118 53.51989 92.21950
#
# Poissons Ratio (x) = 0.12412 -0.18028
# Poissons Ratio (y) = 0.11633 0.04702
# Poissons Ratio (z) = -0.09806 0.02729
#
# Static dielectric constant tensor:
#      x y z
#    x 1.733340 0.054940 0.069390 
#    y 0.054940 1.882180 -0.044030 
#    z 0.069390 -0.044030 1.891530 
# 
# From -- ./inp_files/78245.got.cif
#   From: 2010.05.17/outbox.cif.g08.bks.cpg/sg2_40_cif.got.tgz:78245.got - 2010.06.03 11:33:40.
