data_PCOD9028449
_publ_section_title
;
Structure prediction by ZEFSAII (Michael W. Deem and Ramdas Pophale) SiO2 
 PCOD9028449
Probable space group: P -1
;
_chemical_formula_sum "Si O2"
_cell_formula_units_Z 16
_cell_length_a 25.142587
_cell_length_b 7.928514
_cell_length_c 6.784555
_cell_angle_alpha 93.981174
_cell_angle_beta 121.168035
_cell_angle_gamma 47.588125
_cell_volume 766.142077
_symmetry_space_group_name_H-M "P -1"
_symmetry_group_IT_number 2
_symmetry_cell_setting 'triclinic'
loop_
_space_group_symop_operation_xyz
x,y,z
-x,-y,-z
loop_
_atom_site_type_symbol
_atom_site_label
_atom_site_fract_x
_atom_site_fract_y
_atom_site_fract_z
Si Si1 0.429162 0.939659 0.971202
Si Si2 0.060057 0.077241 0.911403
Si Si3 0.704687 0.945854 0.580754
Si Si4 0.399783 0.707900 0.217170
Si Si5 0.624053 0.577204 0.113160
Si Si6 0.096570 0.630481 0.086445
Si Si7 0.048374 0.235517 0.487258
Si Si8 0.204788 0.938340 0.452328
O O1 0.377125 0.997877 0.671302
O O2 0.395079 0.196248 0.988164
O O3 0.405538 0.844749 0.077056
O O4 0.539570 0.717805 0.116976
O O5 0.067730 0.071550 0.692752
O O6 0.092485 0.837384 0.053659
O O7 0.129674 0.070531 0.142967
O O8 0.952412 0.316624 0.794808
O O9 0.799661 0.647521 0.759912
O O10 0.673748 0.091649 0.738430
O O11 0.729516 0.041669 0.480338
O O12 0.500000 0.500000 0.500000
O O13 0.379765 0.567709 0.064651
O O14 0.724400 0.359919 0.395026
O O15 0.024739 0.697191 0.797880
O O16 0.000000 0.500000 0.500000
O O17 0.142526 0.087746 0.539079
#
# Coordination Sequence:
#
# PCOD9028449 Si02
#       8
#     2   2   2   2   2   2   2   2
#     4  11  25  47  67  98 134 173 219 272 326 390
#     4  10  22  42  62  91 130 166 215 270 323 381
#     4  12  24  42  68  96 132 172 220 270 326 393
#     4  12  25  44  68  99 132 175 219 269 331 391
#     4  11  24  46  69  96 136 172 217 275 326 388
#     4  10  23  40  63  92 127 169 212 271 323 382
#     4  11  23  39  62  93 124 167 216 261 322 386
#     4  11  24  40  65  93 128 170 214 267 322 385
#
# _framework density 20.883852999999998
#
# number of rings (size 3 to 8) (size 9 to 14) (size 15 to 20)
#    0.000    1.000    2.500    3.750    3.500    4.500 
#    2.250    0.000    0.000    0.000    0.000    0.000 
#    0.000    0.000    0.000    0.000    0.000    0.000 
#
# Total GULP energy -89463.287940 kJ/mol
# GULP energy per Si atom -5591.455496 kJ/mol
# Density = 2.083632 g / cm^3
# Si number density = 20.883853 Si / 1000 Ang^3
#
#
#
# Elastic Constant Matrix: (Units=GPa)
#
#
# Indices 1 2 3 4 5 6 
#
# 1 80.0674 39.0314 21.3938 8.9076 -9.6305 -0.6038
# 2 39.0314 125.1151 25.4691 -9.9317 -4.0800 -15.3706
# 3 21.3938 25.4691 51.0516 0.3825 -15.1606 -2.8113
# 4 8.9076 -9.9317 0.3825 33.6825 -2.8142 8.5723
# 5 -9.6305 -4.0800 -15.1606 -2.8142 27.9874 5.2037
# 6 -0.6038 -15.3706 -2.8113 8.5723 5.2037 34.4404
#
#
#
# Elastic Compliance Matrix: (Units=1/GPa)
#
#
# Indices 1 2 3 4 5 6 
#
# 1 0.016838 -0.004975 -0.003799 -0.005312 0.002723 -0.001325
# 2 -0.004975 0.011045 -0.004029 0.003352 -0.002708 0.004088
# 3 -0.003799 -0.004029 0.026995 0.001104 0.013198 -0.001930
# 4 -0.005312 0.003352 0.001104 0.034373 0.004145 -0.007689
# 5 0.002723 -0.002708 0.013198 0.004145 0.045319 -0.007962
# 6 -0.001325 0.004088 -0.001930 -0.007689 -0.007962 0.033796
#
#
# Mechanical properties :
#
#
# Convention : Reuss Voigt Hill
#
# Bulk Modulus (GPa) = 34.16255 47.55808 40.86031
# Shear Modulus (GPa) = 24.54223 30.57804 27.56013
#
# Velocity S-wave (km/s) = 3.43180 3.83063 3.63669
# Velocity P-wave (km/s) = 5.66541 6.51054 6.10262
#
# Compressibility (1/GPa) = 0.02927182
#
# Stress axis : x y z
#
# Youngs Moduli (GPa) = 59.38802 90.53902 37.04394
#
# Poissons Ratio (x) = 0.45046 0.14072
# Poissons Ratio (y) = 0.29547 0.14926
# Poissons Ratio (z) = 0.22559 0.36481
#
# Static dielectric constant tensor:
#      x y z
#    x 1.747100 0.032960 0.020490 
#    y 0.032960 1.778680 0.035370 
#    z 0.020490 0.035370 1.775830 
# 
# From -- ./inp_files/126480.got.cif
#   From: 2010.05.17/outbox.cif.g08.bks.cpg/sg2_64_cif.got.tgz:126480.got - 2010.06.03 11:33:40.
