data_PCOD9028345
_publ_section_title
;
Structure prediction by ZEFSAII (Michael W. Deem and Ramdas Pophale) SiO2 
 PCOD9028345
Probable space group: P -1
;
_chemical_formula_sum "Si O2"
_cell_formula_units_Z 16
_cell_length_a 7.861910
_cell_length_b 18.499482
_cell_length_c 8.490950
_cell_angle_alpha 118.572636
_cell_angle_beta 76.889905
_cell_angle_gamma 138.687672
_cell_volume 697.044298
_symmetry_space_group_name_H-M "P -1"
_symmetry_group_IT_number 2
_symmetry_cell_setting 'triclinic'
loop_
_space_group_symop_operation_xyz
x,y,z
-x,-y,-z
loop_
_atom_site_type_symbol
_atom_site_label
_atom_site_fract_x
_atom_site_fract_y
_atom_site_fract_z
Si Si1 0.936054 0.624179 0.997183
Si Si2 0.128092 0.110353 0.468269
Si Si3 0.524898 0.350473 0.815692
Si Si4 0.069060 0.117425 0.155603
Si Si5 0.044631 0.637487 0.350133
Si Si6 0.801916 0.138144 0.970999
Si Si7 0.369414 0.639018 0.831338
Si Si8 0.453358 0.874462 0.707491
O O1 0.989166 0.730696 0.022134
O O2 0.161277 0.640170 0.902251
O O3 0.655505 0.482197 0.873616
O O4 0.966370 0.639777 0.195383
O O5 0.255760 0.228561 0.664076
O O6 0.974020 0.090574 0.328894
O O7 0.355857 0.134833 0.367072
O O8 0.000000 0.000000 0.500000
O O9 0.736036 0.355364 0.722435
O O10 0.523889 0.342995 0.996566
O O11 0.380574 0.249453 0.210445
O O12 0.932004 0.127620 0.067192
O O13 0.000000 0.000000 0.000000
O O14 0.185293 0.756905 0.548767
O O15 0.798359 0.500324 0.333359
O O16 0.615008 0.132935 0.104569
O O17 0.622577 0.015488 0.772233
#
# Coordination Sequence:
#
# PCOD9028345 Si02
#       8
#     2   2   2   2   2   2   2   2
#     4   9  18  37  64  91 119 157 199 248 301 352
#     4  11  22  41  65  90 116 156 207 251 294 358
#     4   8  17  35  62  93 120 152 202 249 292 354
#     4  12  24  40  59  86 121 162 203 247 304 355
#     4   8  17  37  63  93 117 154 204 247 288 353
#     4  11  24  40  58  88 127 163 197 242 308 358
#     4   9  18  37  67  90 118 156 200 247 296 354
#     4  10  22  42  59  87 124 155 204 244 295 357
#
# _framework density 22.954065
#
# number of rings (size 3 to 8) (size 9 to 14) (size 15 to 20)
#    0.000    2.250    1.250    3.000    1.750    1.500 
#    2.250    8.750    0.000    0.000    0.000    0.000 
#    0.000    0.000    0.000    0.000    0.000    0.000 
#
# Total GULP energy -89401.430520 kJ/mol
# GULP energy per Si atom -5587.589407 kJ/mol
# Density = 2.290182 g / cm^3
# Si number density = 22.954065 Si / 1000 Ang^3
#
#
#
# Elastic Constant Matrix: (Units=GPa)
#
#
# Indices 1 2 3 4 5 6 
#
# 1 71.3947 37.7380 25.7057 6.6343 -3.6090 -12.1609
# 2 37.7380 192.9426 73.7644 32.7413 15.2273 -32.2625
# 3 25.7057 73.7644 136.0054 46.0783 12.5068 -17.9375
# 4 6.6343 32.7413 46.0783 35.0599 6.1518 -7.5630
# 5 -3.6090 15.2273 12.5068 6.1518 29.3771 -2.5818
# 6 -12.1609 -32.2625 -17.9375 -7.5630 -2.5818 33.4172
#
#
#
# Elastic Compliance Matrix: (Units=1/GPa)
#
#
# Indices 1 2 3 4 5 6 
#
# 1 0.016809 -0.002514 -0.002672 0.002621 0.004236 0.003176
# 2 -0.002514 0.007925 -0.002001 -0.002806 -0.002553 0.004830
# 3 -0.002672 -0.002001 0.014917 -0.016615 -0.002059 0.001184
# 4 0.002621 -0.002806 -0.016615 0.053119 -0.002170 0.001181
# 5 0.004236 -0.002553 -0.002059 -0.002170 0.037246 0.000358
# 6 0.003176 0.004830 0.001184 0.001181 0.000358 0.036674
#
#
# Mechanical properties :
#
#
# Convention : Reuss Voigt Hill
#
# Bulk Modulus (GPa) = 39.56041 74.97321 57.26681
# Shear Modulus (GPa) = 26.38672 37.11315 31.74994
#
# Velocity S-wave (km/s) = 3.39417 4.02536 3.72317
# Velocity P-wave (km/s) = 5.71249 7.37143 6.59433
#
# Compressibility (1/GPa) = 0.02527780
#
# Stress axis : x y z
#
# Youngs Moduli (GPa) = 59.49114 126.18805 67.03657
#
# Poissons Ratio (x) = 0.31726 0.17912
# Poissons Ratio (y) = 0.14957 0.13411
# Poissons Ratio (z) = 0.15896 0.25244
#
# Static dielectric constant tensor:
#      x y z
#    x 1.932690 0.030010 0.010500 
#    y 0.030010 1.869690 0.006150 
#    z 0.010500 0.006150 1.853950 
# 
# From -- ./inp_files/218270.got.cif
#   From: 2010.05.17/outbox.cif.g08.bks.cpg/sg2_110_cif.got.tgz:218270.got - 2010.06.03 11:33:40.
