data_PCOD9028127
_publ_section_title
;
Structure prediction by ZEFSAII (Michael W. Deem and Ramdas Pophale) SiO2 
 PCOD9028127
Probable space group: P -1
;
_chemical_formula_sum "Si O2"
_cell_formula_units_Z 16
_cell_length_a 6.508563
_cell_length_b 14.730630
_cell_length_c 11.417813
_cell_angle_alpha 51.437123
_cell_angle_beta 106.439740
_cell_angle_gamma 78.786910
_cell_volume 713.552574
_symmetry_space_group_name_H-M "P -1"
_symmetry_group_IT_number 2
_symmetry_cell_setting 'triclinic'
loop_
_space_group_symop_operation_xyz
x,y,z
-x,-y,-z
loop_
_atom_site_type_symbol
_atom_site_label
_atom_site_fract_x
_atom_site_fract_y
_atom_site_fract_z
Si Si1 0.498072 0.339098 0.133587
Si Si2 0.672382 0.142800 0.890748
Si Si3 0.977429 0.534056 0.178486
Si Si4 0.695880 0.848828 0.668645
Si Si5 0.991107 0.145795 0.744698
Si Si6 0.953074 0.283391 0.388760
Si Si7 0.126622 0.349451 0.688766
Si Si8 0.827040 0.284674 0.999477
O O1 0.466461 0.221047 0.277671
O O2 0.670442 0.362436 0.232788
O O3 0.646563 0.304922 0.062527
O O4 0.211358 0.442191 0.976841
O O5 0.384921 0.245663 0.757576
O O6 0.784519 0.124777 0.793259
O O7 0.772788 0.214717 0.938844
O O8 0.762580 0.994834 0.075728
O O9 0.042557 0.388978 0.352307
O O10 0.838693 0.636509 0.179275
O O11 0.182050 0.574039 0.143856
O O12 0.869132 0.796170 0.625272
O O13 0.892033 0.810345 0.836224
O O14 0.500000 0.000000 0.500000
O O15 0.969344 0.276590 0.699557
O O16 0.968972 0.186066 0.573514
O O17 0.000000 0.500000 0.500000
#
# Coordination Sequence:
#
# PCOD9028127 Si02
#       8
#     2   2   2   2   2   2   2   2
#     4  10  23  42  67  97 133 182 218 279 350 401
#     4  11  25  46  71 100 139 187 232 284 355 422
#     4  11  22  43  67 101 139 176 229 286 347 405
#     4  10  25  42  65 100 137 180 227 282 339 410
#     4  11  26  45  69 106 138 184 232 289 348 415
#     4  11  25  43  67 104 137 176 233 285 340 421
#     4  12  24  46  68 100 140 183 236 288 347 409
#     4  10  22  41  71  94 133 181 225 277 340 418
#
# _framework density 22.423013999999998
#
# number of rings (size 3 to 8) (size 9 to 14) (size 15 to 20)
#    0.000    1.250    3.750    0.750    3.500    8.000 
#    4.500    0.000    0.000    0.000    0.000    0.000 
#    0.000    0.000    0.000    0.000    0.000    0.000 
#
# Total GULP energy -89335.708609 kJ/mol
# GULP energy per Si atom -5583.481788 kJ/mol
# Density = 2.237198 g / cm^3
# Si number density = 22.423014 Si / 1000 Ang^3
#
#
#
# Elastic Constant Matrix: (Units=GPa)
#
#
# Indices 1 2 3 4 5 6 
#
# 1 66.5615 25.3244 30.1940 9.3603 -21.9180 -11.6398
# 2 25.3244 44.4223 32.8896 -4.2222 -10.2229 -3.4859
# 3 30.1940 32.8896 95.8301 -2.0726 -36.8916 -2.4004
# 4 9.3603 -4.2222 -2.0726 25.7419 -3.5329 0.3536
# 5 -21.9180 -10.2229 -36.8916 -3.5329 33.5608 -5.4562
# 6 -11.6398 -3.4859 -2.4004 0.3536 -5.4562 39.2206
#
#
#
# Elastic Compliance Matrix: (Units=1/GPa)
#
#
# Indices 1 2 3 4 5 6 
#
# 1 0.028101 -0.014268 0.002897 -0.010027 0.017729 0.009806
# 2 -0.014268 0.038143 -0.012914 0.008872 -0.011500 -0.003315
# 3 0.002897 -0.012914 0.023761 0.002117 0.025054 0.004632
# 4 -0.010027 0.008872 0.002117 0.044536 0.002833 -0.002065
# 5 0.017729 -0.011500 0.025054 0.002833 0.068187 0.015233
# 6 0.009806 -0.003315 0.004632 -0.002065 0.015233 0.030534
#
#
# Mechanical properties :
#
#
# Convention : Reuss Voigt Hill
#
# Bulk Modulus (GPa) = 24.13400 42.62556 33.37978
# Shear Modulus (GPa) = 16.91228 27.59839 22.25534
#
# Velocity S-wave (km/s) = 2.74932 3.51209 3.15385
# Velocity P-wave (km/s) = 4.56779 5.95797 5.30858
#
# Compressibility (1/GPa) = 0.04143532
#
# Stress axis : x y z
#
# Youngs Moduli (GPa) = 35.58598 26.21720 42.08562
#
# Poissons Ratio (x) = 0.37407 -0.12192
# Poissons Ratio (y) = 0.50775 0.54347
# Poissons Ratio (z) = -0.10309 0.33856
#
# Static dielectric constant tensor:
#      x y z
#    x 1.868290 0.023520 -0.025330 
#    y 0.023520 1.830900 0.033980 
#    z -0.025330 0.033980 1.881770 
# 
# From -- ./inp_files/367525.got.cif
#   From: 2010.05.17/outbox.cif.g08.bks.cpg/sg2_184_cif.got.tgz:367525.got - 2010.06.03 11:33:40.
