data_PCOD9028472
_publ_section_title
;
Structure prediction by ZEFSAII (Michael W. Deem and Ramdas Pophale) SiO2 
 PCOD9028472
Probable space group: P -1
;
_chemical_formula_sum "Si O2"
_cell_formula_units_Z 12
_cell_length_a 17.643793
_cell_length_b 13.988876
_cell_length_c 5.253603
_cell_angle_alpha 122.270611
_cell_angle_beta 116.415182
_cell_angle_gamma 30.706785
_cell_volume 559.562167
_symmetry_space_group_name_H-M "P -1"
_symmetry_group_IT_number 2
_symmetry_cell_setting 'triclinic'
loop_
_space_group_symop_operation_xyz
x,y,z
-x,-y,-z
loop_
_atom_site_type_symbol
_atom_site_label
_atom_site_fract_x
_atom_site_fract_y
_atom_site_fract_z
Si Si1 0.627026 0.767580 0.865426
Si Si2 0.664428 0.240022 0.145942
Si Si3 0.993905 0.931628 0.142735
Si Si4 0.504869 0.649425 0.453288
Si Si5 0.112482 0.581061 0.921433
Si Si6 0.063840 0.539699 0.288787
O O1 0.568167 0.706244 0.639032
O O2 0.757501 0.661137 0.716998
O O3 0.727227 0.648237 0.101716
O O4 0.500000 0.000000 0.000000
O O5 0.626955 0.415925 0.340605
O O6 0.609775 0.246924 0.339081
O O7 0.573049 0.287506 0.843456
O O8 0.838125 0.036748 0.068415
O O9 0.123360 0.696394 0.003533
O O10 0.000000 0.000000 0.500000
O O11 0.000000 0.000000 0.000000
O O12 0.020401 0.614625 0.617611
O O13 0.037405 0.664174 0.209116
O O14 0.000000 0.500000 0.000000
#
# Coordination Sequence:
#
# PCOD9028472 Si02
#       6
#     2   2   2   2   2   2
#     4  10  25  42  69  97 131 179 222 278 335 397
#     4  10  23  40  65  92 130 170 218 274 326 391
#     4  12  24  40  68  98 132 174 222 272 341 403
#     4  10  22  42  62  94 129 169 219 273 326 390
#     4  10  24  41  65  95 130 174 217 274 336 387
#     4  10  23  44  66  94 132 175 221 275 334 395
#
# _framework density 21.445336999999999
#
# number of rings (size 3 to 8) (size 9 to 14) (size 15 to 20)
#    1.000    0.667    0.000    3.500    4.667    4.667 
#    0.000    0.000    0.000    0.000    0.000    0.000 
#    0.000    0.000    0.000    0.000    0.000    0.000 
#
# Total GULP energy -66926.350798 kJ/mol
# GULP energy per Si atom -5577.195900 kJ/mol
# Density = 2.139653 g / cm^3
# Si number density = 21.445337 Si / 1000 Ang^3
#
#
#
# Elastic Constant Matrix: (Units=GPa)
#
#
# Indices 1 2 3 4 5 6 
#
# 1 71.8627 31.1042 27.4559 6.9038 14.8837 7.0450
# 2 31.1042 84.2019 27.1552 -3.0933 -2.7797 17.5242
# 3 27.4559 27.1552 133.7689 -16.6292 3.0340 19.4633
# 4 6.9038 -3.0933 -16.6292 17.7181 5.2760 -4.7078
# 5 14.8837 -2.7797 3.0340 5.2760 43.2436 2.0376
# 6 7.0450 17.5242 19.4633 -4.7078 2.0376 31.5807
#
#
#
# Elastic Compliance Matrix: (Units=1/GPa)
#
#
# Indices 1 2 3 4 5 6 
#
# 1 0.020865 -0.007083 -0.004205 -0.011386 -0.005979 0.000556
# 2 -0.007083 0.016365 -0.000676 0.002041 0.003619 -0.007013
# 3 -0.004205 -0.000676 0.010277 0.010375 -0.000421 -0.003446
# 4 -0.011386 0.002041 0.010375 0.074510 -0.006076 0.006512
# 5 -0.005979 0.003619 -0.000421 -0.006076 0.026328 -0.003019
# 6 0.000556 -0.007013 -0.003446 0.006512 -0.003019 0.038722
#
#
# Mechanical properties :
#
#
# Convention : Reuss Voigt Hill
#
# Bulk Modulus (GPa) = 42.41244 51.25157 46.83200
# Shear Modulus (GPa) = 22.84617 32.11636 27.48127
#
# Velocity S-wave (km/s) = 3.26747 3.87407 3.58363
# Velocity P-wave (km/s) = 5.83567 6.63037 6.24567
#
# Compressibility (1/GPa) = 0.02357799
#
# Stress axis : x y z
#
# Youngs Moduli (GPa) = 47.92632 61.10715 97.30658
#
# Poissons Ratio (x) = 0.43281 0.40922
# Poissons Ratio (y) = 0.33945 0.06580
# Poissons Ratio (z) = 0.20155 0.04132
#
# Static dielectric constant tensor:
#      x y z
#    x 1.754890 0.018190 0.043670 
#    y 0.018190 1.780630 -0.003090 
#    z 0.043670 -0.003090 1.742790 
# 
# From -- ./inp_files/95389.got.cif
#   From: 2010.05.17/outbox.cif.g08.bks.cpg/sg2_48_cif.got.tgz:95389.got - 2010.06.03 11:33:40.
