data_PCOD9028084
_publ_section_title
;
Structure prediction by ZEFSAII (Michael W. Deem and Ramdas Pophale) SiO2 
 PCOD9028084
Probable space group: P -1
;
_chemical_formula_sum "Si O2"
_cell_formula_units_Z 16
_cell_length_a 4.980132
_cell_length_b 9.841568
_cell_length_c 19.958442
_cell_angle_alpha 136.342357
_cell_angle_beta 116.201713
_cell_angle_gamma 68.732902
_cell_volume 604.433075
_symmetry_space_group_name_H-M "P -1"
_symmetry_group_IT_number 2
_symmetry_cell_setting 'triclinic'
loop_
_space_group_symop_operation_xyz
x,y,z
-x,-y,-z
loop_
_atom_site_type_symbol
_atom_site_label
_atom_site_fract_x
_atom_site_fract_y
_atom_site_fract_z
Si Si1 0.413986 0.644712 0.818097
Si Si2 0.656850 0.219889 0.542245
Si Si3 0.791802 0.848000 0.821969
Si Si4 0.288796 0.203647 0.669639
Si Si5 0.988850 0.664991 0.501844
Si Si6 0.268541 0.731700 0.982640
Si Si7 0.862495 0.623611 0.089856
Si Si8 0.764422 0.992554 0.270045
O O1 0.659031 0.729424 0.827085
O O2 0.427400 0.409611 0.743989
O O3 0.406628 0.734729 0.924944
O O4 0.084538 0.725793 0.782574
O O5 0.336022 0.317258 0.561602
O O6 0.928634 0.232091 0.627808
O O7 0.761880 0.333878 0.527773
O O8 0.627674 0.991323 0.435995
O O9 0.514694 0.891854 0.756381
O O10 0.882703 0.059385 0.936129
O O11 0.348210 0.142287 0.730761
O O12 0.000000 0.500000 0.500000
O O13 0.029723 0.859824 0.618640
O O14 0.099766 0.531250 0.900464
O O15 0.526327 0.689938 0.052030
O O16 0.966599 0.839622 0.192253
O O17 0.000000 0.500000 0.000000
#
# Coordination Sequence:
#
# PCOD9028084 Si02
#       8
#     2   2   2   2   2   2   2   2
#     4  12  26  44  71 101 138 185 234 286 351 412
#     4  10  25  45  72 104 141 184 239 289 350 422
#     4  11  28  43  68 101 144 178 230 293 347 422
#     4  10  24  46  75 102 142 187 240 294 347 423
#     4  11  25  45  73 105 147 186 229 293 364 423
#     4  10  23  43  64  98 136 184 231 285 350 408
#     4  10  22  41  71 102 138 183 239 294 340 419
#     4  10  24  47  68 107 138 188 238 287 356 422
#
# _framework density 26.471084000000001
#
# number of rings (size 3 to 8) (size 9 to 14) (size 15 to 20)
#    0.000    1.500    1.250    1.125    8.750    9.500 
#    2.250    0.000    0.000    0.000    0.000    0.000 
#    0.000    0.000    0.000    0.000    0.000    0.000 
#
# Total GULP energy -89698.957821 kJ/mol
# GULP energy per Si atom -5606.184864 kJ/mol
# Density = 2.641083 g / cm^3
# Si number density = 26.471084 Si / 1000 Ang^3
#
#
#
# Elastic Constant Matrix: (Units=GPa)
#
#
# Indices 1 2 3 4 5 6 
#
# 1 82.4716 25.9452 7.9134 13.5311 3.5585 -3.3400
# 2 25.9452 167.4879 23.7489 -2.5936 8.5148 6.6149
# 3 7.9134 23.7489 75.0840 -0.8550 1.8934 7.8386
# 4 13.5311 -2.5936 -0.8550 52.0742 -0.1232 4.8904
# 5 3.5585 8.5148 1.8934 -0.1232 31.2390 -5.8671
# 6 -3.3400 6.6149 7.8386 4.8904 -5.8671 27.8616
#
#
#
# Elastic Compliance Matrix: (Units=1/GPa)
#
#
# Indices 1 2 3 4 5 6 
#
# 1 0.013695 -0.002127 -0.001130 -0.003974 -0.000347 0.003089
# 2 -0.002127 0.006720 -0.001638 0.001041 -0.001855 -0.001963
# 3 -0.001130 -0.001638 0.014429 0.000839 -0.001081 -0.004181
# 4 -0.003974 0.001041 0.000839 0.020746 -0.000691 -0.004746
# 5 -0.000347 -0.001855 -0.001081 -0.000691 0.034124 0.008010
# 6 0.003089 -0.001963 -0.004181 -0.004746 0.008010 0.040424
#
#
# Mechanical properties :
#
#
# Convention : Reuss Voigt Hill
#
# Bulk Modulus (GPa) = 39.91223 48.91760 44.41491
# Shear Modulus (GPa) = 33.72040 40.06405 36.89222
#
# Velocity S-wave (km/s) = 3.57299 3.89460 3.73725
# Velocity P-wave (km/s) = 5.66851 6.22444 5.95297
#
# Compressibility (1/GPa) = 0.02505498
#
# Stress axis : x y z
#
# Youngs Moduli (GPa) = 73.01906 148.80359 69.30583
#
# Poissons Ratio (x) = 0.31653 0.07828
# Poissons Ratio (y) = 0.15533 0.11351
# Poissons Ratio (z) = 0.08248 0.24372
#
# Static dielectric constant tensor:
#      x y z
#    x 2.074780 0.010840 -0.005300 
#    y 0.010840 2.093780 0.028360 
#    z -0.005300 0.028360 2.131970 
# 
# From -- ./inp_files/582628.got.cif
#   From: 2010.05.17/outbox.cif.g08.bks.cpg/sg2_292_cif.got.tgz:582628.got - 2010.06.03 11:33:40.
