data_PCOD9028748
_publ_section_title
;
Structure prediction by ZEFSAII (Michael W. Deem and Ramdas Pophale) SiO2 
 PCOD9028748
Probable space group: P -1
;
_chemical_formula_sum "Si O2"
_cell_formula_units_Z 16
_cell_length_a 5.895686
_cell_length_b 9.334574
_cell_length_c 16.149803
_cell_angle_alpha 57.687327
_cell_angle_beta 64.019473
_cell_angle_gamma 84.300634
_cell_volume 664.518387
_symmetry_space_group_name_H-M "P -1"
_symmetry_group_IT_number 2
_symmetry_cell_setting 'triclinic'
loop_
_space_group_symop_operation_xyz
x,y,z
-x,-y,-z
loop_
_atom_site_type_symbol
_atom_site_label
_atom_site_fract_x
_atom_site_fract_y
_atom_site_fract_z
Si Si1 0.996330 0.120235 0.137024
Si Si2 0.446372 0.722405 0.770068
Si Si3 0.762743 0.137716 0.907662
Si Si4 0.741935 0.258743 0.391923
Si Si5 0.756746 0.660574 0.490347
Si Si6 0.086437 0.564830 0.330231
Si Si7 0.948228 0.990815 0.644899
Si Si8 0.485709 0.609910 0.049636
O O1 0.017834 0.047273 0.250268
O O2 0.763803 0.223624 0.150388
O O3 0.006852 0.967320 0.115576
O O4 0.250116 0.255940 0.033881
O O5 0.342132 0.711027 0.697563
O O6 0.682711 0.877946 0.695152
O O7 0.517504 0.537470 0.835756
O O8 0.768722 0.263039 0.788760
O O9 0.741617 0.278166 0.939484
O O10 0.500000 0.000000 0.000000
O O11 0.497938 0.259193 0.488846
O O12 0.968965 0.411493 0.334860
O O13 0.844262 0.081242 0.422607
O O14 0.744693 0.506113 0.604780
O O15 0.835199 0.606498 0.404880
O O16 0.996862 0.805281 0.436322
O O17 0.500000 0.500000 0.000000
#
# Coordination Sequence:
#
# PCOD9028748 Si02
#       8
#     2   2   2   2   2   2   2   2
#     4  10  22  42  64  97 135 178 223 280 337 401
#     4  11  24  42  69 101 137 179 231 278 339 411
#     4  10  22  43  70  97 135 177 221 279 341 402
#     4  11  24  41  68 100 135 179 225 281 333 411
#     4  11  24  43  69  99 136 179 228 280 336 406
#     4  11  24  44  68  99 138 178 225 277 346 396
#     4  11  22  42  68  93 136 176 222 283 337 394
#     4  11  21  40  73  95 136 179 226 283 337 400
#
# _framework density 24.077584999999999
#
# number of rings (size 3 to 8) (size 9 to 14) (size 15 to 20)
#    0.000    1.250    2.500    3.375    1.750    4.000 
#    4.500    0.625    0.000    0.000    0.000    0.000 
#    0.000    0.000    0.000    0.000    0.000    0.000 
#
# Total GULP energy -89459.015350 kJ/mol
# GULP energy per Si atom -5591.188459 kJ/mol
# Density = 2.402278 g / cm^3
# Si number density = 24.077585 Si / 1000 Ang^3
#
#
#
# Elastic Constant Matrix: (Units=GPa)
#
#
# Indices 1 2 3 4 5 6 
#
# 1 30.1865 20.6407 10.6474 13.1035 -5.7046 -8.5476
# 2 20.6407 178.2554 23.4697 22.2048 -8.8308 -22.5517
# 3 10.6474 23.4697 102.0012 -6.7069 -5.3235 -1.4931
# 4 13.1035 22.2048 -6.7069 51.3276 -5.4812 -10.1570
# 5 -5.7046 -8.8308 -5.3235 -5.4812 31.1875 14.8185
# 6 -8.5476 -22.5517 -1.4931 -10.1570 14.8185 28.8257
#
#
#
# Elastic Compliance Matrix: (Units=1/GPa)
#
#
# Indices 1 2 3 4 5 6 
#
# 1 0.042228 -0.002317 -0.004275 -0.008871 0.001695 0.006490
# 2 -0.002317 0.006805 -0.001437 -0.001767 -0.001224 0.004569
# 3 -0.004275 -0.001437 0.010858 0.002989 0.002062 -0.001837
# 4 -0.008871 -0.001767 0.002989 0.023801 0.000554 0.004244
# 5 0.001695 -0.001224 0.002062 0.000554 0.043070 -0.022293
# 6 0.006490 0.004569 -0.001837 0.004244 -0.022293 0.053051
#
#
# Mechanical properties :
#
#
# Convention : Reuss Voigt Hill
#
# Bulk Modulus (GPa) = 22.81325 46.66206 34.73765
# Shear Modulus (GPa) = 23.75503 39.31385 31.53444
#
# Velocity S-wave (km/s) = 3.14443 4.04517 3.62291
# Velocity P-wave (km/s) = 4.76222 6.42183 5.65326
#
# Compressibility (1/GPa) = 0.04383418
#
# Stress axis : x y z
#
# Youngs Moduli (GPa) = 23.68072 146.95330 92.09837
#
# Poissons Ratio (x) = 0.34045 0.39370
# Poissons Ratio (y) = 0.05486 0.13235
# Poissons Ratio (z) = 0.10123 0.21118
#
# Static dielectric constant tensor:
#      x y z
#    x 1.943880 -0.026880 0.049440 
#    y -0.026880 1.897210 0.085050 
#    z 0.049440 0.085050 1.927750 
# 
# From -- ./inp_files/117113.got.cif
#   From: 2010.05.17/outbox.cif.g08.bks.cpg/sg2_59_cif.got.tgz:117113.got - 2010.06.03 11:33:40.
