data_PCOD9028121
_publ_section_title
;
Structure prediction by ZEFSAII (Michael W. Deem and Ramdas Pophale) SiO2 
 PCOD9028121
Probable space group: P -1
;
_chemical_formula_sum "Si O2"
_cell_formula_units_Z 16
_cell_length_a 11.112073
_cell_length_b 9.606800
_cell_length_c 16.693884
_cell_angle_alpha 65.873310
_cell_angle_beta 66.382665
_cell_angle_gamma 122.016771
_cell_volume 831.498986
_symmetry_space_group_name_H-M "P -1"
_symmetry_group_IT_number 2
_symmetry_cell_setting 'triclinic'
loop_
_space_group_symop_operation_xyz
x,y,z
-x,-y,-z
loop_
_atom_site_type_symbol
_atom_site_label
_atom_site_fract_x
_atom_site_fract_y
_atom_site_fract_z
Si Si1 0.762031 0.301755 0.331535
Si Si2 0.057262 0.672657 0.315303
Si Si3 0.202691 0.767852 0.829341
Si Si4 0.228740 0.183807 0.158174
Si Si5 0.713803 0.167994 0.629721
Si Si6 0.814561 0.917321 0.621208
Si Si7 0.302357 0.437125 0.796671
Si Si8 0.067496 0.953107 0.869842
O O1 0.850061 0.284135 0.238655
O O2 0.724904 0.432777 0.274126
O O3 0.959173 0.503014 0.300570
O O4 0.500000 0.000000 0.500000
O O5 0.252201 0.785021 0.294857
O O6 0.831995 0.424711 0.492310
O O7 0.156369 0.938456 0.212611
O O8 0.228722 0.964027 0.806479
O O9 0.441079 0.903643 0.745078
O O10 0.000000 0.500000 0.000000
O O11 0.180806 0.143441 0.275409
O O12 0.065363 0.125947 0.157134
O O13 0.500000 0.500000 0.000000
O O14 0.829626 0.118402 0.580887
O O15 0.561422 0.654288 0.709084
O O16 0.000000 0.000000 0.500000
O O17 0.219234 0.230291 0.804912
O O18 0.130154 0.275058 0.957296
#
# Coordination Sequence:
#
# PCOD9028121 Si02
#       8
#     2   2   2   2   2   2   2   2
#     4  12  22  42  69  97 134 176 222 277 333 396
#     4  10  22  41  71  93 130 182 219 271 343 391
#     4  12  24  42  69 100 137 179 226 271 340 403
#     4  11  23  42  69  97 134 178 225 275 336 401
#     4  10  22  44  68  95 139 176 217 280 340 394
#     4  11  23  42  70  97 133 177 220 276 338 400
#     4  11  22  43  66  96 139 170 221 275 338 391
#     4  11  24  41  69  99 133 179 221 279 334 400
#
# _framework density 19.242356999999998
#
# number of rings (size 3 to 8) (size 9 to 14) (size 15 to 20)
#    0.000    1.000    6.250    0.000    1.750    5.000 
#    0.000    2.500    0.000    0.000    0.000    0.000 
#    0.000    0.000    0.000    0.000    0.000    0.000 
#
# Total GULP energy -89196.471980 kJ/mol
# GULP energy per Si atom -5574.779499 kJ/mol
# Density = 1.919856 g / cm^3
# Si number density = 19.242357 Si / 1000 Ang^3
#
#
#
# Elastic Constant Matrix: (Units=GPa)
#
#
# Indices 1 2 3 4 5 6 
#
# 1 61.5941 48.8325 14.7317 9.5996 3.6474 4.9294
# 2 48.8325 138.8525 53.9966 5.7456 -6.8982 12.0122
# 3 14.7317 53.9966 76.9570 -1.7022 7.8568 -11.3225
# 4 9.5996 5.7456 -1.7022 37.5877 -1.6894 4.0631
# 5 3.6474 -6.8982 7.8568 -1.6894 28.1170 1.1255
# 6 4.9294 12.0122 -11.3225 4.0631 1.1255 46.1535
#
#
#
# Elastic Compliance Matrix: (Units=1/GPa)
#
#
# Indices 1 2 3 4 5 6 
#
# 1 0.024612 -0.010174 0.003235 -0.005051 -0.006953 0.001427
# 2 -0.010174 0.015989 -0.011025 0.000696 0.008607 -0.006051
# 3 0.003235 -0.011025 0.022313 0.000551 -0.009654 0.008185
# 4 -0.005051 0.000696 0.000551 0.028144 0.002445 -0.002044
# 5 -0.006953 0.008607 -0.009654 0.002445 0.041628 -0.005096
# 6 0.001427 -0.006051 0.008185 -0.002044 -0.005096 0.025401
#
#
# Mechanical properties :
#
#
# Convention : Reuss Voigt Hill
#
# Bulk Modulus (GPa) = 37.05510 56.94724 47.00117
# Shear Modulus (GPa) = 24.62928 33.02782 28.82855
#
# Velocity S-wave (km/s) = 3.58152 4.14746 3.87483
# Velocity P-wave (km/s) = 6.03340 7.25218 6.67069
#
# Compressibility (1/GPa) = 0.02698684
#
# Stress axis : x y z
#
# Youngs Moduli (GPa) = 40.63042 62.54115 44.81755
#
# Poissons Ratio (x) = 0.63627 -0.14498
# Poissons Ratio (y) = 0.41336 0.49412
# Poissons Ratio (z) = -0.13144 0.68952
#
# Static dielectric constant tensor:
#      x y z
#    x 1.660600 0.000410 0.018140 
#    y 0.000410 1.697030 -0.020030 
#    z 0.018140 -0.020030 1.667770 
# 
# From -- ./inp_files/346184.got.cif
#   From: 2010.05.17/outbox.cif.g08.bks.cpg/sg2_174_cif.got.tgz:346184.got - 2010.06.03 11:33:40.
