data_PCOD9028844
_publ_section_title
;
Structure prediction by ZEFSAII (Michael W. Deem and Ramdas Pophale) SiO2 
 PCOD9028844
Probable space group: P -1
;
_chemical_formula_sum "Si O2"
_cell_formula_units_Z 16
_cell_length_a 8.965305
_cell_length_b 19.275601
_cell_length_c 8.168811
_cell_angle_alpha 79.354742
_cell_angle_beta 74.657348
_cell_angle_gamma 29.535669
_cell_volume 668.022689
_symmetry_space_group_name_H-M "P -1"
_symmetry_group_IT_number 2
_symmetry_cell_setting 'triclinic'
loop_
_space_group_symop_operation_xyz
x,y,z
-x,-y,-z
loop_
_atom_site_type_symbol
_atom_site_label
_atom_site_fract_x
_atom_site_fract_y
_atom_site_fract_z
Si Si1 0.756117 0.146221 0.203857
Si Si2 0.360976 0.365247 0.921237
Si Si3 0.203682 0.089711 0.393842
Si Si4 0.537072 0.867891 0.603076
Si Si5 0.157922 0.105468 0.048855
Si Si6 0.586432 0.277914 0.551233
Si Si7 0.223542 0.560289 0.481205
Si Si8 0.679632 0.382622 0.866784
O O1 0.709726 0.081295 0.252178
O O2 0.661900 0.203021 0.397229
O O3 0.085198 0.050724 0.101931
O O4 0.534916 0.266727 0.075279
O O5 0.463226 0.291382 0.748504
O O6 0.444437 0.415634 0.854906
O O7 0.000000 0.500000 0.000000
O O8 0.420772 0.070783 0.363957
O O9 0.035898 0.172698 0.236104
O O10 0.906095 0.191996 0.547732
O O11 0.409852 0.938078 0.427838
O O12 0.878437 0.700199 0.594282
O O13 0.957791 0.226148 0.925407
O O14 0.500000 0.000000 0.000000
O O15 0.341282 0.434138 0.500143
O O16 0.500000 0.500000 0.500000
O O17 0.184885 0.613667 0.296489
O O18 0.500000 0.500000 0.000000
#
# Coordination Sequence:
#
# PCOD9028844 Si02
#       8
#     2   2   2   2   2   2   2   2
#     4  10  25  42  64  99 134 170 223 277 328 395
#     4  11  23  40  63  94 136 173 209 272 336 386
#     4  10  22  43  67  93 127 179 218 270 336 398
#     4  11  23  40  66  95 128 167 227 269 326 400
#     4  10  22  42  65  90 134 175 217 272 332 390
#     4  11  23  43  66  93 133 176 219 268 335 397
#     4  12  21  37  66  92 122 171 219 266 323 389
#     4  11  23  38  62  95 127 164 222 268 320 394
#
# _framework density 23.951281999999999
#
# number of rings (size 3 to 8) (size 9 to 14) (size 15 to 20)
#    0.000    1.250    2.500    3.750    0.000    8.000 
#    0.000    5.000    0.000    0.000    0.000    0.000 
#    0.000    0.000    0.000    0.000    0.000    0.000 
#
# Total GULP energy -89246.917080 kJ/mol
# GULP energy per Si atom -5577.932318 kJ/mol
# Density = 2.389677 g / cm^3
# Si number density = 23.951282 Si / 1000 Ang^3
#
#
#
# Elastic Constant Matrix: (Units=GPa)
#
#
# Indices 1 2 3 4 5 6 
#
# 1 68.8409 29.0159 48.2124 2.2005 -24.1558 -13.6887
# 2 29.0159 90.5210 20.0532 5.6081 -15.8726 -19.3426
# 3 48.2124 20.0532 123.4641 9.6188 -5.4934 -9.0646
# 4 2.2005 5.6081 9.6188 36.0124 -1.2525 -5.0233
# 5 -24.1558 -15.8726 -5.4934 -1.2525 45.6224 7.1893
# 6 -13.6887 -19.3426 -9.0646 -5.0233 7.1893 37.5733
#
#
#
# Elastic Compliance Matrix: (Units=1/GPa)
#
#
# Indices 1 2 3 4 5 6 
#
# 1 0.027641 -0.004064 -0.009530 0.002420 0.011542 0.003794
# 2 -0.004064 0.013860 -0.000121 -0.001099 0.001817 0.005131
# 3 -0.009530 -0.000121 0.011866 -0.002743 -0.003682 -0.000334
# 4 0.002420 -0.001099 -0.002743 0.029024 0.000834 0.003375
# 5 0.011542 0.001817 -0.003682 0.000834 0.028411 -0.001073
# 6 0.003794 0.005131 -0.000334 0.003375 -0.001073 0.031214
#
#
# Mechanical properties :
#
#
# Convention : Reuss Voigt Hill
#
# Bulk Modulus (GPa) = 38.55638 53.04322 45.79980
# Shear Modulus (GPa) = 28.07565 36.21125 32.14345
#
# Velocity S-wave (km/s) = 3.42745 3.89250 3.66735
# Velocity P-wave (km/s) = 5.63880 6.51125 6.09067
#
# Compressibility (1/GPa) = 0.02593604
#
# Stress axis : x y z
#
# Youngs Moduli (GPa) = 36.17872 72.15181 84.27489
#
# Poissons Ratio (x) = 0.29324 0.80313
# Poissons Ratio (y) = 0.14704 0.01019
# Poissons Ratio (z) = 0.34478 0.00872
#
# Static dielectric constant tensor:
#      x y z
#    x 2.056990 -0.080710 0.069420 
#    y -0.080710 1.940580 0.074770 
#    z 0.069420 0.074770 2.053890 
# 
# From -- ./inp_files/223386.got.cif
#   From: 2010.05.17/outbox.cif.g08.bks.cpg/sg2_112_cif.got.tgz:223386.got - 2010.06.03 11:33:40.
