data_PCOD9028976
_publ_section_title
;
Structure prediction by ZEFSAII (Michael W. Deem and Ramdas Pophale) SiO2 
 PCOD9028976
Probable space group: P -1
;
_chemical_formula_sum "Si O2"
_cell_formula_units_Z 14
_cell_length_a 11.739448
_cell_length_b 14.077146
_cell_length_c 6.790643
_cell_angle_alpha 122.535835
_cell_angle_beta 93.753722
_cell_angle_gamma 127.449449
_cell_volume 608.374601
_symmetry_space_group_name_H-M "P -1"
_symmetry_group_IT_number 2
_symmetry_cell_setting 'triclinic'
loop_
_space_group_symop_operation_xyz
x,y,z
-x,-y,-z
loop_
_atom_site_type_symbol
_atom_site_label
_atom_site_fract_x
_atom_site_fract_y
_atom_site_fract_z
Si Si1 0.849168 0.385277 0.523371
Si Si2 0.247635 0.269230 0.300681
Si Si3 0.779028 0.181249 0.637159
Si Si4 0.106947 0.329727 0.022827
Si Si5 0.830584 0.822513 0.396181
Si Si6 0.526274 0.655173 0.912740
Si Si7 0.407992 0.807282 0.049369
O O1 0.883400 0.322966 0.632091
O O2 0.000000 0.500000 0.500000
O O3 0.829647 0.495428 0.735118
O O4 0.671581 0.220176 0.200929
O O5 0.136738 0.142635 0.330765
O O6 0.410243 0.457020 0.637244
O O7 0.334124 0.240935 0.138113
O O8 0.150454 0.286486 0.169453
O O9 0.704875 0.217579 0.821515
O O10 0.902442 0.190773 0.784920
O O11 0.610626 0.993633 0.314586
O O12 0.189381 0.321654 0.842586
O O13 0.649851 0.744612 0.217789
O O14 0.000000 0.000000 0.500000
O O15 0.401164 0.667890 0.909869
#
# Coordination Sequence:
#
# PCOD9028976 Si02
#       7
#     2   2   2   2   2   2   2
#     4  12  25  43  66 100 133 177 222 268 322 392
#     4  10  23  43  68  96 130 167 224 269 321 393
#     4  11  26  43  67 101 135 172 222 269 329 390
#     4  11  24  41  70  99 127 177 220 267 329 380
#     4  11  25  43  66  99 134 171 213 272 334 390
#     4  10  22  42  65  98 126 175 218 266 326 385
#     4  11  24  45  67  96 137 174 216 272 331 383
#
# _framework density 23.012139000000001
#
# number of rings (size 3 to 8) (size 9 to 14) (size 15 to 20)
#    0.000    1.143    2.857    2.143    4.000    3.429 
#    2.571    0.000    0.000    0.000    0.000    0.000 
#    0.000    0.000    0.000    0.000    0.000    0.000 
#
# Total GULP energy -78333.008930 kJ/mol
# GULP energy per Si atom -5595.214924 kJ/mol
# Density = 2.295976 g / cm^3
# Si number density = 23.012139 Si / 1000 Ang^3
#
#
#
# Elastic Constant Matrix: (Units=GPa)
#
#
# Indices 1 2 3 4 5 6 
#
# 1 75.8923 -0.7091 13.0870 -11.3663 12.1012 -0.1564
# 2 -0.7091 69.0727 15.4601 -21.2498 4.6124 8.1775
# 3 13.0870 15.4601 129.4091 -8.8333 21.6682 -1.2096
# 4 -11.3663 -21.2498 -8.8333 34.2010 -0.7593 3.0325
# 5 12.1012 4.6124 21.6682 -0.7593 53.2953 3.1490
# 6 -0.1564 8.1775 -1.2096 3.0325 3.1490 15.0356
#
#
#
# Elastic Compliance Matrix: (Units=1/GPa)
#
#
# Indices 1 2 3 4 5 6 
#
# 1 0.014821 0.002835 -0.000903 0.006578 -0.003023 -0.002154
# 2 0.002835 0.021296 -0.001833 0.014978 -0.000666 -0.014582
# 3 -0.000903 -0.001833 0.008643 0.000520 -0.003277 0.002264
# 4 0.006578 0.014978 0.000520 0.042275 -0.001438 -0.016261
# 5 -0.003023 -0.000666 -0.003277 -0.001438 0.021059 -0.004053
# 6 -0.002154 -0.014582 0.002264 -0.016261 -0.004053 0.078728
#
#
# Mechanical properties :
#
#
# Convention : Reuss Voigt Hill
#
# Bulk Modulus (GPa) = 22.24309 36.67223 29.45766
# Shear Modulus (GPa) = 24.80039 36.94212 30.87125
#
# Velocity S-wave (km/s) = 3.28641 4.01101 3.66665
# Velocity P-wave (km/s) = 4.90790 6.11731 5.54567
#
# Compressibility (1/GPa) = 0.04495779
#
# Stress axis : x y z
#
# Youngs Moduli (GPa) = 67.47021 46.95805 115.70037
#
# Poissons Ratio (x) = -0.13310 0.10442
# Poissons Ratio (y) = -0.19125 0.21209
# Poissons Ratio (z) = 0.06089 0.08608
#
# Static dielectric constant tensor:
#      x y z
#    x 1.822000 0.012150 0.000990 
#    y 0.012150 1.910220 0.031930 
#    z 0.000990 0.031930 1.874700 
# 
# From -- ./inp_files/27190.got.cif
#   From: 2010.05.17/outbox.cif.g08.bks.cpg/sg2_14_cif.got.tgz:27190.got - 2010.06.03 11:33:40.
