data_PCOD9028185
_publ_section_title
;
Structure prediction by ZEFSAII (Michael W. Deem and Ramdas Pophale) SiO2 
 PCOD9028185
Probable space group: P -1
;
_chemical_formula_sum "Si O2"
_cell_formula_units_Z 16
_cell_length_a 5.216117
_cell_length_b 25.696381
_cell_length_c 8.100790
_cell_angle_alpha 130.132965
_cell_angle_beta 97.188489
_cell_angle_gamma 107.578800
_cell_volume 711.127828
_symmetry_space_group_name_H-M "P -1"
_symmetry_group_IT_number 2
_symmetry_cell_setting 'triclinic'
loop_
_space_group_symop_operation_xyz
x,y,z
-x,-y,-z
loop_
_atom_site_type_symbol
_atom_site_label
_atom_site_fract_x
_atom_site_fract_y
_atom_site_fract_z
Si Si1 0.465085 0.331152 0.271199
Si Si2 0.298417 0.014398 0.138095
Si Si3 0.466370 0.922921 0.181934
Si Si4 0.629130 0.826442 0.492031
Si Si5 0.060632 0.898237 0.372540
Si Si6 0.778155 0.503658 0.624145
Si Si7 0.902651 0.323563 0.018337
Si Si8 0.659848 0.820085 0.861789
O O1 0.630251 0.420635 0.537905
O O2 0.694429 0.326519 0.152554
O O3 0.403865 0.265921 0.268884
O O4 0.167109 0.314970 0.111640
O O5 0.448755 0.104222 0.382841
O O6 0.254079 0.955813 0.161252
O O7 0.500000 0.000000 0.000000
O O8 0.000000 0.000000 0.000000
O O9 0.318813 0.890227 0.280593
O O10 0.777366 0.007444 0.383470
O O11 0.430808 0.854096 0.917871
O O12 0.888940 0.850596 0.424629
O O13 0.741602 0.827557 0.689799
O O14 0.328082 0.746389 0.259571
O O15 0.809485 0.866005 0.143148
O O16 0.500000 0.500000 0.500000
O O17 0.000000 0.500000 0.500000
O O18 0.949401 0.591796 0.890455
#
# Coordination Sequence:
#
# PCOD9028185 Si02
#       8
#     2   2   2   2   2   2   2   2
#     4  10  22  41  72 102 142 184 228 288 348 429
#     4  12  26  47  68  99 138 185 243 289 353 416
#     4  11  27  45  71  95 137 192 239 304 359 418
#     4  12  27  45  71 102 141 188 235 303 353 420
#     4  11  27  46  70  98 136 187 245 297 356 422
#     4   8  16  36  67 101 135 180 226 276 348 422
#     4  10  22  43  69 104 140 182 234 285 353 420
#     4  12  26  46  66 104 143 181 237 293 361 420
#
# _framework density 22.499469000000001
#
# number of rings (size 3 to 8) (size 9 to 14) (size 15 to 20)
#    0.000    1.250    2.500    1.875    8.750    1.000 
#    2.250    2.500    0.000    0.000    0.000   10.500 
#    0.000    0.000    0.000    0.125    0.000    0.000 
#
# Total GULP energy -89190.811022 kJ/mol
# GULP energy per Si atom -5574.425689 kJ/mol
# Density = 2.244826 g / cm^3
# Si number density = 22.499469 Si / 1000 Ang^3
#
#
#
# Elastic Constant Matrix: (Units=GPa)
#
#
# Indices 1 2 3 4 5 6 
#
# 1 121.1100 36.6911 39.6406 -3.7834 -1.9891 -1.5804
# 2 36.6911 124.7059 67.8997 0.0127 -12.6153 4.5881
# 3 39.6406 67.8997 125.2729 13.2238 9.4037 15.7663
# 4 -3.7834 0.0127 13.2238 48.2286 1.3694 -4.2314
# 5 -1.9891 -12.6153 9.4037 1.3694 33.5854 -7.2211
# 6 -1.5804 4.5881 15.7663 -4.2314 -7.2211 32.5816
#
#
#
# Elastic Compliance Matrix: (Units=1/GPa)
#
#
# Indices 1 2 3 4 5 6 
#
# 1 0.009734 -0.001100 -0.003135 0.001819 0.001553 0.002725
# 2 -0.001100 0.013605 -0.008425 0.002358 0.008219 0.004235
# 3 -0.003135 -0.008425 0.016016 -0.005197 -0.009673 -0.009534
# 4 0.001819 0.002358 -0.005197 0.022735 0.002777 0.005839
# 5 0.001553 0.008219 -0.009673 0.002777 0.038222 0.012430
# 6 0.002725 0.004235 -0.009534 0.005839 0.012430 0.038355
#
#
# Mechanical properties :
#
#
# Convention : Reuss Voigt Hill
#
# Bulk Modulus (GPa) = 71.25478 73.28350 72.26914
# Shear Modulus (GPa) = 29.64437 38.00293 33.82365
#
# Velocity S-wave (km/s) = 3.63376 4.11427 3.88146
# Velocity P-wave (km/s) = 7.02452 7.43045 7.23033
#
# Compressibility (1/GPa) = 0.01403415
#
# Stress axis : x y z
#
# Youngs Moduli (GPa) = 102.72841 73.50174 62.43837
#
# Poissons Ratio (x) = 0.08087 0.19577
# Poissons Ratio (y) = 0.11303 0.52604
# Poissons Ratio (z) = 0.32209 0.61925
#
# Static dielectric constant tensor:
#      x y z
#    x 2.199570 -0.173020 0.077920 
#    y -0.173020 1.982620 0.007290 
#    z 0.077920 0.007290 1.916360 
# 
# From -- ./inp_files/142698.got.cif
#   From: 2010.05.17/outbox.cif.g08.bks.cpg/sg2_72_cif.got.tgz:142698.got - 2010.06.03 11:33:40.
