data_PCOD9028668
_publ_section_title
;
Structure prediction by ZEFSAII (Michael W. Deem and Ramdas Pophale) SiO2 
 PCOD9028668
Probable space group: P -1
;
_chemical_formula_sum "Si O2"
_cell_formula_units_Z 12
_cell_length_a 5.279315
_cell_length_b 7.206792
_cell_length_c 17.562228
_cell_angle_alpha 112.305043
_cell_angle_beta 66.337140
_cell_angle_gamma 137.215630
_cell_volume 411.805819
_symmetry_space_group_name_H-M "P -1"
_symmetry_group_IT_number 2
_symmetry_cell_setting 'triclinic'
loop_
_space_group_symop_operation_xyz
x,y,z
-x,-y,-z
loop_
_atom_site_type_symbol
_atom_site_label
_atom_site_fract_x
_atom_site_fract_y
_atom_site_fract_z
Si Si1 0.716173 0.172675 0.145762
Si Si2 0.909424 0.686810 0.021125
Si Si3 0.287195 0.972991 0.311545
Si Si4 0.447600 0.491043 0.354582
Si Si5 0.519881 0.538625 0.187944
Si Si6 0.445520 0.161080 0.478813
O O1 0.445308 0.959727 0.212517
O O2 0.607702 0.348707 0.167415
O O3 0.127126 0.367841 0.165382
O O4 0.775947 0.091667 0.044929
O O5 0.852143 0.762370 0.122241
O O6 0.500000 0.500000 0.000000
O O7 0.000000 0.500000 0.000000
O O8 0.214922 0.170939 0.329698
O O9 0.558537 0.146011 0.378344
O O10 0.901112 0.674564 0.335654
O O11 0.458886 0.605373 0.288826
O O12 0.356259 0.563199 0.454235
O O13 0.500000 0.000000 0.500000
O O14 0.000000 0.000000 0.500000
#
# Coordination Sequence:
#
# PCOD9028668 Si02
#       6
#     2   2   2   2   2   2
#     4   9  18  33  56  85 118 156 198 245 297 354
#     4   8  14  28  51  80 114 152 194 240 292 350
#     4  10  22  42  64  92 124 162 204 252 304 362
#     4  10  22  42  64  92 124 162 204 252 304 362
#     4   9  18  33  56  85 118 156 198 245 297 354
#     4  10  23  42  64  90 122 160 202 250 304 362
#
# _framework density 29.139949000000001
#
# number of rings (size 3 to 8) (size 9 to 14) (size 15 to 20)
#    0.000    2.667    0.000    0.500    0.000   10.667 
#    0.000    8.333    0.000    0.000    0.000   36.167 
#    0.000    0.000    0.000    0.000    0.000    0.000 
#
# Total GULP energy -67204.544066 kJ/mol
# GULP energy per Si atom -5600.378672 kJ/mol
# Density = 2.907363 g / cm^3
# Si number density = 29.139949 Si / 1000 Ang^3
#
#
#
# Elastic Constant Matrix: (Units=GPa)
#
#
# Indices 1 2 3 4 5 6 
#
# 1 170.3040 37.4451 58.5898 5.8380 -4.8493 6.0941
# 2 37.4451 118.0744 48.9119 -7.3982 -7.1397 -3.1832
# 3 58.5898 48.9119 193.9062 -28.7766 31.7147 5.7738
# 4 5.8380 -7.3982 -28.7766 51.1706 2.2473 2.1839
# 5 -4.8493 -7.1397 31.7147 2.2473 56.8920 2.3508
# 6 6.0941 -3.1832 5.7738 2.1839 2.3508 23.2873
#
#
#
# Elastic Compliance Matrix: (Units=1/GPa)
#
#
# Indices 1 2 3 4 5 6 
#
# 1 0.007212 -0.001326 -0.002490 -0.002442 0.001992 -0.001423
# 2 -0.001326 0.010204 -0.002669 -0.000079 0.002570 0.002152
# 3 -0.002490 -0.002669 0.008204 0.004813 -0.005242 -0.001670
# 4 -0.002442 -0.000079 0.004813 0.022779 -0.003705 -0.002328
# 5 0.001992 0.002570 -0.005242 -0.003705 0.021165 -0.000659
# 6 -0.001423 0.002152 -0.001670 -0.002328 -0.000659 0.044307
#
#
# Mechanical properties :
#
#
# Convention : Reuss Voigt Hill
#
# Bulk Modulus (GPa) = 79.06247 85.79759 82.43003
# Shear Modulus (GPa) = 38.15093 48.75916 43.45504
#
# Velocity S-wave (km/s) = 3.62226 4.09501 3.86586
# Velocity P-wave (km/s) = 6.68470 7.20180 6.94806
#
# Compressibility (1/GPa) = 0.01264823
#
# Stress axis : x y z
#
# Youngs Moduli (GPa) = 138.66726 98.00032 121.88815
#
# Poissons Ratio (x) = 0.12999 0.30352
# Poissons Ratio (y) = 0.18393 0.32535
# Poissons Ratio (z) = 0.34530 0.26159
#
# Static dielectric constant tensor:
#      x y z
#    x 2.255240 0.021540 -0.024080 
#    y 0.021540 2.188090 -0.004090 
#    z -0.024080 -0.004090 2.470770 
# 
# From -- ./inp_files/5273.got.cif
#   From: 2010.05.17/outbox.cif.g08.bks.cpg/sg2_3_cif.got.tgz:5273.got - 2010.06.03 11:33:40.
