data_PCOD9028658
_publ_section_title
;
Structure prediction by ZEFSAII (Michael W. Deem and Ramdas Pophale) SiO2 
 PCOD9028658
Probable space group: P -1
;
_chemical_formula_sum "Si O2"
_cell_formula_units_Z 16
_cell_length_a 13.248963
_cell_length_b 12.900636
_cell_length_c 8.110152
_cell_angle_alpha 76.664392
_cell_angle_beta 67.674783
_cell_angle_gamma 133.241929
_cell_volume 639.928802
_symmetry_space_group_name_H-M "P -1"
_symmetry_group_IT_number 2
_symmetry_cell_setting 'triclinic'
loop_
_space_group_symop_operation_xyz
x,y,z
-x,-y,-z
loop_
_atom_site_type_symbol
_atom_site_label
_atom_site_fract_x
_atom_site_fract_y
_atom_site_fract_z
Si Si1 0.051812 0.716991 0.463034
Si Si2 0.351693 0.286924 0.085023
Si Si3 0.501572 0.875177 0.057849
Si Si4 0.129721 0.566499 0.623421
Si Si5 0.051181 0.998551 0.780994
Si Si6 0.649907 0.402996 0.001346
Si Si7 0.089698 0.343787 0.933045
Si Si8 0.647427 0.566582 0.519088
O O1 0.105939 0.674973 0.589067
O O2 0.990820 0.590549 0.395671
O O3 0.252653 0.950147 0.183952
O O4 0.853348 0.619058 0.688794
O O5 0.491381 0.371990 0.806174
O O6 0.500000 0.500000 0.000000
O O7 0.132229 0.137148 0.194299
O O8 0.407416 0.239422 0.192142
O O9 0.370050 0.725440 0.034162
O O10 0.376409 0.748195 0.352331
O O11 0.500000 0.000000 0.000000
O O12 0.039480 0.423212 0.884952
O O13 0.069816 0.885165 0.827104
O O14 0.232167 0.235506 0.538692
O O15 0.000000 0.000000 0.000000
O O16 0.728288 0.489493 0.103352
O O17 0.192500 0.376726 0.694400
O O18 0.500000 0.500000 0.500000
#
# Coordination Sequence:
#
# PCOD9028658 Si02
#       8
#     2   2   2   2   2   2   2   2
#     4   9  19  40  61  92 121 162 215 270 322 387
#     4  12  23  43  64  95 133 178 219 274 325 388
#     4   9  19  40  66  91 121 166 218 266 322 391
#     4   9  19  38  67  87 123 165 211 268 325 384
#     4  10  22  42  64  91 125 171 219 263 324 386
#     4  11  23  39  61  93 135 169 215 273 329 385
#     4  11  22  42  58  94 131 170 218 268 330 388
#     4  11  21  41  67  89 129 171 219 277 325 388
#
# _framework density 25.002780999999999
#
# number of rings (size 3 to 8) (size 9 to 14) (size 15 to 20)
#    0.000    1.750    3.750    2.250    0.000    4.000 
#    6.750    2.500    0.000    0.000    0.000    0.000 
#    0.000    0.000    0.000    0.000    0.000    0.000 
#
# Total GULP energy -89077.703874 kJ/mol
# GULP energy per Si atom -5567.356492 kJ/mol
# Density = 2.494587 g / cm^3
# Si number density = 25.002781 Si / 1000 Ang^3
#
#
#
# Elastic Constant Matrix: (Units=GPa)
#
#
# Indices 1 2 3 4 5 6 
#
# 1 93.3999 15.7124 9.1708 -9.2194 11.3894 4.1481
# 2 15.7124 115.7249 2.3091 -11.7544 2.0682 1.0319
# 3 9.1708 2.3091 89.6124 -12.8492 7.3347 1.6915
# 4 -9.2194 -11.7544 -12.8492 37.0126 -1.3792 -1.4117
# 5 11.3894 2.0682 7.3347 -1.3792 36.9518 -2.9551
# 6 4.1481 1.0319 1.6915 -1.4117 -2.9551 39.5140
#
#
#
# Elastic Compliance Matrix: (Units=1/GPa)
#
#
# Indices 1 2 3 4 5 6 
#
# 1 0.011666 -0.001283 -0.000548 0.002128 -0.003444 -0.001349
# 2 -0.001283 0.009081 0.000285 0.002660 -0.000072 -0.000025
# 3 -0.000548 0.000285 0.011965 0.004011 -0.002110 -0.000477
# 4 0.002128 0.002660 0.004011 0.029790 -0.000444 0.000567
# 5 -0.003444 -0.000072 -0.002110 -0.000444 0.028737 0.002587
# 6 -0.001349 -0.000025 -0.000477 0.000567 0.002587 0.025684
#
#
# Mechanical properties :
#
#
# Convention : Reuss Voigt Hill
#
# Bulk Modulus (GPa) = 33.76181 39.23575 36.49878
# Shear Modulus (GPa) = 38.49424 40.79868 39.64646
#
# Velocity S-wave (km/s) = 3.92803 4.04389 3.98638
# Velocity P-wave (km/s) = 5.83996 6.12623 5.98481
#
# Compressibility (1/GPa) = 0.02961927
#
# Stress axis : x y z
#
# Youngs Moduli (GPa) = 85.71704 110.11522 83.57876
#
# Poissons Ratio (x) = 0.14131 0.04583
# Poissons Ratio (y) = 0.11000 -0.02383
# Poissons Ratio (z) = 0.04700 -0.03139
#
# Static dielectric constant tensor:
#      x y z
#    x 2.218680 -0.003050 -0.027160 
#    y -0.003050 1.972200 0.002480 
#    z -0.027160 0.002480 2.191730 
# 
# From -- ./inp_files/315060.got.cif
#   From: 2010.05.17/outbox.cif.g08.bks.cpg/sg2_158_cif.got.tgz:315060.got - 2010.06.03 11:33:40.
