data_PCOD9028872
_publ_section_title
;
Structure prediction by ZEFSAII (Michael W. Deem and Ramdas Pophale) SiO2 
 PCOD9028872
Probable space group: P -1
;
_chemical_formula_sum "Si O2"
_cell_formula_units_Z 16
_cell_length_a 11.540084
_cell_length_b 6.351231
_cell_length_c 29.383829
_cell_angle_alpha 86.220421
_cell_angle_beta 159.193761
_cell_angle_gamma 94.849273
_cell_volume 761.734717
_symmetry_space_group_name_H-M "P -1"
_symmetry_group_IT_number 2
_symmetry_cell_setting 'triclinic'
loop_
_space_group_symop_operation_xyz
x,y,z
-x,-y,-z
loop_
_atom_site_type_symbol
_atom_site_label
_atom_site_fract_x
_atom_site_fract_y
_atom_site_fract_z
Si Si1 0.663334 0.214866 0.335579
Si Si2 0.133779 0.911183 0.296030
Si Si3 0.638271 0.755736 0.042413
Si Si4 0.780451 0.634703 0.332395
Si Si5 0.665516 0.221313 0.158873
Si Si6 0.274446 0.988686 0.549555
Si Si7 0.868188 0.433427 0.628444
Si Si8 0.617927 0.017067 0.854038
O O1 0.632161 0.461844 0.315293
O O2 0.536340 0.097143 0.336176
O O3 0.502935 0.113485 0.232954
O O4 0.051940 0.178633 0.477985
O O5 0.135606 0.795753 0.346755
O O6 0.943639 0.773227 0.188711
O O7 0.492243 0.960579 0.407507
O O8 0.944256 0.119217 0.232694
O O9 0.500000 0.500000 0.000000
O O10 0.637997 0.765279 0.987260
O O11 0.500000 0.000000 0.000000
O O12 0.497513 0.749252 0.200592
O O13 0.006787 0.806091 0.439746
O O14 0.016882 0.548593 0.381679
O O15 0.847402 0.432330 0.241918
O O16 0.558063 0.079044 0.164451
O O17 0.500000 0.500000 0.500000
O O18 0.000000 0.000000 0.000000
#
# Coordination Sequence:
#
# PCOD9028872 Si02
#       8
#     2   2   2   2   2   2   2   2
#     4  10  22  44  63  93 131 168 219 276 328 406
#     4  11  23  40  64  98 129 173 217 273 344 409
#     4  10  22  42  65  92 135 179 222 277 341 410
#     4  11  22  42  65  93 128 173 222 276 333 402
#     4  11  23  43  62  93 134 168 221 284 334 405
#     4  10  23  40  66  94 132 170 217 270 338 407
#     4  12  23  36  67  99 133 169 211 270 345 407
#     4  11  25  42  65  92 126 175 223 278 334 395
#
# _framework density 21.004688000000002
#
# number of rings (size 3 to 8) (size 9 to 14) (size 15 to 20)
#    0.000    1.250    3.750    1.875    3.500    1.500 
#    0.000    2.500    0.000    0.000    0.000    0.000 
#    0.000    0.000    0.000    0.000    0.000    0.000 
#
# Total GULP energy -89098.480632 kJ/mol
# GULP energy per Si atom -5568.655040 kJ/mol
# Density = 2.095688 g / cm^3
# Si number density = 21.004688 Si / 1000 Ang^3
#
#
#
# Elastic Constant Matrix: (Units=GPa)
#
#
# Indices 1 2 3 4 5 6 
#
# 1 67.8132 11.1924 12.8199 1.1419 -11.6322 7.5522
# 2 11.1924 74.0770 8.1654 -2.2802 -1.6729 15.6136
# 3 12.8199 8.1654 61.2178 -1.9254 -8.6437 -0.2794
# 4 1.1419 -2.2802 -1.9254 21.0649 -1.3021 -8.9517
# 5 -11.6322 -1.6729 -8.6437 -1.3021 41.3645 -3.8091
# 6 7.5522 15.6136 -0.2794 -8.9517 -3.8091 32.8426
#
#
#
# Elastic Compliance Matrix: (Units=1/GPa)
#
#
# Indices 1 2 3 4 5 6 
#
# 1 0.016571 -0.001466 -0.002861 -0.002546 0.003608 -0.003413
# 2 -0.001466 0.015470 -0.001980 -0.001722 -0.000956 -0.007614
# 3 -0.002861 -0.001980 0.017757 0.003011 0.003192 0.002941
# 4 -0.002546 -0.001722 0.003011 0.055027 0.003122 0.016790
# 5 0.003608 -0.000956 0.003192 0.003122 0.026243 0.003546
# 6 -0.003413 -0.007614 0.002941 0.016790 0.003546 0.039866
#
#
# Mechanical properties :
#
#
# Convention : Reuss Voigt Hill
#
# Bulk Modulus (GPa) = 26.89338 29.71816 28.30577
# Shear Modulus (GPa) = 25.51769 30.44976 27.98372
#
# Velocity S-wave (km/s) = 3.48926 3.81158 3.65397
# Velocity P-wave (km/s) = 5.39116 5.79223 5.59529
#
# Compressibility (1/GPa) = 0.03718388
#
# Stress axis : x y z
#
# Youngs Moduli (GPa) = 60.34592 64.64317 56.31545
#
# Poissons Ratio (x) = 0.09475 0.16111
# Poissons Ratio (y) = 0.08846 0.11152
# Poissons Ratio (z) = 0.17264 0.12801
#
# Static dielectric constant tensor:
#      x y z
#    x 1.745740 -0.009100 -0.027760 
#    y -0.009100 1.827260 -0.030680 
#    z -0.027760 -0.030680 1.759190 
# 
# From -- ./inp_files/70449.got.cif
#   From: 2010.05.17/outbox.cif.g08.bks.cpg/sg2_36_cif.got.tgz:70449.got - 2010.06.03 11:33:40.
