data_PCOD9028062
_publ_section_title
;
Structure prediction by ZEFSAII (Michael W. Deem and Ramdas Pophale) SiO2 
 PCOD9028062
Probable space group: P -1
;
_chemical_formula_sum "Si O2"
_cell_formula_units_Z 15
_cell_length_a 17.159516
_cell_length_b 20.120721
_cell_length_c 17.653707
_cell_angle_alpha 21.624242
_cell_angle_beta 158.427310
_cell_angle_gamma 158.639081
_cell_volume 718.529327
_symmetry_space_group_name_H-M "P -1"
_symmetry_group_IT_number 2
_symmetry_cell_setting 'triclinic'
loop_
_space_group_symop_operation_xyz
x,y,z
-x,-y,-z
loop_
_atom_site_type_symbol
_atom_site_label
_atom_site_fract_x
_atom_site_fract_y
_atom_site_fract_z
Si Si1 0.027328 0.330990 0.578226
Si Si2 0.883018 0.570531 0.002640
Si Si3 0.816690 0.754355 0.592580
Si Si4 0.913513 0.233088 0.869961
Si Si5 0.500000 0.000000 0.500000
Si Si6 0.739111 0.712355 0.011258
Si Si7 0.348132 0.221935 0.876023
Si Si8 0.733786 0.553713 0.569694
O O1 0.130532 0.324145 0.761143
O O2 0.144389 0.238823 0.723266
O O3 0.735461 0.202490 0.456459
O O4 0.120128 0.570419 0.386747
O O5 0.879946 0.667198 0.816694
O O6 0.965165 0.729228 0.977903
O O7 0.612170 0.389307 0.966259
O O8 0.070150 0.484610 0.255461
O O9 0.835775 0.650954 0.641080
O O10 0.522705 0.662871 0.427255
O O11 0.000000 0.000000 0.500000
O O12 0.085507 0.229487 0.963721
O O13 0.682560 0.005071 0.904918
O O14 0.666027 0.886580 0.776566
O O15 0.500000 0.500000 0.000000
O O16 0.321238 0.289810 0.694799
#
# Coordination Sequence:
#
# PCOD9028062 Si02
#       8
#     2   2   2   2   1   2   2   2
#     4  12  26  46  66 101 136 179 238 288 345 417
#     4  11  24  44  66 100 139 180 224 278 342 405
#     4  10  22  41  71 100 135 177 224 274 331 411
#     4  12  25  44  67  99 135 180 230 283 344 413
#     4  12  26  44  74  92 136 182 224 300 344 404
#     4  12  26  44  67  98 131 178 235 284 349 414
#     4  11  25  44  66  97 142 177 225 288 340 402
#     4  10  22  44  66 100 139 174 225 278 334 404
#
# _framework density 20.875975
#
# number of rings (size 3 to 8) (size 9 to 14) (size 15 to 20)
#    0.000    0.800    4.000    2.800    0.000    1.600 
#    4.800    0.000    0.000    0.000    0.000    0.000 
#    0.000    0.000    0.000    0.000    0.000    0.000 
#
# Total GULP energy -83602.160848 kJ/mol
# GULP energy per Si atom -5573.477390 kJ/mol
# Density = 2.082846 g / cm^3
# Si number density = 20.875975 Si / 1000 Ang^3
#
#
#
# Elastic Constant Matrix: (Units=GPa)
#
#
# Indices 1 2 3 4 5 6 
#
# 1 104.9600 37.4888 42.5368 -4.1207 -65.3834 -22.7485
# 2 37.4888 207.3639 133.9448 -117.7691 -305.4138 -87.7068
# 3 42.5368 133.9448 193.7360 -113.7233 -319.9495 -97.5954
# 4 -4.1207 -117.7691 -113.7233 110.7845 260.3192 67.5824
# 5 -65.3834 -305.4138 -319.9495 260.3192 881.0090 252.9561
# 6 -22.7485 -87.7068 -97.5954 67.5824 252.9561 92.1540
#
#
#
# Elastic Compliance Matrix: (Units=1/GPa)
#
#
# Indices 1 2 3 4 5 6 
#
# 1 0.013657 -0.004448 -0.005698 -0.013809 0.002620 -0.003960
# 2 -0.004448 0.014448 0.000952 0.015338 -0.000947 0.005011
# 3 -0.005698 0.000952 0.018739 0.016114 -0.000992 0.010251
# 4 -0.013809 0.015338 0.016114 0.062583 -0.015492 0.024883
# 5 0.002620 -0.000947 -0.000992 -0.015492 0.011003 -0.020145
# 6 -0.003960 0.005011 0.010251 0.024883 -0.020145 0.062549
#
#
# Mechanical properties :
#
#
# Convention : Reuss Voigt Hill
#
# Bulk Modulus (GPa) = 35.14172 103.77786 69.45979
# Shear Modulus (GPa) = 23.71355 236.26213 129.98784
#
# Velocity S-wave (km/s) = 3.37401 10.64988 7.89949
# Velocity P-wave (km/s) = 5.66115 14.17907 10.79571
#
# Compressibility (1/GPa) = 0.02845621
#
# Stress axis : x y z
#
# Youngs Moduli (GPa) = 73.22398 69.21498 53.36521
#
# Poissons Ratio (x) = 0.30784 0.30407
# Poissons Ratio (y) = 0.32567 -0.05081
# Poissons Ratio (z) = 0.41723 -0.06590
#
# Static dielectric constant tensor:
#      x y z
#    x 1.739080 0.007100 -0.025180 
#    y 0.007100 1.735970 -0.013780 
#    z -0.025180 -0.013780 1.732200 
# 
# From -- ./inp_files/576350.got.cif
#   From: 2010.05.17/outbox.cif.g08.bks.cpg/sg2_289_cif.got.tgz:576350.got - 2010.06.03 11:33:40.
