data_PCOD9028808
_publ_section_title
;
Structure prediction by ZEFSAII (Michael W. Deem and Ramdas Pophale) SiO2 
 PCOD9028808
Probable space group: P -1
;
_chemical_formula_sum "Si O2"
_cell_formula_units_Z 14
_cell_length_a 8.556032
_cell_length_b 16.424061
_cell_length_c 7.517904
_cell_angle_alpha 136.033128
_cell_angle_beta 127.636036
_cell_angle_gamma 58.862249
_cell_volume 574.996641
_symmetry_space_group_name_H-M "P -1"
_symmetry_group_IT_number 2
_symmetry_cell_setting 'triclinic'
loop_
_space_group_symop_operation_xyz
x,y,z
-x,-y,-z
loop_
_atom_site_type_symbol
_atom_site_label
_atom_site_fract_x
_atom_site_fract_y
_atom_site_fract_z
Si Si1 0.476705 0.866087 0.725902
Si Si2 0.508282 0.152373 0.900157
Si Si3 0.811567 0.283056 0.851543
Si Si4 0.092782 0.152581 0.121563
Si Si5 0.584291 0.392297 0.169820
Si Si6 0.846644 0.954633 0.650402
Si Si7 0.188196 0.570306 0.259214
O O1 0.298443 0.832365 0.433264
O O2 0.462202 0.807363 0.815395
O O3 0.680391 0.827997 0.705497
O O4 0.500000 0.000000 0.000000
O O5 0.295146 0.104526 0.672432
O O6 0.682310 0.049212 0.792407
O O7 0.513781 0.265044 0.958311
O O8 0.860456 0.326579 0.759756
O O9 0.981683 0.245723 0.054807
O O10 0.669246 0.384650 0.018124
O O11 0.057648 0.142782 0.293088
O O12 0.018486 0.027124 0.815083
O O13 0.396044 0.491575 0.220948
O O14 0.756171 0.401194 0.452983
O O15 0.000000 0.500000 0.000000
#
# Coordination Sequence:
#
# PCOD9028808 Si02
#       7
#     2   2   2   2   2   2   2
#     4  12  25  42  65 106 148 185 228 278 338 418
#     4  11  21  43  69  95 144 187 223 286 346 407
#     4  12  26  47  74 104 142 189 231 286 358 416
#     4  11  24  40  65 101 142 184 233 275 336 418
#     4  11  25  49  73 100 140 180 232 299 354 412
#     4  10  22  42  65 103 143 186 233 276 340 422
#     4  11  28  50  74 105 132 177 243 301 356 415
#
# _framework density 24.34797
#
# number of rings (size 3 to 8) (size 9 to 14) (size 15 to 20)
#    0.000    0.857    4.286    2.143    2.000    5.143 
#    0.000    0.000    0.000    0.000    0.000    0.000 
#    0.000    0.000    0.000    0.000    0.000    0.000 
#
# Total GULP energy -78261.557375 kJ/mol
# GULP energy per Si atom -5590.111241 kJ/mol
# Density = 2.429255 g / cm^3
# Si number density = 24.347970 Si / 1000 Ang^3
#
#
#
# Elastic Constant Matrix: (Units=GPa)
#
#
# Indices 1 2 3 4 5 6 
#
# 1 50.9469 5.8737 17.2139 0.0671 1.0461 21.0073
# 2 5.8737 105.3600 10.1450 -14.9921 4.1308 14.1008
# 3 17.2139 10.1450 93.0639 -14.2780 6.6381 4.2553
# 4 0.0671 -14.9921 -14.2780 23.4370 2.0887 -0.9850
# 5 1.0461 4.1308 6.6381 2.0887 41.4273 -3.7754
# 6 21.0073 14.1008 4.2553 -0.9850 -3.7754 27.5426
#
#
#
# Elastic Compliance Matrix: (Units=1/GPa)
#
#
# Indices 1 2 3 4 5 6 
#
# 1 0.031243 0.001667 -0.005152 -0.002987 -0.002193 -0.024295
# 2 0.001667 0.011477 0.000041 0.007257 -0.002215 -0.007197
# 3 -0.005152 0.000041 0.013031 0.008256 -0.002206 0.001888
# 4 -0.002987 0.007257 0.008256 0.052710 -0.004763 -0.001480
# 5 -0.002193 -0.002215 -0.002206 -0.004763 0.025600 0.006486
# 6 -0.024295 -0.007197 0.001888 -0.001480 0.006486 0.059067
#
#
# Mechanical properties :
#
#
# Convention : Reuss Voigt Hill
#
# Bulk Modulus (GPa) = 20.46507 35.09289 27.77898
# Shear Modulus (GPa) = 23.11554 32.89059 28.00306
#
# Velocity S-wave (km/s) = 3.08455 3.67939 3.39502
# Velocity P-wave (km/s) = 4.59450 5.70043 5.17708
#
# Compressibility (1/GPa) = 0.04886375
#
# Stress axis : x y z
#
# Youngs Moduli (GPa) = 32.00668 87.13003 76.73763
#
# Poissons Ratio (x) = -0.14521 0.39534
# Poissons Ratio (y) = -0.05334 -0.00315
# Poissons Ratio (z) = 0.16489 -0.00357
#
# Static dielectric constant tensor:
#      x y z
#    x 2.039470 0.012230 -0.069480 
#    y 0.012230 1.991700 0.004500 
#    z -0.069480 0.004500 1.951410 
# 
# From -- ./inp_files/216221.got.cif
#   From: 2010.05.17/outbox.cif.g08.bks.cpg/sg2_109_cif.got.tgz:216221.got - 2010.06.03 11:33:40.
