data_PCOD9028885
_publ_section_title
;
Structure prediction by ZEFSAII (Michael W. Deem and Ramdas Pophale) SiO2 
 PCOD9028885
Probable space group: P -1
;
_chemical_formula_sum "Si O2"
_cell_formula_units_Z 16
_cell_length_a 8.139177
_cell_length_b 13.417626
_cell_length_c 14.655500
_cell_angle_alpha 141.655706
_cell_angle_beta 120.314649
_cell_angle_gamma 44.619346
_cell_volume 692.149757
_symmetry_space_group_name_H-M "P -1"
_symmetry_group_IT_number 2
_symmetry_cell_setting 'triclinic'
loop_
_space_group_symop_operation_xyz
x,y,z
-x,-y,-z
loop_
_atom_site_type_symbol
_atom_site_label
_atom_site_fract_x
_atom_site_fract_y
_atom_site_fract_z
Si Si1 0.285212 0.692608 0.264076
Si Si2 0.652733 0.196774 0.284515
Si Si3 0.256896 0.542225 0.895620
Si Si4 0.233091 0.598578 0.386630
Si Si5 0.429744 0.202176 0.839844
Si Si6 0.932538 0.011293 0.884140
Si Si7 0.122067 0.253384 0.941518
Si Si8 0.733908 0.923619 0.455250
O O1 0.557324 0.558336 0.208196
O O2 0.266458 0.621203 0.305871
O O3 0.097459 0.710863 0.153166
O O4 0.217080 0.913174 0.412224
O O5 0.397822 0.371256 0.300944
O O6 0.687818 0.283546 0.447995
O O7 0.705844 0.981972 0.158064
O O8 0.849100 0.153388 0.233913
O O9 0.414976 0.367275 0.889727
O O10 0.154441 0.772736 0.021904
O O11 0.002440 0.599499 0.901596
O O12 0.955180 0.723225 0.416946
O O13 0.696287 0.026552 0.814106
O O14 0.274136 0.298361 0.955346
O O15 0.312638 0.118710 0.689073
O O16 0.000000 0.000000 0.000000
O O17 0.500000 0.000000 0.500000
#
# Coordination Sequence:
#
# PCOD9028885 Si02
#       8
#     2   2   2   2   2   2   2   2
#     4  12  21  40  66  98 131 176 214 264 331 378
#     4  10  22  42  65  93 132 179 210 256 329 386
#     4  11  24  41  67  95 130 174 219 269 322 383
#     4  11  22  40  66  97 132 172 217 260 320 395
#     4  12  23  42  66 101 129 167 222 274 323 379
#     4  11  24  47  68  91 132 177 215 267 331 392
#     4  11  22  41  66  95 137 170 217 268 319 391
#     4  12  23  39  67 100 134 162 217 275 316 382
#
# _framework density 23.116385000000001
#
# number of rings (size 3 to 8) (size 9 to 14) (size 15 to 20)
#    0.000    0.750    3.750    6.000    0.000    0.000 
#    4.500    1.250    0.000    5.250    0.000    0.000 
#    0.000    0.000    0.000    0.000    0.000    0.000 
#
# Total GULP energy -89348.675075 kJ/mol
# GULP energy per Si atom -5584.292192 kJ/mol
# Density = 2.306377 g / cm^3
# Si number density = 23.116385 Si / 1000 Ang^3
#
#
#
# Elastic Constant Matrix: (Units=GPa)
#
#
# Indices 1 2 3 4 5 6 
#
# 1 102.5993 45.5905 15.0979 2.9150 -35.4774 -6.9320
# 2 45.5905 154.4742 52.0163 19.0758 -6.0148 -20.2512
# 3 15.0979 52.0163 87.5516 13.6054 -6.6594 -6.0157
# 4 2.9150 19.0758 13.6054 37.8055 -4.3948 -3.1401
# 5 -35.4774 -6.0148 -6.6594 -4.3948 47.2787 6.5848
# 6 -6.9320 -20.2512 -6.0157 -3.1401 6.5848 38.8765
#
#
#
# Elastic Compliance Matrix: (Units=1/GPa)
#
#
# Indices 1 2 3 4 5 6 
#
# 1 0.015673 -0.004843 0.000612 0.002250 0.011638 -0.001423
# 2 -0.004843 0.010310 -0.004801 -0.003206 -0.003876 0.004162
# 3 0.000612 -0.004801 0.014687 -0.002760 0.001750 -0.000638
# 4 0.002250 -0.003206 -0.002760 0.029313 0.003608 0.000061
# 5 0.011638 -0.003876 0.001750 0.003608 0.030609 -0.004566
# 6 -0.001423 0.004162 -0.000638 0.000061 -0.004566 0.028316
#
#
# Mechanical properties :
#
#
# Convention : Reuss Voigt Hill
#
# Bulk Modulus (GPa) = 44.23481 63.33716 53.78598
# Shear Modulus (GPa) = 32.36115 40.25352 36.30733
#
# Velocity S-wave (km/s) = 3.74561 4.17747 3.96742
# Velocity P-wave (km/s) = 6.15495 7.12229 6.65622
#
# Compressibility (1/GPa) = 0.02260663
#
# Stress axis : x y z
#
# Youngs Moduli (GPa) = 63.80495 96.99212 68.08890
#
# Poissons Ratio (x) = 0.46973 -0.04170
# Poissons Ratio (y) = 0.30901 0.32689
# Poissons Ratio (z) = -0.03908 0.46566
#
# Static dielectric constant tensor:
#      x y z
#    x 1.952330 -0.013010 -0.006410 
#    y -0.013010 1.841680 -0.029300 
#    z -0.006410 -0.029300 1.948370 
# 
# From -- ./inp_files/504497.got.cif
#   From: 2010.05.17/outbox.cif.g08.bks.cpg/sg2_253_cif.got.tgz:504497.got - 2010.06.03 11:33:40.
