data_PCOD9028245
_publ_section_title
;
Structure prediction by ZEFSAII (Michael W. Deem and Ramdas Pophale) SiO2 
 PCOD9028245
Probable space group: P -1
;
_chemical_formula_sum "Si O2"
_cell_formula_units_Z 14
_cell_length_a 9.606405
_cell_length_b 16.530617
_cell_length_c 12.821385
_cell_angle_alpha 156.300605
_cell_angle_beta 45.670979
_cell_angle_gamma 135.346385
_cell_volume 567.003703
_symmetry_space_group_name_H-M "P -1"
_symmetry_group_IT_number 2
_symmetry_cell_setting 'triclinic'
loop_
_space_group_symop_operation_xyz
x,y,z
-x,-y,-z
loop_
_atom_site_type_symbol
_atom_site_label
_atom_site_fract_x
_atom_site_fract_y
_atom_site_fract_z
Si Si1 0.958340 0.276408 0.313150
Si Si2 0.516040 0.273181 0.527273
Si Si3 0.693005 0.000051 0.527683
Si Si4 0.941901 0.063829 0.870631
Si Si5 0.589564 0.345863 0.877302
Si Si6 0.967099 0.491016 0.246774
Si Si7 0.640635 0.644033 0.513127
O O1 0.717170 0.198030 0.349477
O O2 0.000000 0.500000 0.500000
O O3 0.039732 0.335270 0.455598
O O4 0.032376 0.133362 0.020992
O O5 0.328203 0.095793 0.459280
O O6 0.479719 0.336848 0.505100
O O7 0.532162 0.486834 0.833820
O O8 0.531440 0.824102 0.340250
O O9 0.900564 0.015270 0.377267
O O10 0.630384 0.214069 0.799582
O O11 0.741435 0.882435 0.772188
O O12 0.907372 0.267300 0.069641
O O13 0.805146 0.465209 0.860101
O O14 0.824221 0.531577 0.277572
O O15 0.500000 0.500000 0.500000
#
# Coordination Sequence:
#
# PCOD9028245 Si02
#       7
#     2   2   2   2   2   2   2
#     4  10  22  41  73 103 131 182 231 278 348 404
#     4  12  25  45  71  98 142 186 225 284 344 407
#     4  11  23  42  73 108 135 176 232 287 351 400
#     4  11  24  45  72 100 142 181 228 292 342 409
#     4  11  22  42  72 106 140 170 229 292 338 410
#     4  11  22  45  70 103 138 177 230 285 345 407
#     4  12  29  47  65 101 143 188 233 279 345 413
#
# _framework density 24.691196999999999
#
# number of rings (size 3 to 8) (size 9 to 14) (size 15 to 20)
#    0.000    0.857    4.286    3.857    0.000    6.286 
#    0.000    0.000    0.000    0.000    0.000    0.000 
#    0.000    0.000    0.000    0.000    0.000    0.000 
#
# Total GULP energy -78373.354420 kJ/mol
# GULP energy per Si atom -5598.096744 kJ/mol
# Density = 2.463500 g / cm^3
# Si number density = 24.691197 Si / 1000 Ang^3
#
#
#
# Elastic Constant Matrix: (Units=GPa)
#
#
# Indices 1 2 3 4 5 6 
#
# 1 77.0810 21.8817 10.7130 9.1694 -6.1598 -12.3604
# 2 21.8817 151.2841 32.8026 22.1192 4.2118 -5.7918
# 3 10.7130 32.8026 54.2324 30.6972 -16.5403 -7.5876
# 4 9.1694 22.1192 30.6972 36.3570 -0.8895 -2.8764
# 5 -6.1598 4.2118 -16.5403 -0.8895 31.9355 6.9850
# 6 -12.3604 -5.7918 -7.5876 -2.8764 6.9850 42.6622
#
#
#
# Elastic Compliance Matrix: (Units=1/GPa)
#
#
# Indices 1 2 3 4 5 6 
#
# 1 0.014512 -0.001906 0.001805 -0.003671 0.003116 0.003509
# 2 -0.001906 0.008345 -0.006681 0.000945 -0.004961 0.000268
# 3 0.001805 -0.006681 0.054306 -0.041410 0.027779 0.001934
# 4 -0.003671 0.000945 -0.041410 0.062260 -0.020378 -0.000766
# 5 0.003116 -0.004961 0.027779 -0.020378 0.047250 -0.003940
# 6 0.003509 0.000268 0.001934 -0.000766 -0.003940 0.025431
#
#
# Mechanical properties :
#
#
# Convention : Reuss Voigt Hill
#
# Bulk Modulus (GPa) = 15.72359 45.93244 30.82802
# Shear Modulus (GPa) = 20.25380 36.67095 28.46237
#
# Velocity S-wave (km/s) = 2.86717 3.85799 3.39888
# Velocity P-wave (km/s) = 4.16447 6.20392 5.28353
#
# Compressibility (1/GPa) = 0.06359871
#
# Stress axis : x y z
#
# Youngs Moduli (GPa) = 68.90875 119.83730 18.41420
#
# Poissons Ratio (x) = 0.22842 -0.03324
# Poissons Ratio (y) = 0.13135 0.12302
# Poissons Ratio (z) = -0.12439 0.80062
#
# Static dielectric constant tensor:
#      x y z
#    x 1.994770 -0.003160 0.017360 
#    y -0.003160 2.004740 -0.023330 
#    z 0.017360 -0.023330 1.962520 
# 
# From -- ./inp_files/399909.got.cif
#   From: 2010.05.17/outbox.cif.g08.bks.cpg/sg2_200_cif.got.tgz:399909.got - 2010.06.03 11:33:40.
