data_PCOD9028935
_publ_section_title
;
Structure prediction by ZEFSAII (Michael W. Deem and Ramdas Pophale) SiO2 
 PCOD9028935
Probable space group: P -1
;
_chemical_formula_sum "Si O2"
_cell_formula_units_Z 13
_cell_length_a 14.951527
_cell_length_b 12.126592
_cell_length_c 9.663818
_cell_angle_alpha 65.389778
_cell_angle_beta 88.255154
_cell_angle_gamma 28.965061
_cell_volume 502.840321
_symmetry_space_group_name_H-M "P -1"
_symmetry_group_IT_number 2
_symmetry_cell_setting 'triclinic'
loop_
_space_group_symop_operation_xyz
x,y,z
-x,-y,-z
loop_
_atom_site_type_symbol
_atom_site_label
_atom_site_fract_x
_atom_site_fract_y
_atom_site_fract_z
Si Si1 0.026255 0.423720 0.882743
Si Si2 0.806072 0.553183 0.606039
Si Si3 0.535108 0.314018 0.063722
Si Si4 0.500000 0.500000 0.500000
Si Si5 0.324591 0.541675 0.250189
Si Si6 0.334037 0.498400 0.689612
Si Si7 0.226620 0.371888 0.724469
O O1 0.013090 0.554687 0.710969
O O2 0.807189 0.611839 0.726598
O O3 0.000000 0.500000 0.000000
O O4 0.335272 0.964156 0.108238
O O5 0.684332 0.575113 0.609952
O O6 0.690508 0.767755 0.362890
O O7 0.141698 0.120251 0.774321
O O8 0.459344 0.349498 0.193189
O O9 0.500000 0.500000 0.000000
O O10 0.333766 0.532970 0.832816
O O11 0.470898 0.457561 0.378335
O O12 0.301246 0.653493 0.509053
O O13 0.000000 0.000000 0.000000
O O14 0.156949 0.604199 0.613211
O O15 0.500000 0.000000 0.000000
#
# Coordination Sequence:
#
# PCOD9028935 Si02
#       7
#     2   2   2   1   2   2   2
#     4  10  23  43  67  98 130 179 239 291 347 416
#     4  11  23  44  69  98 140 188 230 292 362 409
#     4  11  22  42  65 100 142 185 225 285 352 435
#     4  12  22  42  70 104 140 176 238 284 346 440
#     4  12  24  43  69 102 145 183 230 287 356 428
#     4  10  22  42  65  95 139 176 227 290 345 423
#     4  10  22  44  66  92 137 182 235 288 350 416
#
# _framework density 25.85314
#
# number of rings (size 3 to 8) (size 9 to 14) (size 15 to 20)
#    0.000    1.231    4.615    1.385    2.154    1.231 
#    2.769    5.385    0.000    0.000    0.000    0.000 
#    0.000    0.000    0.000    0.000    0.000    0.000 
#
# Total GULP energy -72579.995750 kJ/mol
# GULP energy per Si atom -5583.076596 kJ/mol
# Density = 2.579430 g / cm^3
# Si number density = 25.853140 Si / 1000 Ang^3
#
#
#
# Elastic Constant Matrix: (Units=GPa)
#
#
# Indices 1 2 3 4 5 6 
#
# 1 125.0310 25.7949 4.5118 18.6125 15.2682 2.9450
# 2 25.7949 140.8253 48.2089 42.8809 2.7976 7.8750
# 3 4.5118 48.2089 71.4239 28.1824 -0.6310 4.0058
# 4 18.6125 42.8809 28.1824 61.7820 3.3574 4.8480
# 5 15.2682 2.7976 -0.6310 3.3574 34.9499 22.7539
# 6 2.9450 7.8750 4.0058 4.8480 22.7539 42.3307
#
#
#
# Elastic Compliance Matrix: (Units=1/GPa)
#
#
# Indices 1 2 3 4 5 6 
#
# 1 0.009174 -0.001417 0.001034 -0.002169 -0.005417 0.002688
# 2 -0.001417 0.010557 -0.005179 -0.004483 0.001034 -0.001418
# 3 0.001034 -0.005179 0.019776 -0.005733 0.001663 -0.001217
# 4 -0.002169 -0.004483 -0.005733 0.022655 -0.000429 -0.000837
# 5 -0.005417 0.001034 0.001663 -0.000429 0.047562 -0.025490
# 6 0.002688 -0.001418 -0.001217 -0.000837 -0.025490 0.037613
#
#
# Mechanical properties :
#
#
# Convention : Reuss Voigt Hill
#
# Bulk Modulus (GPa) = 35.23068 54.92350 45.07709
# Shear Modulus (GPa) = 29.77571 45.06350 37.41961
#
# Velocity S-wave (km/s) = 3.39739 4.17952 3.80859
# Velocity P-wave (km/s) = 5.38948 6.67696 6.06746
#
# Compressibility (1/GPa) = 0.02838435
#
# Stress axis : x y z
#
# Youngs Moduli (GPa) = 109.00349 94.72237 50.56596
#
# Poissons Ratio (x) = 0.13419 -0.05227
# Poissons Ratio (y) = 0.15442 0.26186
# Poissons Ratio (z) = -0.11268 0.49053
#
# Static dielectric constant tensor:
#      x y z
#    x 2.048330 0.003490 -0.057930 
#    y 0.003490 2.102440 -0.050820 
#    z -0.057930 -0.050820 2.096910 
# 
# From -- ./inp_files/214180.got.cif
#   From: 2010.05.17/outbox.cif.g08.bks.cpg/sg2_108_cif.got.tgz:214180.got - 2010.06.03 11:33:40.
