data_PCOD9028593
_publ_section_title
;
Structure prediction by ZEFSAII (Michael W. Deem and Ramdas Pophale) SiO2 
 PCOD9028593
Probable space group: P -1
;
_chemical_formula_sum "Si O2"
_cell_formula_units_Z 14
_cell_length_a 10.231149
_cell_length_b 7.731804
_cell_length_c 14.657934
_cell_angle_alpha 134.020977
_cell_angle_beta 42.200887
_cell_angle_gamma 108.972722
_cell_volume 515.097658
_symmetry_space_group_name_H-M "P -1"
_symmetry_group_IT_number 2
_symmetry_cell_setting 'triclinic'
loop_
_space_group_symop_operation_xyz
x,y,z
-x,-y,-z
loop_
_atom_site_type_symbol
_atom_site_label
_atom_site_fract_x
_atom_site_fract_y
_atom_site_fract_z
Si Si1 0.067556 0.222174 0.144919
Si Si2 0.167073 0.890293 0.525101
Si Si3 0.739607 0.945034 0.198624
Si Si4 0.848922 0.351164 0.969059
Si Si5 0.755811 0.922819 0.797589
Si Si6 0.514741 0.614890 0.724009
Si Si7 0.699585 0.743565 0.496090
O O1 0.926180 0.507428 0.282661
O O2 0.152858 0.201053 0.195871
O O3 0.905032 0.077508 0.175567
O O4 0.255329 0.097655 0.929629
O O5 0.244430 0.999487 0.437587
O O6 0.348721 0.654130 0.393923
O O7 0.966961 0.813074 0.585031
O O8 0.071777 0.136187 0.736994
O O9 0.819233 0.647977 0.083869
O O10 0.504996 0.136143 0.421073
O O11 0.729798 0.342691 0.123022
O O12 0.706070 0.234140 0.938456
O O13 0.579038 0.832955 0.820871
O O14 0.602295 0.627699 0.583937
#
# Coordination Sequence:
#
# PCOD9028593 Si02
#       7
#     2   2   2   2   2   2   2
#     4  11  23  44  67  95 135 176 216 280 318 392
#     4  10  23  41  66  99 134 171 220 264 332 388
#     4  11  24  42  67  98 134 172 224 267 336 381
#     4  10  22  42  63  97 135 166 222 269 317 399
#     4  10  23  44  65  95 136 176 216 268 330 388
#     4  12  23  44  69  98 136 171 218 270 331 388
#     4  12  23  43  70  99 133 172 217 274 327 393
#
# _framework density 27.179310999999998
#
# number of rings (size 3 to 8) (size 9 to 14) (size 15 to 20)
#    0.857    0.286    4.286    2.143    0.000    1.143 
#    2.571    5.714    0.000    0.000    0.000    0.000 
#    0.000    0.000    0.000    0.000    0.000    0.000 
#
# Total GULP energy -78147.094214 kJ/mol
# GULP energy per Si atom -5581.935301 kJ/mol
# Density = 2.711745 g / cm^3
# Si number density = 27.179311 Si / 1000 Ang^3
#
#
#
# Elastic Constant Matrix: (Units=GPa)
#
#
# Indices 1 2 3 4 5 6 
#
# 1 82.9971 16.4182 28.2130 16.0528 -16.7161 -1.5361
# 2 16.4182 139.4030 31.1352 21.3339 -9.3679 -15.4935
# 3 28.2130 31.1352 116.1719 18.2283 -34.4093 -4.5085
# 4 16.0528 21.3339 18.2283 60.2025 -2.8434 -3.2588
# 5 -16.7161 -9.3679 -34.4093 -2.8434 49.6366 2.1465
# 6 -1.5361 -15.4935 -4.5085 -3.2588 2.1465 39.1806
#
#
#
# Elastic Compliance Matrix: (Units=1/GPa)
#
#
# Indices 1 2 3 4 5 6 
#
# 1 0.013978 -0.000623 -0.001866 -0.002810 0.003149 -0.000319
# 2 -0.000623 0.008251 -0.001624 -0.002111 -0.000024 0.002877
# 3 -0.001866 -0.001624 0.011994 -0.002211 0.007249 0.000084
# 4 -0.002810 -0.002111 -0.002211 0.018716 -0.001825 0.000457
# 5 0.003149 -0.000024 0.007249 -0.001825 0.026150 -0.000636
# 6 -0.000319 0.002877 0.000084 0.000457 -0.000636 0.026731
#
#
# Mechanical properties :
#
#
# Convention : Reuss Voigt Hill
#
# Bulk Modulus (GPa) = 38.46894 54.45608 46.46251
# Shear Modulus (GPa) = 40.74559 47.32432 44.03496
#
# Velocity S-wave (km/s) = 3.87607 4.17728 4.02949
# Velocity P-wave (km/s) = 5.84948 6.58374 6.22744
#
# Compressibility (1/GPa) = 0.02599500
#
# Stress axis : x y z
#
# Youngs Moduli (GPa) = 71.54058 121.19954 83.37608
#
# Poissons Ratio (x) = 0.07554 0.15562
# Poissons Ratio (y) = 0.04459 0.13541
# Poissons Ratio (z) = 0.13353 0.19684
#
# Static dielectric constant tensor:
#      x y z
#    x 2.190430 -0.055880 0.033800 
#    y -0.055880 2.088590 -0.011760 
#    z 0.033800 -0.011760 2.327640 
# 
# From -- ./inp_files/565046.got.cif
#   From: 2010.05.17/outbox.cif.g08.bks.cpg/sg2_283_cif.got.tgz:565046.got - 2010.06.03 11:33:40.
