data_PCOD9028804
_publ_section_title
;
Structure prediction by ZEFSAII (Michael W. Deem and Ramdas Pophale) SiO2 
 PCOD9028804
Probable space group: P -1
;
_chemical_formula_sum "Si O2"
_cell_formula_units_Z 14
_cell_length_a 11.289983
_cell_length_b 11.635760
_cell_length_c 5.544034
_cell_angle_alpha 106.259012
_cell_angle_beta 64.752851
_cell_angle_gamma 115.388342
_cell_volume 590.899248
_symmetry_space_group_name_H-M "P -1"
_symmetry_group_IT_number 2
_symmetry_cell_setting 'triclinic'
loop_
_space_group_symop_operation_xyz
x,y,z
-x,-y,-z
loop_
_atom_site_type_symbol
_atom_site_label
_atom_site_fract_x
_atom_site_fract_y
_atom_site_fract_z
Si Si1 0.134433 0.803743 0.501044
Si Si2 0.627381 0.520372 0.098258
Si Si3 0.937369 0.928649 0.766547
Si Si4 0.317154 0.034235 0.174638
Si Si5 0.383802 0.872649 0.641427
Si Si6 0.530713 0.705911 0.532829
Si Si7 0.909952 0.460698 0.803406
O O1 0.220406 0.809621 0.671796
O O2 0.144876 0.693666 0.255396
O O3 0.976710 0.801197 0.658091
O O4 0.222419 0.945423 0.411796
O O5 0.643127 0.658140 0.279468
O O6 0.562045 0.410687 0.291184
O O7 0.500000 0.500000 0.000000
O O8 0.778690 0.509461 0.914001
O O9 0.779292 0.923082 0.900721
O O10 0.000000 0.000000 0.500000
O O11 0.000000 0.000000 0.000000
O O12 0.409803 0.167625 0.285110
O O13 0.376309 0.935224 0.941557
O O14 0.436312 0.755522 0.468361
O O15 0.500000 0.000000 0.500000
O O16 0.000000 0.500000 0.500000
O O17 0.000000 0.500000 0.000000
#
# Coordination Sequence:
#
# PCOD9028804 Si02
#       7
#     2   2   2   2   2   2   2
#     4  11  25  46  72 103 150 194 248 312 386 456
#     4  11  28  52  79 106 156 210 266 328 385 473
#     4  10  22  42  65 102 144 190 232 294 370 454
#     4  11  24  42  71 109 149 186 248 313 389 461
#     4  12  24  41  71 112 150 191 239 317 392 461
#     4  11  26  44  77 112 150 193 262 315 399 459
#     4  12  32  53  79 112 155 214 272 323 392 470
#
# _framework density 23.692703000000002
#
# number of rings (size 3 to 8) (size 9 to 14) (size 15 to 20)
#    0.000    0.857    2.857    2.143   14.000    0.000 
#    2.571    0.000    0.000    0.000    0.000    0.000 
#    0.000    0.000    0.000    0.000    0.000    0.000 
#
# Total GULP energy -77998.348736 kJ/mol
# GULP energy per Si atom -5571.310624 kJ/mol
# Density = 2.363878 g / cm^3
# Si number density = 23.692703 Si / 1000 Ang^3
#
#
#
# Elastic Constant Matrix: (Units=GPa)
#
#
# Indices 1 2 3 4 5 6 
#
# 1 150.7737 35.8417 58.4024 37.4329 -23.4791 -17.5303
# 2 35.8417 107.9976 36.1500 26.7332 -15.5572 -20.7579
# 3 58.4024 36.1500 117.5769 24.6214 -17.6903 -9.0644
# 4 37.4329 26.7332 24.6214 53.8357 -9.3176 -3.0177
# 5 -23.4791 -15.5572 -17.6903 -9.3176 46.1968 20.9009
# 6 -17.5303 -20.7579 -9.0644 -3.0177 20.9009 37.9492
#
#
#
# Elastic Compliance Matrix: (Units=1/GPa)
#
#
# Indices 1 2 3 4 5 6 
#
# 1 0.009650 -0.000274 -0.003322 -0.004655 0.001570 0.002279
# 2 -0.000274 0.012348 -0.002304 -0.004640 -0.000508 0.005988
# 3 -0.003322 -0.002304 0.011396 -0.001448 0.002254 -0.001429
# 4 -0.004655 -0.004640 -0.001448 0.024973 0.002575 -0.004466
# 5 0.001570 -0.000508 0.002254 0.002575 0.030789 -0.015767
# 6 0.002279 0.005988 -0.001429 -0.004466 -0.015767 0.038667
#
#
# Mechanical properties :
#
#
# Convention : Reuss Voigt Hill
#
# Bulk Modulus (GPa) = 46.31027 70.79293 58.55160
# Shear Modulus (GPa) = 34.05541 43.99327 39.02434
#
# Velocity S-wave (km/s) = 3.79539 4.31377 4.06286
# Velocity P-wave (km/s) = 6.22859 7.39973 6.83927
#
# Compressibility (1/GPa) = 0.02159348
#
# Stress axis : x y z
#
# Youngs Moduli (GPa) = 103.63187 80.98639 87.75250
#
# Poissons Ratio (x) = 0.02219 0.29154
# Poissons Ratio (y) = 0.02839 0.20214
# Poissons Ratio (z) = 0.34429 0.18656
#
# Static dielectric constant tensor:
#      x y z
#    x 2.128210 0.015030 0.020760 
#    y 0.015030 1.895220 0.003940 
#    z 0.020760 0.003940 1.571140 
# 
# From -- ./inp_files/71619.got.cif
#   From: 2010.05.17/outbox.cif.g08.bks.cpg/sg2_36_cif.got.tgz:71619.got - 2010.06.03 11:33:40.
