data_PCOD9028293
_publ_section_title
;
Structure prediction by ZEFSAII (Michael W. Deem and Ramdas Pophale) SiO2 
 PCOD9028293
Probable space group: P -1
;
_chemical_formula_sum "Si O2"
_cell_formula_units_Z 14
_cell_length_a 9.214844
_cell_length_b 8.130054
_cell_length_c 7.620014
_cell_angle_alpha 80.473800
_cell_angle_beta 85.078636
_cell_angle_gamma 67.948262
_cell_volume 521.636962
_symmetry_space_group_name_H-M "P -1"
_symmetry_group_IT_number 2
_symmetry_cell_setting 'triclinic'
loop_
_space_group_symop_operation_xyz
x,y,z
-x,-y,-z
loop_
_atom_site_type_symbol
_atom_site_label
_atom_site_fract_x
_atom_site_fract_y
_atom_site_fract_z
Si Si1 0.409381 0.867652 0.986008
Si Si2 0.801072 0.671702 0.631894
Si Si3 0.106786 0.081569 0.150249
Si Si4 0.507580 0.190113 0.523690
Si Si5 0.660838 0.582053 0.162449
Si Si6 0.774179 0.163371 0.301570
Si Si7 0.937080 0.691936 0.228028
O O1 0.542058 0.671617 0.003420
O O2 0.257979 0.907970 0.118238
O O3 0.320366 0.920478 0.801696
O O4 0.500000 0.000000 0.000000
O O5 0.825785 0.797373 0.757970
O O6 0.625177 0.683990 0.615919
O O7 0.859819 0.730762 0.428184
O O8 0.904381 0.470464 0.712207
O O9 0.958758 0.072819 0.274674
O O10 0.041797 0.176651 0.949777
O O11 0.442343 0.290379 0.693799
O O12 0.687253 0.169258 0.490763
O O13 0.500000 0.000000 0.500000
O O14 0.717682 0.371310 0.216433
O O15 0.820003 0.618971 0.148095
#
# Coordination Sequence:
#
# PCOD9028293 Si02
#       7
#     2   2   2   2   2   2   2
#     4  12  25  46  72 105 143 198 244 291 378 441
#     4  10  22  42  72 103 139 194 242 288 367 440
#     4  12  24  45  73 110 150 189 246 307 362 430
#     4  11  25  47  74 103 144 197 245 302 373 443
#     4  11  23  46  72 106 144 192 249 302 360 437
#     4  12  27  44  71 107 147 186 249 311 365 435
#     4  10  22  41  74 107 144 191 241 299 361 443
#
# _framework density 26.83859
#
# number of rings (size 3 to 8) (size 9 to 14) (size 15 to 20)
#    0.000    0.857    2.857    4.286    2.000    1.143 
#    2.571    1.429    0.000    0.000    0.000    0.000 
#    0.000    0.000    0.000    0.000    0.000    0.000 
#
# Total GULP energy -78287.415948 kJ/mol
# GULP energy per Si atom -5591.958282 kJ/mol
# Density = 2.677750 g / cm^3
# Si number density = 26.838590 Si / 1000 Ang^3
#
#
#
# Elastic Constant Matrix: (Units=GPa)
#
#
# Indices 1 2 3 4 5 6 
#
# 1 133.0570 19.3564 26.6902 -12.1988 -19.7411 -29.0908
# 2 19.3564 79.2814 7.6398 -11.9969 -4.2925 -29.3783
# 3 26.6902 7.6398 138.1963 -7.2932 1.5836 -14.3669
# 4 -12.1988 -11.9969 -7.2932 31.8084 -3.3540 12.0053
# 5 -19.7411 -4.2925 1.5836 -3.3540 45.4994 4.3138
# 6 -29.0908 -29.3783 -14.3669 12.0053 4.3138 54.0808
#
#
#
# Elastic Compliance Matrix: (Units=1/GPa)
#
#
# Indices 1 2 3 4 5 6 
#
# 1 0.009431 -0.000221 -0.001343 0.002207 0.003921 0.003793
# 2 -0.000221 0.016104 0.000128 0.003133 0.000901 0.007896
# 3 -0.001343 0.000128 0.007671 0.000705 -0.000909 0.001301
# 4 0.002207 0.003133 0.000705 0.036085 0.004390 -0.005284
# 5 0.003921 0.000901 -0.000909 0.004390 0.024171 -0.000545
# 6 0.003793 0.007896 0.001301 -0.005284 -0.000545 0.026383
#
#
# Mechanical properties :
#
#
# Convention : Reuss Voigt Hill
#
# Bulk Modulus (GPa) = 32.96701 50.87861 41.92281
# Shear Modulus (GPa) = 37.64270 46.06762 41.85516
#
# Velocity S-wave (km/s) = 3.74914 4.14752 3.95335
# Velocity P-wave (km/s) = 5.57239 6.47567 6.04094
#
# Compressibility (1/GPa) = 0.03033336
#
# Stress axis : x y z
#
# Youngs Moduli (GPa) = 106.03836 62.09773 130.35593
#
# Poissons Ratio (x) = 0.01373 0.17510
# Poissons Ratio (y) = 0.02345 -0.01673
# Poissons Ratio (z) = 0.14243 -0.00797
#
# Static dielectric constant tensor:
#      x y z
#    x 2.050460 0.026260 -0.041730 
#    y 0.026260 2.153370 -0.023390 
#    z -0.041730 -0.023390 2.293110 
# 
# From -- ./inp_files/158016.got.cif
#   From: 2010.05.17/outbox.cif.g08.bks.cpg/sg2_80_cif.got.tgz:158016.got - 2010.06.03 11:33:40.
