data_PCOD9028074
_publ_section_title
;
Structure prediction by ZEFSAII (Michael W. Deem and Ramdas Pophale) SiO2 
 PCOD9028074
Probable space group: P -1
;
_chemical_formula_sum "Si O2"
_cell_formula_units_Z 16
_cell_length_a 14.589246
_cell_length_b 11.094708
_cell_length_c 16.277395
_cell_angle_alpha 31.099682
_cell_angle_beta 148.143360
_cell_angle_gamma 151.195898
_cell_volume 601.541660
_symmetry_space_group_name_H-M "P -1"
_symmetry_group_IT_number 2
_symmetry_cell_setting 'triclinic'
loop_
_space_group_symop_operation_xyz
x,y,z
-x,-y,-z
loop_
_atom_site_type_symbol
_atom_site_label
_atom_site_fract_x
_atom_site_fract_y
_atom_site_fract_z
Si Si1 0.721068 0.477311 0.470532
Si Si2 0.224537 0.447894 0.134400
Si Si3 0.708670 0.747464 0.466320
Si Si4 0.496420 0.506822 0.151449
Si Si5 0.399752 0.873684 0.757561
Si Si6 0.188546 0.615200 0.179375
Si Si7 0.139419 0.903910 0.206066
Si Si8 0.741554 0.035884 0.557809
O O1 0.707445 0.668806 0.416613
O O2 0.716379 0.587343 0.311060
O O3 0.497778 0.182445 0.470472
O O4 0.874753 0.377050 0.667902
O O5 0.379342 0.537458 0.123724
O O6 0.270487 0.655323 0.123789
O O7 0.208135 0.178381 0.318169
O O8 0.004347 0.358258 0.983250
O O9 0.500000 0.500000 0.500000
O O10 0.877423 0.692040 0.663537
O O11 0.716269 0.025118 0.329922
O O12 0.365044 0.191063 0.203454
O O13 0.463903 0.675940 0.959120
O O14 0.627160 0.158945 0.755073
O O15 0.270771 0.783117 0.628207
O O16 0.122152 0.857165 0.319241
O O17 0.000000 0.000000 0.000000
#
# Coordination Sequence:
#
# PCOD9028074 Si02
#       8
#     2   2   2   2   2   2   2   2
#     4  10  19  37  62  86 113 161 208 238 286 369
#     4   9  19  34  55  87 119 164 203 239 283 368
#     4  10  17  31  60  89 117 155 198 232 291 369
#     4  10  22  38  59  90 124 150 205 255 302 344
#     4  11  20  36  60  95 121 160 190 258 303 349
#     4  10  18  32  59  85 122 162 207 229 297 363
#     4  10  23  41  63  85 113 162 208 250 297 362
#     4  10  18  35  60  83 116 153 203 241 289 369
#
# _framework density 26.598324999999999
#
# number of rings (size 3 to 8) (size 9 to 14) (size 15 to 20)
#    0.000    2.250    3.750    3.750    3.500    2.000 
#    0.000    5.000    0.000    0.000    0.000    0.875 
#    0.000    0.000    0.000    0.000    0.000    0.000 
#
# Total GULP energy -89292.298485 kJ/mol
# GULP energy per Si atom -5580.768655 kJ/mol
# Density = 2.653779 g / cm^3
# Si number density = 26.598325 Si / 1000 Ang^3
#
#
#
# Elastic Constant Matrix: (Units=GPa)
#
#
# Indices 1 2 3 4 5 6 
#
# 1 65.2879 30.5463 34.8561 3.7789 -1.8134 -22.4365
# 2 30.5463 77.2582 31.7298 2.4893 -9.1721 -14.4866
# 3 34.8561 31.7298 242.1551 14.9331 -9.2902 -16.7735
# 4 3.7789 2.4893 14.9331 34.3951 -10.5797 -4.2661
# 5 -1.8134 -9.1721 -9.2902 -10.5797 37.3539 5.5026
# 6 -22.4365 -14.4866 -16.7735 -4.2661 5.5026 30.5432
#
#
#
# Elastic Compliance Matrix: (Units=1/GPa)
#
#
# Indices 1 2 3 4 5 6 
#
# 1 0.024091 -0.006520 -0.001715 -0.000637 -0.003121 0.014136
# 2 -0.006520 0.016733 -0.001052 0.001330 0.003597 0.002107
# 3 -0.001715 -0.001052 0.004661 -0.001606 0.000285 0.000525
# 4 -0.000637 0.001330 -0.001606 0.032744 0.008837 0.002262
# 5 -0.003121 0.003597 0.000285 0.008837 0.030775 -0.004740
# 6 0.014136 0.002107 0.000525 0.002262 -0.004740 0.045582
#
#
# Mechanical properties :
#
#
# Convention : Reuss Voigt Hill
#
# Bulk Modulus (GPa) = 37.16016 64.32950 50.74483
# Shear Modulus (GPa) = 27.45314 39.62971 33.54143
#
# Velocity S-wave (km/s) = 3.21618 3.86415 3.55496
# Velocity P-wave (km/s) = 5.27190 6.64432 5.99749
#
# Compressibility (1/GPa) = 0.02691054
#
# Stress axis : x y z
#
# Youngs Moduli (GPa) = 41.50962 59.76271 214.56418
#
# Poissons Ratio (x) = 0.38966 0.36789
# Poissons Ratio (y) = 0.27065 0.22574
# Poissons Ratio (z) = 0.07117 0.06288
#
# Static dielectric constant tensor:
#      x y z
#    x 2.220630 0.014710 -0.022610 
#    y 0.014710 2.133640 0.002970 
#    z -0.022610 0.002970 2.212860 
# 
# From -- ./inp_files/575828.got.cif
#   From: 2010.05.17/outbox.cif.g08.bks.cpg/sg2_288_cif.got.tgz:575828.got - 2010.06.03 11:33:40.
