data_PCOD9028041
_publ_section_title
;
Structure prediction by ZEFSAII (Michael W. Deem and Ramdas Pophale) SiO2 
 PCOD9028041
Probable space group: P -1
;
_chemical_formula_sum "Si O2"
_cell_formula_units_Z 14
_cell_length_a 10.434815
_cell_length_b 6.972834
_cell_length_c 8.610022
_cell_angle_alpha 75.696829
_cell_angle_beta 86.763682
_cell_angle_gamma 82.459899
_cell_volume 601.610615
_symmetry_space_group_name_H-M "P -1"
_symmetry_group_IT_number 2
_symmetry_cell_setting 'triclinic'
loop_
_space_group_symop_operation_xyz
x,y,z
-x,-y,-z
loop_
_atom_site_type_symbol
_atom_site_label
_atom_site_fract_x
_atom_site_fract_y
_atom_site_fract_z
Si Si1 0.238141 0.934964 0.244496
Si Si2 0.870521 0.915453 0.072615
Si Si3 0.662341 0.193205 0.224170
Si Si4 0.376096 0.462617 0.618558
Si Si5 0.985500 0.719503 0.383280
Si Si6 0.724366 0.861085 0.494744
Si Si7 0.474551 0.772813 0.075075
O O1 0.301036 0.051913 0.352144
O O2 0.117492 0.820125 0.329339
O O3 0.343968 0.778528 0.184778
O O4 0.197987 0.103354 0.082300
O O5 0.783790 0.090410 0.137825
O O6 0.912521 0.728968 0.217764
O O7 0.000000 0.000000 0.000000
O O8 0.690231 0.338312 0.333266
O O9 0.629649 0.000239 0.359030
O O10 0.558703 0.290876 0.086279
O O11 0.500000 0.500000 0.500000
O O12 0.294576 0.357177 0.519313
O O13 0.416990 0.331856 0.796624
O O14 0.000000 0.500000 0.500000
O O15 0.878805 0.862960 0.459607
O O16 0.500000 0.000000 0.000000
#
# Coordination Sequence:
#
# PCOD9028041 Si02
#       7
#     2   2   2   2   2   2   2
#     4  10  22  42  70  94 137 180 219 279 342 401
#     4   8  18  42  69  94 132 175 216 277 342 396
#     4  10  22  43  69  94 134 179 222 281 335 397
#     4  12  27  42  68 101 137 180 235 275 332 411
#     4  10  22  41  70  99 132 169 228 280 339 404
#     4  11  24  43  68  98 139 177 221 282 348 395
#     4  11  23  44  69  96 137 183 226 277 341 396
#
# _framework density 23.270865000000001
#
# number of rings (size 3 to 8) (size 9 to 14) (size 15 to 20)
#    0.000    1.714    1.429    1.714    6.000    1.143 
#    0.000    0.714    0.000    0.000    0.000    0.000 
#    0.000    0.000    0.000    0.000    0.000    0.000 
#
# Total GULP energy -78040.970350 kJ/mol
# GULP energy per Si atom -5574.355025 kJ/mol
# Density = 2.321790 g / cm^3
# Si number density = 23.270865 Si / 1000 Ang^3
#
#
#
# Elastic Constant Matrix: (Units=GPa)
#
#
# Indices 1 2 3 4 5 6 
#
# 1 75.8536 13.1642 24.8558 -0.3066 -3.6806 8.8087
# 2 13.1642 83.2008 54.7744 9.2084 12.4366 10.6421
# 3 24.8558 54.7744 146.0598 5.6895 16.9123 -4.5674
# 4 -0.3066 9.2084 5.6895 54.2724 0.2246 15.8139
# 5 -3.6806 12.4366 16.9123 0.2246 38.5308 -9.8985
# 6 8.8087 10.6421 -4.5674 15.8139 -9.8985 23.1168
#
#
#
# Elastic Compliance Matrix: (Units=1/GPa)
#
#
# Indices 1 2 3 4 5 6 
#
# 1 0.015138 0.000307 -0.003123 0.002727 0.000613 -0.008130
# 2 0.000307 0.019266 -0.007004 0.001712 -0.006842 -0.014471
# 3 -0.003123 -0.007004 0.010400 -0.002154 -0.000617 0.007679
# 4 0.002727 0.001712 -0.002154 0.024564 -0.004928 -0.021167
# 5 0.000613 -0.006842 -0.000617 -0.004928 0.033825 0.020649
# 6 -0.008130 -0.014471 0.007679 -0.021167 0.020649 0.077858
#
#
# Mechanical properties :
#
#
# Convention : Reuss Voigt Hill
#
# Bulk Modulus (GPa) = 39.73861 54.52254 47.13058
# Shear Modulus (GPa) = 23.91441 37.33865 30.62653
#
# Velocity S-wave (km/s) = 3.20918 4.01000 3.63173
# Velocity P-wave (km/s) = 5.55387 6.70227 6.15491
#
# Compressibility (1/GPa) = 0.02516444
#
# Stress axis : x y z
#
# Youngs Moduli (GPa) = 66.05827 51.90496 96.15297
#
# Poissons Ratio (x) = -0.01594 0.30026
# Poissons Ratio (y) = -0.02028 0.67347
# Poissons Ratio (z) = 0.20628 0.36355
#
# Static dielectric constant tensor:
#      x y z
#    x 1.651510 0.115990 0.002230 
#    y 0.115990 1.839260 -0.018630 
#    z 0.002230 -0.018630 1.948840 
# 
# From -- ./inp_files/229595.got.cif
#   From: 2010.05.17/outbox.cif.g08.bks.cpg/sg2_115_cif.got.tgz:229595.got - 2010.06.03 11:33:40.
