data_PCOD9028549
_publ_section_title
;
Structure prediction by ZEFSAII (Michael W. Deem and Ramdas Pophale) SiO2 
 PCOD9028549
Probable space group: P -1
;
_chemical_formula_sum "Si O2"
_cell_formula_units_Z 16
_cell_length_a 16.917177
_cell_length_b 21.915488
_cell_length_c 11.167492
_cell_angle_alpha 39.829560
_cell_angle_beta 131.149392
_cell_angle_gamma 162.244045
_cell_volume 749.552813
_symmetry_space_group_name_H-M "P -1"
_symmetry_group_IT_number 2
_symmetry_cell_setting 'triclinic'
loop_
_space_group_symop_operation_xyz
x,y,z
-x,-y,-z
loop_
_atom_site_type_symbol
_atom_site_label
_atom_site_fract_x
_atom_site_fract_y
_atom_site_fract_z
Si Si1 0.019406 0.124417 0.792345
Si Si2 0.834471 0.654133 0.835537
Si Si3 0.544387 0.553634 0.824479
Si Si4 0.696247 0.907357 0.169753
Si Si5 0.721694 0.036002 0.757371
Si Si6 0.090252 0.471374 0.289605
Si Si7 0.081134 0.480374 0.990351
Si Si8 0.920712 0.890269 0.392421
O O1 0.301621 0.393430 0.741309
O O2 0.024146 0.117363 0.665390
O O3 0.777399 0.989513 0.801919
O O4 0.000000 0.000000 0.000000
O O5 0.593558 0.484436 0.940524
O O6 0.777107 0.687615 0.630699
O O7 0.109563 0.909077 0.800935
O O8 0.877835 0.587876 0.924440
O O9 0.500000 0.500000 0.000000
O O10 0.813417 0.849462 0.656237
O O11 0.383404 0.665445 0.266047
O O12 0.744303 0.839061 0.276917
O O13 0.790706 0.056747 0.929669
O O14 0.905598 0.267897 0.517113
O O15 0.395629 0.788241 0.822394
O O16 0.116899 0.607238 0.135237
O O17 0.980581 0.379792 0.179168
#
# Coordination Sequence:
#
# PCOD9028549 Si02
#       8
#     2   2   2   2   2   2   2   2
#     4  12  21  36  61  94 129 170 216 257 323 398
#     4  11  24  42  61  90 133 170 209 271 326 385
#     4  11  22  37  61  89 134 171 205 261 322 390
#     4  10  22  42  63  92 134 165 213 269 325 387
#     4  11  22  40  65  96 126 170 216 269 329 389
#     4  10  23  42  70  92 121 174 219 269 330 382
#     4  10  23  45  64  94 129 163 222 279 316 382
#     4  11  24  41  60  97 135 174 211 267 330 394
#
# _framework density 21.346062
#
# number of rings (size 3 to 8) (size 9 to 14) (size 15 to 20)
#    0.000    1.250    2.500    4.125    5.250    1.000 
#    0.000    0.625    0.000    0.000    0.000    0.000 
#    0.000    0.000    0.000    0.000    0.000    0.000 
#
# Total GULP energy -89118.358414 kJ/mol
# GULP energy per Si atom -5569.897401 kJ/mol
# Density = 2.129748 g / cm^3
# Si number density = 21.346062 Si / 1000 Ang^3
#
#
#
# Elastic Constant Matrix: (Units=GPa)
#
#
# Indices 1 2 3 4 5 6 
#
# 1 112.3642 23.9757 36.8185 -1.5325 -2.5020 15.6418
# 2 23.9757 65.6166 11.4501 0.5881 -5.5534 1.6744
# 3 36.8185 11.4501 130.2827 5.2148 -15.1120 4.0166
# 4 -1.5325 0.5881 5.2148 19.1304 4.6547 1.6864
# 5 -2.5020 -5.5534 -15.1120 4.6547 38.8656 3.5712
# 6 15.6418 1.6744 4.0166 1.6864 3.5712 27.2136
#
#
#
# Elastic Compliance Matrix: (Units=1/GPa)
#
#
# Indices 1 2 3 4 5 6 
#
# 1 0.011484 -0.003612 -0.002920 0.002518 -0.000661 -0.006017
# 2 -0.003612 0.016764 -0.000172 -0.001365 0.002180 0.000868
# 3 -0.002920 -0.000172 0.009094 -0.003627 0.003750 0.000079
# 4 0.002518 -0.001365 -0.003627 0.055693 -0.007814 -0.003254
# 5 -0.000661 0.002180 0.003750 -0.007814 0.028723 -0.003593
# 6 -0.006017 0.000868 0.000079 -0.003254 -0.003593 0.040813
#
#
# Mechanical properties :
#
#
# Convention : Reuss Voigt Hill
#
# Bulk Modulus (GPa) = 41.78006 50.30579 46.04292
# Shear Modulus (GPa) = 27.18024 32.77654 29.97839
#
# Velocity S-wave (km/s) = 3.57222 3.92278 3.75160
# Velocity P-wave (km/s) = 6.05224 6.64346 6.35473
#
# Compressibility (1/GPa) = 0.02393486
#
# Stress axis : x y z
#
# Youngs Moduli (GPa) = 87.07502 59.65068 109.96611
#
# Poissons Ratio (x) = 0.21544 0.32111
# Poissons Ratio (y) = 0.31449 0.01891
# Poissons Ratio (z) = 0.25426 0.01026
#
# Static dielectric constant tensor:
#      x y z
#    x 1.918560 0.037580 -0.013650 
#    y 0.037580 1.844900 -0.116070 
#    z -0.013650 -0.116070 1.838920 
# 
# From -- ./inp_files/467435.got.cif
#   From: 2010.05.17/outbox.cif.g08.bks.cpg/sg2_234_cif.got.tgz:467435.got - 2010.06.03 11:33:40.
