data_PCOD9028294
_publ_section_title
;
Structure prediction by ZEFSAII (Michael W. Deem and Ramdas Pophale) SiO2 
 PCOD9028294
Probable space group: P -1
;
_chemical_formula_sum "Si O2"
_cell_formula_units_Z 14
_cell_length_a 9.578431
_cell_length_b 13.015585
_cell_length_c 8.027591
_cell_angle_alpha 49.528737
_cell_angle_beta 49.819759
_cell_angle_gamma 44.486661
_cell_volume 501.391353
_symmetry_space_group_name_H-M "P -1"
_symmetry_group_IT_number 2
_symmetry_cell_setting 'triclinic'
loop_
_space_group_symop_operation_xyz
x,y,z
-x,-y,-z
loop_
_atom_site_type_symbol
_atom_site_label
_atom_site_fract_x
_atom_site_fract_y
_atom_site_fract_z
Si Si1 0.450958 0.048333 0.183802
Si Si2 0.274729 0.648817 0.455758
Si Si3 0.046839 0.615104 0.951998
Si Si4 0.134240 0.986596 0.071046
Si Si5 0.296004 0.832306 0.657920
Si Si6 0.259175 0.390316 0.552195
Si Si7 0.363184 0.331691 0.171931
O O1 0.688117 0.971534 0.153747
O O2 0.352034 0.224307 0.148452
O O3 0.315977 0.983541 0.444543
O O4 0.500000 0.000000 0.000000
O O5 0.500000 0.500000 0.500000
O O6 0.206212 0.564415 0.457080
O O7 0.103508 0.702720 0.678796
O O8 0.254887 0.809877 0.238671
O O9 0.270601 0.504678 0.990210
O O10 0.861855 0.667867 0.173327
O O11 0.000000 0.500000 0.000000
O O12 0.404721 0.752004 0.835645
O O13 0.000000 0.000000 0.000000
O O14 0.951079 0.109757 0.206849
O O15 0.483963 0.714765 0.513342
O O16 0.226743 0.363062 0.412958
#
# Coordination Sequence:
#
# PCOD9028294 Si02
#       7
#     2   2   2   2   2   2   2
#     4  12  28  47  81 111 163 207 260 338 402 459
#     4  11  26  47  78 111 162 198 265 336 389 467
#     4  10  22  41  74 108 149 203 257 320 398 462
#     4  12  27  52  80 120 157 214 268 321 405 482
#     4  10  26  47  80 111 159 202 271 328 391 478
#     4   9  23  46  73 114 152 209 262 323 396 476
#     4  10  22  45  75 114 153 203 275 319 393 483
#
# _framework density 27.922301000000001
#
# number of rings (size 3 to 8) (size 9 to 14) (size 15 to 20)
#    0.857    0.571    1.429    1.714   10.000    0.571 
#    2.571    5.000    0.000    0.000    0.000    0.000 
#    0.000    0.000    0.000    0.000    0.000    0.000 
#
# Total GULP energy -78217.771130 kJ/mol
# GULP energy per Si atom -5586.983652 kJ/mol
# Density = 2.785875 g / cm^3
# Si number density = 27.922301 Si / 1000 Ang^3
#
#
#
# Elastic Constant Matrix: (Units=GPa)
#
#
# Indices 1 2 3 4 5 6 
#
# 1 105.1557 22.3561 10.7506 21.2457 11.6945 -12.0164
# 2 22.3561 129.6288 12.4597 33.8513 26.7800 -5.3143
# 3 10.7506 12.4597 165.1025 32.1215 8.7584 4.0635
# 4 21.2457 33.8513 32.1215 43.2327 -3.5435 12.5424
# 5 11.6945 26.7800 8.7584 -3.5435 47.2737 14.8808
# 6 -12.0164 -5.3143 4.0635 12.5424 14.8808 54.7202
#
#
#
# Elastic Compliance Matrix: (Units=1/GPa)
#
#
# Indices 1 2 3 4 5 6 
#
# 1 0.013569 0.003603 0.001929 -0.014363 -0.009702 0.009117
# 2 0.003603 0.016069 0.003263 -0.021342 -0.015751 0.011285
# 3 0.001929 0.003263 0.008092 -0.011278 -0.006045 0.004369
# 4 -0.014363 -0.021342 -0.011278 0.066013 0.031524 -0.028093
# 5 -0.009702 -0.015751 -0.006045 0.031524 0.042918 -0.022108
# 6 0.009117 0.011285 0.004369 -0.028093 -0.022108 0.033500
#
#
# Mechanical properties :
#
#
# Convention : Reuss Voigt Hill
#
# Bulk Modulus (GPa) = 18.07644 54.55775 36.31710
# Shear Modulus (GPa) = 27.62259 52.66668 40.14463
#
# Velocity S-wave (km/s) = 3.14867 4.34774 3.79585
# Velocity P-wave (km/s) = 4.43923 6.69218 5.67856
#
# Compressibility (1/GPa) = 0.05532062
#
# Stress axis : x y z
#
# Youngs Moduli (GPa) = 73.69693 62.23142 123.57285
#
# Poissons Ratio (x) = -0.22423 -0.23840
# Poissons Ratio (y) = -0.26555 -0.40317
# Poissons Ratio (z) = -0.14218 -0.20304
#
# Static dielectric constant tensor:
#      x y z
#    x 2.247120 -0.009500 0.007940 
#    y -0.009500 2.283040 0.071310 
#    z 0.007940 0.071310 2.123250 
# 
# From -- ./inp_files/267012.got.cif
#   From: 2010.05.17/outbox.cif.g08.bks.cpg/sg2_134_cif.got.tgz:267012.got - 2010.06.03 11:33:40.
