data_PCOD9028543
_publ_section_title
;
Structure prediction by ZEFSAII (Michael W. Deem and Ramdas Pophale) SiO2 
 PCOD9028543
Probable space group: P -1
;
_chemical_formula_sum "Si O2"
_cell_formula_units_Z 12
_cell_length_a 11.753293
_cell_length_b 11.593807
_cell_length_c 10.967412
_cell_angle_alpha 120.061396
_cell_angle_beta 60.293874
_cell_angle_gamma 155.484473
_cell_volume 533.402794
_symmetry_space_group_name_H-M "P -1"
_symmetry_group_IT_number 2
_symmetry_cell_setting 'triclinic'
loop_
_space_group_symop_operation_xyz
x,y,z
-x,-y,-z
loop_
_atom_site_type_symbol
_atom_site_label
_atom_site_fract_x
_atom_site_fract_y
_atom_site_fract_z
Si Si1 0.991490 0.815788 0.784926
Si Si2 0.757175 0.235594 0.399146
Si Si3 0.253854 0.342146 0.919230
Si Si4 0.747831 0.906972 0.802883
Si Si5 0.070173 0.200204 0.457589
Si Si6 0.486619 0.760960 0.637982
O O1 0.855695 0.675507 0.650123
O O2 0.168422 0.843600 0.731741
O O3 0.775274 0.644686 0.917439
O O4 0.176765 0.115775 0.833721
O O5 0.678283 0.265123 0.347958
O O6 0.000000 0.500000 0.500000
O O7 0.500000 0.000000 0.500000
O O8 0.530115 0.638077 0.864354
O O9 0.999130 0.181794 0.896487
O O10 0.876617 0.908846 0.645485
O O11 0.594232 0.871704 0.777245
O O12 0.278676 0.450182 0.575487
O O13 0.759068 0.968515 0.524899
#
# Coordination Sequence:
#
# PCOD9028543 Si02
#       6
#     2   2   2   2   2   2
#     4  10  22  42  63  92 123 159 216 245 310 348
#     4  12  24  40  63  92 125 159 201 255 310 365
#     4  10  24  40  65  88 123 169 203 258 288 366
#     4  11  23  39  60  91 125 163 207 242 311 361
#     4  11  21  36  63  89 124 156 203 257 306 352
#     4  12  22  39  59  93 124 161 198 253 310 369
#
# _framework density 22.497069
#
# number of rings (size 3 to 8) (size 9 to 14) (size 15 to 20)
#    0.000    1.000    3.333    4.000    0.000    8.667 
#    0.000    1.667    0.000    0.000    0.000    0.000 
#    0.000    0.000    0.000    0.000    0.000    0.000 
#
# Total GULP energy -67156.056711 kJ/mol
# GULP energy per Si atom -5596.338059 kJ/mol
# Density = 2.244586 g / cm^3
# Si number density = 22.497069 Si / 1000 Ang^3
#
#
#
# Elastic Constant Matrix: (Units=GPa)
#
#
# Indices 1 2 3 4 5 6 
#
# 1 147.0533 4.2544 26.6524 -0.0675 17.4271 14.2453
# 2 4.2544 112.0610 14.9247 -16.8867 5.1091 21.4889
# 3 26.6524 14.9247 59.7156 -15.7181 4.7264 -0.2069
# 4 -0.0675 -16.8867 -15.7181 30.9917 7.6505 9.4448
# 5 17.4271 5.1091 4.7264 7.6505 37.2556 3.5205
# 6 14.2453 21.4889 -0.2069 9.4448 3.5205 29.8668
#
#
#
# Elastic Compliance Matrix: (Units=1/GPa)
#
#
# Indices 1 2 3 4 5 6 
#
# 1 0.008287 0.001518 -0.003415 0.001540 -0.003481 -0.005145
# 2 0.001518 0.013662 -0.000600 0.012333 -0.003715 -0.014020
# 3 -0.003415 -0.000600 0.021830 0.011937 -0.003432 -0.001159
# 4 0.001540 0.012333 0.011937 0.056099 -0.013015 -0.025732
# 5 -0.003481 -0.003715 -0.003432 -0.013015 0.031644 0.004695
# 6 -0.005145 -0.014020 -0.001159 -0.025732 0.004695 0.053599
#
#
# Mechanical properties :
#
#
# Convention : Reuss Voigt Hill
#
# Bulk Modulus (GPa) = 25.78356 45.61032 35.69694
# Shear Modulus (GPa) = 24.62522 37.82269 31.22396
#
# Velocity S-wave (km/s) = 3.31206 4.10473 3.72951
# Velocity P-wave (km/s) = 5.10999 6.54087 5.86920
#
# Compressibility (1/GPa) = 0.03878440
#
# Stress axis : x y z
#
# Youngs Moduli (GPa) = 120.67195 73.19332 45.80897
#
# Poissons Ratio (x) = -0.11108 0.15643
# Poissons Ratio (y) = -0.18313 0.02750
# Poissons Ratio (z) = 0.41206 0.04394
#
# Static dielectric constant tensor:
#      x y z
#    x 1.918820 -0.005360 0.033070 
#    y -0.005360 1.806830 -0.002410 
#    z 0.033070 -0.002410 1.825870 
# 
# From -- ./inp_files/64130.got.cif
#   From: 2010.05.17/outbox.cif.g08.bks.cpg/sg2_33_cif.got.tgz:64130.got - 2010.06.03 11:33:40.
