data_PCOD9028182
_publ_section_title
;
Structure prediction by ZEFSAII (Michael W. Deem and Ramdas Pophale) SiO2 
 PCOD9028182
Probable space group: P -1
;
_chemical_formula_sum "Si O2"
_cell_formula_units_Z 16
_cell_length_a 18.379445
_cell_length_b 13.068443
_cell_length_c 22.145426
_cell_angle_alpha 29.762691
_cell_angle_beta 162.252983
_cell_angle_gamma 140.276024
_cell_volume 744.154996
_symmetry_space_group_name_H-M "P -1"
_symmetry_group_IT_number 2
_symmetry_cell_setting 'triclinic'
loop_
_space_group_symop_operation_xyz
x,y,z
-x,-y,-z
loop_
_atom_site_type_symbol
_atom_site_label
_atom_site_fract_x
_atom_site_fract_y
_atom_site_fract_z
Si Si1 0.913872 0.028212 0.265312
Si Si2 0.586915 0.260645 0.653867
Si Si3 0.594686 0.958562 0.280028
Si Si4 0.876889 0.760901 0.778641
Si Si5 0.116954 0.527961 0.300388
Si Si6 0.307238 0.241712 0.240046
Si Si7 0.213277 0.348907 0.699445
Si Si8 0.586504 0.556045 0.306882
O O1 0.160522 0.013993 0.507537
O O2 0.962216 0.125491 0.189530
O O3 0.900469 0.792154 0.361710
O O4 0.640760 0.199378 0.988387
O O5 0.500000 0.500000 0.500000
O O6 0.613090 0.079860 0.819314
O O7 0.392433 0.193587 0.491260
O O8 0.781394 0.296144 0.741467
O O9 0.723452 0.721416 0.469637
O O10 0.446769 0.164384 0.014737
O O11 0.868499 0.791400 0.828092
O O12 0.000000 0.500000 0.000000
O O13 0.169845 0.503064 0.425703
O O14 0.834979 0.617563 0.002734
O O15 0.452975 0.388730 0.307485
O O16 0.500000 0.000000 0.500000
O O17 0.323368 0.478995 0.672906
O O18 0.000000 0.500000 0.500000
#
# Coordination Sequence:
#
# PCOD9028182 Si02
#       8
#     2   2   2   2   2   2   2   2
#     4  11  23  44  73 100 130 181 236 283 327 408
#     4   9  18  33  64 104 132 163 223 278 326 394
#     4  10  22  41  72 102 130 184 232 280 332 403
#     4  11  19  39  67 101 137 171 228 272 333 412
#     4  11  21  41  70 101 135 181 228 278 340 409
#     4  12  27  42  67 108 147 180 215 290 352 405
#     4  12  30  47  67 100 140 184 230 290 344 402
#     4  12  25  48  69 102 137 181 240 276 337 418
#
# _framework density 21.500899
#
# number of rings (size 3 to 8) (size 9 to 14) (size 15 to 20)
#    0.000    1.000    5.000    1.875    5.250    2.500 
#    4.500    0.000    0.000    0.000    0.000    0.000 
#    0.000    0.000    0.000    0.000    0.000    0.000 
#
# Total GULP energy -89229.496934 kJ/mol
# GULP energy per Si atom -5576.843558 kJ/mol
# Density = 2.145196 g / cm^3
# Si number density = 21.500899 Si / 1000 Ang^3
#
#
#
# Elastic Constant Matrix: (Units=GPa)
#
#
# Indices 1 2 3 4 5 6 
#
# 1 116.9227 -7.4885 48.2477 5.8842 -14.0024 0.4770
# 2 -7.4885 19.9319 -3.3054 11.9206 -0.9506 -4.4511
# 3 48.2477 -3.3054 90.8974 2.9809 -19.0203 -21.4523
# 4 5.8842 11.9206 2.9809 26.6037 -10.7589 -1.8725
# 5 -14.0024 -0.9506 -19.0203 -10.7589 40.6159 0.6770
# 6 0.4770 -4.4511 -21.4523 -1.8725 0.6770 24.4969
#
#
#
# Elastic Compliance Matrix: (Units=1/GPa)
#
#
# Indices 1 2 3 4 5 6 
#
# 1 0.012290 0.004492 -0.007870 -0.004487 -0.000421 -0.006646
# 2 0.004492 0.077999 0.004234 -0.037286 -0.004771 0.015075
# 3 -0.007870 0.004234 0.021518 0.001909 0.007640 0.019701
# 4 -0.004487 -0.037286 0.001909 0.060937 0.014629 -0.000762
# 5 -0.000421 -0.004771 0.007640 0.014629 0.031716 0.006074
# 6 -0.006646 0.015075 0.019701 -0.000762 0.006074 0.060717
#
#
# Mechanical properties :
#
#
# Convention : Reuss Voigt Hill
#
# Bulk Modulus (GPa) = 8.80897 33.62884 21.21891
# Shear Modulus (GPa) = 16.59450 31.02984 23.81217
#
# Velocity S-wave (km/s) = 2.78115 3.80305 3.33152
# Velocity P-wave (km/s) = 3.79723 5.91261 4.96880
#
# Compressibility (1/GPa) = 0.11352064
#
# Stress axis : x y z
#
# Youngs Moduli (GPa) = 81.36499 12.82065 46.47203
#
# Poissons Ratio (x) = -0.05759 0.36572
# Poissons Ratio (y) = -0.36549 -0.19677
# Poissons Ratio (z) = 0.64032 -0.05429
#
# Static dielectric constant tensor:
#      x y z
#    x 1.770770 -0.024280 -0.022570 
#    y -0.024280 1.742240 0.021080 
#    z -0.022570 0.021080 1.749440 
# 
# From -- ./inp_files/600030.got.cif
#   From: 2010.05.17/outbox.cif.g08.bks.cpg/sg2_301_cif.got.tgz:600030.got - 2010.06.03 11:33:40.
