data_PCOD9028515
_publ_section_title
;
Structure prediction by ZEFSAII (Michael W. Deem and Ramdas Pophale) SiO2 
 PCOD9028515
Probable space group: P -1
;
_chemical_formula_sum "Si O2"
_cell_formula_units_Z 16
_cell_length_a 14.569782
_cell_length_b 9.113465
_cell_length_c 8.959227
_cell_angle_alpha 48.760561
_cell_angle_beta 54.910809
_cell_angle_gamma 87.295723
_cell_volume 616.451555
_symmetry_space_group_name_H-M "P -1"
_symmetry_group_IT_number 2
_symmetry_cell_setting 'triclinic'
loop_
_space_group_symop_operation_xyz
x,y,z
-x,-y,-z
loop_
_atom_site_type_symbol
_atom_site_label
_atom_site_fract_x
_atom_site_fract_y
_atom_site_fract_z
Si Si1 0.716466 0.982722 0.158106
Si Si2 0.453296 0.514975 0.201366
Si Si3 0.721924 0.222269 0.280944
Si Si4 0.852629 0.711973 0.815227
Si Si5 0.971381 0.762137 0.354045
Si Si6 0.754061 0.332286 0.673232
Si Si7 0.079274 0.898275 0.707806
Si Si8 0.382233 0.006173 0.183954
O O1 0.702377 0.139658 0.186698
O O2 0.619696 0.724425 0.477890
O O3 0.872838 0.079630 0.929028
O O4 0.693137 0.070939 0.966624
O O5 0.339965 0.576468 0.258340
O O6 0.500000 0.500000 0.000000
O O7 0.571871 0.725661 0.043977
O O8 0.858442 0.238433 0.194912
O O9 0.613288 0.026356 0.619750
O O10 0.726573 0.458461 0.122131
O O11 0.935999 0.693991 0.609279
O O12 0.934978 0.767930 0.853571
O O13 0.840421 0.921644 0.625806
O O14 0.894288 0.533171 0.477395
O O15 0.915124 0.931153 0.283332
O O16 0.747219 0.253103 0.562709
O O17 0.500000 0.000000 0.000000
#
# Coordination Sequence:
#
# PCOD9028515 Si02
#       8
#     2   2   2   2   2   2   2   2
#     4  12  25  42  73 103 139 186 227 276 353 422
#     4  11  25  49  72  99 134 178 245 293 326 405
#     4  12  22  39  69  93 129 186 226 275 354 393
#     4   9  21  39  59  98 140 174 221 275 332 424
#     4  10  22  42  63 107 145 172 222 276 348 424
#     4  11  25  46  72 101 142 181 219 295 350 408
#     4   9  21  38  59  98 141 178 222 274 328 418
#     4  10  26  48  66 101 135 176 243 293 331 403
#
# _framework density 25.954999999999998
#
# number of rings (size 3 to 8) (size 9 to 14) (size 15 to 20)
#    0.750    0.750    2.500    1.500    1.750    6.000 
#    0.000    0.000    0.000    0.000    0.000    0.000 
#    0.000    0.000    0.000    0.000    0.000    0.000 
#
# Total GULP energy -89247.511719 kJ/mol
# GULP energy per Si atom -5577.969482 kJ/mol
# Density = 2.589593 g / cm^3
# Si number density = 25.955000 Si / 1000 Ang^3
#
#
#
# Elastic Constant Matrix: (Units=GPa)
#
#
# Indices 1 2 3 4 5 6 
#
# 1 60.1723 13.2178 -0.8901 -11.6412 -10.8273 1.3730
# 2 13.2178 115.5794 16.1212 -31.9035 -18.0381 14.5126
# 3 -0.8901 16.1212 106.4968 -32.5578 -9.2509 -11.8314
# 4 -11.6412 -31.9035 -32.5578 42.6281 -1.6905 -2.0391
# 5 -10.8273 -18.0381 -9.2509 -1.6905 38.3408 -14.3855
# 6 1.3730 14.5126 -11.8314 -2.0391 -14.3855 33.5983
#
#
#
# Elastic Compliance Matrix: (Units=1/GPa)
#
#
# Indices 1 2 3 4 5 6 
#
# 1 0.020071 0.000685 0.004540 0.010083 0.009461 0.005145
# 2 0.000685 0.012629 0.002016 0.011384 0.006662 -0.001230
# 3 0.004540 0.002016 0.016016 0.015883 0.010576 0.010076
# 4 0.010083 0.011384 0.015883 0.048115 0.018290 0.011015
# 5 0.009461 0.006662 0.010576 0.018290 0.042694 0.019850
# 6 0.005145 -0.001230 0.010076 0.011015 0.019850 0.042800
#
#
# Mechanical properties :
#
#
# Convention : Reuss Voigt Hill
#
# Bulk Modulus (GPa) = 15.82298 37.68294 26.75296
# Shear Modulus (GPa) = 26.46770 39.83340 33.15055
#
# Velocity S-wave (km/s) = 3.19682 3.92179 3.57771
# Velocity P-wave (km/s) = 4.44250 5.92092 5.23417
#
# Compressibility (1/GPa) = 0.06319923
#
# Stress axis : x y z
#
# Youngs Moduli (GPa) = 49.82265 79.18271 62.43587
#
# Poissons Ratio (x) = -0.05424 -0.28345
# Poissons Ratio (y) = -0.03413 -0.12590
# Poissons Ratio (z) = -0.22619 -0.15967
#
# Static dielectric constant tensor:
#      x y z
#    x 2.135370 0.033140 -0.036180 
#    y 0.033140 2.026400 -0.025130 
#    z -0.036180 -0.025130 2.047510 
# 
# From -- ./inp_files/327085.got.cif
#   From: 2010.05.17/outbox.cif.g08.bks.cpg/sg2_164_cif.got.tgz:327085.got - 2010.06.03 11:33:40.
