data_PCOD9028641
_publ_section_title
;
Structure prediction by ZEFSAII (Michael W. Deem and Ramdas Pophale) SiO2 
 PCOD9028641
Probable space group: P -1
;
_chemical_formula_sum "Si O2"
_cell_formula_units_Z 16
_cell_length_a 14.706360
_cell_length_b 8.680764
_cell_length_c 12.120104
_cell_angle_alpha 70.828396
_cell_angle_beta 39.519164
_cell_angle_gamma 51.065632
_cell_volume 726.654712
_symmetry_space_group_name_H-M "P -1"
_symmetry_group_IT_number 2
_symmetry_cell_setting 'triclinic'
loop_
_space_group_symop_operation_xyz
x,y,z
-x,-y,-z
loop_
_atom_site_type_symbol
_atom_site_label
_atom_site_fract_x
_atom_site_fract_y
_atom_site_fract_z
Si Si1 0.231913 0.140375 0.374223
Si Si2 0.385966 0.348225 0.245076
Si Si3 0.977256 0.005257 0.890697
Si Si4 0.393682 0.419509 0.474410
Si Si5 0.984838 0.646059 0.886029
Si Si6 0.615434 0.214134 0.524973
Si Si7 0.733165 0.954144 0.885026
Si Si8 0.854153 0.220248 0.745674
O O1 0.228297 0.324069 0.383314
O O2 0.038696 0.185614 0.552761
O O3 0.375448 0.937758 0.361854
O O4 0.294166 0.088346 0.202259
O O5 0.432298 0.341324 0.331660
O O6 0.309747 0.567171 0.209396
O O7 0.555408 0.151212 0.066190
O O8 0.927756 0.854494 0.949061
O O9 0.177718 0.898747 0.680108
O O10 0.845442 0.211006 0.890114
O O11 0.000000 0.000000 0.000000
O O12 0.501602 0.256636 0.511716
O O13 0.443544 0.574844 0.411243
O O14 0.180492 0.537023 0.670993
O O15 0.832875 0.741029 0.911206
O O16 0.000000 0.500000 0.000000
O O17 0.861315 0.026844 0.744145
#
# Coordination Sequence:
#
# PCOD9028641 Si02
#       8
#     2   2   2   2   2   2   2   2
#     4  11  23  42  64  91 128 163 209 257 318 362
#     4  12  25  39  65  99 127 159 206 269 312 360
#     4   9  20  38  62  92 122 158 205 255 301 366
#     4  10  22  42  64  89 126 165 213 244 313 378
#     4  10  23  40  62  89 122 165 203 250 312 365
#     4   9  21  40  65  89 119 172 205 253 301 378
#     4  11  24  43  64  92 128 165 211 255 311 374
#     4  10  22  42  65  90 122 173 210 245 313 376
#
# _framework density 22.018709999999999
#
# number of rings (size 3 to 8) (size 9 to 14) (size 15 to 20)
#    0.000    1.750    0.000    3.750    5.250    3.500 
#    4.500    0.000    0.000    0.000    0.000    0.000 
#    0.000    0.000    0.000    0.000    0.000    0.000 
#
# Total GULP energy -89388.933325 kJ/mol
# GULP energy per Si atom -5586.808333 kJ/mol
# Density = 2.196859 g / cm^3
# Si number density = 22.018710 Si / 1000 Ang^3
#
#
#
# Elastic Constant Matrix: (Units=GPa)
#
#
# Indices 1 2 3 4 5 6 
#
# 1 148.5536 52.6845 43.3446 -10.1528 46.9136 -24.6040
# 2 52.6845 113.6076 26.1675 -21.4834 25.6772 -40.9230
# 3 43.3446 26.1675 66.9903 -10.3611 17.4278 -8.3672
# 4 -10.1528 -21.4834 -10.3611 20.6549 -8.8697 -0.9861
# 5 46.9136 25.6772 17.4278 -8.8697 50.7188 -11.5156
# 6 -24.6040 -40.9230 -8.3672 -0.9861 -11.5156 45.0989
#
#
#
# Elastic Compliance Matrix: (Units=1/GPa)
#
#
# Indices 1 2 3 4 5 6 
#
# 1 0.011517 -0.002686 -0.004655 -0.002859 -0.007994 0.000878
# 2 -0.002686 0.020250 -0.000909 0.020087 -0.000044 0.017169
# 3 -0.004655 -0.000909 0.019486 0.006204 -0.000803 0.000181
# 4 -0.002859 0.020087 0.006204 0.075695 0.008495 0.021642
# 5 -0.007994 -0.000044 -0.000803 0.008495 0.029621 0.003199
# 6 0.000878 0.017169 0.000181 0.021642 0.003199 0.039556
#
#
# Mechanical properties :
#
#
# Convention : Reuss Voigt Hill
#
# Bulk Modulus (GPa) = 28.77571 63.72719 46.25145
# Shear Modulus (GPa) = 22.30036 37.09150 29.69593
#
# Velocity S-wave (km/s) = 3.18589 4.10877 3.67641
# Velocity P-wave (km/s) = 5.16046 7.17736 6.25079
#
# Compressibility (1/GPa) = 0.03475153
#
# Stress axis : x y z
#
# Youngs Moduli (GPa) = 86.82659 49.38193 51.31859
#
# Poissons Ratio (x) = 0.13264 0.23891
# Poissons Ratio (y) = 0.23322 0.04667
# Poissons Ratio (z) = 0.40422 0.04491
#
# Static dielectric constant tensor:
#      x y z
#    x 1.864640 -0.022840 -0.046800 
#    y -0.022840 1.820630 -0.006730 
#    z -0.046800 -0.006730 1.831300 
# 
# From -- ./inp_files/208906.got.cif
#   From: 2010.05.17/outbox.cif.g08.bks.cpg/sg2_105_cif.got.tgz:208906.got - 2010.06.03 11:33:40.
