data_PCOD9028718
_publ_section_title
;
Structure prediction by ZEFSAII (Michael W. Deem and Ramdas Pophale) SiO2 
 PCOD9028718
Probable space group: P -1
;
_chemical_formula_sum "Si O2"
_cell_formula_units_Z 14
_cell_length_a 7.804904
_cell_length_b 4.907733
_cell_length_c 18.699381
_cell_angle_alpha 54.504302
_cell_angle_beta 117.970402
_cell_angle_gamma 114.099219
_cell_volume 505.743483
_symmetry_space_group_name_H-M "P -1"
_symmetry_group_IT_number 2
_symmetry_cell_setting 'triclinic'
loop_
_space_group_symop_operation_xyz
x,y,z
-x,-y,-z
loop_
_atom_site_type_symbol
_atom_site_label
_atom_site_fract_x
_atom_site_fract_y
_atom_site_fract_z
Si Si1 0.764774 0.089769 0.286342
Si Si2 0.302492 0.711613 0.484681
Si Si3 0.789803 0.358139 0.830100
Si Si4 0.965153 0.160164 0.092098
Si Si5 0.394914 0.742681 0.344612
Si Si6 0.423796 0.831898 0.906222
Si Si7 0.099231 0.627676 0.592196
O O1 0.705588 0.255208 0.177923
O O2 0.922176 0.278856 0.343874
O O3 0.568830 0.036951 0.304959
O O4 0.821720 0.728679 0.334246
O O5 0.312339 0.864368 0.383814
O O6 0.496536 0.565114 0.563562
O O7 0.242691 0.848857 0.528375
O O8 0.112939 0.412437 0.480184
O O9 0.604244 0.138971 0.871816
O O10 0.959070 0.131011 0.892544
O O11 0.726216 0.374743 0.732708
O O12 0.115228 0.284899 0.168874
O O13 0.737670 0.071126 0.085388
O O14 0.000000 0.500000 0.000000
O O15 0.500000 0.500000 0.000000
#
# Coordination Sequence:
#
# PCOD9028718 Si02
#       7
#     2   2   2   2   2   2   2
#     4  10  24  43  64  97 131 174 222 276 343 406
#     4   9  20  39  66  95 130 176 219 275 337 400
#     4  11  27  49  71 108 146 184 239 292 347 429
#     4  12  27  48  75 106 140 190 239 286 361 424
#     4   9  21  41  65  96 134 174 221 277 340 402
#     4  11  26  48  75 106 145 188 233 299 353 417
#     4  10  22  42  64  95 133 170 224 274 330 411
#
# _framework density 27.682016000000001
#
# number of rings (size 3 to 8) (size 9 to 14) (size 15 to 20)
#    0.000    1.714    1.429    0.429    4.000   14.286 
#    0.000    5.714    0.000    0.000    0.000    0.000 
#    0.000    0.000    0.000    0.000    0.000    0.000 
#
# Total GULP energy -78420.011086 kJ/mol
# GULP energy per Si atom -5601.429363 kJ/mol
# Density = 2.761901 g / cm^3
# Si number density = 27.682016 Si / 1000 Ang^3
#
#
#
# Elastic Constant Matrix: (Units=GPa)
#
#
# Indices 1 2 3 4 5 6 
#
# 1 173.9731 38.7012 32.7285 -18.0223 -28.8758 6.9990
# 2 38.7012 99.5194 27.0443 3.9725 -3.0434 -14.0810
# 3 32.7285 27.0443 195.8499 5.1592 -4.2848 -12.1663
# 4 -18.0223 3.9725 5.1592 38.0838 1.7641 -1.7714
# 5 -28.8758 -3.0434 -4.2848 1.7641 44.6267 -2.3721
# 6 6.9990 -14.0810 -12.1663 -1.7714 -2.3721 42.5796
#
#
#
# Elastic Compliance Matrix: (Units=1/GPa)
#
#
# Indices 1 2 3 4 5 6 
#
# 1 0.007873 -0.003111 -0.001026 0.003878 0.004513 -0.002203
# 2 -0.003111 0.012142 -0.000858 -0.002386 -0.000954 0.004129
# 3 -0.001026 -0.000858 0.005510 -0.001073 -0.000076 0.001410
# 4 0.003878 -0.002386 -0.001073 0.028414 0.001094 -0.000490
# 5 0.004513 -0.000954 -0.000076 0.001094 0.025232 0.000372
# 6 -0.002203 0.004129 0.001410 -0.000490 0.000372 0.025616
#
#
# Mechanical properties :
#
#
# Convention : Reuss Voigt Hill
#
# Bulk Modulus (GPa) = 64.37828 74.03226 69.20527
# Shear Modulus (GPa) = 41.68204 49.78257 45.73231
#
# Velocity S-wave (km/s) = 3.88460 4.24532 4.06896
# Velocity P-wave (km/s) = 6.58992 7.12967 6.86510
#
# Compressibility (1/GPa) = 0.01553319
#
# Stress axis : x y z
#
# Youngs Moduli (GPa) = 127.02412 82.36101 181.48200
#
# Poissons Ratio (x) = 0.25623 0.18625
# Poissons Ratio (y) = 0.39519 0.15575
# Poissons Ratio (z) = 0.13036 0.07068
#
# Static dielectric constant tensor:
#      x y z
#    x 2.147710 0.066690 0.005200 
#    y 0.066690 2.313370 0.049210 
#    z 0.005200 0.049210 2.171430 
# 
# From -- ./inp_files/553289.got.cif
#   From: 2010.05.17/outbox.cif.g08.bks.cpg/sg2_277_cif.got.tgz:553289.got - 2010.06.03 11:33:40.
