data_PCOD9028639
_publ_section_title
;
Structure prediction by ZEFSAII (Michael W. Deem and Ramdas Pophale) SiO2 
 PCOD9028639
Probable space group: P -1
;
_chemical_formula_sum "Si O2"
_cell_formula_units_Z 16
_cell_length_a 8.258725
_cell_length_b 10.107275
_cell_length_c 17.178181
_cell_angle_alpha 60.605248
_cell_angle_beta 34.117478
_cell_angle_gamma 64.401077
_cell_volume 699.758120
_symmetry_space_group_name_H-M "P -1"
_symmetry_group_IT_number 2
_symmetry_cell_setting 'triclinic'
loop_
_space_group_symop_operation_xyz
x,y,z
-x,-y,-z
loop_
_atom_site_type_symbol
_atom_site_label
_atom_site_fract_x
_atom_site_fract_y
_atom_site_fract_z
Si Si1 0.378181 0.051705 0.805271
Si Si2 0.800275 0.634891 0.146107
Si Si3 0.583823 0.120489 0.998500
Si Si4 0.941000 0.813879 0.324039
Si Si5 0.043244 0.799119 0.460047
Si Si6 0.655691 0.499489 0.521581
Si Si7 0.881573 0.657199 0.930025
Si Si8 0.638102 0.112393 0.296396
O O1 0.201141 0.210020 0.849344
O O2 0.703471 0.098545 0.637803
O O3 0.272110 0.949324 0.807205
O O4 0.376827 0.959783 0.912067
O O5 0.561444 0.542319 0.311817
O O6 0.074334 0.515507 0.066086
O O7 0.740174 0.664870 0.070189
O O8 0.856878 0.194679 0.829587
O O9 0.320731 0.243693 0.074682
O O10 0.500000 0.000000 0.000000
O O11 0.755695 0.667659 0.443216
O O12 0.117741 0.803504 0.336939
O O13 0.748659 0.971392 0.347826
O O14 0.093890 0.634493 0.528146
O O15 0.705650 0.851372 0.579794
O O16 0.500000 0.500000 0.500000
O O17 0.180869 0.742510 0.796191
#
# Coordination Sequence:
#
# PCOD9028639 Si02
#       8
#     2   2   2   2   2   2   2   2
#     4  11  23  42  67  92 134 171 208 276 332 384
#     4  10  22  42  64  89 124 169 212 259 323 382
#     4  12  21  43  65  97 128 171 223 266 326 389
#     4  12  23  41  69  94 132 177 218 269 327 394
#     4  11  23  42  65  94 133 173 222 263 324 398
#     4  11  25  43  65  95 136 174 215 271 332 389
#     4  11  23  42  69  94 125 169 224 274 312 393
#     4  12  25  40  66 104 130 167 221 276 333 378
#
# _framework density 22.865043
#
# number of rings (size 3 to 8) (size 9 to 14) (size 15 to 20)
#    0.000    0.750    3.750    4.125    0.000    8.000 
#    0.000    0.000    0.000    7.500    0.000    0.000 
#    0.000    0.000    0.000    0.000    0.000    0.000 
#
# Total GULP energy -89481.304235 kJ/mol
# GULP energy per Si atom -5592.581515 kJ/mol
# Density = 2.281300 g / cm^3
# Si number density = 22.865043 Si / 1000 Ang^3
#
#
#
# Elastic Constant Matrix: (Units=GPa)
#
#
# Indices 1 2 3 4 5 6 
#
# 1 70.2962 49.5062 11.3933 -1.6979 13.8712 -14.4548
# 2 49.5062 138.0467 36.7749 4.4482 13.6752 -25.9768
# 3 11.3933 36.7749 105.9587 -4.7769 -0.4448 -3.2981
# 4 -1.6979 4.4482 -4.7769 44.8248 -10.3805 2.5028
# 5 13.8712 13.6752 -0.4448 -10.3805 20.9182 0.7339
# 6 -14.4548 -25.9768 -3.2981 2.5028 0.7339 29.4844
#
#
#
# Elastic Compliance Matrix: (Units=1/GPa)
#
#
# Indices 1 2 3 4 5 6 
#
# 1 0.021603 -0.005138 -0.000474 -0.001896 -0.012144 0.006474
# 2 -0.005138 0.012543 -0.003741 -0.003975 -0.007148 0.008629
# 3 -0.000474 -0.003741 0.010844 0.002679 0.004414 -0.002653
# 4 -0.001896 -0.003975 0.002679 0.027415 0.017760 -0.006901
# 5 -0.012144 -0.007148 0.004414 0.017760 0.069965 -0.015006
# 6 0.006474 0.008629 -0.002653 -0.006901 -0.015006 0.045355
#
#
# Mechanical properties :
#
#
# Convention : Reuss Voigt Hill
#
# Bulk Modulus (GPa) = 38.04982 56.62782 47.33882
# Shear Modulus (GPa) = 23.23480 33.48728 28.36104
#
# Velocity S-wave (km/s) = 3.19120 3.83111 3.52571
# Velocity P-wave (km/s) = 5.50050 6.66256 6.10923
#
# Compressibility (1/GPa) = 0.02628133
#
# Stress axis : x y z
#
# Youngs Moduli (GPa) = 46.28994 79.72428 92.21750
#
# Poissons Ratio (x) = 0.40966 0.04375
# Poissons Ratio (y) = 0.23786 0.34503
# Poissons Ratio (z) = 0.02196 0.29829
#
# Static dielectric constant tensor:
#      x y z
#    x 1.880160 0.011920 -0.036490 
#    y 0.011920 1.887940 0.049060 
#    z -0.036490 0.049060 1.893850 
# 
# From -- ./inp_files/559735.got.cif
#   From: 2010.05.17/outbox.cif.g08.bks.cpg/sg2_280_cif.got.tgz:559735.got - 2010.06.03 11:33:40.
