data_PCOD9028783
_publ_section_title
;
Structure prediction by ZEFSAII (Michael W. Deem and Ramdas Pophale) SiO2 
 PCOD9028783
Probable space group: P -1
;
_chemical_formula_sum "Si O2"
_cell_formula_units_Z 12
_cell_length_a 17.709525
_cell_length_b 5.688472
_cell_length_c 11.463483
_cell_angle_alpha 115.390361
_cell_angle_beta 152.570918
_cell_angle_gamma 69.037759
_cell_volume 479.865859
_symmetry_space_group_name_H-M "P -1"
_symmetry_group_IT_number 2
_symmetry_cell_setting 'triclinic'
loop_
_space_group_symop_operation_xyz
x,y,z
-x,-y,-z
loop_
_atom_site_type_symbol
_atom_site_label
_atom_site_fract_x
_atom_site_fract_y
_atom_site_fract_z
Si Si1 0.923579 0.274739 0.980692
Si Si2 0.824692 0.423258 0.293674
Si Si3 0.157494 0.950567 0.948366
Si Si4 0.501765 0.605998 0.887813
Si Si5 0.159698 0.747967 0.457094
Si Si6 0.620562 0.548071 0.562768
O O1 0.068419 0.496783 0.213704
O O2 0.861159 0.271963 0.027741
O O3 0.753471 0.323637 0.693827
O O4 0.000000 0.000000 0.000000
O O5 0.768795 0.161916 0.091077
O O6 0.843377 0.346269 0.434830
O O7 0.000000 0.500000 0.500000
O O8 0.696126 0.644413 0.145237
O O9 0.271124 0.188536 0.203752
O O10 0.972086 0.038355 0.696383
O O11 0.355045 0.802492 0.718450
O O12 0.455047 0.437588 0.668513
O O13 0.500000 0.500000 0.000000
O O14 0.500000 0.500000 0.500000
#
# Coordination Sequence:
#
# PCOD9028783 Si02
#       6
#     2   2   2   2   2   2
#     4  11  22  38  67  96 132 176 222 278 340 402
#     4  11  22  42  69  93 135 182 228 273 339 403
#     4  11  23  41  70  96 134 181 225 284 337 402
#     4  10  23  43  68  96 139 179 221 282 336 400
#     4  10  22  42  64  99 135 177 227 277 336 408
#     4  11  25  43  68 104 138 175 231 280 341 404
#
# _framework density 25.006989999999998
#
# number of rings (size 3 to 8) (size 9 to 14) (size 15 to 20)
#    0.000    1.333    1.667    3.500    2.333    6.667 
#    0.000    0.833    0.000    0.000    0.000    0.000 
#    0.000    0.000    0.000    0.000    0.000    0.000 
#
# Total GULP energy -66949.637192 kJ/mol
# GULP energy per Si atom -5579.136433 kJ/mol
# Density = 2.495007 g / cm^3
# Si number density = 25.006990 Si / 1000 Ang^3
#
#
#
# Elastic Constant Matrix: (Units=GPa)
#
#
# Indices 1 2 3 4 5 6 
#
# 1 115.9968 11.3740 82.6305 4.2817 1.9590 -14.2779
# 2 11.3740 57.4230 39.2753 -5.3586 4.2048 -24.5726
# 3 82.6305 39.2753 204.5746 -20.7355 -0.5547 -3.2655
# 4 4.2817 -5.3586 -20.7355 36.9727 -7.6934 0.2286
# 5 1.9590 4.2048 -0.5547 -7.6934 63.0231 9.6348
# 6 -14.2779 -24.5726 -3.2655 0.2286 9.6348 30.7518
#
#
#
# Elastic Compliance Matrix: (Units=1/GPa)
#
#
# Indices 1 2 3 4 5 6 
#
# 1 0.016004 0.008786 -0.008569 -0.006355 -0.004214 0.014909
# 2 0.008786 0.039453 -0.010912 -0.003553 -0.009143 0.037337
# 3 -0.008569 -0.010912 0.010899 0.006398 0.003826 -0.012787
# 4 -0.006355 -0.003553 0.006398 0.032041 0.005482 -0.007066
# 5 -0.004214 -0.009143 0.003826 0.005482 0.019611 -0.015041
# 6 0.014909 0.037337 -0.012787 -0.007066 -0.015041 0.072682
#
#
# Mechanical properties :
#
#
# Convention : Reuss Voigt Hill
#
# Bulk Modulus (GPa) = 22.23867 71.61713 46.92790
# Shear Modulus (GPa) = 22.01985 42.46384 32.24185
#
# Velocity S-wave (km/s) = 2.97062 4.12525 3.59460
# Velocity P-wave (km/s) = 4.54735 7.16877 6.00290
#
# Compressibility (1/GPa) = 0.04496672
#
# Stress axis : x y z
#
# Youngs Moduli (GPa) = 62.48388 25.34659 91.75210
#
# Poissons Ratio (x) = -0.22269 0.78619
# Poissons Ratio (y) = -0.54898 1.00120
# Poissons Ratio (z) = 0.53540 0.27658
#
# Static dielectric constant tensor:
#      x y z
#    x 2.066830 -0.050310 -0.034790 
#    y -0.050310 2.040170 0.019860 
#    z -0.034790 0.019860 2.003490 
# 
# From -- ./inp_files/459244.got.cif
#   From: 2010.05.17/outbox.cif.g08.bks.cpg/sg2_230_cif.got.tgz:459244.got - 2010.06.03 11:33:40.
