data_PCOD9028518
_publ_section_title
;
Structure prediction by ZEFSAII (Michael W. Deem and Ramdas Pophale) SiO2 
 PCOD9028518
Probable space group: P -1
;
_chemical_formula_sum "Si O2"
_cell_formula_units_Z 16
_cell_length_a 7.986108
_cell_length_b 12.962490
_cell_length_c 9.049709
_cell_angle_alpha 120.268153
_cell_angle_beta 48.731764
_cell_angle_gamma 108.081683
_cell_volume 607.801097
_symmetry_space_group_name_H-M "P -1"
_symmetry_group_IT_number 2
_symmetry_cell_setting 'triclinic'
loop_
_space_group_symop_operation_xyz
x,y,z
-x,-y,-z
loop_
_atom_site_type_symbol
_atom_site_label
_atom_site_fract_x
_atom_site_fract_y
_atom_site_fract_z
Si Si1 0.539484 0.364248 0.329795
Si Si2 0.030710 0.367528 0.095258
Si Si3 0.065017 0.797518 0.285209
Si Si4 0.717737 0.080705 0.500245
Si Si5 0.948741 0.618120 0.456221
Si Si6 0.501492 0.077373 0.909104
Si Si7 0.624959 0.754564 0.363404
Si Si8 0.015364 0.176351 0.200959
O O1 0.500000 0.500000 0.500000
O O2 0.317332 0.354258 0.352446
O O3 0.502746 0.280151 0.436169
O O4 0.800351 0.367264 0.137493
O O5 0.024322 0.238281 0.083517
O O6 0.013949 0.478278 0.300318
O O7 0.258469 0.363392 0.866536
O O8 0.076418 0.883013 0.485612
O O9 0.022598 0.670743 0.293156
O O10 0.850505 0.822474 0.328103
O O11 0.309371 0.824901 0.103060
O O12 0.526717 0.176653 0.620120
O O13 0.855864 0.068576 0.258943
O O14 0.574252 0.017507 0.666046
O O15 0.060143 0.705257 0.571563
O O16 0.261273 0.134318 0.067733
O O17 0.500000 0.000000 0.000000
#
# Coordination Sequence:
#
# PCOD9028518 Si02
#       8
#     2   2   2   2   2   2   2   2
#     4   9  20  33  51  82 116 160 203 228 276 339
#     4  11  20  33  57  87 119 164 193 231 284 344
#     4   8  20  38  57  85 119 152 196 242 291 343
#     4   9  20  39  59  88 116 148 197 245 295 351
#     4   9  20  36  52  86 122 154 199 230 284 347
#     4  10  22  42  63  86 112 150 200 249 309 358
#     4  11  19  37  61  82 125 161 192 244 285 340
#     4  11  20  38  60  83 119 154 194 246 293 346
#
# _framework density 26.324401999999999
#
# number of rings (size 3 to 8) (size 9 to 14) (size 15 to 20)
#    0.750    1.500    2.500    0.375    1.750    5.000 
#    2.250    3.750    0.000    0.750    0.000    0.000 
#    0.000    0.000    0.000    0.000    0.000    0.000 
#
# Total GULP energy -89089.278985 kJ/mol
# GULP energy per Si atom -5568.079937 kJ/mol
# Density = 2.626449 g / cm^3
# Si number density = 26.324402 Si / 1000 Ang^3
#
#
#
# Elastic Constant Matrix: (Units=GPa)
#
#
# Indices 1 2 3 4 5 6 
#
# 1 98.3062 24.5634 13.7336 11.3363 -19.3164 8.2447
# 2 24.5634 74.9567 29.7146 -15.1990 2.1529 -8.5750
# 3 13.7336 29.7146 118.6865 -9.0413 -25.6093 -7.2546
# 4 11.3363 -15.1990 -9.0413 39.4818 0.1474 -3.9164
# 5 -19.3164 2.1529 -25.6093 0.1474 45.3409 -1.3204
# 6 8.2447 -8.5750 -7.2546 -3.9164 -1.3204 44.4240
#
#
#
# Elastic Compliance Matrix: (Units=1/GPa)
#
#
# Indices 1 2 3 4 5 6 
#
# 1 0.014385 -0.007174 0.000789 -0.007169 0.006811 -0.004355
# 2 -0.007174 0.020172 -0.004601 0.009302 -0.006495 0.005101
# 3 0.000789 -0.004601 0.011071 0.000614 0.006836 0.001031
# 4 -0.007169 0.009302 0.000614 0.031708 -0.003079 0.005930
# 5 0.006811 -0.006495 0.006836 -0.003079 0.029113 -0.000808
# 6 -0.004355 0.005101 0.001031 0.005930 -0.000808 0.024970
#
#
# Mechanical properties :
#
#
# Convention : Reuss Voigt Hill
#
# Bulk Modulus (GPa) = 42.27391 47.55251 44.91321
# Shear Modulus (GPa) = 31.00250 40.77852 35.89051
#
# Velocity S-wave (km/s) = 3.43550 3.94010 3.69642
# Velocity P-wave (km/s) = 5.64186 6.22916 5.94277
#
# Compressibility (1/GPa) = 0.02365525
#
# Stress axis : x y z
#
# Youngs Moduli (GPa) = 69.51699 49.57279 90.32628
#
# Poissons Ratio (x) = 0.35565 -0.07126
# Poissons Ratio (y) = 0.49873 0.41561
# Poissons Ratio (z) = -0.05485 0.22810
#
# Static dielectric constant tensor:
#      x y z
#    x 2.129670 0.086420 0.137780 
#    y 0.086420 2.256690 0.044090 
#    z 0.137780 0.044090 2.222730 
# 
# From -- ./inp_files/396048.got.cif
#   From: 2010.05.17/outbox.cif.g08.bks.cpg/sg2_199_cif.got.tgz:396048.got - 2010.06.03 11:33:40.
