data_PCOD9028252
_publ_section_title
;
Structure prediction by ZEFSAII (Michael W. Deem and Ramdas Pophale) SiO2 
 PCOD9028252
Probable space group: P -1
;
_chemical_formula_sum "Si O2"
_cell_formula_units_Z 14
_cell_length_a 5.532093
_cell_length_b 24.793675
_cell_length_c 14.037576
_cell_angle_alpha 20.866443
_cell_angle_beta 110.045694
_cell_angle_gamma 117.365744
_cell_volume 585.711920
_symmetry_space_group_name_H-M "P -1"
_symmetry_group_IT_number 2
_symmetry_cell_setting 'triclinic'
loop_
_space_group_symop_operation_xyz
x,y,z
-x,-y,-z
loop_
_atom_site_type_symbol
_atom_site_label
_atom_site_fract_x
_atom_site_fract_y
_atom_site_fract_z
Si Si1 0.257716 0.946848 0.631293
Si Si2 0.973683 0.702540 0.456989
Si Si3 0.554559 0.401589 0.583071
Si Si4 0.874922 0.569150 0.178934
Si Si5 0.396253 0.418361 0.226154
Si Si6 0.795423 0.967554 0.165869
Si Si7 0.453783 0.041597 0.166620
O O1 0.428200 0.029013 0.615056
O O2 0.500000 0.000000 0.500000
O O3 0.000000 0.000000 0.500000
O O4 0.113095 0.750351 0.914739
O O5 0.684466 0.668129 0.417305
O O6 0.906353 0.637685 0.664532
O O7 0.065065 0.576944 0.619920
O O8 0.151924 0.900440 0.132580
O O9 0.500000 0.500000 0.500000
O O10 0.811418 0.524525 0.353994
O O11 0.568778 0.234423 0.893467
O O12 0.609287 0.554493 0.102721
O O13 0.393300 0.231807 0.539163
O O14 0.500000 0.500000 0.000000
O O15 0.633225 0.028669 0.121509
O O16 0.112864 0.982456 0.210942
#
# Coordination Sequence:
#
# PCOD9028252 Si02
#       7
#     2   2   2   2   2   2   2
#     4  12  30  47  71 104 153 195 241 303 369 448
#     4  10  23  45  72 109 145 192 247 313 369 438
#     4  10  22  41  73 108 144 183 243 309 373 433
#     4  11  26  46  74 106 145 191 251 305 375 436
#     4  11  28  46  73 104 151 202 249 305 365 450
#     4  11  25  48  76 113 148 192 252 304 375 437
#     4  11  25  45  76 110 142 196 242 305 373 442
#
# _framework density 23.902535
#
# number of rings (size 3 to 8) (size 9 to 14) (size 15 to 20)
#    0.000    1.143    1.429    2.143   16.000    2.286 
#    0.000    0.000    0.000    0.000    0.000    0.000 
#    0.000    0.000    0.000    0.000    0.000    0.000 
#
# Total GULP energy -78022.671921 kJ/mol
# GULP energy per Si atom -5573.047994 kJ/mol
# Density = 2.384813 g / cm^3
# Si number density = 23.902535 Si / 1000 Ang^3
#
#
#
# Elastic Constant Matrix: (Units=GPa)
#
#
# Indices 1 2 3 4 5 6 
#
# 1 144.7178 56.4804 52.9149 4.4362 -3.4264 -18.8959
# 2 56.4804 120.4491 54.3491 5.1470 -14.5110 -12.2465
# 3 52.9149 54.3491 152.2964 -17.3755 -31.1402 -11.8285
# 4 4.4362 5.1470 -17.3755 49.6173 -5.2508 -2.6488
# 5 -3.4264 -14.5110 -31.1402 -5.2508 32.9708 -0.9252
# 6 -18.8959 -12.2465 -11.8285 -2.6488 -0.9252 62.4002
#
#
#
# Elastic Compliance Matrix: (Units=1/GPa)
#
#
# Indices 1 2 3 4 5 6 
#
# 1 0.009427 -0.003300 -0.002887 -0.001794 -0.003442 0.001533
# 2 -0.003300 0.011422 -0.002658 -0.001578 0.001942 0.000700
# 3 -0.002887 -0.002658 0.011326 0.005636 0.010157 0.001141
# 4 -0.001794 -0.001578 0.005636 0.023391 0.008205 0.001330
# 5 -0.003442 0.001942 0.010157 0.008205 0.041789 0.002232
# 6 0.001533 0.000700 0.001141 0.001330 0.002232 0.016933
#
#
# Mechanical properties :
#
#
# Convention : Reuss Voigt Hill
#
# Bulk Modulus (GPa) = 69.03874 82.77244 75.90559
# Shear Modulus (GPa) = 36.54771 45.91224 41.22998
#
# Velocity S-wave (km/s) = 3.91452 4.38746 4.15772
# Velocity P-wave (km/s) = 7.02691 7.76986 7.40771
#
# Compressibility (1/GPa) = 0.01448462
#
# Stress axis : x y z
#
# Youngs Moduli (GPa) = 106.07526 87.55385 88.28972
#
# Poissons Ratio (x) = 0.28893 0.25493
# Poissons Ratio (y) = 0.35005 0.23467
# Poissons Ratio (z) = 0.30628 0.23271
#
# Static dielectric constant tensor:
#      x y z
#    x 2.027420 0.110810 0.067800 
#    y 0.110810 1.948700 0.034150 
#    z 0.067800 0.034150 1.965920 
# 
# From -- ./inp_files/362039.got.cif
#   From: 2010.05.17/outbox.cif.g08.bks.cpg/sg2_182_cif.got.tgz:362039.got - 2010.06.03 11:33:40.
