data_PCOD9028841
_publ_section_title
;
Structure prediction by ZEFSAII (Michael W. Deem and Ramdas Pophale) SiO2 
 PCOD9028841
Probable space group: P -1
;
_chemical_formula_sum "Si O2"
_cell_formula_units_Z 12
_cell_length_a 7.503786
_cell_length_b 12.114898
_cell_length_c 9.063547
_cell_angle_alpha 58.517013
_cell_angle_beta 96.122358
_cell_angle_gamma 56.115557
_cell_volume 482.518865
_symmetry_space_group_name_H-M "P -1"
_symmetry_group_IT_number 2
_symmetry_cell_setting 'triclinic'
loop_
_space_group_symop_operation_xyz
x,y,z
-x,-y,-z
loop_
_atom_site_type_symbol
_atom_site_label
_atom_site_fract_x
_atom_site_fract_y
_atom_site_fract_z
Si Si1 0.454722 0.486767 0.836465
Si Si2 0.424056 0.015424 0.313099
Si Si3 0.901583 0.575915 0.100870
Si Si4 0.692066 0.283827 0.724445
Si Si5 0.251158 0.340633 0.541146
Si Si6 0.870530 0.098039 0.584174
O O1 0.256281 0.468540 0.830418
O O2 0.701809 0.313703 0.878845
O O3 0.321065 0.685481 0.625638
O O4 0.500000 0.500000 0.000000
O O5 0.500000 0.000000 0.500000
O O6 0.684261 0.838607 0.373522
O O7 0.250220 0.977939 0.336297
O O8 0.283743 0.203943 0.084369
O O9 0.162388 0.457251 0.301711
O O10 0.000000 0.500000 0.000000
O O11 0.500000 0.500000 0.500000
O O12 0.496628 0.265485 0.701761
O O13 0.926774 0.126859 0.740388
O O14 0.000000 0.500000 0.500000
O O15 0.000000 0.000000 0.500000
#
# Coordination Sequence:
#
# PCOD9028841 Si02
#       6
#     2   2   2   2   2   2
#     4  11  23  42  67  94 132 177 220 274 338 398
#     4  11  23  41  67  99 135 172 226 278 327 405
#     4  12  24  40  71 101 131 180 231 267 341 406
#     4   9  21  41  65  91 132 174 217 270 336 395
#     4  11  23  43  67  96 138 176 218 284 339 392
#     4  10  22  42  65  90 133 174 214 274 336 394
#
# _framework density 24.869495000000001
#
# number of rings (size 3 to 8) (size 9 to 14) (size 15 to 20)
#    0.000    1.333    3.333    2.000    4.667    0.667 
#    0.000    0.833    0.000    0.000    0.000    0.000 
#    0.000    0.000    0.000    0.000    0.000    0.000 
#
# Total GULP energy -66814.228382 kJ/mol
# GULP energy per Si atom -5567.852365 kJ/mol
# Density = 2.481289 g / cm^3
# Si number density = 24.869495 Si / 1000 Ang^3
#
#
#
# Elastic Constant Matrix: (Units=GPa)
#
#
# Indices 1 2 3 4 5 6 
#
# 1 88.4658 24.4418 19.3663 -10.1551 -16.0780 6.4237
# 2 24.4418 265.1195 43.8896 12.4617 5.0171 -11.4184
# 3 19.3663 43.8896 98.2439 -20.4687 2.4601 16.3498
# 4 -10.1551 12.4617 -20.4687 71.3410 12.0598 -3.4943
# 5 -16.0780 5.0171 2.4601 12.0598 16.3511 -0.4624
# 6 6.4237 -11.4184 16.3498 -3.4943 -0.4624 36.0992
#
#
#
# Elastic Compliance Matrix: (Units=1/GPa)
#
#
# Indices 1 2 3 4 5 6 
#
# 1 0.015309 -0.001267 -0.002864 -0.001350 0.016820 -0.001743
# 2 -0.001267 0.004490 -0.002437 -0.001334 -0.001200 0.002605
# 3 -0.002864 -0.002437 0.014156 0.005154 -0.008177 -0.006278
# 4 -0.001350 -0.001334 0.005154 0.018028 -0.015018 -0.000963
# 5 0.016820 -0.001200 -0.008177 -0.015018 0.090372 0.000035
# 6 -0.001743 0.002605 -0.006278 -0.000963 0.000035 0.031586
#
#
# Mechanical properties :
#
#
# Convention : Reuss Voigt Hill
#
# Bulk Modulus (GPa) = 48.03604 69.69161 58.86383
# Shear Modulus (GPa) = 25.77078 49.03371 37.40224
#
# Velocity S-wave (km/s) = 3.22256 4.44513 3.88227
# Velocity P-wave (km/s) = 5.76227 7.37763 6.61941
#
# Compressibility (1/GPa) = 0.02081770
#
# Stress axis : x y z
#
# Youngs Moduli (GPa) = 65.31953 222.72824 70.64296
#
# Poissons Ratio (x) = 0.28224 0.20233
# Poissons Ratio (y) = 0.08277 0.17218
# Poissons Ratio (z) = 0.18708 0.54286
#
# Static dielectric constant tensor:
#      x y z
#    x 1.954070 -0.060370 -0.006740 
#    y -0.060370 2.083660 0.069320 
#    z -0.006740 0.069320 2.036810 
# 
# From -- ./inp_files/175078.got.cif
#   From: 2010.05.17/outbox.cif.g08.bks.cpg/sg2_88_cif.got.tgz:175078.got - 2010.06.03 11:33:40.
