data_PCOD9028634
_publ_section_title
;
Structure prediction by ZEFSAII (Michael W. Deem and Ramdas Pophale) SiO2 
 PCOD9028634
Probable space group: P -1
;
_chemical_formula_sum "Si O2"
_cell_formula_units_Z 13
_cell_length_a 10.613544
_cell_length_b 13.772422
_cell_length_c 11.219686
_cell_angle_alpha 42.834518
_cell_angle_beta 40.038716
_cell_angle_gamma 32.241956
_cell_volume 545.000336
_symmetry_space_group_name_H-M "P -1"
_symmetry_group_IT_number 2
_symmetry_cell_setting 'triclinic'
loop_
_space_group_symop_operation_xyz
x,y,z
-x,-y,-z
loop_
_atom_site_type_symbol
_atom_site_label
_atom_site_fract_x
_atom_site_fract_y
_atom_site_fract_z
Si Si1 0.593409 0.599735 0.404170
Si Si2 0.000000 0.500000 0.000000
Si Si3 0.800988 0.862032 0.220216
Si Si4 0.703146 0.394297 0.055264
Si Si5 0.310924 0.888627 0.533098
Si Si6 0.616768 0.735740 0.887569
Si Si7 0.967256 0.741474 0.471864
O O1 0.500000 0.500000 0.500000
O O2 0.787248 0.584226 0.187011
O O3 0.361529 0.805358 0.438631
O O4 0.766322 0.464538 0.512686
O O5 0.200801 0.296433 0.110349
O O6 0.566055 0.862369 0.397033
O O7 0.925354 0.813886 0.303522
O O8 0.670249 0.070603 0.082564
O O9 0.016821 0.712347 0.107003
O O10 0.701443 0.243120 0.255058
O O11 0.500000 0.500000 0.000000
O O12 0.647550 0.551254 0.043816
O O13 0.080012 0.103656 0.543689
O O14 0.746235 0.730370 0.676532
#
# Coordination Sequence:
#
# PCOD9028634 Si02
#       7
#     2   1   2   2   2   2   2
#     4  11  24  42  64  90 128 168 208 263 315 369
#     4  10  22  42  64  88 120 166 212 252 310 374
#     4  11  23  43  67  93 131 169 206 264 321 373
#     4  12  24  37  63  99 128 165 213 257 316 382
#     4  11  24  41  64  95 126 165 213 260 316 376
#     4  10  22  42  64  91 129 166 211 265 315 373
#     4  10  22  42  66  94 128 167 211 259 317 378
#
# _framework density 23.853194999999999
#
# number of rings (size 3 to 8) (size 9 to 14) (size 15 to 20)
#    0.000    1.231    0.000    7.385    0.000    7.385 
#    0.000   13.846    0.000    0.000    0.000    0.000 
#    0.000    0.000    0.000    0.000    0.000    0.000 
#
# Total GULP energy -72488.599189 kJ/mol
# GULP energy per Si atom -5576.046091 kJ/mol
# Density = 2.379890 g / cm^3
# Si number density = 23.853195 Si / 1000 Ang^3
#
#
#
# Elastic Constant Matrix: (Units=GPa)
#
#
# Indices 1 2 3 4 5 6 
#
# 1 29.7390 5.7627 5.1861 4.2463 6.5245 10.2350
# 2 5.7627 94.9996 25.6895 -15.2409 7.4464 17.9861
# 3 5.1861 25.6895 107.1379 -10.7448 10.7234 4.7302
# 4 4.2463 -15.2409 -10.7448 24.8835 5.1325 5.1285
# 5 6.5245 7.4464 10.7234 5.1325 36.4533 -8.5517
# 6 10.2350 17.9861 4.7302 5.1285 -8.5517 35.1106
#
#
#
# Elastic Compliance Matrix: (Units=1/GPa)
#
#
# Indices 1 2 3 4 5 6 
#
# 1 0.041199 0.001130 -0.000669 -0.001343 -0.010717 -0.014912
# 2 0.001130 0.015750 -0.001228 0.012987 -0.007703 -0.012005
# 3 -0.000669 -0.001228 0.010709 0.005324 -0.004091 -0.002393
# 4 -0.001343 0.012987 0.005324 0.058155 -0.016754 -0.019554
# 5 -0.010717 -0.007703 -0.004091 -0.016754 0.039081 0.019587
# 6 -0.014912 -0.012005 -0.002393 -0.019554 0.019587 0.046928
#
#
# Mechanical properties :
#
#
# Convention : Reuss Voigt Hill
#
# Bulk Modulus (GPa) = 15.12291 33.90588 24.51440
# Shear Modulus (GPa) = 21.24056 32.30537 26.77296
#
# Velocity S-wave (km/s) = 2.98731 3.68413 3.35387
# Velocity P-wave (km/s) = 4.27229 5.68703 5.02965
#
# Compressibility (1/GPa) = 0.06612483
#
# Stress axis : x y z
#
# Youngs Moduli (GPa) = 24.27248 63.49137 93.37505
#
# Poissons Ratio (x) = -0.07172 0.06245
# Poissons Ratio (y) = -0.02742 0.11464
# Poissons Ratio (z) = 0.01623 0.07795
#
# Static dielectric constant tensor:
#      x y z
#    x 2.806460 -0.040880 -0.400660 
#    y -0.040880 1.896820 0.031500 
#    z -0.400660 0.031500 2.029740 
# 
# From -- ./inp_files/430890.got.cif
#   From: 2010.05.17/outbox.cif.g08.bks.cpg/sg2_216_cif.got.tgz:430890.got - 2010.06.03 11:33:40.
