data_PCOD9028166
_publ_section_title
;
Structure prediction by ZEFSAII (Michael W. Deem and Ramdas Pophale) SiO2 
 PCOD9028166
Probable space group: P -1
;
_chemical_formula_sum "Si O2"
_cell_formula_units_Z 16
_cell_length_a 21.372265
_cell_length_b 12.170506
_cell_length_c 9.878549
_cell_angle_alpha 39.375540
_cell_angle_beta 150.557575
_cell_angle_gamma 145.038447
_cell_volume 707.531307
_symmetry_space_group_name_H-M "P -1"
_symmetry_group_IT_number 2
_symmetry_cell_setting 'triclinic'
loop_
_space_group_symop_operation_xyz
x,y,z
-x,-y,-z
loop_
_atom_site_type_symbol
_atom_site_label
_atom_site_fract_x
_atom_site_fract_y
_atom_site_fract_z
Si Si1 0.600150 0.494825 0.813504
Si Si2 0.077087 0.201969 0.867751
Si Si3 0.950516 0.310266 0.278705
Si Si4 0.590054 0.643454 0.155383
Si Si5 0.071896 0.206998 0.361621
Si Si6 0.347634 0.894692 0.714337
Si Si7 0.959966 0.285513 0.809259
Si Si8 0.368082 0.960382 0.004336
O O1 0.500000 0.500000 0.500000
O O2 0.501918 0.470456 0.780488
O O3 0.751298 0.692679 0.923673
O O4 0.634010 0.306250 0.048106
O O5 0.997074 0.190321 0.587504
O O6 0.053209 0.343403 0.793993
O O7 0.000000 0.000000 0.000000
O O8 0.009690 0.316575 0.235539
O O9 0.029305 0.523557 0.284602
O O10 0.777903 0.221733 0.045924
O O11 0.755513 0.689063 0.412246
O O12 0.606420 0.861026 0.016127
O O13 0.500000 0.500000 0.000000
O O14 0.000000 0.000000 0.500000
O O15 0.019117 0.195123 0.120770
O O16 0.202127 0.850209 0.409276
O O17 0.342051 0.975232 0.777866
O O18 0.480438 0.040138 0.731255
#
# Coordination Sequence:
#
# PCOD9028166 Si02
#       8
#     2   2   2   2   2   2   2   2
#     4  11  24  43  72 103 140 186 236 291 355 422
#     4  12  25  40  72 108 138 181 240 292 352 414
#     4  12  23  45  67 104 143 184 237 291 350 426
#     4  11  25  47  70 100 143 191 236 288 360 424
#     4  12  26  47  72 105 143 188 240 294 350 426
#     4  10  22  43  70 102 143 181 232 292 355 420
#     4  12  25  44  72 105 140 190 233 292 361 422
#     4  10  22  41  71  99 140 181 231 294 349 409
#
# _framework density 22.61384
#
# number of rings (size 3 to 8) (size 9 to 14) (size 15 to 20)
#    0.000    0.750    3.750    3.750    5.250    0.000 
#    0.000    1.875    0.000    0.000    0.000    0.000 
#    0.000    0.000    0.000    0.000    0.000    0.000 
#
# Total GULP energy -89322.245861 kJ/mol
# GULP energy per Si atom -5582.640366 kJ/mol
# Density = 2.256237 g / cm^3
# Si number density = 22.613840 Si / 1000 Ang^3
#
#
#
# Elastic Constant Matrix: (Units=GPa)
#
#
# Indices 1 2 3 4 5 6 
#
# 1 152.8252 13.3849 48.6494 28.7583 5.6010 -0.5114
# 2 13.3849 73.4357 38.4625 17.7386 -0.3051 -3.7793
# 3 48.6494 38.4625 131.6392 29.3588 0.6665 21.1649
# 4 28.7583 17.7386 29.3588 45.5302 12.2197 12.8014
# 5 5.6010 -0.3051 0.6665 12.2197 44.1439 20.5477
# 6 -0.5114 -3.7793 21.1649 12.8014 20.5477 47.5022
#
#
#
# Elastic Compliance Matrix: (Units=1/GPa)
#
#
# Indices 1 2 3 4 5 6 
#
# 1 0.008255 0.001262 -0.002962 -0.004359 -0.001298 0.003245
# 2 0.001262 0.017847 -0.005353 -0.005638 -0.001102 0.005814
# 3 -0.002962 -0.005353 0.011990 -0.002978 0.004142 -0.006789
# 4 -0.004359 -0.005638 -0.002978 0.031870 -0.005825 -0.005238
# 5 -0.001298 -0.001102 0.004142 -0.005825 0.030721 -0.013666
# 6 0.003245 0.005814 -0.006789 -0.005238 -0.013666 0.031897
#
#
# Mechanical properties :
#
#
# Convention : Reuss Voigt Hill
#
# Bulk Modulus (GPa) = 41.69232 62.09930 51.89581
# Shear Modulus (GPa) = 32.32432 44.59549 38.45990
#
# Velocity S-wave (km/s) = 3.78485 4.44559 4.12846
# Velocity P-wave (km/s) = 6.12999 7.33971 6.76196
#
# Compressibility (1/GPa) = 0.02398523
#
# Stress axis : x y z
#
# Youngs Moduli (GPa) = 121.14349 56.03039 83.40312
#
# Poissons Ratio (x) = -0.07069 0.24706
# Poissons Ratio (y) = -0.15283 0.44644
# Poissons Ratio (z) = 0.35885 0.29992
#
# Static dielectric constant tensor:
#      x y z
#    x 1.792150 -0.037950 0.026290 
#    y -0.037950 1.930020 -0.090900 
#    z 0.026290 -0.090900 1.890060 
# 
# From -- ./inp_files/346004.got.cif
#   From: 2010.05.17/outbox.cif.g08.bks.cpg/sg2_174_cif.got.tgz:346004.got - 2010.06.03 11:33:40.
