data_PCOD9028661
_publ_section_title
;
Structure prediction by ZEFSAII (Michael W. Deem and Ramdas Pophale) SiO2 
 PCOD9028661
Probable space group: P -1
;
_chemical_formula_sum "Si O2"
_cell_formula_units_Z 14
_cell_length_a 8.954461
_cell_length_b 8.800231
_cell_length_c 9.320524
_cell_angle_alpha 62.184844
_cell_angle_beta 81.040267
_cell_angle_gamma 83.938716
_cell_volume 641.225049
_symmetry_space_group_name_H-M "P -1"
_symmetry_group_IT_number 2
_symmetry_cell_setting 'triclinic'
loop_
_space_group_symop_operation_xyz
x,y,z
-x,-y,-z
loop_
_atom_site_type_symbol
_atom_site_label
_atom_site_fract_x
_atom_site_fract_y
_atom_site_fract_z
Si Si1 0.156452 0.244261 0.395548
Si Si2 0.613573 0.052644 0.084521
Si Si3 0.800934 0.705384 0.304047
Si Si4 0.094118 0.862148 0.141295
Si Si5 0.604671 0.411342 0.405423
Si Si6 0.443591 0.337716 0.168042
Si Si7 0.838146 0.126707 0.549045
O O1 0.197937 0.316107 0.514192
O O2 0.262812 0.326961 0.224092
O O3 0.974267 0.237417 0.415173
O O4 0.192782 0.038076 0.469936
O O5 0.515792 0.165042 0.161989
O O6 0.704696 0.883193 0.206758
O O7 0.743995 0.166510 0.943432
O O8 0.500000 0.000000 0.000000
O O9 0.725014 0.556115 0.293773
O O10 0.978091 0.710249 0.235737
O O11 0.113580 0.927286 0.273086
O O12 0.000000 0.000000 0.000000
O O13 0.500000 0.500000 0.500000
O O14 0.514629 0.356584 0.305548
O O15 0.690823 0.246833 0.530867
O O16 0.500000 0.500000 0.000000
#
# Coordination Sequence:
#
# PCOD9028661 Si02
#       7
#     2   2   2   2   2   2   2
#     4  10  22  44  66  94 126 171 227 270 334 394
#     4  11  23  39  67  96 132 177 214 274 336 392
#     4  10  22  42  64  91 130 175 224 263 329 398
#     4   9  21  40  64  96 129 171 219 265 330 396
#     4  12  26  42  65 100 134 174 225 272 330 390
#     4  12  27  42  63  99 137 172 221 279 335 389
#     4  10  23  41  72  95 128 175 225 277 327 393
#
# _framework density 21.833209
#
# number of rings (size 3 to 8) (size 9 to 14) (size 15 to 20)
#    0.000    1.429    1.429    2.571    6.000    6.857 
#    0.000    1.429    0.000    0.000    0.000    0.000 
#    0.000    0.000    0.000    0.000    0.000    0.000 
#
# Total GULP energy -78210.796963 kJ/mol
# GULP energy per Si atom -5586.485497 kJ/mol
# Density = 2.178352 g / cm^3
# Si number density = 21.833209 Si / 1000 Ang^3
#
#
#
# Elastic Constant Matrix: (Units=GPa)
#
#
# Indices 1 2 3 4 5 6 
#
# 1 92.1105 14.8306 34.3686 14.7191 -15.8633 -1.0138
# 2 14.8306 71.0385 4.3797 20.2603 14.2450 -0.2583
# 3 34.3686 4.3797 70.8381 10.3890 -10.8135 -5.7692
# 4 14.7191 20.2603 10.3890 32.0338 -1.7942 0.4784
# 5 -15.8633 14.2450 -10.8135 -1.7942 38.9915 -1.3416
# 6 -1.0138 -0.2583 -5.7692 0.4784 -1.3416 39.4953
#
#
#
# Elastic Compliance Matrix: (Units=1/GPa)
#
#
# Indices 1 2 3 4 5 6 
#
# 1 0.014890 -0.003068 -0.005832 -0.002702 0.005428 -0.000273
# 2 -0.003068 0.019830 0.000645 -0.011837 -0.008859 -0.000012
# 3 -0.005832 0.000645 0.017979 -0.003469 0.002308 0.002601
# 4 -0.002702 -0.011837 -0.003469 0.041317 0.004130 -0.001014
# 5 0.005428 -0.008859 0.002308 0.004130 0.031971 0.001454
# 6 -0.000273 -0.000012 0.002601 -0.001014 0.001454 0.025754
#
#
# Mechanical properties :
#
#
# Convention : Reuss Voigt Hill
#
# Bulk Modulus (GPa) = 27.63196 37.90499 32.76847
# Shear Modulus (GPa) = 27.72944 34.13133 30.93039
#
# Velocity S-wave (km/s) = 3.56765 3.95812 3.76795
# Velocity P-wave (km/s) = 5.44557 6.18771 5.82847
#
# Compressibility (1/GPa) = 0.03618998
#
# Stress axis : x y z
#
# Youngs Moduli (GPa) = 67.15909 50.42869 55.61992
#
# Poissons Ratio (x) = 0.15470 0.32437
# Poissons Ratio (y) = 0.20602 -0.03588
# Poissons Ratio (z) = 0.39167 -0.03253
#
# Static dielectric constant tensor:
#      x y z
#    x 1.970330 -0.183540 -0.225150 
#    y -0.183540 2.116700 0.226940 
#    z -0.225150 0.226940 2.051790 
# 
# From -- ./inp_files/156582.got.cif
#   From: 2010.05.17/outbox.cif.g08.bks.cpg/sg2_79_cif.got.tgz:156582.got - 2010.06.03 11:33:40.
