data_PCOD9028481
_publ_section_title
;
Structure prediction by ZEFSAII (Michael W. Deem and Ramdas Pophale) SiO2 
 PCOD9028481
Probable space group: P -1
;
_chemical_formula_sum "Si O2"
_cell_formula_units_Z 14
_cell_length_a 7.837965
_cell_length_b 21.241095
_cell_length_c 7.283015
_cell_angle_alpha 129.729557
_cell_angle_beta 78.101250
_cell_angle_gamma 134.957642
_cell_volume 588.956809
_symmetry_space_group_name_H-M "P -1"
_symmetry_group_IT_number 2
_symmetry_cell_setting 'triclinic'
loop_
_space_group_symop_operation_xyz
x,y,z
-x,-y,-z
loop_
_atom_site_type_symbol
_atom_site_label
_atom_site_fract_x
_atom_site_fract_y
_atom_site_fract_z
Si Si1 0.770385 0.024165 0.268854
Si Si2 0.335155 0.152185 0.280312
Si Si3 0.858606 0.451937 0.742013
Si Si4 0.278260 0.053274 0.487763
Si Si5 0.852263 0.593923 0.459725
Si Si6 0.252631 0.405447 0.115948
Si Si7 0.181868 0.784702 0.415734
O O1 0.751706 0.025847 0.496599
O O2 0.677668 0.078316 0.318082
O O3 0.622522 0.887502 0.984586
O O4 0.066775 0.111026 0.281889
O O5 0.578826 0.301914 0.531881
O O6 0.285149 0.065768 0.289184
O O7 0.797888 0.519961 0.805639
O O8 0.069178 0.470063 0.619955
O O9 0.000000 0.500000 0.000000
O O10 0.598073 0.191835 0.696359
O O11 0.000000 0.000000 0.500000
O O12 0.569187 0.497889 0.233961
O O13 0.840240 0.638653 0.735208
O O14 0.073274 0.707206 0.481549
O O15 0.073837 0.290493 0.799034
#
# Coordination Sequence:
#
# PCOD9028481 Si02
#       7
#     2   2   2   2   2   2   2
#     4  10  24  40  68  93 132 179 220 279 336 400
#     4  10  22  44  63  97 133 173 226 274 337 408
#     4  12  23  44  74  98 139 183 223 285 346 402
#     4  10  22  42  62  95 131 173 228 274 332 404
#     4  11  25  45  69 105 137 182 229 281 344 408
#     4  11  26  45  69 106 138 176 233 282 341 410
#     4  12  23  43  70  97 137 179 224 285 340 407
#
# _framework density 23.770844
#
# number of rings (size 3 to 8) (size 9 to 14) (size 15 to 20)
#    0.000    1.143    2.857    2.143    4.000    1.714 
#    2.571    2.857    0.000    0.000    0.000    0.000 
#    0.000    0.000    0.000    0.000    0.000    0.000 
#
# Total GULP energy -77972.936542 kJ/mol
# GULP energy per Si atom -5569.495467 kJ/mol
# Density = 2.371674 g / cm^3
# Si number density = 23.770844 Si / 1000 Ang^3
#
#
#
# Elastic Constant Matrix: (Units=GPa)
#
#
# Indices 1 2 3 4 5 6 
#
# 1 124.8478 43.8745 16.6183 15.1770 4.0328 0.4208
# 2 43.8745 123.6305 25.8322 5.5746 -0.3480 6.9427
# 3 16.6183 25.8322 87.2980 10.8713 4.2260 -1.0811
# 4 15.1770 5.5746 10.8713 26.2022 0.6551 0.4960
# 5 4.0328 -0.3480 4.2260 0.6551 33.7612 2.8136
# 6 0.4208 6.9427 -1.0811 0.4960 2.8136 32.0544
#
#
#
# Elastic Compliance Matrix: (Units=1/GPa)
#
#
# Indices 1 2 3 4 5 6 
#
# 1 0.009814 -0.003259 -0.000231 -0.004880 -0.001144 0.000745
# 2 -0.003259 0.009855 -0.002475 0.000837 0.000974 -0.002274
# 3 -0.000231 -0.002475 0.012907 -0.004677 -0.001622 0.001189
# 4 -0.004880 0.000837 -0.004677 0.042761 0.000428 -0.000974
# 5 -0.001144 0.000974 -0.001622 0.000428 0.030204 -0.002908
# 6 0.000745 -0.002274 0.001189 -0.000974 -0.002908 0.031990
#
#
# Mechanical properties :
#
#
# Convention : Reuss Voigt Hill
#
# Bulk Modulus (GPa) = 48.44012 56.49180 52.46596
# Shear Modulus (GPa) = 31.98062 35.03365 33.50713
#
# Velocity S-wave (km/s) = 3.67191 3.84318 3.75852
# Velocity P-wave (km/s) = 6.19673 6.59622 6.39959
#
# Compressibility (1/GPa) = 0.02064405
#
# Stress axis : x y z
#
# Youngs Moduli (GPa) = 101.89832 101.46901 77.47664
#
# Poissons Ratio (x) = 0.33073 0.01792
# Poissons Ratio (y) = 0.33213 0.19178
# Poissons Ratio (z) = 0.02357 0.25117
#
# Static dielectric constant tensor:
#      x y z
#    x 1.987680 0.047840 0.010510 
#    y 0.047840 1.898490 -0.049730 
#    z 0.010510 -0.049730 1.979970 
# 
# From -- ./inp_files/226622.got.cif
#   From: 2010.05.17/outbox.cif.g08.bks.cpg/sg2_114_cif.got.tgz:226622.got - 2010.06.03 11:33:40.
