data_PCOD9028683
_publ_section_title
;
Structure prediction by ZEFSAII (Michael W. Deem and Ramdas Pophale) SiO2 
 PCOD9028683
Probable space group: P -1
;
_chemical_formula_sum "Si O2"
_cell_formula_units_Z 14
_cell_length_a 9.227869
_cell_length_b 20.313172
_cell_length_c 10.342397
_cell_angle_alpha 142.825439
_cell_angle_beta 46.319614
_cell_angle_gamma 143.339658
_cell_volume 692.272284
_symmetry_space_group_name_H-M "P -1"
_symmetry_group_IT_number 2
_symmetry_cell_setting 'triclinic'
loop_
_space_group_symop_operation_xyz
x,y,z
-x,-y,-z
loop_
_atom_site_type_symbol
_atom_site_label
_atom_site_fract_x
_atom_site_fract_y
_atom_site_fract_z
Si Si1 0.833166 0.859139 0.608568
Si Si2 0.460410 0.425782 0.103074
Si Si3 0.375111 0.992171 0.927670
Si Si4 0.563218 0.345032 0.658111
Si Si5 0.899356 0.648487 0.336556
Si Si6 0.684263 0.099881 0.653967
Si Si7 0.020266 0.683943 0.609442
O O1 0.639912 0.788548 0.501087
O O2 0.791543 0.738836 0.535494
O O3 0.108637 0.927927 0.497811
O O4 0.794771 0.957681 0.861239
O O5 0.443526 0.536996 0.214414
O O6 0.706815 0.510739 0.169134
O O7 0.213509 0.347811 0.216517
O O8 0.490253 0.340581 0.845432
O O9 0.217610 0.842712 0.737690
O O10 0.560604 0.081762 0.839051
O O11 0.500000 0.000000 0.000000
O O12 0.826716 0.371453 0.519957
O O13 0.156733 0.747493 0.257597
O O14 0.939917 0.631603 0.432178
O O15 0.500000 0.000000 0.500000
#
# Coordination Sequence:
#
# PCOD9028683 Si02
#       7
#     2   2   2   2   2   2   2
#     4   9  22  42  63  92 128 164 204 259 317 371
#     4  10  23  43  64  87 126 168 208 261 320 365
#     4  12  24  38  66 100 126 164 215 256 322 378
#     4  10  22  42  64  93 123 165 210 262 319 367
#     4   9  22  45  62  89 129 167 210 257 314 379
#     4  10  22  43  63  89 132 170 203 259 314 380
#     4  12  23  39  64  97 124 161 218 259 308 386
#
# _framework density 20.223257
#
# number of rings (size 3 to 8) (size 9 to 14) (size 15 to 20)
#    0.857    0.857    2.857    0.857    2.000    4.571 
#    7.714    0.000    0.000    0.000    0.000    0.000 
#    0.000    0.000    0.000    0.000    0.000    0.000 
#
# Total GULP energy -78098.632003 kJ/mol
# GULP energy per Si atom -5578.473714 kJ/mol
# Density = 2.017723 g / cm^3
# Si number density = 20.223257 Si / 1000 Ang^3
#
#
#
# Elastic Constant Matrix: (Units=GPa)
#
#
# Indices 1 2 3 4 5 6 
#
# 1 53.0775 18.0257 13.3142 23.3690 37.6474 20.8313
# 2 18.0257 52.7063 4.7635 -34.5260 -1.9064 20.9620
# 3 13.3142 4.7635 52.7799 -10.8064 -2.9700 4.2546
# 4 23.3690 -34.5260 -10.8064 10.3300 -17.5367 1.7609
# 5 37.6474 -1.9064 -2.9700 -17.5367 15.1847 2.2224
# 6 20.8313 20.9620 4.2546 1.7609 2.2224 22.6015
#
#
#
# Elastic Compliance Matrix: (Units=1/GPa)
#
#
# Indices 1 2 3 4 5 6 
#
# 1 0.028478 0.035530 0.000316 0.033691 -0.018382 -0.060077
# 2 0.035530 0.051378 -0.005187 0.023125 -0.044701 -0.076827
# 3 0.000316 -0.005187 0.018209 -0.004063 -0.002812 0.001685
# 4 0.033691 0.023125 -0.004063 0.024957 -0.045394 -0.049216
# 5 -0.018382 -0.044701 -0.002812 -0.045394 0.044339 0.058107
# 6 -0.060077 -0.076827 0.001685 -0.049216 0.058107 0.168674
#
#
# Mechanical properties :
#
#
# Convention : Reuss Voigt Hill
#
# Bulk Modulus (GPa) = 6.27425 25.64117 15.95771
# Shear Modulus (GPa) = 15.25105 17.78727 16.51916
#
# Velocity S-wave (km/s) = 2.74913 2.96893 2.86114
# Velocity P-wave (km/s) = 3.63128 4.94563 4.33852
#
# Compressibility (1/GPa) = 0.15938172
#
# Stress axis : x y z
#
# Youngs Moduli (GPa) = 35.11439 19.46375 54.91743
#
# Poissons Ratio (x) = -0.69154 -0.01734
# Poissons Ratio (y) = -1.24760 0.28487
# Poissons Ratio (z) = -0.01109 0.10096
#
# Static dielectric constant tensor:
#      x y z
#    x 1.750120 -0.012750 -0.005690 
#    y -0.012750 1.712730 -0.012430 
#    z -0.005690 -0.012430 1.675490 
# 
# From -- ./inp_files/222555.got.cif
#   From: 2010.05.17/outbox.cif.g08.bks.cpg/sg2_112_cif.got.tgz:222555.got - 2010.06.03 11:33:40.
