data_PCOD9028964
_publ_section_title
;
Structure prediction by ZEFSAII (Michael W. Deem and Ramdas Pophale) SiO2 
 PCOD9028964
Probable space group: P -1
;
_chemical_formula_sum "Si O2"
_cell_formula_units_Z 15
_cell_length_a 10.932431
_cell_length_b 8.623626
_cell_length_c 11.833381
_cell_angle_alpha 115.215119
_cell_angle_beta 119.251612
_cell_angle_gamma 39.023262
_cell_volume 610.670951
_symmetry_space_group_name_H-M "P -1"
_symmetry_group_IT_number 2
_symmetry_cell_setting 'triclinic'
loop_
_space_group_symop_operation_xyz
x,y,z
-x,-y,-z
loop_
_atom_site_type_symbol
_atom_site_label
_atom_site_fract_x
_atom_site_fract_y
_atom_site_fract_z
Si Si1 0.500000 0.000000 0.000000
Si Si2 0.289145 0.038371 0.139457
Si Si3 0.984243 0.412623 0.720472
Si Si4 0.319464 0.882490 0.776863
Si Si5 0.604848 0.085974 0.606238
Si Si6 0.732865 0.274586 0.071128
Si Si7 0.077992 0.615463 0.674856
Si Si8 0.282590 0.593119 0.537963
O O1 0.583663 0.028732 0.934889
O O2 0.527574 0.788125 0.875546
O O3 0.148109 0.323684 0.197827
O O4 0.424480 0.877473 0.260299
O O5 0.179479 0.954570 0.037628
O O6 0.074297 0.420369 0.649826
O O7 0.844481 0.373429 0.611978
O O8 0.175601 0.177573 0.804411
O O9 0.255111 0.815147 0.826213
O O10 0.288867 0.790792 0.625067
O O11 0.509251 0.321323 0.562604
O O12 0.500000 0.000000 0.500000
O O13 0.844345 0.871420 0.633526
O O14 0.835793 0.364888 0.168563
O O15 0.500000 0.500000 0.000000
O O16 0.191328 0.572380 0.599868
#
# Coordination Sequence:
#
# PCOD9028964 Si02
#       8
#     1   2   2   2   2   2   2   2
#     4  10  24  42  62  90 128 184 216 272 338 396
#     4  10  22  42  65  97 132 174 226 280 331 400
#     4  11  23  40  67  98 134 173 225 279 332 411
#     4  10  24  41  64  94 132 178 222 274 343 395
#     4  11  22  40  68 107 133 167 233 280 326 410
#     4  10  22  43  68  95 132 176 230 281 330 405
#     4  10  23  40  69 100 131 184 220 276 347 392
#     4  11  22  45  66  99 141 177 221 281 335 405
#
# _framework density 24.563146
#
# number of rings (size 3 to 8) (size 9 to 14) (size 15 to 20)
#    0.000    1.600    2.667    2.400    5.600    4.267 
#    7.200    0.667    0.000    0.000    0.000    0.000 
#    0.000    0.000    0.000    0.000    0.000    0.000 
#
# Total GULP energy -83541.779344 kJ/mol
# GULP energy per Si atom -5569.451956 kJ/mol
# Density = 2.450724 g / cm^3
# Si number density = 24.563146 Si / 1000 Ang^3
#
#
#
# Elastic Constant Matrix: (Units=GPa)
#
#
# Indices 1 2 3 4 5 6 
#
# 1 60.8247 -11.8772 27.7063 8.2687 2.7372 -0.6591
# 2 -11.8772 75.6556 -13.1232 9.7576 -7.0385 -5.4556
# 3 27.7063 -13.1232 120.6504 35.7317 24.1039 -2.6428
# 4 8.2687 9.7576 35.7317 36.0039 21.7377 11.4412
# 5 2.7372 -7.0385 24.1039 21.7377 53.4246 7.3660
# 6 -0.6591 -5.4556 -2.6428 11.4412 7.3660 24.2400
#
#
#
# Elastic Compliance Matrix: (Units=1/GPa)
#
#
# Indices 1 2 3 4 5 6 
#
# 1 0.019036 0.003368 -0.003157 -0.004263 0.002318 0.002239
# 2 0.003368 0.018696 0.006089 -0.019216 0.005664 0.012312
# 3 -0.003157 0.006089 0.016214 -0.021524 0.000611 0.013026
# 4 -0.004263 -0.019216 -0.021524 0.079317 -0.019599 -0.038269
# 5 0.002318 0.005664 0.000611 -0.019599 0.026694 0.002543
# 6 0.002239 0.012312 0.013026 -0.038269 0.002543 0.062796
#
#
# Mechanical properties :
#
#
# Convention : Reuss Voigt Hill
#
# Bulk Modulus (GPa) = 15.02733 29.17139 22.09936
# Shear Modulus (GPa) = 21.52083 39.69536 30.60809
#
# Velocity S-wave (km/s) = 2.96318 4.02438 3.53384
# Velocity P-wave (km/s) = 4.22355 5.78757 5.06628
#
# Compressibility (1/GPa) = 0.06654543
#
# Stress axis : x y z
#
# Youngs Moduli (GPa) = 52.53294 53.48794 61.67679
#
# Poissons Ratio (x) = -0.18014 0.19469
# Poissons Ratio (y) = -0.17692 -0.37555
# Poissons Ratio (z) = 0.16583 -0.32569
#
# Static dielectric constant tensor:
#      x y z
#    x 2.232380 -0.357990 0.299290 
#    y -0.357990 2.398820 -0.272440 
#    z 0.299290 -0.272440 2.326610 
# 
# From -- ./inp_files/418239.got.cif
#   From: 2010.05.17/outbox.cif.g08.bks.cpg/sg2_210_cif.got.tgz:418239.got - 2010.06.03 11:33:40.
