data_PCOD9028389
_publ_section_title
;
Structure prediction by ZEFSAII (Michael W. Deem and Ramdas Pophale) SiO2 
 PCOD9028389
Probable space group: P -1
;
_chemical_formula_sum "Si O2"
_cell_formula_units_Z 16
_cell_length_a 14.075690
_cell_length_b 7.289227
_cell_length_c 5.859639
_cell_angle_alpha 91.121944
_cell_angle_beta 101.342806
_cell_angle_gamma 89.174003
_cell_volume 589.314271
_symmetry_space_group_name_H-M "P -1"
_symmetry_group_IT_number 2
_symmetry_cell_setting 'triclinic'
loop_
_space_group_symop_operation_xyz
x,y,z
-x,-y,-z
loop_
_atom_site_type_symbol
_atom_site_label
_atom_site_fract_x
_atom_site_fract_y
_atom_site_fract_z
Si Si1 0.646053 0.477040 0.706793
Si Si2 0.017923 0.261217 0.256968
Si Si3 0.227155 0.110938 0.453758
Si Si4 0.005586 0.697092 0.240028
Si Si5 0.459699 0.708420 0.991125
Si Si6 0.427023 0.139090 0.334981
Si Si7 0.786123 0.613345 0.158233
Si Si8 0.743019 0.272836 0.360241
O O1 0.578607 0.643682 0.583459
O O2 0.727349 0.384423 0.587225
O O3 0.588819 0.305309 0.783767
O O4 0.707453 0.587818 0.926999
O O5 0.123830 0.164821 0.304145
O O6 0.978056 0.223517 0.495332
O O7 0.035973 0.482242 0.262075
O O8 0.962665 0.221132 0.989074
O O9 0.316968 0.077103 0.324993
O O10 0.256144 0.271294 0.647862
O O11 0.218816 0.927723 0.590363
O O12 0.888897 0.699022 0.160194
O O13 0.538033 0.838614 0.911692
O O14 0.366081 0.732288 0.787996
O O15 0.500000 0.500000 0.000000
O O16 0.500000 0.000000 0.500000
O O17 0.805432 0.403554 0.235624
#
# Coordination Sequence:
#
# PCOD9028389 Si02
#       8
#     2   2   2   2   2   2   2   2
#     4  10  22  42  61  86 124 169 209 268 326 384
#     4   9  19  37  63 100 126 168 212 273 321 394
#     4  11  22  41  64  91 127 163 214 267 325 387
#     4   9  18  36  68  94 129 167 218 259 329 394
#     4   9  21  39  58  84 117 165 213 265 321 379
#     4  11  20  39  60  87 120 165 212 264 318 387
#     4  10  22  42  65  89 124 169 210 257 326 395
#     4  11  22  42  62  91 126 165 210 270 326 385
#
# _framework density 27.150200000000002
#
# number of rings (size 3 to 8) (size 9 to 14) (size 15 to 20)
#    0.000    2.000    2.500    0.750    1.750    2.000 
#   15.750    1.875    0.000    0.750    0.000    0.000 
#    0.000    0.000    0.000    0.000    0.000    0.000 
#
# Total GULP energy -89418.089481 kJ/mol
# GULP energy per Si atom -5588.630593 kJ/mol
# Density = 2.708840 g / cm^3
# Si number density = 27.150200 Si / 1000 Ang^3
#
#
#
# Elastic Constant Matrix: (Units=GPa)
#
#
# Indices 1 2 3 4 5 6 
#
# 1 89.7780 18.6845 40.9747 3.1678 4.2650 -6.2427
# 2 18.6845 128.8514 41.6011 -25.4167 9.9620 -16.3459
# 3 40.9747 41.6011 143.3564 -23.9830 11.2589 2.6827
# 4 3.1678 -25.4167 -23.9830 39.4432 -5.7310 4.9931
# 5 4.2650 9.9620 11.2589 -5.7310 43.5913 -10.5908
# 6 -6.2427 -16.3459 2.6827 4.9931 -10.5908 39.4100
#
#
#
# Elastic Compliance Matrix: (Units=1/GPa)
#
#
# Indices 1 2 3 4 5 6 
#
# 1 0.013781 -0.001197 -0.004469 -0.004918 0.000073 0.002633
# 2 -0.001197 0.009923 -0.001751 0.004968 -0.000230 0.003354
# 3 -0.004469 -0.001751 0.009864 0.005381 -0.001797 -0.003270
# 4 -0.004918 0.004968 0.005381 0.032808 0.001585 -0.002816
# 5 0.000073 -0.000230 -0.001797 0.001585 0.025269 0.006628
# 6 0.002633 0.003354 -0.003270 -0.002816 0.006628 0.029543
#
#
# Mechanical properties :
#
#
# Convention : Reuss Voigt Hill
#
# Bulk Modulus (GPa) = 53.38286 62.72292 58.05289
# Shear Modulus (GPa) = 35.14541 41.87062 38.50802
#
# Velocity S-wave (km/s) = 3.60179 3.93133 3.77016
# Velocity P-wave (km/s) = 6.08292 6.61509 6.35458
#
# Compressibility (1/GPa) = 0.01873260
#
# Stress axis : x y z
#
# Youngs Moduli (GPa) = 72.56521 100.77603 101.38107
#
# Poissons Ratio (x) = 0.12064 0.45310
# Poissons Ratio (y) = 0.08687 0.17752
# Poissons Ratio (z) = 0.32432 0.17646
#
# Static dielectric constant tensor:
#      x y z
#    x 2.138750 -0.025190 -0.106100 
#    y -0.025190 2.105340 0.034840 
#    z -0.106100 0.034840 2.260300 
# 
# From -- ./inp_files/106731.got.cif
#   From: 2010.05.17/outbox.cif.g08.bks.cpg/sg2_54_cif.got.tgz:106731.got - 2010.06.03 11:33:40.
