data_PCOD9028274
_publ_section_title
;
Structure prediction by ZEFSAII (Michael W. Deem and Ramdas Pophale) SiO2 
 PCOD9028274
Probable space group: P -1
;
_chemical_formula_sum "Si O2"
_cell_formula_units_Z 16
_cell_length_a 17.461917
_cell_length_b 12.328999
_cell_length_c 7.994721
_cell_angle_alpha 52.437649
_cell_angle_beta 52.378375
_cell_angle_gamma 32.452827
_cell_volume 713.220186
_symmetry_space_group_name_H-M "P -1"
_symmetry_group_IT_number 2
_symmetry_cell_setting 'triclinic'
loop_
_space_group_symop_operation_xyz
x,y,z
-x,-y,-z
loop_
_atom_site_type_symbol
_atom_site_label
_atom_site_fract_x
_atom_site_fract_y
_atom_site_fract_z
Si Si1 0.567022 0.730224 0.718761
Si Si2 0.975259 0.639116 0.257810
Si Si3 0.099404 0.012932 0.775242
Si Si4 0.909735 0.203103 0.535528
Si Si5 0.709299 0.816496 0.246968
Si Si6 0.370084 0.526224 0.821122
Si Si7 0.587395 0.463268 0.757070
Si Si8 0.764109 0.555997 0.140305
O O1 0.660197 0.760839 0.508843
O O2 0.544537 0.668063 0.636434
O O3 0.412560 0.936626 0.808416
O O4 0.647161 0.551698 0.917198
O O5 0.898740 0.856581 0.232094
O O6 0.868943 0.697210 0.198644
O O7 0.000000 0.500000 0.500000
O O8 0.130046 0.514012 0.086274
O O9 0.009907 0.149212 0.601461
O O10 0.250507 0.775069 0.753539
O O11 0.000000 0.000000 0.000000
O O12 0.761518 0.281665 0.713896
O O13 0.861222 0.378097 0.318642
O O14 0.000000 0.000000 0.500000
O O15 0.700109 0.753796 0.137812
O O16 0.526422 0.435612 0.715497
O O17 0.343128 0.449092 0.779844
O O18 0.500000 0.500000 0.000000
#
# Coordination Sequence:
#
# PCOD9028274 Si02
#       8
#     2   2   2   2   2   2   2   2
#     4  10  22  44  70  95 139 191 240 302 354 440
#     4  12  26  46  73 104 144 195 250 291 359 456
#     4  12  23  43  74 106 143 190 242 296 368 429
#     4  12  24  44  68 109 150 184 230 310 378 421
#     4  11  24  43  67 100 140 192 243 290 374 423
#     4  11  23  42  69 105 139 183 246 297 362 430
#     4  10  22  41  73  99 137 187 238 294 359 436
#     4  12  25  43  69 103 148 187 235 315 366 420
#
# _framework density 22.433465000000002
#
# number of rings (size 3 to 8) (size 9 to 14) (size 15 to 20)
#    0.000    0.750    3.750    4.125    0.000    4.000 
#    0.000    0.000    0.000    0.000    0.000    0.000 
#    0.000    0.000    0.000    0.000    0.000    0.000 
#
# Total GULP energy -89443.968386 kJ/mol
# GULP energy per Si atom -5590.248024 kJ/mol
# Density = 2.238241 g / cm^3
# Si number density = 22.433465 Si / 1000 Ang^3
#
#
#
# Elastic Constant Matrix: (Units=GPa)
#
#
# Indices 1 2 3 4 5 6 
#
# 1 146.4041 49.4707 8.2218 -3.9405 -0.1878 19.3635
# 2 49.4707 122.9134 9.5049 12.2734 -4.1327 17.3773
# 3 8.2218 9.5049 72.2780 -4.8411 5.3733 -8.4978
# 4 -3.9405 12.2734 -4.8411 29.8736 -2.3429 0.6306
# 5 -0.1878 -4.1327 5.3733 -2.3429 35.1845 3.8519
# 6 19.3635 17.3773 -8.4978 0.6306 3.8519 37.9116
#
#
#
# Elastic Compliance Matrix: (Units=1/GPa)
#
#
# Indices 1 2 3 4 5 6 
#
# 1 0.008398 -0.003105 -0.000777 0.002346 0.000296 -0.003110
# 2 -0.003105 0.010613 -0.001936 -0.004877 0.001616 -0.003796
# 3 -0.000777 -0.001936 0.015162 0.002818 -0.002899 0.004931
# 4 0.002346 -0.004877 0.002818 0.036328 0.001327 0.000930
# 5 0.000296 0.001616 -0.002899 0.001327 0.029645 -0.004576
# 6 -0.003110 -0.003796 0.004931 0.000930 -0.004576 0.031260
#
#
# Mechanical properties :
#
#
# Convention : Reuss Voigt Hill
#
# Bulk Modulus (GPa) = 44.36936 52.88782 48.62859
# Shear Modulus (GPa) = 33.21049 38.88714 36.04882
#
# Velocity S-wave (km/s) = 3.85177 4.16798 4.01299
# Velocity P-wave (km/s) = 6.29306 6.84027 6.57237
#
# Compressibility (1/GPa) = 0.02253808
#
# Stress axis : x y z
#
# Youngs Moduli (GPa) = 119.07685 94.22406 65.95249
#
# Poissons Ratio (x) = 0.29253 0.05127
# Poissons Ratio (y) = 0.36969 0.12766
# Poissons Ratio (z) = 0.09257 0.18238
#
# Static dielectric constant tensor:
#      x y z
#    x 1.921590 0.030640 -0.002440 
#    y 0.030640 1.754290 0.017990 
#    z -0.002440 0.017990 1.901670 
# 
# From -- ./inp_files/332839.got.cif
#   From: 2010.05.17/outbox.cif.g08.bks.cpg/sg2_167_cif.got.tgz:332839.got - 2010.06.03 11:33:40.
