data_PCOD9028489
_publ_section_title
;
Structure prediction by ZEFSAII (Michael W. Deem and Ramdas Pophale) SiO2 
 PCOD9028489
Probable space group: P -1
;
_chemical_formula_sum "Si O2"
_cell_formula_units_Z 15
_cell_length_a 6.729349
_cell_length_b 14.801788
_cell_length_c 8.668628
_cell_angle_alpha 81.458129
_cell_angle_beta 52.522440
_cell_angle_gamma 94.103478
_cell_volume 663.044439
_symmetry_space_group_name_H-M "P -1"
_symmetry_group_IT_number 2
_symmetry_cell_setting 'triclinic'
loop_
_space_group_symop_operation_xyz
x,y,z
-x,-y,-z
loop_
_atom_site_type_symbol
_atom_site_label
_atom_site_fract_x
_atom_site_fract_y
_atom_site_fract_z
Si Si1 0.328530 0.396970 0.576613
Si Si2 0.000000 0.000000 0.500000
Si Si3 0.293822 0.374074 0.236757
Si Si4 0.541560 0.035533 0.709032
Si Si5 0.222324 0.890782 0.115598
Si Si6 0.882302 0.470467 0.895816
Si Si7 0.707701 0.794932 0.242126
Si Si8 0.745839 0.818901 0.863642
O O1 0.500000 0.500000 0.500000
O O2 0.292353 0.374787 0.420456
O O3 0.422962 0.312067 0.636703
O O4 0.051192 0.401553 0.769961
O O5 0.297498 0.023943 0.447433
O O6 0.914550 0.905849 0.675960
O O7 0.111496 0.438440 0.235572
O O8 0.236023 0.273172 0.214248
O O9 0.588084 0.420234 0.048785
O O10 0.772940 0.063696 0.725839
O O11 0.472705 0.131001 0.666935
O O12 0.305484 0.974859 0.931346
O O13 0.953942 0.826487 0.224979
O O14 0.455206 0.836995 0.008469
O O15 0.000000 0.500000 0.000000
O O16 0.810514 0.806856 0.015213
#
# Coordination Sequence:
#
# PCOD9028489 Si02
#       8
#     2   1   2   2   2   2   2   2
#     4  12  26  45  67 103 137 174 231 285 337 407
#     4  10  22  42  62  96 142 162 218 274 328 394
#     4  11  25  44  71  98 136 181 226 278 346 399
#     4   9  20  39  65  95 128 172 212 275 325 399
#     4   9  19  41  66  90 130 167 221 265 333 390
#     4  11  23  46  72  98 136 178 225 286 340 402
#     4  11  23  42  67  94 130 178 226 270 336 403
#     4  10  23  43  66  96 131 179 217 277 335 396
#
# _framework density 22.622919
#
# number of rings (size 3 to 8) (size 9 to 14) (size 15 to 20)
#    0.000    1.600    1.333    3.200    3.733    1.067 
#    7.200    2.000    0.000    0.000    0.000    0.000 
#    0.000    0.000    0.000    0.000    0.000    0.000 
#
# Total GULP energy -83695.362770 kJ/mol
# GULP energy per Si atom -5579.690851 kJ/mol
# Density = 2.257143 g / cm^3
# Si number density = 22.622919 Si / 1000 Ang^3
#
#
#
# Elastic Constant Matrix: (Units=GPa)
#
#
# Indices 1 2 3 4 5 6 
#
# 1 48.3583 18.9469 6.8194 -12.5616 1.8928 2.4932
# 2 18.9469 98.5297 24.8390 -8.7690 27.3964 -0.6422
# 3 6.8194 24.8390 75.7754 -8.4347 12.7952 -2.7116
# 4 -12.5616 -8.7690 -8.4347 44.0170 -3.7847 3.6508
# 5 1.8928 27.3964 12.7952 -3.7847 32.5505 0.1351
# 6 2.4932 -0.6422 -2.7116 3.6508 0.1351 40.9609
#
#
#
# Elastic Compliance Matrix: (Units=1/GPa)
#
#
# Indices 1 2 3 4 5 6 
#
# 1 0.024346 -0.005048 -0.000549 0.006344 0.003795 -0.002175
# 2 -0.005048 0.014885 -0.002507 0.000044 -0.011246 0.000408
# 3 -0.000549 -0.002507 0.014893 0.001828 -0.003503 0.000829
# 4 0.006344 0.000044 0.001828 0.025254 0.001823 -0.002521
# 5 0.003795 -0.011246 -0.003503 0.001823 0.041559 -0.000939
# 6 -0.002175 0.000408 0.000829 -0.002521 -0.000939 0.024835
#
#
# Mechanical properties :
#
#
# Convention : Reuss Voigt Hill
#
# Bulk Modulus (GPa) = 26.37373 35.98600 31.17987
# Shear Modulus (GPa) = 28.63396 34.97621 31.80509
#
# Velocity S-wave (km/s) = 3.56154 3.93625 3.75357
# Velocity P-wave (km/s) = 5.34752 6.04981 5.70947
#
# Compressibility (1/GPa) = 0.03791652
#
# Stress axis : x y z
#
# Youngs Moduli (GPa) = 41.07505 67.17967 67.14724
#
# Poissons Ratio (x) = 0.33913 0.03685
# Poissons Ratio (y) = 0.20735 0.16831
# Poissons Ratio (z) = 0.02254 0.16840
#
# Static dielectric constant tensor:
#      x y z
#    x 2.112650 -0.710550 -0.743440 
#    y -0.710550 3.935900 2.294570 
#    z -0.743440 2.294570 4.340820 
# 
# From -- ./inp_files/37108.got.cif
#   From: 2010.05.17/outbox.cif.g08.bks.cpg/sg2_19_cif.got.tgz:37108.got - 2010.06.03 11:33:40.
