data_PCOD9028428
_publ_section_title
;
Structure prediction by ZEFSAII (Michael W. Deem and Ramdas Pophale) SiO2 
 PCOD9028428
Probable space group: P -1
;
_chemical_formula_sum "Si O2"
_cell_formula_units_Z 16
_cell_length_a 8.437297
_cell_length_b 16.344496
_cell_length_c 19.100402
_cell_angle_alpha 160.702099
_cell_angle_beta 128.030112
_cell_angle_gamma 54.460468
_cell_volume 685.671218
_symmetry_space_group_name_H-M "P -1"
_symmetry_group_IT_number 2
_symmetry_cell_setting 'triclinic'
loop_
_space_group_symop_operation_xyz
x,y,z
-x,-y,-z
loop_
_atom_site_type_symbol
_atom_site_label
_atom_site_fract_x
_atom_site_fract_y
_atom_site_fract_z
Si Si1 0.183360 0.282520 0.417451
Si Si2 0.546386 0.876115 0.523410
Si Si3 0.119672 0.627197 0.028098
Si Si4 0.160010 0.850282 0.875714
Si Si5 0.537981 0.750067 0.669492
Si Si6 0.841246 0.010039 0.308512
Si Si7 0.742107 0.485710 0.884352
Si Si8 0.761338 0.777065 0.355530
O O1 0.303039 0.095665 0.349117
O O2 0.181154 0.563337 0.674259
O O3 0.309904 0.299027 0.393213
O O4 0.958778 0.188911 0.261873
O O5 0.419604 0.627726 0.302451
O O6 0.671969 0.816525 0.439677
O O7 0.019098 0.135380 0.827645
O O8 0.266729 0.654993 0.157341
O O9 0.619064 0.918340 0.375370
O O10 0.225952 0.505804 0.894356
O O11 0.957685 0.441507 0.870673
O O12 0.360514 0.020236 0.073622
O O13 0.000000 0.000000 0.000000
O O14 0.500000 0.500000 0.500000
O O15 0.323669 0.822989 0.636744
O O16 0.007024 0.130852 0.501469
O O17 0.726601 0.778575 0.126242
#
# Coordination Sequence:
#
# PCOD9028428 Si02
#       8
#     2   2   2   2   2   2   2   2
#     4  10  23  43  72  96 131 181 223 274 344 399
#     4  11  23  41  61 101 132 176 220 263 325 412
#     4   9  20  39  64  91 129 179 209 269 324 382
#     4   9  21  46  70  96 129 170 226 284 335 403
#     4  11  25  43  71 101 130 169 232 287 341 394
#     4  10  22  42  61  99 128 172 218 275 325 406
#     4   9  19  38  65  90 130 169 225 256 316 408
#     4  11  24  39  63  94 146 169 211 272 327 394
#
# _framework density 23.334800000000001
#
# number of rings (size 3 to 8) (size 9 to 14) (size 15 to 20)
#    0.750    1.250    1.250    0.750    3.500    5.000 
#    0.000    3.750    0.000    0.000    0.000    0.000 
#    0.000    0.000    0.000    0.000    0.000    0.000 
#
# Total GULP energy -89220.623058 kJ/mol
# GULP energy per Si atom -5576.288941 kJ/mol
# Density = 2.328169 g / cm^3
# Si number density = 23.334800 Si / 1000 Ang^3
#
#
#
# Elastic Constant Matrix: (Units=GPa)
#
#
# Indices 1 2 3 4 5 6 
#
# 1 64.7601 30.5652 28.4492 2.2380 -12.5100 -5.8858
# 2 30.5652 138.2620 32.9682 -2.9951 0.7830 -30.4719
# 3 28.4492 32.9682 104.1511 -1.8575 6.1825 -11.6384
# 4 2.2380 -2.9951 -1.8575 27.3412 -9.1718 2.6170
# 5 -12.5100 0.7830 6.1825 -9.1718 37.2330 4.2424
# 6 -5.8858 -30.4719 -11.6384 2.6170 4.2424 33.9498
#
#
#
# Elastic Compliance Matrix: (Units=1/GPa)
#
#
# Indices 1 2 3 4 5 6 
#
# 1 0.021041 -0.004073 -0.005280 0.000610 0.008516 -0.002929
# 2 -0.004073 0.010257 -0.001048 -0.000241 -0.002434 0.008463
# 3 -0.005280 -0.001048 0.011927 -0.000544 -0.004185 0.002797
# 4 0.000610 -0.000241 -0.000544 0.040553 0.010834 -0.004777
# 5 0.008516 -0.002434 -0.004185 0.010834 0.033957 -0.007221
# 6 -0.002929 0.008463 0.002797 -0.004777 -0.007221 0.038773
#
#
# Mechanical properties :
#
#
# Convention : Reuss Voigt Hill
#
# Bulk Modulus (GPa) = 44.59896 54.57095 49.58495
# Shear Modulus (GPa) = 27.05833 34.05082 30.55458
#
# Velocity S-wave (km/s) = 3.40894 3.82413 3.62249
# Velocity P-wave (km/s) = 5.88631 6.55252 6.22833
#
# Compressibility (1/GPa) = 0.02242205
#
# Stress axis : x y z
#
# Youngs Moduli (GPa) = 47.52529 97.49595 83.84428
#
# Poissons Ratio (x) = 0.39711 0.44271
# Poissons Ratio (y) = 0.19358 0.08789
# Poissons Ratio (z) = 0.25094 0.10220
#
# Static dielectric constant tensor:
#      x y z
#    x 1.913280 -0.002880 0.030440 
#    y -0.002880 1.899510 -0.024470 
#    z 0.030440 -0.024470 2.000480 
# 
# From -- ./inp_files/591107.got.cif
#   From: 2010.05.17/outbox.cif.g08.bks.cpg/sg2_296_cif.got.tgz:591107.got - 2010.06.03 11:33:40.
