data_PCOD9028670
_publ_section_title
;
Structure prediction by ZEFSAII (Michael W. Deem and Ramdas Pophale) SiO2 
 PCOD9028670
Probable space group: P -1
;
_chemical_formula_sum "Si O2"
_cell_formula_units_Z 16
_cell_length_a 14.657660
_cell_length_b 12.388224
_cell_length_c 8.968558
_cell_angle_alpha 73.642479
_cell_angle_beta 102.649304
_cell_angle_gamma 152.218229
_cell_volume 726.681914
_symmetry_space_group_name_H-M "P -1"
_symmetry_group_IT_number 2
_symmetry_cell_setting 'triclinic'
loop_
_space_group_symop_operation_xyz
x,y,z
-x,-y,-z
loop_
_atom_site_type_symbol
_atom_site_label
_atom_site_fract_x
_atom_site_fract_y
_atom_site_fract_z
Si Si1 0.912492 0.552742 0.096887
Si Si2 0.445074 0.883295 0.681444
Si Si3 0.282550 0.168151 0.538353
Si Si4 0.636405 0.528127 0.717110
Si Si5 0.220311 0.697053 0.160986
Si Si6 0.872992 0.609265 0.596170
Si Si7 0.827171 0.727457 0.022698
Si Si8 0.586634 0.385913 0.327609
O O1 0.781569 0.364074 0.257747
O O2 0.906308 0.681737 0.053129
O O3 0.124028 0.718326 0.109542
O O4 0.811505 0.397991 0.970571
O O5 0.506048 0.817224 0.713341
O O6 0.500000 0.000000 0.500000
O O7 0.563267 0.065687 0.786928
O O8 0.406556 0.291345 0.687436
O O9 0.263010 0.275982 0.436639
O O10 0.426645 0.268312 0.425890
O O11 0.079164 0.889254 0.576746
O O12 0.723689 0.501509 0.708045
O O13 0.704205 0.623817 0.870241
O O14 0.106302 0.499532 0.318120
O O15 0.763910 0.522633 0.437481
O O16 0.682902 0.572543 0.173055
O O17 0.000000 0.000000 0.000000
#
# Coordination Sequence:
#
# PCOD9028670 Si02
#       8
#     2   2   2   2   2   2   2   2
#     4  10  25  45  63 100 125 170 226 258 316 392
#     4  11  23  41  66  92 136 169 203 273 321 376
#     4  10  23  41  65  95 125 170 223 266 307 397
#     4  10  22  42  64  92 126 168 224 261 324 372
#     4  11  23  43  68  94 127 174 220 264 316 382
#     4  11  21  41  68  89 129 172 215 267 319 374
#     4  11  23  44  69  93 136 171 205 274 331 378
#     4  10  24  42  62 100 130 166 218 256 330 388
#
# _framework density 22.017887999999999
#
# number of rings (size 3 to 8) (size 9 to 14) (size 15 to 20)
#    0.000    1.500    2.500    1.500    1.750    6.000 
#    9.000    1.250    0.000    0.000    0.000    0.000 
#    0.000    0.000    0.000    0.000    0.000    0.000 
#
# Total GULP energy -89406.793855 kJ/mol
# GULP energy per Si atom -5587.924616 kJ/mol
# Density = 2.196777 g / cm^3
# Si number density = 22.017888 Si / 1000 Ang^3
#
#
#
# Elastic Constant Matrix: (Units=GPa)
#
#
# Indices 1 2 3 4 5 6 
#
# 1 81.5260 17.2701 13.5554 0.8949 7.9946 -8.1399
# 2 17.2701 107.5931 35.2145 5.6939 8.6531 -12.4515
# 3 13.5554 35.2145 112.5937 15.8050 1.9018 10.4949
# 4 0.8949 5.6939 15.8050 33.4328 -9.8105 0.9851
# 5 7.9946 8.6531 1.9018 -9.8105 27.3699 1.6398
# 6 -8.1399 -12.4515 10.4949 0.9851 1.6398 20.8382
#
#
#
# Elastic Compliance Matrix: (Units=1/GPa)
#
#
# Indices 1 2 3 4 5 6 
#
# 1 0.013772 -0.000421 -0.001932 -0.000884 -0.004461 0.006494
# 2 -0.000421 0.012438 -0.004454 -0.001673 -0.004696 0.009960
# 3 -0.001932 -0.004454 0.012012 -0.004581 0.000050 -0.009253
# 4 -0.000884 -0.001673 -0.004581 0.036654 0.014358 -0.001901
# 5 -0.004461 -0.004696 0.000050 0.014358 0.044994 -0.008794
# 6 0.006494 0.009960 -0.009253 -0.001901 -0.008794 0.061919
#
#
# Mechanical properties :
#
#
# Convention : Reuss Voigt Hill
#
# Bulk Modulus (GPa) = 40.63679 48.19921 44.41800
# Shear Modulus (GPa) = 24.55729 32.03969 28.29849
#
# Velocity S-wave (km/s) = 3.34328 3.81880 3.58893
# Velocity P-wave (km/s) = 5.77925 6.43295 6.11484
#
# Compressibility (1/GPa) = 0.02460824
#
# Stress axis : x y z
#
# Youngs Moduli (GPa) = 72.61062 80.39654 83.25253
#
# Poissons Ratio (x) = 0.03385 0.16086
# Poissons Ratio (y) = 0.03057 0.37077
# Poissons Ratio (z) = 0.14030 0.35805
#
# Static dielectric constant tensor:
#      x y z
#    x 1.832900 -0.020240 -0.014190 
#    y -0.020240 1.803800 0.010130 
#    z -0.014190 0.010130 1.813260 
# 
# From -- ./inp_files/307134.got.cif
#   From: 2010.05.17/outbox.cif.g08.bks.cpg/sg2_154_cif.got.tgz:307134.got - 2010.06.03 11:33:40.
