data_PCOD9028285
_publ_section_title
;
Structure prediction by ZEFSAII (Michael W. Deem and Ramdas Pophale) SiO2 
 PCOD9028285
Probable space group: P -1
;
_chemical_formula_sum "Si O2"
_cell_formula_units_Z 16
_cell_length_a 14.382839
_cell_length_b 5.271089
_cell_length_c 9.273115
_cell_angle_alpha 81.277847
_cell_angle_beta 69.813289
_cell_angle_gamma 99.880550
_cell_volume 632.925466
_symmetry_space_group_name_H-M "P -1"
_symmetry_group_IT_number 2
_symmetry_cell_setting 'triclinic'
loop_
_space_group_symop_operation_xyz
x,y,z
-x,-y,-z
loop_
_atom_site_type_symbol
_atom_site_label
_atom_site_fract_x
_atom_site_fract_y
_atom_site_fract_z
Si Si1 0.612354 0.897826 0.340731
Si Si2 0.510855 0.344513 0.299591
Si Si3 0.894323 0.074412 0.571132
Si Si4 0.069015 0.301676 0.935424
Si Si5 0.413595 0.133366 0.094912
Si Si6 0.229029 0.294489 0.094706
Si Si7 0.792580 0.752343 0.380341
Si Si8 0.255445 0.641124 0.332643
O O1 0.548678 0.637079 0.316040
O O2 0.568651 0.840218 0.531992
O O3 0.729339 0.886149 0.292023
O O4 0.596946 0.173792 0.263974
O O5 0.464283 0.353148 0.165652
O O6 0.847357 0.938586 0.756551
O O7 0.834441 0.950717 0.470465
O O8 0.863485 0.351954 0.579465
O O9 0.000000 0.000000 0.500000
O O10 0.119872 0.338337 0.747100
O O11 0.164096 0.352388 0.991500
O O12 0.000000 0.500000 0.000000
O O13 0.000000 0.000000 0.000000
O O14 0.335610 0.214857 0.017007
O O15 0.335489 0.918205 0.253174
O O16 0.500000 0.000000 0.000000
O O17 0.257886 0.513071 0.185946
O O18 0.719914 0.510781 0.527083
#
# Coordination Sequence:
#
# PCOD9028285 Si02
#       8
#     2   2   2   2   2   2   2   2
#     4  10  23  40  68 102 140 185 234 302 355 423
#     4  10  23  41  67 102 141 185 240 290 359 421
#     4  10  22  41  74 103 140 183 252 307 369 435
#     4  12  31  51  76 109 155 195 241 304 385 452
#     4  11  26  45  73 100 150 195 251 304 367 440
#     4  10  25  46  71 107 143 195 246 303 374 446
#     4  11  26  43  73 105 143 188 245 305 364 441
#     4  10  24  44  74 104 141 188 255 302 366 437
#
# _framework density 25.279434999999999
#
# number of rings (size 3 to 8) (size 9 to 14) (size 15 to 20)
#    0.000    1.500    0.000    3.000   19.250    2.500 
#    0.000    0.000    0.000    0.000    0.000    0.000 
#    0.000    0.000    0.000    0.000    0.000    0.000 
#
# Total GULP energy -89539.035758 kJ/mol
# GULP energy per Si atom -5596.189735 kJ/mol
# Density = 2.522190 g / cm^3
# Si number density = 25.279435 Si / 1000 Ang^3
#
#
#
# Elastic Constant Matrix: (Units=GPa)
#
#
# Indices 1 2 3 4 5 6 
#
# 1 142.5987 28.7046 33.4980 3.8588 -11.9817 -40.7704
# 2 28.7046 76.7435 15.6151 14.1257 1.3480 -18.5339
# 3 33.4980 15.6151 118.5179 14.8879 0.1191 -6.5504
# 4 3.8588 14.1257 14.8879 24.4268 -12.3631 -15.0817
# 5 -11.9817 1.3480 0.1191 -12.3631 45.5970 9.3512
# 6 -40.7704 -18.5339 -6.5504 -15.0817 9.3512 36.6079
#
#
#
# Elastic Compliance Matrix: (Units=1/GPa)
#
#
# Indices 1 2 3 4 5 6 
#
# 1 0.013918 -0.002746 -0.004532 0.015862 0.004204 0.018760
# 2 -0.002746 0.016524 -0.000028 -0.009861 -0.004367 0.002355
# 3 -0.004532 -0.000028 0.010809 -0.011815 -0.002936 -0.007245
# 4 0.015862 -0.009861 -0.011815 0.086721 0.019535 0.041297
# 5 0.004204 -0.004367 -0.002936 0.019535 0.027880 0.002872
# 6 0.018760 0.002355 -0.007245 0.041297 0.002872 0.064386
#
#
# Mechanical properties :
#
#
# Convention : Reuss Voigt Hill
#
# Bulk Modulus (GPa) = 37.53947 54.83282 46.18614
# Shear Modulus (GPa) = 20.51460 38.66251 29.58855
#
# Velocity S-wave (km/s) = 2.85180 3.91500 3.42491
# Velocity P-wave (km/s) = 5.07205 6.49416 5.82666
#
# Compressibility (1/GPa) = 0.02663863
#
# Stress axis : x y z
#
# Youngs Moduli (GPa) = 71.85048 60.51887 92.51742
#
# Poissons Ratio (x) = 0.16622 0.41927
# Poissons Ratio (y) = 0.19734 0.00255
# Poissons Ratio (z) = 0.32561 0.00167
#
# Static dielectric constant tensor:
#      x y z
#    x 2.053370 -0.055680 -0.023230 
#    y -0.055680 2.090200 -0.019220 
#    z -0.023230 -0.019220 1.982990 
# 
# From -- ./inp_files/288796.got.cif
#   From: 2010.05.17/outbox.cif.g08.bks.cpg/sg2_145_cif.got.tgz:288796.got - 2010.06.03 11:33:40.
