data_PCOD9028485
_publ_section_title
;
Structure prediction by ZEFSAII (Michael W. Deem and Ramdas Pophale) SiO2 
 PCOD9028485
Probable space group: P -1
;
_chemical_formula_sum "Si O2"
_cell_formula_units_Z 16
_cell_length_a 9.219604
_cell_length_b 11.779366
_cell_length_c 21.410900
_cell_angle_alpha 148.091704
_cell_angle_beta 38.576063
_cell_angle_gamma 134.758672
_cell_volume 760.568835
_symmetry_space_group_name_H-M "P -1"
_symmetry_group_IT_number 2
_symmetry_cell_setting 'triclinic'
loop_
_space_group_symop_operation_xyz
x,y,z
-x,-y,-z
loop_
_atom_site_type_symbol
_atom_site_label
_atom_site_fract_x
_atom_site_fract_y
_atom_site_fract_z
Si Si1 0.248617 0.501064 0.950863
Si Si2 0.058645 0.311509 0.190019
Si Si3 0.264953 0.943085 0.511345
Si Si4 0.627413 0.229998 0.732163
Si Si5 0.455581 0.751070 0.880447
Si Si6 0.896008 0.543992 0.622300
Si Si7 0.690988 0.113108 0.125249
Si Si8 0.769328 0.119635 0.771483
O O1 0.364425 0.291160 0.835862
O O2 0.409276 0.610200 0.891822
O O3 0.244135 0.655585 0.083607
O O4 0.000000 0.500000 0.000000
O O5 0.203833 0.539976 0.226344
O O6 0.994190 0.331353 0.294446
O O7 0.828692 0.244567 0.195414
O O8 0.208735 0.113066 0.030831
O O9 0.321676 0.942659 0.418359
O O10 0.187539 0.693274 0.435109
O O11 0.500000 0.000000 0.500000
O O12 0.037620 0.065018 0.658188
O O13 0.677782 0.142298 0.742439
O O14 0.684101 0.675736 0.739481
O O15 0.270965 0.741831 0.882464
O O16 0.500000 0.000000 0.000000
O O17 0.000000 0.500000 0.500000
O O18 0.421154 0.049202 0.206962
#
# Coordination Sequence:
#
# PCOD9028485 Si02
#       8
#     2   2   2   2   2   2   2   2
#     4  12  25  40  67  99 130 172 226 275 324 392
#     4  10  22  42  62  96 133 170 209 271 339 385
#     4  11  25  45  64  92 134 178 220 266 333 391
#     4  11  23  46  62  95 134 171 216 276 329 390
#     4  12  21  44  64  94 133 165 221 275 328 381
#     4  11  23  42  67  92 133 172 217 272 323 395
#     4  11  23  38  68  98 130 168 216 270 334 392
#     4  12  24  41  66  97 128 171 225 269 327 395
#
# _framework density 21.036887
#
# number of rings (size 3 to 8) (size 9 to 14) (size 15 to 20)
#    0.000    0.750    6.250    2.250    1.750    2.000 
#    0.000    5.625    0.000    0.000    0.000    0.000 
#    0.000    0.000    0.000    0.000    0.000    0.000 
#
# Total GULP energy -89249.442687 kJ/mol
# GULP energy per Si atom -5578.090168 kJ/mol
# Density = 2.098901 g / cm^3
# Si number density = 21.036887 Si / 1000 Ang^3
#
#
#
# Elastic Constant Matrix: (Units=GPa)
#
#
# Indices 1 2 3 4 5 6 
#
# 1 103.5722 25.8247 29.5777 -22.8308 14.8705 -11.7416
# 2 25.8247 20.3840 18.2757 -10.1880 5.3818 -14.5604
# 3 29.5777 18.2757 135.4097 -29.3227 4.7939 -3.4738
# 4 -22.8308 -10.1880 -29.3227 22.1717 -4.0901 -2.5119
# 5 14.8705 5.3818 4.7939 -4.0901 48.2858 -3.7345
# 6 -11.7416 -14.5604 -3.4738 -2.5119 -3.7345 37.5856
#
#
#
# Elastic Compliance Matrix: (Units=1/GPa)
#
#
# Indices 1 2 3 4 5 6 
#
# 1 0.015710 -0.015796 0.000818 0.009471 -0.002414 -0.000743
# 2 -0.015796 0.127282 -0.003146 0.043038 -0.001745 0.046785
# 3 0.000818 -0.003146 0.010579 0.013543 0.000269 0.000946
# 4 0.009471 0.043038 0.013543 0.095866 0.001182 0.027407
# 5 -0.002414 -0.001745 0.000269 0.001182 0.021786 0.000838
# 6 -0.000743 0.046785 0.000946 0.027407 0.000838 0.046500
#
#
# Mechanical properties :
#
#
# Convention : Reuss Voigt Hill
#
# Bulk Modulus (GPa) = 8.52369 45.19135 26.85752
# Shear Modulus (GPa) = 12.72006 33.98781 23.35393
#
# Velocity S-wave (km/s) = 2.46164 4.02385 3.33549
# Velocity P-wave (km/s) = 3.48427 6.56636 5.25629
#
# Compressibility (1/GPa) = 0.11732007
#
# Stress axis : x y z
#
# Youngs Moduli (GPa) = 63.65247 7.85659 94.53040
#
# Poissons Ratio (x) = 0.12411 -0.07729
# Poissons Ratio (y) = 1.00548 0.29744
# Poissons Ratio (z) = -0.05204 0.02472
#
# Static dielectric constant tensor:
#      x y z
#    x 1.824150 0.083260 -0.073030 
#    y 0.083260 1.875180 -0.163050 
#    z -0.073030 -0.163050 1.879770 
# 
# From -- ./inp_files/243855.got.cif
#   From: 2010.05.17/outbox.cif.g08.bks.cpg/sg2_122_cif.got.tgz:243855.got - 2010.06.03 11:33:40.
