data_PCOD9028200
_publ_section_title
;
Structure prediction by ZEFSAII (Michael W. Deem and Ramdas Pophale) SiO2 
 PCOD9028200
Probable space group: P -1
;
_chemical_formula_sum "Si O2"
_cell_formula_units_Z 12
_cell_length_a 8.185175
_cell_length_b 13.948659
_cell_length_c 7.167219
_cell_angle_alpha 39.998312
_cell_angle_beta 103.555217
_cell_angle_gamma 117.230268
_cell_volume 457.923237
_symmetry_space_group_name_H-M "P -1"
_symmetry_group_IT_number 2
_symmetry_cell_setting 'triclinic'
loop_
_space_group_symop_operation_xyz
x,y,z
-x,-y,-z
loop_
_atom_site_type_symbol
_atom_site_label
_atom_site_fract_x
_atom_site_fract_y
_atom_site_fract_z
Si Si1 0.803133 0.351472 0.607019
Si Si2 0.205511 0.654552 0.825357
Si Si3 0.677488 0.599424 0.769910
Si Si4 0.807149 0.839445 0.734462
Si Si5 0.591038 0.765218 0.168950
Si Si6 0.346527 0.928916 0.767589
O O1 0.762199 0.319358 0.425512
O O2 0.624559 0.366285 0.630803
O O3 0.000000 0.500000 0.500000
O O4 0.794637 0.181698 0.944906
O O5 0.265436 0.816994 0.725784
O O6 0.311682 0.555722 0.091832
O O7 0.000000 0.500000 0.000000
O O8 0.823224 0.698229 0.824683
O O9 0.692677 0.735665 0.419886
O O10 0.500000 0.500000 0.000000
O O11 0.653022 0.895545 0.523546
O O12 0.724144 0.777977 0.009526
O O13 0.000000 0.000000 0.500000
O O14 0.538256 0.919629 0.892245
#
# Coordination Sequence:
#
# PCOD9028200 Si02
#       6
#     2   2   2   2   2   2
#     4  10  22  41  72 107 135 184 238 291 353 427
#     4  12  22  41  70 102 138 182 232 286 350 422
#     4  12  26  45  74 106 142 183 241 298 354 421
#     4  12  28  47  70 104 147 189 238 299 354 418
#     4  10  25  44  71 101 140 190 237 287 359 419
#     4  10  24  44  70  99 142 184 236 289 356 417
#
# _framework density 26.205264
#
# number of rings (size 3 to 8) (size 9 to 14) (size 15 to 20)
#    1.000    0.000    3.333    2.500    0.000    8.000 
#    0.000    0.000    0.000    0.000    0.000    0.000 
#    0.000    0.000    0.000    0.000    0.000    0.000 
#
# Total GULP energy -66872.625378 kJ/mol
# GULP energy per Si atom -5572.718781 kJ/mol
# Density = 2.614562 g / cm^3
# Si number density = 26.205264 Si / 1000 Ang^3
#
#
#
# Elastic Constant Matrix: (Units=GPa)
#
#
# Indices 1 2 3 4 5 6 
#
# 1 74.7009 19.8760 27.4891 12.4570 -22.8118 -6.4014
# 2 19.8760 136.4684 62.2604 25.0978 -19.2661 -23.5807
# 3 27.4891 62.2604 150.8810 35.4022 -20.7582 -24.3205
# 4 12.4570 25.0978 35.4022 61.6669 -6.8751 -10.7862
# 5 -22.8118 -19.2661 -20.7582 -6.8751 48.8320 -5.9493
# 6 -6.4014 -23.5807 -24.3205 -10.7862 -5.9493 31.3552
#
#
#
# Elastic Compliance Matrix: (Units=1/GPa)
#
#
# Indices 1 2 3 4 5 6 
#
# 1 0.016613 -0.000004 -0.001129 -0.001252 0.007530 0.003510
# 2 -0.000004 0.010227 -0.002459 -0.001305 0.003535 0.006005
# 3 -0.001129 -0.002459 0.009784 -0.003211 0.002811 0.004938
# 4 -0.001252 -0.001305 -0.003211 0.019457 0.000651 0.003088
# 5 0.007530 0.003535 0.002811 0.000651 0.028132 0.011938
# 6 0.003510 0.006005 0.004938 0.003088 0.011938 0.044283
#
#
# Mechanical properties :
#
#
# Convention : Reuss Voigt Hill
#
# Bulk Modulus (GPa) = 33.96827 64.58903 49.27865
# Shear Modulus (GPa) = 34.36587 45.19913 39.78250
#
# Velocity S-wave (km/s) = 3.62527 4.15759 3.90052
# Velocity P-wave (km/s) = 5.52394 6.91001 6.25549
#
# Compressibility (1/GPa) = 0.02943924
#
# Stress axis : x y z
#
# Youngs Moduli (GPa) = 60.19531 97.78178 102.20535
#
# Poissons Ratio (x) = 0.00043 0.11541
# Poissons Ratio (y) = 0.00027 0.25128
# Poissons Ratio (z) = 0.06797 0.24041
#
# Static dielectric constant tensor:
#      x y z
#    x 2.380690 0.163210 0.002860 
#    y 0.163210 2.149520 -0.055460 
#    z 0.002860 -0.055460 2.179350 
# 
# From -- ./inp_files/211511.got.cif
#   From: 2010.05.17/outbox.cif.g08.bks.cpg/sg2_106_cif.got.tgz:211511.got - 2010.06.03 11:33:40.
