data_PCOD9028296
_publ_section_title
;
Structure prediction by ZEFSAII (Michael W. Deem and Ramdas Pophale) SiO2 
 PCOD9028296
Probable space group: P -1
;
_chemical_formula_sum "Si O2"
_cell_formula_units_Z 16
_cell_length_a 11.618159
_cell_length_b 12.679167
_cell_length_c 12.204601
_cell_angle_alpha 143.176100
_cell_angle_beta 94.295157
_cell_angle_gamma 112.520738
_cell_volume 721.364201
_symmetry_space_group_name_H-M "P -1"
_symmetry_group_IT_number 2
_symmetry_cell_setting 'triclinic'
loop_
_space_group_symop_operation_xyz
x,y,z
-x,-y,-z
loop_
_atom_site_type_symbol
_atom_site_label
_atom_site_fract_x
_atom_site_fract_y
_atom_site_fract_z
Si Si1 0.869711 0.544827 0.179027
Si Si2 0.456554 0.272036 0.744823
Si Si3 0.814633 0.857721 0.533498
Si Si4 0.532101 0.590033 0.452547
Si Si5 0.366107 0.930859 0.077341
Si Si6 0.782803 0.183547 0.494484
Si Si7 0.354813 0.050923 0.937358
Si Si8 0.178625 0.445455 0.059857
O O1 0.798615 0.655496 0.300054
O O2 0.071006 0.775340 0.410678
O O3 0.783089 0.301564 0.046927
O O4 0.836781 0.470773 0.988147
O O5 0.301738 0.134426 0.535200
O O6 0.630980 0.417899 0.817335
O O7 0.393087 0.062367 0.658060
O O8 0.500000 0.500000 0.000000
O O9 0.720177 0.748364 0.553031
O O10 0.014079 0.132382 0.785813
O O11 0.500000 0.500000 0.500000
O O12 0.524496 0.792871 0.624246
O O13 0.405326 0.313879 0.150053
O O14 0.480606 0.889468 0.023333
O O15 0.301206 0.940116 0.965199
O O16 0.833941 0.436683 0.742520
O O17 0.770854 0.138555 0.327623
#
# Coordination Sequence:
#
# PCOD9028296 Si02
#       8
#     2   2   2   2   2   2   2   2
#     4  12  23  44  67  97 144 185 228 291 348 411
#     4  12  24  42  67  96 134 185 229 287 345 411
#     4  12  24  44  69 100 141 184 234 286 352 415
#     4  10  22  42  73 100 132 183 233 285 351 414
#     4  10  22  41  74  94 134 181 226 294 346 407
#     4  12  26  42  65  98 142 182 237 290 340 419
#     4  10  22  45  65 103 132 176 239 284 347 411
#     4  12  26  44  66 102 143 187 236 281 350 419
#
# _framework density 22.180195999999999
#
# number of rings (size 3 to 8) (size 9 to 14) (size 15 to 20)
#    0.000    0.750    3.750    4.125    3.500    0.500 
#    0.000    0.000    0.000    3.000    0.000    0.000 
#    0.000    0.000    0.000    0.000    0.000    0.000 
#
# Total GULP energy -89461.037524 kJ/mol
# GULP energy per Si atom -5591.314845 kJ/mol
# Density = 2.212971 g / cm^3
# Si number density = 22.180196 Si / 1000 Ang^3
#
#
#
# Elastic Constant Matrix: (Units=GPa)
#
#
# Indices 1 2 3 4 5 6 
#
# 1 55.0400 21.1370 19.6566 -13.4787 0.5825 2.9330
# 2 21.1370 103.0356 47.9598 4.0164 0.4503 7.5388
# 3 19.6566 47.9598 117.4451 -8.3614 -23.0685 -9.1085
# 4 -13.4787 4.0164 -8.3614 40.1449 4.1948 0.5834
# 5 0.5825 0.4503 -23.0685 4.1948 41.6734 -2.2835
# 6 2.9330 7.5388 -9.1085 0.5834 -2.2835 22.9469
#
#
#
# Elastic Compliance Matrix: (Units=1/GPa)
#
#
# Indices 1 2 3 4 5 6 
#
# 1 0.022503 -0.003473 -0.002570 0.007691 -0.002650 -0.003215
# 2 -0.003473 0.014287 -0.006839 -0.003503 -0.003937 -0.007267
# 3 -0.002570 -0.006839 0.014187 0.001781 0.008276 0.008985
# 4 0.007691 -0.003503 0.001781 0.028417 -0.001947 -0.000042
# 5 -0.002650 -0.003937 0.008276 -0.001947 0.029285 0.007881
# 6 -0.003215 -0.007267 0.008985 -0.000042 0.007881 0.050729
#
#
# Mechanical properties :
#
#
# Convention : Reuss Voigt Hill
#
# Bulk Modulus (GPa) = 39.66423 50.33638 45.00030
# Shear Modulus (GPa) = 25.82953 33.40420 29.61687
#
# Velocity S-wave (km/s) = 3.41622 3.88498 3.65812
# Velocity P-wave (km/s) = 5.78639 6.54734 6.17859
#
# Compressibility (1/GPa) = 0.02521163
#
# Stress axis : x y z
#
# Youngs Moduli (GPa) = 44.43825 69.99505 70.48771
#
# Poissons Ratio (x) = 0.24309 0.18118
# Poissons Ratio (y) = 0.15433 0.48208
# Poissons Ratio (z) = 0.11423 0.47871
#
# Static dielectric constant tensor:
#      x y z
#    x 1.826640 -0.013750 0.001060 
#    y -0.013750 1.826930 0.001930 
#    z 0.001060 0.001930 1.816850 
# 
# From -- ./inp_files/429083.got.cif
#   From: 2010.05.17/outbox.cif.g08.bks.cpg/sg2_215_cif.got.tgz:429083.got - 2010.06.03 11:33:40.
