data_PCOD9028365
_publ_section_title
;
Structure prediction by ZEFSAII (Michael W. Deem and Ramdas Pophale) SiO2 
 PCOD9028365
Probable space group: P -1
;
_chemical_formula_sum "Si O2"
_cell_formula_units_Z 14
_cell_length_a 11.901976
_cell_length_b 15.715838
_cell_length_c 8.435900
_cell_angle_alpha 115.189607
_cell_angle_beta 116.448224
_cell_angle_gamma 24.798508
_cell_volume 591.606687
_symmetry_space_group_name_H-M "P -1"
_symmetry_group_IT_number 2
_symmetry_cell_setting 'triclinic'
loop_
_space_group_symop_operation_xyz
x,y,z
-x,-y,-z
loop_
_atom_site_type_symbol
_atom_site_label
_atom_site_fract_x
_atom_site_fract_y
_atom_site_fract_z
Si Si1 0.721879 0.377071 0.356342
Si Si2 0.718368 0.484161 0.888795
Si Si3 0.756286 0.761986 0.511192
Si Si4 0.842645 0.023247 0.513468
Si Si5 0.295086 0.416346 0.362260
Si Si6 0.916650 0.812135 0.866264
Si Si7 0.549512 0.204324 0.782731
O O1 0.506300 0.438688 0.252375
O O2 0.594503 0.558412 0.476552
O O3 0.860172 0.303796 0.215442
O O4 0.951092 0.198148 0.488237
O O5 0.773700 0.521375 0.814490
O O6 0.594406 0.620872 0.069543
O O7 0.973638 0.260139 0.944930
O O8 0.845660 0.751676 0.723146
O O9 0.646772 0.729697 0.396460
O O10 0.011241 0.594315 0.418303
O O11 0.500000 0.000000 0.500000
O O12 0.568695 0.174074 0.367938
O O13 0.759016 0.106982 0.709020
O O14 0.000000 0.000000 0.500000
O O15 0.681815 0.042487 0.860785
#
# Coordination Sequence:
#
# PCOD9028365 Si02
#       7
#     2   2   2   2   2   2   2
#     4  10  22  42  60  88 131 170 206 250 307 381
#     4  12  23  36  60 100 130 162 203 257 325 363
#     4   9  20  46  69  86 120 169 219 253 308 379
#     4  11  23  41  64  93 124 170 213 250 310 375
#     4  11  24  41  66  94 125 168 211 258 311 376
#     4   9  21  39  65  89 119 168 209 251 311 368
#     4  10  23  41  63  91 127 164 211 263 303 371
#
# _framework density 23.664370000000002
#
# number of rings (size 3 to 8) (size 9 to 14) (size 15 to 20)
#    0.000    1.714    1.429    3.429    0.000    7.429 
#    0.000    2.857    0.000    0.000    0.000    0.000 
#    0.000    0.000    0.000    0.000    0.000    0.000 
#
# Total GULP energy -78192.935654 kJ/mol
# GULP energy per Si atom -5585.209690 kJ/mol
# Density = 2.361051 g / cm^3
# Si number density = 23.664370 Si / 1000 Ang^3
#
#
#
# Elastic Constant Matrix: (Units=GPa)
#
#
# Indices 1 2 3 4 5 6 
#
# 1 72.0252 27.2613 27.6708 -4.4621 -0.8086 -13.1178
# 2 27.2613 120.8649 29.2734 -28.9024 -13.6719 1.1309
# 3 27.6708 29.2734 38.7548 -19.1186 -11.8439 -2.1239
# 4 -4.4621 -28.9024 -19.1186 48.7933 11.8239 -5.3842
# 5 -0.8086 -13.6719 -11.8439 11.8239 25.6171 -5.2047
# 6 -13.1178 1.1309 -2.1239 -5.3842 -5.2047 31.5798
#
#
#
# Elastic Compliance Matrix: (Units=1/GPa)
#
#
# Indices 1 2 3 4 5 6 
#
# 1 0.022449 -0.002512 -0.017527 -0.004258 -0.005426 0.006616
# 2 -0.002512 0.011018 -0.003891 0.004236 0.001912 -0.000662
# 3 -0.017527 -0.003891 0.052599 0.012973 0.015952 0.001237
# 4 -0.004258 0.004236 0.012973 0.029186 -0.004706 0.003153
# 5 -0.005426 0.001912 0.015952 -0.004706 0.050715 0.006306
# 6 0.006616 -0.000662 0.001237 0.003153 0.006306 0.036098
#
#
# Mechanical properties :
#
#
# Convention : Reuss Voigt Hill
#
# Bulk Modulus (GPa) = 26.17396 44.45067 35.31232
# Shear Modulus (GPa) = 19.03600 31.02733 25.03166
#
# Velocity S-wave (km/s) = 2.83930 3.62490 3.25588
# Velocity P-wave (km/s) = 4.67262 6.02863 5.39341
#
# Compressibility (1/GPa) = 0.03820591
#
# Stress axis : x y z
#
# Youngs Moduli (GPa) = 44.54621 90.75923 19.01159
#
# Poissons Ratio (x) = 0.22801 0.33321
# Poissons Ratio (y) = 0.11191 0.07398
# Poissons Ratio (z) = 0.78075 0.35316
#
# Static dielectric constant tensor:
#      x y z
#    x 1.938770 0.012060 -0.016360 
#    y 0.012060 1.961020 -0.043190 
#    z -0.016360 -0.043190 1.867850 
# 
# From -- ./inp_files/273787.got.cif
#   From: 2010.05.17/outbox.cif.g08.bks.cpg/sg2_137_cif.got.tgz:273787.got - 2010.06.03 11:33:40.
