data_PCOD9028649
_publ_section_title
;
Structure prediction by ZEFSAII (Michael W. Deem and Ramdas Pophale) SiO2 
 PCOD9028649
Probable space group: P -1
;
_chemical_formula_sum "Si O2"
_cell_formula_units_Z 15
_cell_length_a 5.207783
_cell_length_b 9.195171
_cell_length_c 17.493523
_cell_angle_alpha 100.468772
_cell_angle_beta 70.870753
_cell_angle_gamma 56.835346
_cell_volume 589.490385
_symmetry_space_group_name_H-M "P -1"
_symmetry_group_IT_number 2
_symmetry_cell_setting 'triclinic'
loop_
_space_group_symop_operation_xyz
x,y,z
-x,-y,-z
loop_
_atom_site_type_symbol
_atom_site_label
_atom_site_fract_x
_atom_site_fract_y
_atom_site_fract_z
Si Si1 0.701601 0.267024 0.633740
Si Si2 0.684103 0.576551 0.724623
Si Si3 0.500000 0.000000 0.000000
Si Si4 0.208992 0.204245 0.378108
Si Si5 0.227180 0.240265 0.761265
Si Si6 0.359262 0.779184 0.920522
Si Si7 0.375391 0.834192 0.528757
Si Si8 0.971495 0.680965 0.039491
O O1 0.612910 0.470056 0.662594
O O2 0.536558 0.255257 0.725496
O O3 0.537568 0.242497 0.573586
O O4 0.117312 0.070240 0.571718
O O5 0.832370 0.662644 0.672110
O O6 0.365261 0.745121 0.827269
O O7 0.935316 0.408498 0.747341
O O8 0.349009 0.206334 0.080482
O O9 0.611200 0.880295 0.057395
O O10 0.301016 0.251914 0.453703
O O11 0.879003 0.208924 0.420274
O O12 0.565822 0.981250 0.304112
O O13 0.060404 0.284143 0.864301
O O14 0.293739 0.657686 0.965442
O O15 0.000000 0.000000 0.000000
O O16 0.000000 0.500000 0.000000
#
# Coordination Sequence:
#
# PCOD9028649 Si02
#       8
#     2   2   1   2   2   2   2   2
#     4  10  24  44  73 101 144 185 237 298 357 437
#     4  12  25  43  69 103 138 184 243 300 355 433
#     4  10  22  42  64  90 128 180 222 286 346 426
#     4  11  25  46  71 107 144 193 241 297 364 429
#     4  11  25  44  65 104 138 185 237 302 359 431
#     4  10  23  44  66  98 135 186 232 296 361 426
#     4  10  24  47  75 104 149 196 236 296 372 432
#     4  11  23  42  66  97 133 179 236 290 361 423
#
# _framework density 25.445706000000001
#
# number of rings (size 3 to 8) (size 9 to 14) (size 15 to 20)
#    0.000    1.333    1.333    3.200    3.733    6.933 
#   12.000    0.000    0.000    0.000    0.000    0.000 
#    0.000    0.000    0.000    0.000    0.000    0.000 
#
# Total GULP energy -83721.191358 kJ/mol
# GULP energy per Si atom -5581.412757 kJ/mol
# Density = 2.538779 g / cm^3
# Si number density = 25.445706 Si / 1000 Ang^3
#
#
#
# Elastic Constant Matrix: (Units=GPa)
#
#
# Indices 1 2 3 4 5 6 
#
# 1 72.2780 38.2358 36.6011 -0.7640 6.3795 22.2654
# 2 38.2358 153.2810 46.1034 -18.8433 4.3494 17.4800
# 3 36.6011 46.1034 142.3277 -10.8639 -0.2558 17.4064
# 4 -0.7640 -18.8433 -10.8639 48.4715 3.5256 2.1040
# 5 6.3795 4.3494 -0.2558 3.5256 30.9810 -0.8345
# 6 22.2654 17.4800 17.4064 2.1040 -0.8345 55.0979
#
#
#
# Elastic Compliance Matrix: (Units=1/GPa)
#
#
# Indices 1 2 3 4 5 6 
#
# 1 0.019277 -0.003201 -0.003315 -0.001175 -0.003568 -0.005736
# 2 -0.003201 0.008275 -0.001516 0.002933 -0.000875 -0.000978
# 3 -0.003315 -0.001516 0.008581 0.001264 0.000797 -0.000927
# 4 -0.001175 0.002933 0.001264 0.022311 -0.002745 -0.001749
# 5 -0.003568 -0.000875 0.000797 -0.002745 0.033511 0.002080
# 6 -0.005736 -0.000978 -0.000927 -0.001749 0.002080 0.021169
#
#
# Mechanical properties :
#
#
# Convention : Reuss Voigt Hill
#
# Bulk Modulus (GPa) = 49.82419 67.75194 58.78806
# Shear Modulus (GPa) = 36.79825 43.37317 40.08571
#
# Velocity S-wave (km/s) = 3.80695 4.13308 3.97336
# Velocity P-wave (km/s) = 6.24075 7.03281 6.64858
#
# Compressibility (1/GPa) = 0.02007057
#
# Stress axis : x y z
#
# Youngs Moduli (GPa) = 51.87544 120.84395 116.54072
#
# Poissons Ratio (x) = 0.38676 0.38634
# Poissons Ratio (y) = 0.16603 0.17662
# Poissons Ratio (z) = 0.17197 0.18314
#
# Static dielectric constant tensor:
#      x y z
#    x 2.181080 -0.105450 -0.029840 
#    y -0.105450 2.043580 0.085370 
#    z -0.029840 0.085370 2.094460 
# 
# From -- ./inp_files/480485.got.cif
#   From: 2010.05.17/outbox.cif.g08.bks.cpg/sg2_241_cif.got.tgz:480485.got - 2010.06.03 11:33:40.
