data_PCOD9028156
_publ_section_title
;
Structure prediction by ZEFSAII (Michael W. Deem and Ramdas Pophale) SiO2 
 PCOD9028156
Probable space group: P -1
;
_chemical_formula_sum "Si O2"
_cell_formula_units_Z 16
_cell_length_a 8.697890
_cell_length_b 23.024624
_cell_length_c 5.678337
_cell_angle_alpha 61.330127
_cell_angle_beta 85.970285
_cell_angle_gamma 45.573766
_cell_volume 645.394336
_symmetry_space_group_name_H-M "P -1"
_symmetry_group_IT_number 2
_symmetry_cell_setting 'triclinic'
loop_
_space_group_symop_operation_xyz
x,y,z
-x,-y,-z
loop_
_atom_site_type_symbol
_atom_site_label
_atom_site_fract_x
_atom_site_fract_y
_atom_site_fract_z
Si Si1 0.665345 0.594524 0.823238
Si Si2 0.216862 0.746011 0.292722
Si Si3 0.801337 0.759695 0.730540
Si Si4 0.466712 0.756232 0.891381
Si Si5 0.734220 0.924413 0.280336
Si Si6 0.936991 0.623259 0.601090
Si Si7 0.765577 0.390105 0.744853
Si Si8 0.992118 0.042183 0.669096
O O1 0.411443 0.657742 0.631536
O O2 0.627383 0.645743 0.973661
O O3 0.773289 0.613499 0.597208
O O4 0.855178 0.475097 0.064045
O O5 0.200691 0.692365 0.213341
O O6 0.963747 0.841414 0.248304
O O7 0.319943 0.776247 0.087858
O O8 0.631213 0.766945 0.886896
O O9 0.724212 0.860651 0.558472
O O10 0.785949 0.730288 0.533192
O O11 0.086408 0.665170 0.924307
O O12 0.266013 0.838492 0.556674
O O13 0.799856 0.970335 0.321205
O O14 0.500000 0.000000 0.000000
O O15 0.074551 0.607064 0.401810
O O16 0.500000 0.500000 0.500000
O O17 0.000000 0.000000 0.500000
O O18 0.000000 0.000000 0.000000
#
# Coordination Sequence:
#
# PCOD9028156 Si02
#       8
#     2   2   2   2   2   2   2   2
#     4  10  22  41  71  98 144 190 245 301 374 465
#     4  12  24  43  72 102 146 195 249 315 385 463
#     4  11  25  46  69 103 149 193 247 317 386 463
#     4  11  24  45  73 103 141 195 255 313 386 463
#     4  12  27  51  78 112 154 203 266 332 409 468
#     4  10  22  42  66 104 142 192 240 303 377 457
#     4  12  25  38  68 107 150 192 250 307 397 471
#     4  12  27  50  80 113 151 205 271 336 406 484
#
# _framework density 24.791046000000001
#
# number of rings (size 3 to 8) (size 9 to 14) (size 15 to 20)
#    0.000    0.750    2.500    4.500    1.750    2.000 
#    0.000    8.750    0.000    0.000    0.000    0.000 
#    0.000    0.000    0.000    0.000    0.000    0.000 
#
# Total GULP energy -89480.521442 kJ/mol
# GULP energy per Si atom -5592.532590 kJ/mol
# Density = 2.473462 g / cm^3
# Si number density = 24.791046 Si / 1000 Ang^3
#
#
#
# Elastic Constant Matrix: (Units=GPa)
#
#
# Indices 1 2 3 4 5 6 
#
# 1 181.6289 39.7421 64.4815 -0.4091 7.0766 -3.2711
# 2 39.7421 71.8824 -2.6511 2.6537 7.6781 10.9852
# 3 64.4815 -2.6511 71.4404 -7.9096 15.5174 3.7095
# 4 -0.4091 2.6537 -7.9096 27.4172 -13.6643 2.1168
# 5 7.0766 7.6781 15.5174 -13.6643 54.2764 -1.1056
# 6 -3.2711 10.9852 3.7095 2.1168 -1.1056 56.8073
#
#
#
# Elastic Compliance Matrix: (Units=1/GPa)
#
#
# Indices 1 2 3 4 5 6 
#
# 1 0.010864 -0.007045 -0.010882 -0.001305 0.002420 0.002794
# 2 -0.007045 0.019384 0.008158 -0.001581 -0.004650 -0.004718
# 3 -0.010882 0.008158 0.026133 0.003745 -0.006349 -0.004174
# 4 -0.001305 -0.001581 0.003745 0.042817 0.010074 -0.001413
# 5 0.002420 -0.004650 -0.006349 0.010074 0.023149 0.001528
# 6 0.002794 -0.004718 -0.004174 -0.001413 0.001528 0.019032
#
#
# Mechanical properties :
#
#
# Convention : Reuss Voigt Hill
#
# Bulk Modulus (GPa) = 27.14286 58.67743 42.91014
# Shear Modulus (GPa) = 28.86899 42.59213 35.73056
#
# Velocity S-wave (km/s) = 3.41617 4.14943 3.80052
# Velocity P-wave (km/s) = 5.15099 6.83207 6.05020
#
# Compressibility (1/GPa) = 0.03684210
#
# Stress axis : x y z
#
# Youngs Moduli (GPa) = 92.05009 51.59008 38.26605
#
# Poissons Ratio (x) = 0.36345 0.41641
# Poissons Ratio (y) = 0.64848 -0.31217
# Poissons Ratio (z) = 1.00169 -0.42087
#
# Static dielectric constant tensor:
#      x y z
#    x 1.952840 0.015060 0.013370 
#    y 0.015060 1.998850 0.003760 
#    z 0.013370 0.003760 2.087500 
# 
# From -- ./inp_files/55370.got.cif
#   From: 2010.05.17/outbox.cif.g08.bks.cpg/sg2_28_cif.got.tgz:55370.got - 2010.06.03 11:33:40.
