data_PCOD9028401
_publ_section_title
;
Structure prediction by ZEFSAII (Michael W. Deem and Ramdas Pophale) SiO2 
 PCOD9028401
Probable space group: P -1
;
_chemical_formula_sum "Si O2"
_cell_formula_units_Z 12
_cell_length_a 9.790719
_cell_length_b 6.114016
_cell_length_c 20.167682
_cell_angle_alpha 64.569305
_cell_angle_beta 29.887428
_cell_angle_gamma 65.358525
_cell_volume 540.602376
_symmetry_space_group_name_H-M "P -1"
_symmetry_group_IT_number 2
_symmetry_cell_setting 'triclinic'
loop_
_space_group_symop_operation_xyz
x,y,z
-x,-y,-z
loop_
_atom_site_type_symbol
_atom_site_label
_atom_site_fract_x
_atom_site_fract_y
_atom_site_fract_z
Si Si1 0.830734 0.619709 0.217417
Si Si2 0.760586 0.146454 0.384597
Si Si3 0.100994 0.102864 0.512657
Si Si4 0.134709 0.900591 0.147057
Si Si5 0.574715 0.464565 0.716376
Si Si6 0.608700 0.624833 0.049834
O O1 0.723885 0.419009 0.337592
O O2 0.890260 0.845033 0.208395
O O3 0.626222 0.642686 0.238528
O O4 0.131503 0.523533 0.074433
O O5 0.500000 0.000000 0.500000
O O6 0.826285 0.113971 0.438332
O O7 0.007478 0.016137 0.253116
O O8 0.345874 0.272959 0.375218
O O9 0.854106 0.284087 0.623732
O O10 0.000000 0.000000 0.500000
O O11 0.335827 0.662724 0.114055
O O12 0.306887 0.099528 0.014391
O O13 0.449970 0.479872 0.840184
#
# Coordination Sequence:
#
# PCOD9028401 Si02
#       6
#     2   2   2   2   2   2
#     4  11  24  38  69  93 119 165 206 248 311 360
#     4  11  23  43  62  92 126 156 209 256 296 373
#     4  11  26  42  64  90 126 166 200 251 314 360
#     4  10  23  41  64  92 123 164 202 255 306 359
#     4  11  24  43  61  95 126 158 207 256 299 367
#     4  10  22  42  61  90 130 156 208 254 299 363
#
# _framework density 22.197461000000001
#
# number of rings (size 3 to 8) (size 9 to 14) (size 15 to 20)
#    0.000    1.333    3.333    1.000    4.667    2.667 
#    0.000    0.000    0.000    0.000    0.000    0.000 
#    0.000    0.000    0.000    0.000    0.000    0.000 
#
# Total GULP energy -67138.867081 kJ/mol
# GULP energy per Si atom -5594.905590 kJ/mol
# Density = 2.214694 g / cm^3
# Si number density = 22.197461 Si / 1000 Ang^3
#
#
#
# Elastic Constant Matrix: (Units=GPa)
#
#
# Indices 1 2 3 4 5 6 
#
# 1 116.4225 0.8696 29.7890 -2.9667 12.6653 14.0661
# 2 0.8696 19.4638 7.4797 -0.6158 5.1045 1.3320
# 3 29.7890 7.4797 104.9613 -2.6880 15.5201 -3.2460
# 4 -2.9667 -0.6158 -2.6880 8.2434 1.4113 -6.6767
# 5 12.6653 5.1045 15.5201 1.4113 40.1957 -1.9653
# 6 14.0661 1.3320 -3.2460 -6.6767 -1.9653 36.3724
#
#
#
# Elastic Compliance Matrix: (Units=1/GPa)
#
#
# Indices 1 2 3 4 5 6 
#
# 1 0.010076 0.001555 -0.002740 -0.000271 -0.002519 -0.004384
# 2 0.001555 0.054546 -0.003423 0.002315 -0.006314 -0.002821
# 3 -0.002740 -0.003423 0.011236 0.005388 -0.003082 0.003010
# 4 -0.000271 0.002315 0.005388 0.146036 -0.006098 0.026978
# 5 -0.002519 -0.006314 -0.003082 -0.006098 0.027943 0.001321
# 6 -0.004384 -0.002821 0.003010 0.026978 0.001321 0.034584
#
#
# Mechanical properties :
#
#
# Convention : Reuss Voigt Hill
#
# Bulk Modulus (GPa) = 15.00575 35.23604 25.12089
# Shear Modulus (GPa) = 15.83029 30.47625 23.15327
#
# Velocity S-wave (km/s) = 2.67340 3.70937 3.23315
# Velocity P-wave (km/s) = 4.03785 5.85271 5.02785
#
# Compressibility (1/GPa) = 0.06664113
#
# Stress axis : x y z
#
# Youngs Moduli (GPa) = 99.24795 18.33329 89.00125
#
# Poissons Ratio (x) = -0.02851 0.24390
# Poissons Ratio (y) = -0.15434 0.30462
# Poissons Ratio (z) = 0.27198 0.06275
#
# Static dielectric constant tensor:
#      x y z
#    x 1.807440 -0.017510 -0.028310 
#    y -0.017510 1.829270 0.016580 
#    z -0.028310 0.016580 1.797600 
# 
# From -- ./inp_files/362367.got.cif
#   From: 2010.05.17/outbox.cif.g08.bks.cpg/sg2_182_cif.got.tgz:362367.got - 2010.06.03 11:33:40.
