data_PCOD9028035
_publ_section_title
;
Structure prediction by ZEFSAII (Michael W. Deem and Ramdas Pophale) SiO2 
 PCOD9028035
Probable space group: P -1
;
_chemical_formula_sum "Si O2"
_cell_formula_units_Z 12
_cell_length_a 16.080304
_cell_length_b 9.640799
_cell_length_c 13.064043
_cell_angle_alpha 45.529569
_cell_angle_beta 152.728348
_cell_angle_gamma 140.627460
_cell_volume 588.059159
_symmetry_space_group_name_H-M "P -1"
_symmetry_group_IT_number 2
_symmetry_cell_setting 'triclinic'
loop_
_space_group_symop_operation_xyz
x,y,z
-x,-y,-z
loop_
_atom_site_type_symbol
_atom_site_label
_atom_site_fract_x
_atom_site_fract_y
_atom_site_fract_z
Si Si1 0.072344 0.751183 0.471767
Si Si2 0.886555 0.932401 0.016335
Si Si3 0.453151 0.746918 0.569719
Si Si4 0.465206 0.041782 0.057618
Si Si5 0.203765 0.728791 0.118748
Si Si6 0.327845 0.396608 0.773387
O O1 0.308805 0.866734 0.695734
O O2 0.000000 0.500000 0.500000
O O3 0.026125 0.855163 0.269876
O O4 0.903973 0.748627 0.367799
O O5 0.664129 0.748757 0.832735
O O6 0.853631 0.107318 0.960857
O O7 0.000000 0.000000 0.000000
O O8 0.359034 0.684561 0.385830
O O9 0.314695 0.580840 0.591540
O O10 0.500000 0.000000 0.500000
O O11 0.312260 0.851033 0.067796
O O12 0.393847 0.230026 0.878668
O O13 0.500000 0.000000 0.000000
O O14 0.000000 0.500000 0.000000
O O15 0.500000 0.500000 0.000000
#
# Coordination Sequence:
#
# PCOD9028035 Si02
#       6
#     2   2   2   2   2   2
#     4  12  25  41  77 104 138 178 239 288 351 412
#     4  11  23  42  70 103 135 177 234 289 349 414
#     4  10  22  41  70  98 137 178 229 290 349 407
#     4  12  28  48  70 105 144 188 238 289 351 421
#     4  11  26  47  68 100 148 187 231 292 352 416
#     4  12  22  46  73 106 136 182 237 293 345 423
#
# _framework density 20.406109000000001
#
# number of rings (size 3 to 8) (size 9 to 14) (size 15 to 20)
#    0.000    0.667    5.000    2.000    7.000    3.333 
#    0.000    2.500    0.000    0.000    0.000    0.000 
#    0.000    0.000    0.000    0.000    0.000    0.000 
#
# Total GULP energy -66875.482598 kJ/mol
# GULP energy per Si atom -5572.956883 kJ/mol
# Density = 2.035966 g / cm^3
# Si number density = 20.406109 Si / 1000 Ang^3
#
#
#
# Elastic Constant Matrix: (Units=GPa)
#
#
# Indices 1 2 3 4 5 6 
#
# 1 162.0263 69.7828 42.0787 -7.3888 -7.5564 14.4963
# 2 69.7828 105.0351 57.0701 2.3251 -13.8370 17.7787
# 3 42.0787 57.0701 122.9347 -1.0933 -5.8593 1.1577
# 4 -7.3888 2.3251 -1.0933 44.0847 8.9448 1.3676
# 5 -7.5564 -13.8370 -5.8593 8.9448 41.3739 -9.8145
# 6 14.4963 17.7787 1.1577 1.3676 -9.8145 42.9784
#
#
#
# Elastic Compliance Matrix: (Units=1/GPa)
#
#
# Indices 1 2 3 4 5 6 
#
# 1 0.008851 -0.005673 -0.000416 0.002002 -0.000990 -0.000917
# 2 -0.005673 0.017941 -0.006197 -0.002645 0.003607 -0.004433
# 3 -0.000416 -0.006197 0.011130 0.000483 -0.000116 0.002362
# 4 0.002002 -0.002645 0.000483 0.024477 -0.006165 -0.001781
# 5 -0.000990 0.003607 -0.000116 -0.006165 0.027789 0.005387
# 6 -0.000917 -0.004433 0.002362 -0.001781 0.005387 0.026634
#
#
# Mechanical properties :
#
#
# Convention : Reuss Voigt Hill
#
# Bulk Modulus (GPa) = 74.91415 80.87326 77.89371
# Shear Modulus (GPa) = 34.28317 40.42504 37.35411
#
# Velocity S-wave (km/s) = 4.10328 4.45570 4.28312
# Velocity P-wave (km/s) = 7.69679 8.13566 7.91926
#
# Compressibility (1/GPa) = 0.01334861
#
# Stress axis : x y z
#
# Youngs Moduli (GPa) = 112.98678 55.73856 89.84623
#
# Poissons Ratio (x) = 0.31623 0.03741
# Poissons Ratio (y) = 0.64102 0.55675
# Poissons Ratio (z) = 0.04705 0.34539
#
# Static dielectric constant tensor:
#      x y z
#    x 1.983890 0.078460 0.089340 
#    y 0.078460 1.843840 0.023890 
#    z 0.089340 0.023890 1.754910 
# 
# From -- ./inp_files/158043.got.cif
#   From: 2010.05.17/outbox.cif.g08.bks.cpg/sg2_80_cif.got.tgz:158043.got - 2010.06.03 11:33:40.
