data_PCOD9028100
_publ_section_title
;
Structure prediction by ZEFSAII (Michael W. Deem and Ramdas Pophale) SiO2 
 PCOD9028100
Probable space group: P -1
;
_chemical_formula_sum "Si O2"
_cell_formula_units_Z 12
_cell_length_a 9.028282
_cell_length_b 8.667216
_cell_length_c 9.524130
_cell_angle_alpha 99.971156
_cell_angle_beta 130.362689
_cell_angle_gamma 69.025794
_cell_volume 528.430368
_symmetry_space_group_name_H-M "P -1"
_symmetry_group_IT_number 2
_symmetry_cell_setting 'triclinic'
loop_
_space_group_symop_operation_xyz
x,y,z
-x,-y,-z
loop_
_atom_site_type_symbol
_atom_site_label
_atom_site_fract_x
_atom_site_fract_y
_atom_site_fract_z
Si Si1 0.096421 0.612728 0.985452
Si Si2 0.237231 0.056450 0.073520
Si Si3 0.992517 0.108202 0.652052
Si Si4 0.477751 0.692751 0.270095
Si Si5 0.524957 0.151508 0.445930
Si Si6 0.133818 0.416483 0.699282
O O1 0.111400 0.550084 0.826866
O O2 0.951779 0.802947 0.946317
O O3 0.328918 0.584745 0.171427
O O4 0.000000 0.500000 0.000000
O O5 0.419896 0.135488 0.230323
O O6 0.324676 0.876609 0.167647
O O7 0.156703 0.033015 0.865706
O O8 0.760164 0.142692 0.570084
O O9 0.049066 0.271712 0.675457
O O10 0.000000 0.000000 0.500000
O O11 0.576809 0.697251 0.485115
O O12 0.637591 0.650174 0.234751
O O13 0.500000 0.000000 0.500000
O O14 0.000000 0.500000 0.500000
#
# Coordination Sequence:
#
# PCOD9028100 Si02
#       6
#     2   2   2   2   2   2
#     4  12  24  47  72 106 148 191 241 300 369 434
#     4  11  24  45  78 103 145 187 246 300 359 428
#     4  12  26  46  71 108 145 194 249 300 360 438
#     4  11  24  45  74 108 141 196 245 293 370 438
#     4  10  22  41  71 107 140 182 241 296 361 423
#     4  12  28  48  70 106 154 192 242 304 369 436
#
# _framework density 22.708762
#
# number of rings (size 3 to 8) (size 9 to 14) (size 15 to 20)
#    0.000    0.667    3.333    4.000    4.667    4.000 
#    0.000    3.333    0.000    0.000    0.000    0.000 
#    0.000    0.000    0.000    0.000    0.000    0.000 
#
# Total GULP energy -67017.081422 kJ/mol
# GULP energy per Si atom -5584.756785 kJ/mol
# Density = 2.265708 g / cm^3
# Si number density = 22.708762 Si / 1000 Ang^3
#
#
#
# Elastic Constant Matrix: (Units=GPa)
#
#
# Indices 1 2 3 4 5 6 
#
# 1 144.0102 30.7457 32.1638 3.6087 14.4351 -1.0654
# 2 30.7457 59.7204 15.2502 7.0587 -3.7433 -16.6407
# 3 32.1638 15.2502 166.6832 35.8607 -4.4981 -5.9493
# 4 3.6087 7.0587 35.8607 32.0270 -10.4374 -6.1698
# 5 14.4351 -3.7433 -4.4981 -10.4374 45.0564 18.6673
# 6 -1.0654 -16.6407 -5.9493 -6.1698 18.6673 36.8154
#
#
#
# Elastic Compliance Matrix: (Units=1/GPa)
#
#
# Indices 1 2 3 4 5 6 
#
# 1 0.008474 -0.004349 -0.001462 0.000616 -0.002926 -0.000370
# 2 -0.004349 0.022112 -0.000302 -0.002611 -0.001636 0.010212
# 3 -0.001462 -0.000302 0.008297 -0.009347 -0.000919 0.000062
# 4 0.000616 -0.002611 -0.009347 0.045188 0.008976 0.000349
# 5 -0.002926 -0.001636 -0.000919 0.008976 0.031349 -0.015364
# 6 -0.000370 0.010212 0.000062 0.000349 -0.015364 0.039626
#
#
# Mechanical properties :
#
#
# Convention : Reuss Voigt Hill
#
# Bulk Modulus (GPa) = 37.51065 58.52591 48.01828
# Shear Modulus (GPa) = 28.38357 42.26336 35.32346
#
# Velocity S-wave (km/s) = 3.53922 4.31873 3.94826
# Velocity P-wave (km/s) = 5.76675 7.12018 6.47890
#
# Compressibility (1/GPa) = 0.02665910
#
# Stress axis : x y z
#
# Youngs Moduli (GPa) = 118.00755 45.22411 120.51845
#
# Poissons Ratio (x) = 0.19666 0.17619
# Poissons Ratio (y) = 0.51316 0.03637
# Poissons Ratio (z) = 0.17252 0.01365
#
# Static dielectric constant tensor:
#      x y z
#    x 2.011640 -0.074970 -0.026050 
#    y -0.074970 1.889420 0.041060 
#    z -0.026050 0.041060 1.923890 
# 
# From -- ./inp_files/158232.got.cif
#   From: 2010.05.17/outbox.cif.g08.bks.cpg/sg2_80_cif.got.tgz:158232.got - 2010.06.03 11:33:40.
