data_PCOD9028785
_publ_section_title
;
Structure prediction by ZEFSAII (Michael W. Deem and Ramdas Pophale) SiO2 
 PCOD9028785
Probable space group: P -1
;
_chemical_formula_sum "Si O2"
_cell_formula_units_Z 16
_cell_length_a 6.786471
_cell_length_b 11.306479
_cell_length_c 23.796815
_cell_angle_alpha 149.659016
_cell_angle_beta 122.529612
_cell_angle_gamma 71.850623
_cell_volume 726.039501
_symmetry_space_group_name_H-M "P -1"
_symmetry_group_IT_number 2
_symmetry_cell_setting 'triclinic'
loop_
_space_group_symop_operation_xyz
x,y,z
-x,-y,-z
loop_
_atom_site_type_symbol
_atom_site_label
_atom_site_fract_x
_atom_site_fract_y
_atom_site_fract_z
Si Si1 0.692694 0.544375 0.725179
Si Si2 0.452376 0.147265 0.333664
Si Si3 0.588560 0.572219 0.850470
Si Si4 0.034015 0.217557 0.640198
Si Si5 0.696053 0.641288 0.503811
Si Si6 0.983525 0.520276 0.072840
Si Si7 0.963832 0.009318 0.879177
Si Si8 0.167001 0.080678 0.726470
O O1 0.651086 0.601069 0.806093
O O2 0.816659 0.333031 0.653420
O O3 0.432419 0.448616 0.612268
O O4 0.869171 0.792863 0.821508
O O5 0.632194 0.399579 0.434470
O O6 0.442385 0.196844 0.418090
O O7 0.177818 0.096209 0.244046
O O8 0.563933 0.936401 0.249377
O O9 0.732165 0.396258 0.825779
O O10 0.296344 0.445362 0.763106
O O11 0.737580 0.841716 0.013481
O O12 0.055700 0.117543 0.664558
O O13 0.000000 0.000000 0.500000
O O14 0.980007 0.818617 0.614592
O O15 0.843730 0.699980 0.144812
O O16 0.000000 0.500000 0.000000
O O17 0.873949 0.245887 0.972762
#
# Coordination Sequence:
#
# PCOD9028785 Si02
#       8
#     2   2   2   2   2   2   2   2
#     4  11  22  44  64  93 125 175 213 261 324 381
#     4  10  22  42  65 100 125 173 217 261 327 386
#     4  10  24  43  63  90 133 163 214 267 322 376
#     4  12  26  39  64  99 126 169 218 261 321 395
#     4  10  23  41  67  92 138 168 212 271 316 385
#     4  10  23  43  63  92 130 170 209 269 326 373
#     4   9  22  42  67  87 129 169 209 267 320 378
#     4  12  24  39  67  95 129 170 217 267 323 384
#
# _framework density 22.037371
#
# number of rings (size 3 to 8) (size 9 to 14) (size 15 to 20)
#    0.750    0.750    1.250    3.000    5.250    2.000 
#    2.250    7.500    0.000    0.000    0.000    0.000 
#    0.000    0.000    0.000    0.000    0.000    0.000 
#
# Total GULP energy -89326.259683 kJ/mol
# GULP energy per Si atom -5582.891230 kJ/mol
# Density = 2.198721 g / cm^3
# Si number density = 22.037371 Si / 1000 Ang^3
#
#
#
# Elastic Constant Matrix: (Units=GPa)
#
#
# Indices 1 2 3 4 5 6 
#
# 1 44.5773 13.2157 13.4433 -5.2575 -9.7144 5.0580
# 2 13.2157 52.8963 8.8001 -9.0652 -12.7927 18.2494
# 3 13.4433 8.8001 80.3289 -3.1351 -2.0616 17.8017
# 4 -5.2575 -9.0652 -3.1351 32.1059 6.0878 -2.8139
# 5 -9.7144 -12.7927 -2.0616 6.0878 37.2547 2.4738
# 6 5.0580 18.2494 17.8017 -2.8139 2.4738 26.2594
#
#
#
# Elastic Compliance Matrix: (Units=1/GPa)
#
#
# Indices 1 2 3 4 5 6 
#
# 1 0.026121 -0.004635 -0.003786 0.001754 0.004690 0.000502
# 2 -0.004635 0.030724 0.002930 0.004229 0.010338 -0.022966
# 3 -0.003786 0.002930 0.015453 0.000370 0.001603 -0.011894
# 4 0.001754 0.004229 0.000370 0.033371 -0.003549 0.000383
# 5 0.004690 0.010338 0.001603 -0.003549 0.033125 -0.012675
# 6 0.000502 -0.022966 -0.011894 0.000383 -0.012675 0.063244
#
#
# Mechanical properties :
#
#
# Convention : Reuss Voigt Hill
#
# Bulk Modulus (GPa) = 16.30921 27.63562 21.97241
# Shear Modulus (GPa) = 21.41717 28.61356 25.01536
#
# Velocity S-wave (km/s) = 3.12084 3.60726 3.37283
# Velocity P-wave (km/s) = 4.51697 5.46967 5.01599
#
# Compressibility (1/GPa) = 0.06131506
#
# Stress axis : x y z
#
# Youngs Moduli (GPa) = 38.28381 32.54819 64.71275
#
# Poissons Ratio (x) = 0.15085 0.24501
# Poissons Ratio (y) = 0.17743 -0.18959
# Poissons Ratio (z) = 0.14495 -0.09536
#
# Static dielectric constant tensor:
#      x y z
#    x 1.782590 -0.017220 0.032740 
#    y -0.017220 1.799740 0.019200 
#    z 0.032740 0.019200 1.852310 
# 
# From -- ./inp_files/427283.got.cif
#   From: 2010.05.17/outbox.cif.g08.bks.cpg/sg2_214_cif.got.tgz:427283.got - 2010.06.03 11:33:40.
