data_PCOD9028653
_publ_section_title
;
Structure prediction by ZEFSAII (Michael W. Deem and Ramdas Pophale) SiO2 
 PCOD9028653
Probable space group: P -1
;
_chemical_formula_sum "Si O2"
_cell_formula_units_Z 15
_cell_length_a 16.147418
_cell_length_b 15.616272
_cell_length_c 12.322879
_cell_angle_alpha 42.673009
_cell_angle_beta 41.454741
_cell_angle_gamma 18.416133
_cell_volume 645.548952
_symmetry_space_group_name_H-M "P -1"
_symmetry_group_IT_number 2
_symmetry_cell_setting 'triclinic'
loop_
_space_group_symop_operation_xyz
x,y,z
-x,-y,-z
loop_
_atom_site_type_symbol
_atom_site_label
_atom_site_fract_x
_atom_site_fract_y
_atom_site_fract_z
Si Si1 0.037339 0.104901 0.684127
Si Si2 0.202446 0.125162 0.678324
Si Si3 0.929838 0.176617 0.197064
Si Si4 0.296415 0.289528 0.890375
Si Si5 0.480388 0.251840 0.949700
Si Si6 0.707937 0.717950 0.701458
Si Si7 0.500000 0.500000 0.500000
Si Si8 0.379914 0.405943 0.519840
O O1 0.074725 0.115221 0.760994
O O2 0.821719 0.385583 0.574191
O O3 0.972915 0.018213 0.799668
O O4 0.323584 0.867002 0.565933
O O5 0.266273 0.164204 0.479558
O O6 0.989302 0.393910 0.709357
O O7 0.475521 0.861019 0.722916
O O8 0.698265 0.469624 0.095275
O O9 0.783194 0.255053 0.375926
O O10 0.201365 0.009968 0.115644
O O11 0.378249 0.328438 0.856073
O O12 0.319688 0.330061 0.712185
O O13 0.000000 0.500000 0.000000
O O14 0.500000 0.000000 0.000000
O O15 0.391381 0.211498 0.144604
O O16 0.365775 0.534323 0.500194
#
# Coordination Sequence:
#
# PCOD9028653 Si02
#       8
#     2   2   2   2   2   2   1   2
#     4  11  24  41  67  95 131 163 223 274 317 382
#     4  10  22  45  66  97 122 167 223 273 329 385
#     4  11  24  42  67  97 132 178 220 265 328 381
#     4  12  27  43  61  96 136 176 214 260 328 394
#     4  12  25  45  66  97 136 173 221 268 326 399
#     4  10  23  42  71  90 127 171 216 271 332 387
#     4  10  22  42  64  90 132 178 220 256 304 384
#     4  11  24  39  65  95 128 175 215 262 318 380
#
# _framework density 23.236037
#
# number of rings (size 3 to 8) (size 9 to 14) (size 15 to 20)
#    0.000    1.067    1.333    4.800    5.600    1.600 
#    0.000    4.000    0.000    0.000    0.000    0.000 
#    0.000    0.000    0.000    0.000    0.000    0.000 
#
# Total GULP energy -83644.059564 kJ/mol
# GULP energy per Si atom -5576.270638 kJ/mol
# Density = 2.318315 g / cm^3
# Si number density = 23.236037 Si / 1000 Ang^3
#
#
#
# Elastic Constant Matrix: (Units=GPa)
#
#
# Indices 1 2 3 4 5 6 
#
# 1 60.7987 -0.4772 -31.5355 -1.5372 1.1232 1.3693
# 2 -0.4772 126.7620 5.0447 -9.6427 1.1328 -26.3503
# 3 -31.5355 5.0447 39.7329 12.0990 3.6908 -5.6301
# 4 -1.5372 -9.6427 12.0990 40.4841 -8.0132 -11.4887
# 5 1.1232 1.1328 3.6908 -8.0132 23.3540 4.9872
# 6 1.3693 -26.3503 -5.6301 -11.4887 4.9872 34.0246
#
#
#
# Elastic Compliance Matrix: (Units=1/GPa)
#
#
# Indices 1 2 3 4 5 6 
#
# 1 0.031373 -0.001586 0.028951 -0.009570 -0.009386 0.000444
# 2 -0.001586 0.010499 -0.003090 0.006146 0.000083 0.009746
# 3 0.028951 -0.003090 0.056270 -0.019356 -0.017146 0.001731
# 4 -0.009570 0.006146 -0.019356 0.037876 0.013494 0.012753
# 5 -0.009386 0.000083 -0.017146 0.013494 0.051765 -0.005427
# 6 0.000444 0.009746 0.001731 0.012753 -0.005427 0.042309
#
#
# Mechanical properties :
#
#
# Convention : Reuss Voigt Hill
#
# Bulk Modulus (GPa) = 6.81699 19.26196 13.03948
# Shear Modulus (GPa) = 21.69768 36.52331 29.11049
#
# Velocity S-wave (km/s) = 3.05912 3.96894 3.54335
# Velocity P-wave (km/s) = 3.92655 5.41397 4.72910
#
# Compressibility (1/GPa) = 0.14669225
#
# Stress axis : x y z
#
# Youngs Moduli (GPa) = 31.87439 95.25123 17.77137
#
# Poissons Ratio (x) = 0.15106 -0.51450
# Poissons Ratio (y) = 0.05055 0.05491
# Poissons Ratio (z) = -0.92279 0.29431
#
# Static dielectric constant tensor:
#      x y z
#    x 1.888200 0.046400 -0.035970 
#    y 0.046400 1.823650 -0.037900 
#    z -0.035970 -0.037900 1.912850 
# 
# From -- ./inp_files/454627.got.cif
#   From: 2010.05.17/outbox.cif.g08.bks.cpg/sg2_228_cif.got.tgz:454627.got - 2010.06.03 11:33:40.
