data_PCOD9028334
_publ_section_title
;
Structure prediction by ZEFSAII (Michael W. Deem and Ramdas Pophale) SiO2 
 PCOD9028334
Probable space group: P -1
;
_chemical_formula_sum "Si O2"
_cell_formula_units_Z 16
_cell_length_a 13.453442
_cell_length_b 14.010959
_cell_length_c 8.959285
_cell_angle_alpha 90.249072
_cell_angle_beta 112.274773
_cell_angle_gamma 147.780598
_cell_volume 626.850524
_symmetry_space_group_name_H-M "P -1"
_symmetry_group_IT_number 2
_symmetry_cell_setting 'triclinic'
loop_
_space_group_symop_operation_xyz
x,y,z
-x,-y,-z
loop_
_atom_site_type_symbol
_atom_site_label
_atom_site_fract_x
_atom_site_fract_y
_atom_site_fract_z
Si Si1 0.606425 0.883356 0.994663
Si Si2 0.024116 0.598566 0.324014
Si Si3 0.328063 0.322984 0.756882
Si Si4 0.360895 0.568091 0.255120
Si Si5 0.145602 0.016794 0.304187
Si Si6 0.872788 0.795300 0.689268
Si Si7 0.793083 0.217343 0.236564
Si Si8 0.838974 0.157765 0.843204
O O1 0.789387 0.101619 0.204417
O O2 0.802561 0.951731 0.107458
O O3 0.625954 0.950671 0.842720
O O4 0.291129 0.620061 0.852389
O O5 0.986870 0.454988 0.276392
O O6 0.204171 0.803937 0.312587
O O7 0.154395 0.722747 0.559759
O O8 0.473414 0.344141 0.786016
O O9 0.258451 0.313070 0.552920
O O10 0.500000 0.500000 0.000000
O O11 0.038041 0.097959 0.665513
O O12 0.579017 0.801391 0.475767
O O13 0.254365 0.394900 0.294595
O O14 0.100659 0.416386 0.070843
O O15 0.197258 0.162352 0.265130
O O16 0.038330 0.842862 0.147244
O O17 0.500000 0.000000 0.000000
#
# Coordination Sequence:
#
# PCOD9028334 Si02
#       8
#     2   2   2   2   2   2   2   2
#     4  10  24  42  67  98 128 165 215 259 326 373
#     4  10  23  44  72  95 130 163 204 262 324 383
#     4  11  21  36  58  84 117 168 223 260 308 366
#     4  10  22  42  56  84 125 169 217 261 318 362
#     4  11  23  38  58  85 129 169 219 256 309 367
#     4  10  23  41  59  86 129 170 210 269 313 369
#     4   9  21  46  71  99 127 164 203 257 326 389
#     4  11  25  41  62 100 128 167 218 261 306 385
#
# _framework density 25.524425999999998
#
# number of rings (size 3 to 8) (size 9 to 14) (size 15 to 20)
#    0.000    1.750    1.250    3.000    5.250    5.500 
#    6.750    5.625    0.000    0.000    0.000    0.000 
#    0.000    0.000    0.000    0.000    0.000    0.000 
#
# Total GULP energy -89153.749367 kJ/mol
# GULP energy per Si atom -5572.109335 kJ/mol
# Density = 2.546633 g / cm^3
# Si number density = 25.524426 Si / 1000 Ang^3
#
#
#
# Elastic Constant Matrix: (Units=GPa)
#
#
# Indices 1 2 3 4 5 6 
#
# 1 65.2984 -5.3935 35.5549 -0.1843 -6.7475 1.3911
# 2 -5.3935 101.7676 34.0675 -15.6335 -5.0629 6.1958
# 3 35.5549 34.0675 135.1300 -4.0435 -4.4765 -6.3197
# 4 -0.1843 -15.6335 -4.0435 36.4867 3.7392 6.5693
# 5 -6.7475 -5.0629 -4.4765 3.7392 41.5445 7.1955
# 6 1.3911 6.1958 -6.3197 6.5693 7.1955 31.5003
#
#
#
# Elastic Compliance Matrix: (Units=1/GPa)
#
#
# Indices 1 2 3 4 5 6 
#
# 1 0.019352 0.003661 -0.006040 0.001335 0.003487 -0.003861
# 2 0.003661 0.012713 -0.004170 0.005721 0.002074 -0.005166
# 3 -0.006040 -0.004170 0.010141 -0.001247 -0.000906 0.003588
# 4 0.001335 0.005721 -0.001247 0.031198 -0.000680 -0.007785
# 5 0.003487 0.002074 -0.000906 -0.000680 0.025986 -0.006538
# 6 -0.003861 -0.005166 0.003588 -0.007785 -0.006538 0.036769
#
#
# Mechanical properties :
#
#
# Convention : Reuss Voigt Hill
#
# Bulk Modulus (GPa) = 34.35439 47.85044 41.10241
# Shear Modulus (GPa) = 31.45457 37.77078 34.61267
#
# Velocity S-wave (km/s) = 3.51427 3.85098 3.68647
# Velocity P-wave (km/s) = 5.47315 6.20975 5.85305
#
# Compressibility (1/GPa) = 0.02910836
#
# Stress axis : x y z
#
# Youngs Moduli (GPa) = 51.67484 78.66078 98.60680
#
# Poissons Ratio (x) = -0.28799 0.59558
# Poissons Ratio (y) = -0.18919 0.41119
# Poissons Ratio (z) = 0.31211 0.32802
#
# Static dielectric constant tensor:
#      x y z
#    x 2.121450 -0.038110 0.055970 
#    y -0.038110 2.137640 -0.017900 
#    z 0.055970 -0.017900 2.067370 
# 
# From -- ./inp_files/315340.got.cif
#   From: 2010.05.17/outbox.cif.g08.bks.cpg/sg2_158_cif.got.tgz:315340.got - 2010.06.03 11:33:40.
