data_PCOD9028415
_publ_section_title
;
Structure prediction by ZEFSAII (Michael W. Deem and Ramdas Pophale) SiO2 
 PCOD9028415
Probable space group: P -1
;
_chemical_formula_sum "Si O2"
_cell_formula_units_Z 16
_cell_length_a 16.133991
_cell_length_b 13.532948
_cell_length_c 13.089958
_cell_angle_alpha 129.041346
_cell_angle_beta 34.494781
_cell_angle_gamma 153.218672
_cell_volume 663.569792
_symmetry_space_group_name_H-M "P -1"
_symmetry_group_IT_number 2
_symmetry_cell_setting 'triclinic'
loop_
_space_group_symop_operation_xyz
x,y,z
-x,-y,-z
loop_
_atom_site_type_symbol
_atom_site_label
_atom_site_fract_x
_atom_site_fract_y
_atom_site_fract_z
Si Si1 0.753943 0.775167 0.298412
Si Si2 0.603473 0.721053 0.060299
Si Si3 0.634662 0.983948 0.540537
Si Si4 0.876560 0.508234 0.712432
Si Si5 0.452386 0.861762 0.869242
Si Si6 0.312061 0.456214 0.383056
Si Si7 0.939018 0.469939 0.249284
Si Si8 0.855701 0.932406 0.499238
O O1 0.645498 0.840737 0.453101
O O2 0.529345 0.550746 0.302527
O O3 0.778798 0.766190 0.388584
O O4 0.070687 0.009109 0.091866
O O5 0.485881 0.657742 0.252020
O O6 0.433246 0.681399 0.127200
O O7 0.500000 0.500000 0.000000
O O8 0.573207 0.994642 0.723203
O O9 0.361755 0.814644 0.643609
O O10 0.912889 0.221627 0.352062
O O11 0.915789 0.485231 0.770992
O O12 0.000000 0.500000 0.500000
O O13 0.606535 0.842541 0.719231
O O14 0.127562 0.593669 0.038554
O O15 0.500000 0.000000 0.000000
O O16 0.118225 0.421422 0.606655
O O17 0.103886 0.203240 0.376595
O O18 0.000000 0.000000 0.500000
#
# Coordination Sequence:
#
# PCOD9028415 Si02
#       8
#     2   2   2   2   2   2   2   2
#     4  10  23  41  67  91 125 171 211 254 315 382
#     4  12  21  40  67  91 127 167 210 253 318 381
#     4  10  22  42  61  94 129 163 210 264 314 373
#     4  12  23  39  64  95 128 164 209 263 320 368
#     4  11  21  40  67  90 120 169 215 248 319 385
#     4  11  22  43  65  93 127 168 210 258 320 376
#     4  11  23  39  65  94 128 165 211 265 313 375
#     4  11  24  42  64  92 129 166 209 263 314 371
#
# _framework density 24.112009
#
# number of rings (size 3 to 8) (size 9 to 14) (size 15 to 20)
#    0.000    1.000    5.000    2.625    1.750    0.500 
#    0.000    1.250    0.000    0.000    0.000    0.000 
#    0.000    0.000    0.000    0.000    0.000    0.000 
#
# Total GULP energy -89390.088634 kJ/mol
# GULP energy per Si atom -5586.880540 kJ/mol
# Density = 2.405713 g / cm^3
# Si number density = 24.112009 Si / 1000 Ang^3
#
#
#
# Elastic Constant Matrix: (Units=GPa)
#
#
# Indices 1 2 3 4 5 6 
#
# 1 112.5690 6.0072 25.7000 -13.6013 -4.1742 34.8683
# 2 6.0072 62.5889 14.8849 -18.3805 -1.4747 25.8949
# 3 25.7000 14.8849 123.8449 -30.2069 -2.9857 17.8166
# 4 -13.6013 -18.3805 -30.2069 29.5646 0.3656 -6.9884
# 5 -4.1742 -1.4747 -2.9857 0.3656 35.6604 -8.7317
# 6 34.8683 25.8949 17.8166 -6.9884 -8.7317 37.0124
#
#
#
# Elastic Compliance Matrix: (Units=1/GPa)
#
#
# Indices 1 2 3 4 5 6 
#
# 1 0.015558 0.009387 0.000698 0.008883 -0.002857 -0.020557
# 2 0.009387 0.033181 0.003610 0.021384 -0.005023 -0.030943
# 3 0.000698 0.003610 0.011542 0.012844 -0.000510 -0.006435
# 4 0.008883 0.021384 0.012844 0.059932 -0.002197 -0.018715
# 5 -0.002857 -0.005023 -0.000510 -0.002197 0.030733 0.013286
# 6 -0.020557 -0.030943 -0.006435 -0.018715 0.013286 0.070731
#
#
# Mechanical properties :
#
#
# Convention : Reuss Voigt Hill
#
# Bulk Modulus (GPa) = 11.40602 43.57635 27.49118
# Shear Modulus (GPa) = 22.37032 37.27487 29.82259
#
# Velocity S-wave (km/s) = 3.04923 3.93606 3.52068
# Velocity P-wave (km/s) = 4.13978 6.22644 5.28707
#
# Compressibility (1/GPa) = 0.08767302
#
# Stress axis : x y z
#
# Youngs Moduli (GPa) = 64.27543 30.13742 86.64071
#
# Poissons Ratio (x) = -0.28291 -0.06051
# Poissons Ratio (y) = -0.60337 -0.31279
# Poissons Ratio (z) = -0.04489 -0.10880
#
# Static dielectric constant tensor:
#      x y z
#    x 2.007400 -0.017660 0.063180 
#    y -0.017660 2.079120 -0.031140 
#    z 0.063180 -0.031140 1.947680 
# 
# From -- ./inp_files/216740.got.cif
#   From: 2010.05.17/outbox.cif.g08.bks.cpg/sg2_109_cif.got.tgz:216740.got - 2010.06.03 11:33:40.
