data_PCOD9028163
_publ_section_title
;
Structure prediction by ZEFSAII (Michael W. Deem and Ramdas Pophale) SiO2 
 PCOD9028163
Probable space group: P -1
;
_chemical_formula_sum "Si O2"
_cell_formula_units_Z 14
_cell_length_a 13.604480
_cell_length_b 10.634395
_cell_length_c 26.910251
_cell_angle_alpha 24.667264
_cell_angle_beta 158.562318
_cell_angle_gamma 143.417424
_cell_volume 569.917073
_symmetry_space_group_name_H-M "P -1"
_symmetry_group_IT_number 2
_symmetry_cell_setting 'triclinic'
loop_
_space_group_symop_operation_xyz
x,y,z
-x,-y,-z
loop_
_atom_site_type_symbol
_atom_site_label
_atom_site_fract_x
_atom_site_fract_y
_atom_site_fract_z
Si Si1 0.854569 0.274917 0.372492
Si Si2 0.575618 0.664227 0.253828
Si Si3 0.393210 0.313177 0.975359
Si Si4 0.145680 0.773805 0.194483
Si Si5 0.256866 0.210157 0.274095
Si Si6 0.525195 0.921446 0.403846
Si Si7 0.073537 0.222295 0.703781
O O1 0.609542 0.502261 0.143161
O O2 0.990478 0.534389 0.367247
O O3 0.754286 0.097446 0.433798
O O4 0.000000 0.000000 0.500000
O O5 0.295299 0.557834 0.169061
O O6 0.640080 0.766352 0.192314
O O7 0.832090 0.375617 0.494927
O O8 0.571597 0.957914 0.180859
O O9 0.084482 0.300145 0.850542
O O10 0.500000 0.500000 0.000000
O O11 0.350428 0.909052 0.276119
O O12 0.327191 0.435005 0.382072
O O13 0.000000 0.000000 0.000000
O O14 0.500000 0.000000 0.500000
O O15 0.339100 0.098287 0.297164
O O16 0.975130 0.114753 0.187462
#
# Coordination Sequence:
#
# PCOD9028163 Si02
#       7
#     2   2   2   2   2   2   2
#     4  12  23  43  69  98 140 188 237 294 363 427
#     4  10  23  44  66  99 139 179 238 293 353 433
#     4  12  26  44  69 103 139 182 240 305 359 428
#     4  11  26  44  71 107 143 191 241 306 364 433
#     4  10  22  41  71  99 137 195 236 292 367 430
#     4  11  24  47  71 103 148 190 246 297 366 436
#     4  10  22  42  70  97 136 189 230 286 365 421
#
# _framework density 24.564978
#
# number of rings (size 3 to 8) (size 9 to 14) (size 15 to 20)
#    0.000    1.143    2.857    2.571    6.000    0.571 
#    2.571    1.429    0.000    0.000    0.000    0.000 
#    0.000    0.000    0.000    0.000    0.000    0.000 
#
# Total GULP energy -78301.225361 kJ/mol
# GULP energy per Si atom -5592.944669 kJ/mol
# Density = 2.450907 g / cm^3
# Si number density = 24.564978 Si / 1000 Ang^3
#
#
#
# Elastic Constant Matrix: (Units=GPa)
#
#
# Indices 1 2 3 4 5 6 
#
# 1 72.2694 43.2880 7.8377 -13.9122 -10.7603 3.8021
# 2 43.2880 168.8227 24.4008 -23.9452 -4.0189 12.5472
# 3 7.8377 24.4008 69.3420 -4.4079 -27.1437 -0.6996
# 4 -13.9122 -23.9452 -4.4079 29.8360 -0.4265 1.5914
# 5 -10.7603 -4.0189 -27.1437 -0.4265 38.7921 1.2900
# 6 3.8021 12.5472 -0.6996 1.5914 1.2900 33.6160
#
#
#
# Elastic Compliance Matrix: (Units=1/GPa)
#
#
# Indices 1 2 3 4 5 6 
#
# 1 0.018012 -0.003883 0.002095 0.005736 0.006158 -0.001052
# 2 -0.003883 0.008135 -0.003043 0.004385 -0.002223 -0.002783
# 3 0.002095 -0.003043 0.021325 0.001866 0.015186 0.000672
# 4 0.005736 0.004385 0.001866 0.040272 0.003937 -0.004304
# 5 0.006158 -0.002223 0.015186 0.003937 0.037965 -0.001194
# 6 -0.001052 -0.002783 0.000672 -0.004304 -0.001194 0.031169
#
#
# Mechanical properties :
#
#
# Convention : Reuss Voigt Hill
#
# Bulk Modulus (GPa) = 26.44805 51.27634 38.86220
# Shear Modulus (GPa) = 27.91060 36.10935 32.00998
#
# Velocity S-wave (km/s) = 3.37441 3.83816 3.61373
# Velocity P-wave (km/s) = 5.09628 6.36875 5.76772
#
# Compressibility (1/GPa) = 0.03780997
#
# Stress axis : x y z
#
# Youngs Moduli (GPa) = 55.51793 122.93026 46.89308
#
# Poissons Ratio (x) = 0.47733 -0.09824
# Poissons Ratio (y) = 0.21557 0.14270
# Poissons Ratio (z) = -0.11631 0.37409
#
# Static dielectric constant tensor:
#      x y z
#    x 1.885180 0.003700 -0.025660 
#    y 0.003700 1.983860 -0.007240 
#    z -0.025660 -0.007240 1.925520 
# 
# From -- ./inp_files/399702.got.cif
#   From: 2010.05.17/outbox.cif.g08.bks.cpg/sg2_200_cif.got.tgz:399702.got - 2010.06.03 11:33:40.
