data_PCOD9028887
_publ_section_title
;
Structure prediction by ZEFSAII (Michael W. Deem and Ramdas Pophale) SiO2 
 PCOD9028887
Probable space group: P -1
;
_chemical_formula_sum "Si O2"
_cell_formula_units_Z 16
_cell_length_a 14.180719
_cell_length_b 12.570716
_cell_length_c 6.264208
_cell_angle_alpha 108.861337
_cell_angle_beta 93.321452
_cell_angle_gamma 133.000527
_cell_volume 707.526758
_symmetry_space_group_name_H-M "P -1"
_symmetry_group_IT_number 2
_symmetry_cell_setting 'triclinic'
loop_
_space_group_symop_operation_xyz
x,y,z
-x,-y,-z
loop_
_atom_site_type_symbol
_atom_site_label
_atom_site_fract_x
_atom_site_fract_y
_atom_site_fract_z
Si Si1 0.861571 0.859404 0.037580
Si Si2 0.982591 0.741191 0.986645
Si Si3 0.837155 0.391844 0.703478
Si Si4 0.352159 0.869173 0.115827
Si Si5 0.420576 0.763541 0.697986
Si Si6 0.838778 0.182785 0.302403
Si Si7 0.592797 0.692947 0.622219
Si Si8 0.210215 0.046856 0.538626
O O1 0.857213 0.720615 0.972808
O O2 0.863915 0.924262 0.306369
O O3 0.727138 0.790837 0.854511
O O4 0.000000 0.000000 0.000000
O O5 0.103181 0.898259 0.256423
O O6 0.941491 0.577262 0.930333
O O7 0.041478 0.781957 0.779933
O O8 0.744741 0.254339 0.785809
O O9 0.731558 0.367094 0.516958
O O10 0.897715 0.341899 0.541666
O O11 0.480053 0.064534 0.314645
O O12 0.408665 0.811358 0.957847
O O13 0.260601 0.857276 0.922177
O O14 0.495357 0.710934 0.686358
O O15 0.756002 0.027023 0.347928
O O16 0.500000 0.500000 0.500000
O O17 0.659815 0.784044 0.460376
#
# Coordination Sequence:
#
# PCOD9028887 Si02
#       8
#     2   2   2   2   2   2   2   2
#     4  12  25  48  72 102 137 183 238 282 342 415
#     4  12  25  42  66 102 138 179 234 285 342 411
#     4  11  24  40  66 101 137 181 226 284 350 405
#     4  10  22  42  67  96 133 180 230 280 342 415
#     4  10  22  42  65  93 137 177 225 283 342 409
#     4  11  23  42  67 101 138 179 228 285 343 416
#     4  12  27  46  71 106 140 176 232 291 346 410
#     4  12  25  44  74  97 139 188 230 282 351 407
#
# _framework density 22.613986000000001
#
# number of rings (size 3 to 8) (size 9 to 14) (size 15 to 20)
#    0.000    0.750    2.500    4.875    0.000    8.500 
#    0.000    0.000    0.000    0.000    0.000    0.000 
#    0.000    0.000    0.000    0.000    0.000    0.000 
#
# Total GULP energy -89571.355518 kJ/mol
# GULP energy per Si atom -5598.209720 kJ/mol
# Density = 2.256252 g / cm^3
# Si number density = 22.613986 Si / 1000 Ang^3
#
#
#
# Elastic Constant Matrix: (Units=GPa)
#
#
# Indices 1 2 3 4 5 6 
#
# 1 151.3292 32.6983 63.4904 6.0544 -30.0970 -22.0097
# 2 32.6983 119.4798 56.8953 10.1012 -23.6967 -7.4812
# 3 63.4904 56.8953 97.6065 12.4250 -24.5688 -9.9729
# 4 6.0544 10.1012 12.4250 32.3801 -5.8095 0.1360
# 5 -30.0970 -23.6967 -24.5688 -5.8095 50.0809 5.3099
# 6 -22.0097 -7.4812 -9.9729 0.1360 5.3099 28.4287
#
#
#
# Elastic Compliance Matrix: (Units=1/GPa)
#
#
# Indices 1 2 3 4 5 6 
#
# 1 0.010332 0.000951 -0.005979 0.000618 0.003209 0.005549
# 2 0.000951 0.011980 -0.006696 -0.000857 0.002746 0.001031
# 3 -0.005979 -0.006696 0.019044 -0.003713 0.002161 -0.000096
# 4 0.000618 -0.000857 -0.003713 0.032848 0.002125 -0.001603
# 5 0.003209 0.002746 0.002161 0.002125 0.024570 -0.000634
# 6 0.005549 0.001031 -0.000096 -0.001603 -0.000634 0.039836
#
#
# Mechanical properties :
#
#
# Convention : Reuss Voigt Hill
#
# Bulk Modulus (GPa) = 55.83991 74.95372 65.39682
# Shear Modulus (GPa) = 29.75748 36.53337 33.14543
#
# Velocity S-wave (km/s) = 3.63145 4.02372 3.83261
# Velocity P-wave (km/s) = 6.50611 7.40296 6.96898
#
# Compressibility (1/GPa) = 0.01790834
#
# Stress axis : x y z
#
# Youngs Moduli (GPa) = 96.78987 83.47556 52.50957
#
# Poissons Ratio (x) = -0.07941 0.31395
# Poissons Ratio (y) = -0.09208 0.35160
# Poissons Ratio (z) = 0.57869 0.55895
#
# Static dielectric constant tensor:
#      x y z
#    x 1.867860 -0.008010 0.020630 
#    y -0.008010 1.854510 -0.000660 
#    z 0.020630 -0.000660 1.837740 
# 
# From -- ./inp_files/95347.got.cif
#   From: 2010.05.17/outbox.cif.g08.bks.cpg/sg2_48_cif.got.tgz:95347.got - 2010.06.03 11:33:40.
