data_PCOD9028284
_publ_section_title
;
Structure prediction by ZEFSAII (Michael W. Deem and Ramdas Pophale) SiO2 
 PCOD9028284
Probable space group: P -1
;
_chemical_formula_sum "Si O2"
_cell_formula_units_Z 16
_cell_length_a 8.379722
_cell_length_b 6.621696
_cell_length_c 25.483563
_cell_angle_alpha 62.256472
_cell_angle_beta 144.375158
_cell_angle_gamma 102.561460
_cell_volume 692.534938
_symmetry_space_group_name_H-M "P -1"
_symmetry_group_IT_number 2
_symmetry_cell_setting 'triclinic'
loop_
_space_group_symop_operation_xyz
x,y,z
-x,-y,-z
loop_
_atom_site_type_symbol
_atom_site_label
_atom_site_fract_x
_atom_site_fract_y
_atom_site_fract_z
Si Si1 0.188742 0.855653 0.220968
Si Si2 0.592478 0.326850 0.155119
Si Si3 0.420050 0.883765 0.164384
Si Si4 0.512863 0.149203 0.589088
Si Si5 0.797212 0.662111 0.684059
Si Si6 0.187166 0.504386 0.102003
Si Si7 0.919799 0.444016 0.626840
Si Si8 0.732209 0.317262 0.047502
O O1 0.293813 0.922179 0.185038
O O2 0.381847 0.881980 0.318931
O O3 0.203920 0.578344 0.257788
O O4 0.864371 0.033920 0.123603
O O5 0.509362 0.338245 0.192824
O O6 0.919882 0.265626 0.234381
O O7 0.454534 0.129175 0.120202
O O8 0.439071 0.600438 0.062524
O O9 0.221367 0.756271 0.096293
O O10 0.746964 0.702710 0.273877
O O11 0.735041 0.258224 0.603725
O O12 0.209897 0.356085 0.476042
O O13 0.533188 0.894524 0.599478
O O14 0.847577 0.584601 0.646121
O O15 0.018744 0.401354 0.112367
O O16 0.000000 0.500000 0.000000
O O17 0.500000 0.500000 0.000000
#
# Coordination Sequence:
#
# PCOD9028284 Si02
#       8
#     2   2   2   2   2   2   2   2
#     4  11  27  42  66 104 141 180 225 283 345 403
#     4  11  23  43  68  96 136 180 227 275 334 410
#     4  12  24  44  71 101 138 180 227 283 342 408
#     4  10  22  44  68 102 143 176 231 283 336 405
#     4  11  22  43  70 101 138 181 227 282 341 402
#     4  10  24  45  64  96 130 177 229 279 330 401
#     4  10  22  41  74 103 131 186 231 277 340 409
#     4  11  25  43  66  96 136 180 220 284 340 398
#
# _framework density 23.103528000000001
#
# number of rings (size 3 to 8) (size 9 to 14) (size 15 to 20)
#    0.000    1.250    3.750    1.125    5.250    3.000 
#    0.000    0.625    0.000    0.000    0.000    0.000 
#    0.000    0.000    0.000    0.000    0.000    0.000 
#
# Total GULP energy -89299.275116 kJ/mol
# GULP energy per Si atom -5581.204695 kJ/mol
# Density = 2.305094 g / cm^3
# Si number density = 23.103528 Si / 1000 Ang^3
#
#
#
# Elastic Constant Matrix: (Units=GPa)
#
#
# Indices 1 2 3 4 5 6 
#
# 1 69.4576 11.2809 3.0639 -2.9151 -0.5765 -14.5960
# 2 11.2809 109.5204 29.8199 -30.4195 -2.9578 -0.3339
# 3 3.0639 29.8199 107.9661 -26.8717 0.9618 -8.9847
# 4 -2.9151 -30.4195 -26.8717 34.0366 -1.9301 4.1002
# 5 -0.5765 -2.9578 0.9618 -1.9301 33.5047 -2.2510
# 6 -14.5960 -0.3339 -8.9847 4.1002 -2.2510 34.5526
#
#
#
# Elastic Compliance Matrix: (Units=1/GPa)
#
#
# Indices 1 2 3 4 5 6 
#
# 1 0.016152 -0.001991 0.000462 -0.000852 0.000514 0.007059
# 2 -0.001991 0.012599 -0.000956 0.010681 0.001577 -0.002133
# 3 0.000462 -0.000956 0.011740 0.008190 0.000212 0.002281
# 4 -0.000852 0.010681 0.008190 0.045902 0.003111 -0.003371
# 5 0.000514 0.001577 0.000212 0.003111 0.030295 0.001892
# 6 0.007059 -0.002133 0.002281 -0.003371 0.001892 0.033019
#
#
# Mechanical properties :
#
#
# Convention : Reuss Voigt Hill
#
# Bulk Modulus (GPa) = 28.15285 41.69707 34.92496
# Shear Modulus (GPa) = 30.02709 36.60408 33.31558
#
# Velocity S-wave (km/s) = 3.60901 3.98471 3.80150
# Velocity P-wave (km/s) = 5.43862 6.26559 5.86670
#
# Compressibility (1/GPa) = 0.03552039
#
# Stress axis : x y z
#
# Youngs Moduli (GPa) = 61.91164 79.37204 85.18149
#
# Poissons Ratio (x) = 0.15802 -0.03937
# Poissons Ratio (y) = 0.12326 0.08147
# Poissons Ratio (z) = -0.02862 0.07592
#
# Static dielectric constant tensor:
#      x y z
#    x 1.986550 -0.011180 -0.044010 
#    y -0.011180 1.905220 0.008150 
#    z -0.044010 0.008150 1.938440 
# 
# From -- ./inp_files/616317.got.cif
#   From: 2010.05.17/outbox.cif.g08.bks.cpg/sg2_309_cif.got.tgz:616317.got - 2010.06.03 11:33:40.
