data_PCOD9028934
_publ_section_title
;
Structure prediction by ZEFSAII (Michael W. Deem and Ramdas Pophale) SiO2 
 PCOD9028934
Probable space group: P -1
;
_chemical_formula_sum "Si O2"
_cell_formula_units_Z 16
_cell_length_a 17.376554
_cell_length_b 14.527428
_cell_length_c 10.924717
_cell_angle_alpha 50.064374
_cell_angle_beta 46.255829
_cell_angle_gamma 18.316890
_cell_volume 624.859035
_symmetry_space_group_name_H-M "P -1"
_symmetry_group_IT_number 2
_symmetry_cell_setting 'triclinic'
loop_
_space_group_symop_operation_xyz
x,y,z
-x,-y,-z
loop_
_atom_site_type_symbol
_atom_site_label
_atom_site_fract_x
_atom_site_fract_y
_atom_site_fract_z
Si Si1 0.153182 0.257712 0.630240
Si Si2 0.583709 0.804723 0.981713
Si Si3 0.354546 0.737289 0.588114
Si Si4 0.682135 0.180683 0.778958
Si Si5 0.216180 0.523695 0.736791
Si Si6 0.373520 0.169092 0.681198
Si Si7 0.148983 0.843155 0.175230
Si Si8 0.004964 0.150749 0.843964
O O1 0.190915 0.275570 0.706460
O O2 0.000000 0.500000 0.500000
O O3 0.439668 0.953026 0.514608
O O4 0.003802 0.287025 0.770362
O O5 0.553666 0.907098 0.799546
O O6 0.801404 0.519059 0.073814
O O7 0.500000 0.000000 0.000000
O O8 0.423073 0.846666 0.093172
O O9 0.508748 0.690333 0.402830
O O10 0.068303 0.993653 0.637810
O O11 0.265619 0.864597 0.717276
O O12 0.526041 0.440511 0.652026
O O13 0.984341 0.854513 0.694815
O O14 0.674657 0.251572 0.860048
O O15 0.207748 0.430187 0.722834
O O16 0.221790 0.656407 0.166509
O O17 0.010844 0.067006 0.031904
#
# Coordination Sequence:
#
# PCOD9028934 Si02
#       8
#     2   2   2   2   2   2   2   2
#     4  11  23  40  71 101 130 172 222 286 337 405
#     4  10  25  44  66  90 135 185 223 281 326 391
#     4  10  22  42  65  95 139 173 219 281 337 398
#     4  12  24  38  67 102 128 184 228 271 339 411
#     4  11  24  44  67  97 145 179 231 277 329 406
#     4  10  23  45  65  97 131 179 226 274 345 394
#     4   9  21  41  66  94 134 175 222 274 341 405
#     4   9  20  45  64  94 137 173 216 284 343 395
#
# _framework density 25.605775000000001
#
# number of rings (size 3 to 8) (size 9 to 14) (size 15 to 20)
#    0.750    1.000    1.250    1.875    0.000   11.500 
#    0.000    0.000    0.000    0.000    0.000    0.000 
#    0.000    0.000    0.000    0.000    0.000    0.000 
#
# Total GULP energy -89284.905642 kJ/mol
# GULP energy per Si atom -5580.306603 kJ/mol
# Density = 2.554750 g / cm^3
# Si number density = 25.605775 Si / 1000 Ang^3
#
#
#
# Elastic Constant Matrix: (Units=GPa)
#
#
# Indices 1 2 3 4 5 6 
#
# 1 249.0853 19.7786 52.5368 -4.1991 1.1201 15.5917
# 2 19.7786 67.9165 15.1384 7.0746 7.7394 8.8084
# 3 52.5368 15.1384 120.5968 2.7529 2.3487 -3.0153
# 4 -4.1991 7.0746 2.7529 34.1810 -2.3123 -1.6196
# 5 1.1201 7.7394 2.3487 -2.3123 46.1293 -10.1355
# 6 15.5917 8.8084 -3.0153 -1.6196 -10.1355 15.3032
#
#
#
# Elastic Compliance Matrix: (Units=1/GPa)
#
#
# Indices 1 2 3 4 5 6 
#
# 1 0.004902 0.000016 -0.002278 0.000390 -0.001375 -0.006323
# 2 0.000016 0.018685 -0.002516 -0.004898 -0.006837 -0.016314
# 3 -0.002278 -0.002516 0.009741 -0.000133 0.001429 0.006621
# 4 0.000390 -0.004898 -0.000133 0.031017 0.004238 0.008486
# 5 -0.001375 -0.006837 0.001429 0.004238 0.028475 0.024927
# 6 -0.006323 -0.016314 0.006621 0.008486 0.024927 0.099890
#
#
# Mechanical properties :
#
#
# Convention : Reuss Voigt Hill
#
# Bulk Modulus (GPa) = 42.06259 68.05627 55.05943
# Shear Modulus (GPa) = 23.78803 42.46570 33.12686
#
# Velocity S-wave (km/s) = 3.05127 4.07682 3.60074
# Velocity P-wave (km/s) = 5.37367 6.98547 6.23190
#
# Compressibility (1/GPa) = 0.02377409
#
# Stress axis : x y z
#
# Youngs Moduli (GPa) = 203.98243 53.51839 102.65935
#
# Poissons Ratio (x) = -0.00087 0.23385
# Poissons Ratio (y) = -0.00331 0.25824
# Poissons Ratio (z) = 0.46465 0.13463
#
# Static dielectric constant tensor:
#      x y z
#    x 2.074390 0.006710 0.045260 
#    y 0.006710 2.147890 0.149700 
#    z 0.045260 0.149700 2.070290 
# 
# From -- ./inp_files/466053.got.cif
#   From: 2010.05.17/outbox.cif.g08.bks.cpg/sg2_234_cif.got.tgz:466053.got - 2010.06.03 11:33:40.
