data_PCOD9028628
_publ_section_title
;
Structure prediction by ZEFSAII (Michael W. Deem and Ramdas Pophale) SiO2 
 PCOD9028628
Probable space group: P -1
;
_chemical_formula_sum "Si O2"
_cell_formula_units_Z 11
_cell_length_a 13.993349
_cell_length_b 6.890162
_cell_length_c 11.215482
_cell_angle_alpha 73.629062
_cell_angle_beta 29.094892
_cell_angle_gamma 88.355652
_cell_volume 446.268358
_symmetry_space_group_name_H-M "P -1"
_symmetry_group_IT_number 2
_symmetry_cell_setting 'triclinic'
loop_
_space_group_symop_operation_xyz
x,y,z
-x,-y,-z
loop_
_atom_site_type_symbol
_atom_site_label
_atom_site_fract_x
_atom_site_fract_y
_atom_site_fract_z
Si Si1 0.874788 0.195404 0.861912
Si Si2 0.291147 0.632941 0.351048
Si Si3 0.000000 0.000000 0.000000
Si Si4 0.244936 0.038544 0.209463
Si Si5 0.449168 0.748760 0.636537
Si Si6 0.783426 0.563993 0.278127
O O1 0.741311 0.023592 0.932508
O O2 0.107456 0.404069 0.529438
O O3 0.721242 0.304763 0.060661
O O4 0.935013 0.066336 0.922538
O O5 0.264844 0.849746 0.301546
O O6 0.242709 0.584328 0.552951
O O7 0.550657 0.712579 0.032687
O O8 0.976920 0.229270 0.041750
O O9 0.000000 0.000000 0.500000
O O10 0.684231 0.741700 0.401063
O O11 0.336179 0.571348 0.683803
O O12 0.500000 0.000000 0.500000
#
# Coordination Sequence:
#
# PCOD9028628 Si02
#       6
#     2   2   1   2   2   2
#     4  11  24  44  68 102 143 177 235 290 349 416
#     4  10  25  47  66 105 129 184 239 283 348 417
#     4  10  22  42  64 110 134 180 228 280 354 424
#     4  11  26  48  71  95 138 185 239 294 346 407
#     4  11  22  41  70 101 143 184 223 283 354 418
#     4  10  23  42  68 103 142 179 228 282 352 417
#
# _framework density 24.648847
#
# number of rings (size 3 to 8) (size 9 to 14) (size 15 to 20)
#    0.000    1.455    1.818    1.636    5.091    5.091 
#   16.364    0.000    0.000    0.000    0.000    0.000 
#    0.000    0.000    0.000    0.000    0.000    0.000 
#
# Total GULP energy -61335.657161 kJ/mol
# GULP energy per Si atom -5575.968833 kJ/mol
# Density = 2.459274 g / cm^3
# Si number density = 24.648847 Si / 1000 Ang^3
#
#
#
# Elastic Constant Matrix: (Units=GPa)
#
#
# Indices 1 2 3 4 5 6 
#
# 1 91.6107 42.5770 26.5594 4.5704 4.6542 -10.3989
# 2 42.5770 65.7441 37.3252 -7.0975 -4.8042 2.5907
# 3 26.5594 37.3252 112.0019 -9.1661 -32.0675 -15.5315
# 4 4.5704 -7.0975 -9.1661 55.4348 -3.3629 -7.1812
# 5 4.6542 -4.8042 -32.0675 -3.3629 36.6870 -5.4440
# 6 -10.3989 2.5907 -15.5315 -7.1812 -5.4440 41.0365
#
#
#
# Elastic Compliance Matrix: (Units=1/GPa)
#
#
# Indices 1 2 3 4 5 6 
#
# 1 0.017309 -0.011139 -0.001535 -0.002961 -0.004769 0.003358
# 2 -0.011139 0.027459 -0.008406 0.001823 -0.003339 -0.007862
# 3 -0.001535 -0.008406 0.018982 0.004618 0.017664 0.010478
# 4 -0.002961 0.001823 0.004618 0.020428 0.007329 0.005429
# 5 -0.004769 -0.003339 0.017664 0.007329 0.045466 0.013002
# 6 0.003358 -0.007862 0.010478 0.005429 0.013002 0.032356
#
#
# Mechanical properties :
#
#
# Convention : Reuss Voigt Hill
#
# Bulk Modulus (GPa) = 46.31655 53.58665 49.95160
# Shear Modulus (GPa) = 23.65670 37.49134 30.57402
#
# Velocity S-wave (km/s) = 3.10134 3.90425 3.52573
# Velocity P-wave (km/s) = 5.62635 6.48934 6.07319
#
# Compressibility (1/GPa) = 0.02159056
#
# Stress axis : x y z
#
# Youngs Moduli (GPa) = 57.77478 36.41751 52.68148
#
# Poissons Ratio (x) = 0.40564 0.08085
# Poissons Ratio (y) = 0.64353 0.44287
# Poissons Ratio (z) = 0.08866 0.30614
#
# Static dielectric constant tensor:
#      x y z
#    x 2.113470 0.226590 -0.567340 
#    y 0.226590 2.376720 -0.688840 
#    z -0.567340 -0.688840 3.608400 
# 
# From -- ./inp_files/441795.got.cif
#   From: 2010.05.17/outbox.cif.g08.bks.cpg/sg2_221_cif.got.tgz:441795.got - 2010.06.03 11:33:40.
