data_PCOD9028569
_publ_section_title
;
Structure prediction by ZEFSAII (Michael W. Deem and Ramdas Pophale) SiO2 
 PCOD9028569
Probable space group: P -1
;
_chemical_formula_sum "Si O2"
_cell_formula_units_Z 16
_cell_length_a 10.424630
_cell_length_b 9.272888
_cell_length_c 13.583732
_cell_angle_alpha 127.625525
_cell_angle_beta 135.689118
_cell_angle_gamma 71.123696
_cell_volume 711.084752
_symmetry_space_group_name_H-M "P -1"
_symmetry_group_IT_number 2
_symmetry_cell_setting 'triclinic'
loop_
_space_group_symop_operation_xyz
x,y,z
-x,-y,-z
loop_
_atom_site_type_symbol
_atom_site_label
_atom_site_fract_x
_atom_site_fract_y
_atom_site_fract_z
Si Si1 0.255373 0.342967 0.084255
Si Si2 0.938025 0.293152 0.415359
Si Si3 0.439532 0.027948 0.653403
Si Si4 0.045199 0.939305 0.291478
Si Si5 0.018888 0.322890 0.684270
Si Si6 0.623625 0.446888 0.955219
Si Si7 0.620850 0.370005 0.564569
Si Si8 0.538284 0.100927 0.168479
O O1 0.363548 0.412025 0.070712
O O2 0.288552 0.525898 0.244884
O O3 0.363131 0.196371 0.131671
O O4 0.042005 0.232179 0.900230
O O5 0.722100 0.254631 0.309716
O O6 0.000000 0.500000 0.500000
O O7 0.051027 0.278672 0.571536
O O8 0.973994 0.123553 0.298265
O O9 0.259391 0.000628 0.469530
O O10 0.505844 0.837200 0.580832
O O11 0.419151 0.006709 0.753947
O O12 0.555897 0.236270 0.794040
O O13 0.949498 0.848033 0.302411
O O14 0.806531 0.344830 0.596189
O O15 0.162551 0.509195 0.870661
O O16 0.500000 0.500000 0.000000
O O17 0.500000 0.500000 0.500000
O O18 0.500000 0.000000 0.000000
#
# Coordination Sequence:
#
# PCOD9028569 Si02
#       8
#     2   2   2   2   2   2   2   2
#     4  11  24  42  71  95 129 180 229 274 334 401
#     4  12  24  36  63  98 137 166 219 283 342 397
#     4  11  24  42  69  92 137 178 221 276 342 393
#     4  10  22  42  63  95 128 176 221 269 338 407
#     4  10  23  42  67  93 133 181 221 271 341 400
#     4  11  25  41  67 105 141 168 220 288 343 396
#     4  11  22  47  72  91 132 183 237 276 324 406
#     4  12  23  40  65  98 128 180 225 269 346 410
#
# _framework density 22.500833
#
# number of rings (size 3 to 8) (size 9 to 14) (size 15 to 20)
#    0.000    1.000    5.000    1.875    7.000    5.000 
#    0.000    0.625    0.000    0.000    0.000    0.000 
#    0.000    0.000    0.000    0.000    0.000    0.000 
#
# Total GULP energy -89191.770072 kJ/mol
# GULP energy per Si atom -5574.485629 kJ/mol
# Density = 2.244962 g / cm^3
# Si number density = 22.500833 Si / 1000 Ang^3
#
#
#
# Elastic Constant Matrix: (Units=GPa)
#
#
# Indices 1 2 3 4 5 6 
#
# 1 23.3677 8.6484 8.1455 -0.0516 -8.1301 -2.2209
# 2 8.6484 91.7402 41.6735 19.7426 11.8314 -9.9519
# 3 8.1455 41.6735 180.0570 26.9913 -3.5410 5.7293
# 4 -0.0516 19.7426 26.9913 42.2623 -0.9301 1.0844
# 5 -8.1301 11.8314 -3.5410 -0.9301 43.3939 3.8661
# 6 -2.2209 -9.9519 5.7293 1.0844 3.8661 26.0866
#
#
#
# Elastic Compliance Matrix: (Units=1/GPa)
#
#
# Indices 1 2 3 4 5 6 
#
# 1 0.049407 -0.006390 -0.001150 0.004015 0.010971 0.000228
# 2 -0.006390 0.015663 -0.002816 -0.005854 -0.006469 0.007252
# 3 -0.001150 -0.002816 0.006810 -0.002937 0.001289 -0.002737
# 4 0.004015 -0.005854 -0.002937 0.028416 0.002973 -0.002869
# 5 0.010971 -0.006469 0.001289 0.002973 0.027570 -0.006027
# 6 0.000228 0.007252 -0.002737 -0.002869 -0.006027 0.042733
#
#
# Mechanical properties :
#
#
# Convention : Reuss Voigt Hill
#
# Bulk Modulus (GPa) = 19.54300 45.78885 32.66592
# Shear Modulus (GPa) = 23.99608 38.12840 31.06224
#
# Velocity S-wave (km/s) = 3.26920 4.12094 3.71953
# Velocity P-wave (km/s) = 4.79109 6.56025 5.74419
#
# Compressibility (1/GPa) = 0.05116921
#
# Stress axis : x y z
#
# Youngs Moduli (GPa) = 20.23995 63.84505 146.83602
#
# Poissons Ratio (x) = 0.40794 0.16881
# Poissons Ratio (y) = 0.12932 0.41356
# Poissons Ratio (z) = 0.02327 0.17982
#
# Static dielectric constant tensor:
#      x y z
#    x 1.881620 -0.028850 -0.053690 
#    y -0.028850 1.873270 -0.012590 
#    z -0.053690 -0.012590 1.930260 
# 
# From -- ./inp_files/516320.got.cif
#   From: 2010.05.17/outbox.cif.g08.bks.cpg/sg2_259_cif.got.tgz:516320.got - 2010.06.03 11:33:40.
