data_PCOD9028050
_publ_section_title
;
Structure prediction by ZEFSAII (Michael W. Deem and Ramdas Pophale) SiO2 
 PCOD9028050
Probable space group: P -1
;
_chemical_formula_sum "Si O2"
_cell_formula_units_Z 16
_cell_length_a 4.976102
_cell_length_b 13.059553
_cell_length_c 13.782035
_cell_angle_alpha 132.445032
_cell_angle_beta 108.994513
_cell_angle_gamma 68.701128
_cell_volume 611.551693
_symmetry_space_group_name_H-M "P -1"
_symmetry_group_IT_number 2
_symmetry_cell_setting 'triclinic'
loop_
_space_group_symop_operation_xyz
x,y,z
-x,-y,-z
loop_
_atom_site_type_symbol
_atom_site_label
_atom_site_fract_x
_atom_site_fract_y
_atom_site_fract_z
Si Si1 0.823917 0.617976 0.688934
Si Si2 0.585044 0.621750 0.955277
Si Si3 0.972600 0.332281 0.799841
Si Si4 0.509457 0.033205 0.407282
Si Si5 0.200454 0.826472 0.148449
Si Si6 0.374643 0.438917 0.575968
Si Si7 0.715096 0.861261 0.976595
Si Si8 0.037948 0.793358 0.477243
O O1 0.522630 0.573993 0.657048
O O2 0.789771 0.618165 0.569443
O O3 0.122719 0.499180 0.663775
O O4 0.841614 0.763297 0.837008
O O5 0.274605 0.675442 0.002725
O O6 0.602648 0.746970 0.961197
O O7 0.786945 0.624134 0.075609
O O8 0.709472 0.465466 0.831156
O O9 0.860743 0.217953 0.779182
O O10 0.094646 0.261712 0.669889
O O11 0.809277 0.075391 0.443317
O O12 0.220994 0.160344 0.448103
O O13 0.500000 0.000000 0.500000
O O14 0.448425 0.914879 0.249794
O O15 0.947196 0.912035 0.107036
O O16 0.671981 0.323119 0.544607
O O17 0.500000 0.000000 0.000000
#
# Coordination Sequence:
#
# PCOD9028050 Si02
#       8
#     2   2   2   2   2   2   2   2
#     4  10  23  46  70  99 138 174 236 291 349 402
#     4  10  23  44  67 100 135 181 229 285 345 419
#     4  10  22  41  70  99 137 173 232 287 350 407
#     4  12  26  43  67  99 143 183 228 283 347 424
#     4  11  25  43  68  98 139 183 232 282 346 417
#     4  10  23  45  73 101 132 177 233 300 343 408
#     4  11  27  44  68 100 141 186 232 284 347 425
#     4  12  25  41  72 102 134 184 229 290 352 416
#
# _framework density 26.162953999999999
#
# number of rings (size 3 to 8) (size 9 to 14) (size 15 to 20)
#    0.000    1.250    1.250    3.000    8.750    0.500 
#    0.000    0.000    0.000    0.000    0.000    0.000 
#    0.000    0.000    0.000    0.000    0.000    0.000 
#
# Total GULP energy -89419.602825 kJ/mol
# GULP energy per Si atom -5588.725177 kJ/mol
# Density = 2.610341 g / cm^3
# Si number density = 26.162954 Si / 1000 Ang^3
#
#
#
# Elastic Constant Matrix: (Units=GPa)
#
#
# Indices 1 2 3 4 5 6 
#
# 1 95.2985 28.5145 15.3124 3.6471 -9.8193 -10.6827
# 2 28.5145 152.3335 48.2401 6.0015 -1.7600 -33.1318
# 3 15.3124 48.2401 137.1932 13.0283 -17.9429 -13.1764
# 4 3.6471 6.0015 13.0283 30.5747 -16.1168 -7.7003
# 5 -9.8193 -1.7600 -17.9429 -16.1168 43.6284 6.4738
# 6 -10.6827 -33.1318 -13.1764 -7.7003 6.4738 36.6359
#
#
#
# Elastic Compliance Matrix: (Units=1/GPa)
#
#
# Indices 1 2 3 4 5 6 
#
# 1 0.011442 -0.001757 -0.000276 0.000740 0.002461 0.001368
# 2 -0.001757 0.009308 -0.002670 0.000262 -0.002115 0.007374
# 3 -0.000276 -0.002670 0.008774 -0.001744 0.002825 -0.000205
# 4 0.000740 0.000262 -0.001744 0.042353 0.014182 0.006221
# 5 0.002461 -0.002115 0.002825 0.014182 0.030165 -0.002529
# 6 0.001368 0.007374 -0.000205 0.006221 -0.002529 0.036044
#
#
# Mechanical properties :
#
#
# Convention : Reuss Voigt Hill
#
# Bulk Modulus (GPa) = 49.70922 63.21767 56.46345
# Shear Modulus (GPa) = 32.42545 41.68501 37.05523
#
# Velocity S-wave (km/s) = 3.52428 3.99593 3.76749
# Velocity P-wave (km/s) = 5.96673 6.74577 6.36817
#
# Compressibility (1/GPa) = 0.02011699
#
# Stress axis : x y z
#
# Youngs Moduli (GPa) = 87.39560 107.43329 113.97248
#
# Poissons Ratio (x) = 0.18881 0.03146
# Poissons Ratio (y) = 0.15360 0.30432
# Poissons Ratio (z) = 0.02413 0.28686
#
# Static dielectric constant tensor:
#      x y z
#    x 2.105660 -0.029820 -0.021740 
#    y -0.029820 2.211640 0.082620 
#    z -0.021740 0.082620 2.049000 
# 
# From -- ./inp_files/484526.got.cif
#   From: 2010.05.17/outbox.cif.g08.bks.cpg/sg2_243_cif.got.tgz:484526.got - 2010.06.03 11:33:40.
