data_PCOD9028387
_publ_section_title
;
Structure prediction by ZEFSAII (Michael W. Deem and Ramdas Pophale) SiO2 
 PCOD9028387
Probable space group: P -1
;
_chemical_formula_sum "Si O2"
_cell_formula_units_Z 16
_cell_length_a 10.751235
_cell_length_b 12.188326
_cell_length_c 9.948556
_cell_angle_alpha 144.773346
_cell_angle_beta 121.850124
_cell_angle_gamma 64.649361
_cell_volume 638.730554
_symmetry_space_group_name_H-M "P -1"
_symmetry_group_IT_number 2
_symmetry_cell_setting 'triclinic'
loop_
_space_group_symop_operation_xyz
x,y,z
-x,-y,-z
loop_
_atom_site_type_symbol
_atom_site_label
_atom_site_fract_x
_atom_site_fract_y
_atom_site_fract_z
Si Si1 0.402014 0.821507 0.717467
Si Si2 0.202516 0.889876 0.081742
Si Si3 0.183371 0.245572 0.562775
Si Si4 0.071990 0.821722 0.433262
Si Si5 0.864891 0.445431 0.463473
Si Si6 0.514807 0.694126 0.114330
Si Si7 0.552823 0.511840 0.369496
Si Si8 0.066325 0.626424 0.952798
O O1 0.234928 0.860225 0.621886
O O2 0.487431 0.721291 0.544928
O O3 0.409811 0.634275 0.632597
O O4 0.500000 0.000000 0.000000
O O5 0.367693 0.818273 0.138141
O O6 0.170377 0.113795 0.291633
O O7 0.161045 0.778184 0.808927
O O8 0.102950 0.810456 0.068435
O O9 0.343850 0.186652 0.644066
O O10 0.181298 0.473716 0.806359
O O11 0.045700 0.213300 0.551104
O O12 0.080339 0.670085 0.162146
O O13 0.000000 0.000000 0.500000
O O14 0.713377 0.535505 0.422690
O O15 0.000000 0.500000 0.500000
O O16 0.910080 0.537639 0.724908
O O17 0.500000 0.500000 0.000000
O O18 0.550462 0.615334 0.907858
#
# Coordination Sequence:
#
# PCOD9028387 Si02
#       8
#     2   2   2   2   2   2   2   2
#     4  11  27  47  73 105 145 198 240 302 375 433
#     4  10  22  42  61 102 134 181 242 290 358 441
#     4  12  24  40  71  98 141 183 233 306 359 420
#     4  12  27  45  73 110 142 186 256 308 360 446
#     4   9  21  41  69  97 140 190 229 297 360 428
#     4  11  23  44  71 103 143 193 243 295 370 439
#     4  10  24  47  71 100 152 187 249 297 362 454
#     4  11  22  42  68  96 142 182 237 294 367 421
#
# _framework density 25.049683999999999
#
# number of rings (size 3 to 8) (size 9 to 14) (size 15 to 20)
#    0.000    1.250    2.500    2.250    3.500    1.500 
#    4.500    0.000    0.000    0.000    0.000    0.000 
#    0.000    0.000    0.000    0.000    0.000    0.000 
#
# Total GULP energy -89168.352153 kJ/mol
# GULP energy per Si atom -5573.022010 kJ/mol
# Density = 2.499267 g / cm^3
# Si number density = 25.049684 Si / 1000 Ang^3
#
#
#
# Elastic Constant Matrix: (Units=GPa)
#
#
# Indices 1 2 3 4 5 6 
#
# 1 86.4269 30.2741 52.8640 -1.2155 15.9021 -33.2340
# 2 30.2741 97.7987 36.5963 -0.0826 10.5054 -26.0310
# 3 52.8640 36.5963 172.8416 -6.1190 -10.0328 -30.2224
# 4 -1.2155 -0.0826 -6.1190 51.4160 -10.6695 3.7858
# 5 15.9021 10.5054 -10.0328 -10.6695 42.0741 -4.0195
# 6 -33.2340 -26.0310 -30.2224 3.7858 -4.0195 29.5866
#
#
#
# Elastic Compliance Matrix: (Units=1/GPa)
#
#
# Indices 1 2 3 4 5 6 
#
# 1 0.024364 0.001253 -0.004310 -0.003564 -0.009230 0.023269
# 2 0.001253 0.013955 -0.001541 -0.001759 -0.003640 0.011842
# 3 -0.004310 -0.001541 0.008215 0.001643 0.004639 0.002614
# 4 -0.003564 -0.001759 0.001643 0.021442 0.007075 -0.005654
# 5 -0.009230 -0.003640 0.004639 0.007075 0.030531 -0.005589
# 6 0.023269 0.011842 0.002614 -0.005654 -0.005589 0.072990
#
#
# Mechanical properties :
#
#
# Convention : Reuss Voigt Hill
#
# Bulk Modulus (GPa) = 26.78280 66.28180 46.53230
# Shear Modulus (GPa) = 25.88799 40.43752 33.16275
#
# Velocity S-wave (km/s) = 3.21824 4.02218 3.64246
# Velocity P-wave (km/s) = 4.95223 6.93457 6.02548
#
# Compressibility (1/GPa) = 0.03733740
#
# Stress axis : x y z
#
# Youngs Moduli (GPa) = 41.04448 71.65689 121.73286
#
# Poissons Ratio (x) = -0.08977 0.52469
# Poissons Ratio (y) = -0.05142 0.18758
# Poissons Ratio (z) = 0.17691 0.11042
#
# Static dielectric constant tensor:
#      x y z
#    x 2.280220 0.185190 -0.043230 
#    y 0.185190 2.210840 -0.025370 
#    z -0.043230 -0.025370 2.010330 
# 
# From -- ./inp_files/433574.got.cif
#   From: 2010.05.17/outbox.cif.g08.bks.cpg/sg2_217_cif.got.tgz:433574.got - 2010.06.03 11:33:40.
