data_PCOD9028962
_publ_section_title
;
Structure prediction by ZEFSAII (Michael W. Deem and Ramdas Pophale) SiO2 
 PCOD9028962
Probable space group: P -1
;
_chemical_formula_sum "Si O2"
_cell_formula_units_Z 14
_cell_length_a 7.790381
_cell_length_b 7.335122
_cell_length_c 19.571248
_cell_angle_alpha 38.341555
_cell_angle_beta 49.930307
_cell_angle_gamma 55.963434
_cell_volume 527.367453
_symmetry_space_group_name_H-M "P -1"
_symmetry_group_IT_number 2
_symmetry_cell_setting 'triclinic'
loop_
_space_group_symop_operation_xyz
x,y,z
-x,-y,-z
loop_
_atom_site_type_symbol
_atom_site_label
_atom_site_fract_x
_atom_site_fract_y
_atom_site_fract_z
Si Si1 0.133478 0.652426 0.260287
Si Si2 0.417008 0.593035 0.754546
Si Si3 0.969840 0.995713 0.316229
Si Si4 0.129073 0.114345 0.021550
Si Si5 0.210923 0.748939 0.514749
Si Si6 0.767991 0.457078 0.931718
Si Si7 0.611099 0.614147 0.550558
O O1 0.347359 0.410211 0.265315
O O2 0.899111 0.529503 0.341439
O O3 0.163264 0.970653 0.128560
O O4 0.122196 0.724620 0.322383
O O5 0.215612 0.853339 0.735327
O O6 0.466487 0.562792 0.669655
O O7 0.321785 0.300803 0.892077
O O8 0.125229 0.257926 0.209996
O O9 0.801496 0.831856 0.454893
O O10 0.153271 0.810699 0.061175
O O11 0.898137 0.327843 0.004952
O O12 0.431304 0.781939 0.492828
O O13 0.281893 0.658268 0.445204
O O14 0.000000 0.000000 0.500000
O O15 0.500000 0.500000 0.000000
#
# Coordination Sequence:
#
# PCOD9028962 Si02
#       7
#     2   2   2   2   2   2   2
#     4  11  24  42  65  98 136 174 224 272 332 391
#     4  11  23  41  69  96 137 175 218 274 330 397
#     4  10  23  41  67  98 129 175 220 274 329 392
#     4  10  24  42  64  97 138 172 222 275 326 395
#     4  10  23  43  67  96 134 179 219 275 334 391
#     4  10  22  42  65  97 129 176 223 272 332 387
#     4  10  23  43  67  99 134 171 223 276 328 397
#
# _framework density 26.546953999999999
#
# number of rings (size 3 to 8) (size 9 to 14) (size 15 to 20)
#    0.000    1.714    0.000    2.571    6.000    6.857 
#    2.571    0.000    0.000    0.000    0.000    0.000 
#    0.000    0.000    0.000    0.000    0.000    0.000 
#
# Total GULP energy -78254.362614 kJ/mol
# GULP energy per Si atom -5589.597330 kJ/mol
# Density = 2.648653 g / cm^3
# Si number density = 26.546954 Si / 1000 Ang^3
#
#
#
# Elastic Constant Matrix: (Units=GPa)
#
#
# Indices 1 2 3 4 5 6 
#
# 1 101.1316 30.7146 26.0779 15.3794 -18.8641 -29.9875
# 2 30.7146 143.5788 26.4109 -3.4599 0.0750 -27.3849
# 3 26.0779 26.4109 168.4315 12.6851 -21.2153 -9.0644
# 4 15.3794 -3.4599 12.6851 39.8105 4.1041 2.9446
# 5 -18.8641 0.0750 -21.2153 4.1041 49.5489 2.7972
# 6 -29.9875 -27.3849 -9.0644 2.9446 2.7972 37.7794
#
#
#
# Elastic Compliance Matrix: (Units=1/GPa)
#
#
# Indices 1 2 3 4 5 6 
#
# 1 0.016243 -0.001314 -0.000316 -0.007798 0.006018 0.012027
# 2 -0.001314 0.008398 -0.001136 0.001389 -0.001383 0.004766
# 3 -0.000316 -0.001136 0.006749 -0.002469 0.002946 0.000519
# 4 -0.007798 0.001389 -0.002469 0.030236 -0.006099 -0.007680
# 5 0.006018 -0.001383 0.002946 -0.006099 0.024063 0.003174
# 6 0.012027 0.004766 0.000519 -0.007680 0.003174 0.039959
#
#
# Mechanical properties :
#
#
# Convention : Reuss Voigt Hill
#
# Bulk Modulus (GPa) = 38.67144 64.39431 51.53287
# Shear Modulus (GPa) = 35.76536 47.42367 41.59452
#
# Velocity S-wave (km/s) = 3.67447 4.23118 3.96261
# Velocity P-wave (km/s) = 5.70974 6.94117 6.35535
#
# Compressibility (1/GPa) = 0.02585887
#
# Stress axis : x y z
#
# Youngs Moduli (GPa) = 61.56348 119.07505 148.16506
#
# Poissons Ratio (x) = 0.15643 0.04688
# Poissons Ratio (y) = 0.08088 0.16829
# Poissons Ratio (z) = 0.01948 0.13525
#
# Static dielectric constant tensor:
#      x y z
#    x 2.362500 0.130030 0.294090 
#    y 0.130030 2.111190 0.098300 
#    z 0.294090 0.098300 2.305120 
# 
# From -- ./inp_files/606543.got.cif
#   From: 2010.05.17/outbox.cif.g08.bks.cpg/sg2_304_cif.got.tgz:606543.got - 2010.06.03 11:33:40.
