data_PCOD9028189
_publ_section_title
;
Structure prediction by ZEFSAII (Michael W. Deem and Ramdas Pophale) SiO2 
 PCOD9028189
Probable space group: P -1
;
_chemical_formula_sum "Si O2"
_cell_formula_units_Z 12
_cell_length_a 9.251519
_cell_length_b 16.805004
_cell_length_c 10.404067
_cell_angle_alpha 146.207559
_cell_angle_beta 126.266766
_cell_angle_gamma 36.762415
_cell_volume 524.880409
_symmetry_space_group_name_H-M "P -1"
_symmetry_group_IT_number 2
_symmetry_cell_setting 'triclinic'
loop_
_space_group_symop_operation_xyz
x,y,z
-x,-y,-z
loop_
_atom_site_type_symbol
_atom_site_label
_atom_site_fract_x
_atom_site_fract_y
_atom_site_fract_z
Si Si1 0.529135 0.887313 0.242082
Si Si2 0.693261 0.735008 0.517196
Si Si3 0.133715 0.861547 0.011471
Si Si4 0.793986 0.856485 0.957854
Si Si5 0.525459 0.443760 0.785345
Si Si6 0.035544 0.604230 0.002495
O O1 0.803103 0.686235 0.077525
O O2 0.500000 0.000000 0.500000
O O3 0.440001 0.044779 0.296822
O O4 0.340512 0.866222 0.146188
O O5 0.864067 0.701312 0.676398
O O6 0.513009 0.706591 0.433167
O O7 0.824554 0.599664 0.275786
O O8 0.312737 0.625240 0.822898
O O9 0.899580 0.951799 0.098451
O O10 0.000000 0.000000 0.000000
O O11 0.919917 0.751691 0.017720
O O12 0.500000 0.000000 0.000000
O O13 0.783047 0.384636 0.813020
O O14 0.500000 0.500000 0.000000
#
# Coordination Sequence:
#
# PCOD9028189 Si02
#       6
#     2   2   2   2   2   2
#     4  12  27  44  70 106 145 185 229 298 361 406
#     4  11  23  43  73 103 136 192 235 284 349 422
#     4  12  24  45  68 106 149 178 231 302 352 409
#     4  12  23  44  72 104 137 187 235 283 347 424
#     4  10  22  41  72 103 137 187 237 288 342 420
#     4  11  24  46  73 102 143 184 241 286 345 429
#
# _framework density 22.862351
#
# number of rings (size 3 to 8) (size 9 to 14) (size 15 to 20)
#    0.000    0.667    6.667    2.500    0.000    4.667 
#    0.000    0.833    0.000    0.000    0.000    0.000 
#    0.000    0.000    0.000    0.000    0.000    0.000 
#
# Total GULP energy -66811.080704 kJ/mol
# GULP energy per Si atom -5567.590059 kJ/mol
# Density = 2.281032 g / cm^3
# Si number density = 22.862351 Si / 1000 Ang^3
#
#
#
# Elastic Constant Matrix: (Units=GPa)
#
#
# Indices 1 2 3 4 5 6 
#
# 1 146.5975 45.6211 66.7655 -6.8403 23.5828 -38.4855
# 2 45.6211 120.7467 14.8918 4.7292 10.7161 -11.4803
# 3 66.7655 14.8918 76.1579 -6.8486 17.9550 -22.6058
# 4 -6.8403 4.7292 -6.8486 44.8213 -0.2871 11.7622
# 5 23.5828 10.7161 17.9550 -0.2871 50.5620 -8.3167
# 6 -38.4855 -11.4803 -22.6058 11.7622 -8.3167 58.4808
#
#
#
# Elastic Compliance Matrix: (Units=1/GPa)
#
#
# Indices 1 2 3 4 5 6 
#
# 1 0.013687 -0.003416 -0.009684 -0.000200 -0.001495 0.004421
# 2 -0.003416 0.009573 0.001282 -0.001417 -0.000851 0.000291
# 3 -0.009684 0.001282 0.022912 0.001351 -0.003562 0.001957
# 4 -0.000200 -0.001417 0.001351 0.023891 -0.000740 -0.004798
# 5 -0.001495 -0.000851 -0.003562 -0.000740 0.022040 0.000756
# 6 0.004421 0.000291 0.001957 -0.004798 0.000756 0.021895
#
#
# Mechanical properties :
#
#
# Convention : Reuss Voigt Hill
#
# Bulk Modulus (GPa) = 44.37356 66.45099 55.41227
# Shear Modulus (GPa) = 34.44850 45.18775 39.81813
#
# Velocity S-wave (km/s) = 3.88594 4.45062 4.17783
# Velocity P-wave (km/s) = 6.29167 7.45248 6.89654
#
# Compressibility (1/GPa) = 0.02253594
#
# Stress axis : x y z
#
# Youngs Moduli (GPa) = 73.06439 104.46054 43.64577
#
# Poissons Ratio (x) = 0.35683 0.42267
# Poissons Ratio (y) = 0.24959 -0.05597
# Poissons Ratio (z) = 0.70756 -0.13396
#
# Static dielectric constant tensor:
#      x y z
#    x 1.931190 0.080740 -0.032620 
#    y 0.080740 2.212010 0.088560 
#    z -0.032620 0.088560 1.868280 
# 
# From -- ./inp_files/241557.got.cif
#   From: 2010.05.17/outbox.cif.g08.bks.cpg/sg2_121_cif.got.tgz:241557.got - 2010.06.03 11:33:40.
