data_PCOD9028066
_publ_section_title
;
Structure prediction by ZEFSAII (Michael W. Deem and Ramdas Pophale) SiO2 
 PCOD9028066
Probable space group: P -1
;
_chemical_formula_sum "Si O2"
_cell_formula_units_Z 14
_cell_length_a 7.363366
_cell_length_b 16.154131
_cell_length_c 4.934286
_cell_angle_alpha 81.959235
_cell_angle_beta 94.770285
_cell_angle_gamma 64.201771
_cell_volume 516.359847
_symmetry_space_group_name_H-M "P -1"
_symmetry_group_IT_number 2
_symmetry_cell_setting 'triclinic'
loop_
_space_group_symop_operation_xyz
x,y,z
-x,-y,-z
loop_
_atom_site_type_symbol
_atom_site_label
_atom_site_fract_x
_atom_site_fract_y
_atom_site_fract_z
Si Si1 0.430258 0.379065 0.966162
Si Si2 0.677528 0.887250 0.074386
Si Si3 0.867532 0.685783 0.345235
Si Si4 0.995583 0.911837 0.393148
Si Si5 0.328194 0.570248 0.643086
Si Si6 0.548742 0.836785 0.583768
Si Si7 0.770942 0.194204 0.056455
O O1 0.250644 0.356624 0.837640
O O2 0.325247 0.492528 0.887270
O O3 0.566612 0.367759 0.259312
O O4 0.632178 0.299010 0.875263
O O5 0.852799 0.778914 0.157898
O O6 0.510343 0.884169 0.262628
O O7 0.777340 0.943639 0.209896
O O8 0.617864 0.898697 0.753825
O O9 0.725670 0.732600 0.572170
O O10 0.100676 0.621291 0.475788
O O11 0.051786 0.834720 0.677548
O O12 0.140373 0.869439 0.168925
O O13 0.000000 0.000000 0.500000
O O14 0.500000 0.500000 0.500000
O O15 0.388990 0.823549 0.762345
#
# Coordination Sequence:
#
# PCOD9028066 Si02
#       7
#     2   2   2   2   2   2   2
#     4  11  25  44  67 105 143 198 251 306 371 437
#     4  10  22  41  71 100 141 182 248 286 384 429
#     4  10  23  44  71  99 150 193 255 303 367 435
#     4  12  27  46  74 111 147 187 239 316 384 449
#     4  11  27  41  66 111 148 195 252 313 370 436
#     4  10  22  43  70 107 130 198 244 296 360 442
#     4  12  24  47  76 102 144 194 250 297 374 464
#
# _framework density 27.112873
#
# number of rings (size 3 to 8) (size 9 to 14) (size 15 to 20)
#    0.857    0.286    1.429    4.286    8.000    1.714 
#    0.000    4.286    0.000    0.000    0.000    0.000 
#    0.000    0.000    0.000    0.000    0.000    0.000 
#
# Total GULP energy -78014.919133 kJ/mol
# GULP energy per Si atom -5572.494224 kJ/mol
# Density = 2.705116 g / cm^3
# Si number density = 27.112873 Si / 1000 Ang^3
#
#
#
# Elastic Constant Matrix: (Units=GPa)
#
#
# Indices 1 2 3 4 5 6 
#
# 1 151.4410 55.5223 81.8793 32.6269 19.3046 -16.8812
# 2 55.5223 133.0373 56.8171 9.0757 28.0908 -19.0983
# 3 81.8793 56.8171 201.4301 29.3926 16.7709 -5.0610
# 4 32.6269 9.0757 29.3926 61.0361 -0.5278 15.7426
# 5 19.3046 28.0908 16.7709 -0.5278 57.4842 9.8488
# 6 -16.8812 -19.0983 -5.0610 15.7426 9.8488 47.5991
#
#
#
# Elastic Compliance Matrix: (Units=1/GPa)
#
#
# Indices 1 2 3 4 5 6 
#
# 1 0.010897 -0.001537 -0.002769 -0.005704 -0.003092 0.005480
# 2 -0.001537 0.010784 -0.001663 -0.001346 -0.005157 0.005117
# 3 -0.002769 -0.001663 0.006771 -0.001426 -0.000174 -0.000422
# 4 -0.005704 -0.001346 -0.001426 0.023331 0.005174 -0.011501
# 5 -0.003092 -0.005157 -0.000174 0.005174 0.022696 -0.009592
# 6 0.005480 0.005117 -0.000422 -0.011501 -0.009592 0.030749
#
#
# Mechanical properties :
#
#
# Convention : Reuss Voigt Hill
#
# Bulk Modulus (GPa) = 60.54975 97.14955 78.84965
# Shear Modulus (GPa) = 40.75987 52.66987 46.71487
#
# Velocity S-wave (km/s) = 3.88150 4.41229 4.15538
# Velocity P-wave (km/s) = 6.51682 7.86556 7.22274
#
# Compressibility (1/GPa) = 0.01651534
#
# Stress axis : x y z
#
# Youngs Moduli (GPa) = 91.76431 92.73386 147.68909
#
# Poissons Ratio (x) = 0.14252 0.40893
# Poissons Ratio (y) = 0.14103 0.24556
# Poissons Ratio (z) = 0.25408 0.15418
#
# Static dielectric constant tensor:
#      x y z
#    x 2.165890 -0.063200 0.089720 
#    y -0.063200 2.245900 -0.037060 
#    z 0.089720 -0.037060 2.152970 
# 
# From -- ./inp_files/33014.got.cif
#   From: 2010.05.17/outbox.cif.g08.bks.cpg/sg2_17_cif.got.tgz:33014.got - 2010.06.03 11:33:40.
