data_PCOD9028637
_publ_section_title
;
Structure prediction by ZEFSAII (Michael W. Deem and Ramdas Pophale) SiO2 
 PCOD9028637
Probable space group: P -1
;
_chemical_formula_sum "Si O2"
_cell_formula_units_Z 16
_cell_length_a 12.751023
_cell_length_b 8.897077
_cell_length_c 18.769084
_cell_angle_alpha 128.397044
_cell_angle_beta 39.139738
_cell_angle_gamma 97.866743
_cell_volume 755.204356
_symmetry_space_group_name_H-M "P -1"
_symmetry_group_IT_number 2
_symmetry_cell_setting 'triclinic'
loop_
_space_group_symop_operation_xyz
x,y,z
-x,-y,-z
loop_
_atom_site_type_symbol
_atom_site_label
_atom_site_fract_x
_atom_site_fract_y
_atom_site_fract_z
Si Si1 0.114320 0.956976 0.267689
Si Si2 0.945536 0.409830 0.113674
Si Si3 0.552041 0.731734 0.889524
Si Si4 0.916559 0.779846 0.507413
Si Si5 0.671550 0.907291 0.295224
Si Si6 0.517395 0.530368 0.416240
Si Si7 0.840519 0.803233 0.388418
Si Si8 0.713754 0.551731 0.599456
O O1 0.132844 0.992398 0.352336
O O2 0.951962 0.252360 0.406205
O O3 0.978964 0.869098 0.301712
O O4 0.362261 0.769704 0.045320
O O5 0.811575 0.663104 0.204798
O O6 0.778597 0.364648 0.203602
O O7 0.962899 0.511777 0.208729
O O8 0.182254 0.179165 0.879707
O O9 0.810552 0.484160 0.707953
O O10 0.552171 0.668552 0.788367
O O11 0.500000 0.000000 0.000000
O O12 0.848611 0.830138 0.476141
O O13 0.776431 0.720375 0.601183
O O14 0.616203 0.159644 0.431311
O O15 0.427488 0.003213 0.434867
O O16 0.500000 0.500000 0.500000
O O17 0.401309 0.458880 0.409939
#
# Coordination Sequence:
#
# PCOD9028637 Si02
#       8
#     2   2   2   2   2   2   2   2
#     4  11  22  39  63  87 120 158 204 248 296 362
#     4  10  22  42  64  89 121 163 210 248 300 365
#     4  11  21  41  61  87 119 157 204 249 289 358
#     4  11  23  39  59  89 125 156 198 251 303 360
#     4  10  22  43  65  84 124 162 206 256 294 364
#     4  11  23  40  60  95 129 157 200 256 307 362
#     4  11  23  39  61  92 121 159 197 253 313 354
#     4  11  21  38  65  86 116 165 205 237 302 363
#
# _framework density 21.186319000000001
#
# number of rings (size 3 to 8) (size 9 to 14) (size 15 to 20)
#    0.000    1.250    2.500    5.625    0.000    7.000 
#    2.250    0.000    0.000    0.000    0.000    0.000 
#    0.000    0.000    0.000    0.000    0.000    0.000 
#
# Total GULP energy -89498.302932 kJ/mol
# GULP energy per Si atom -5593.643933 kJ/mol
# Density = 2.113810 g / cm^3
# Si number density = 21.186319 Si / 1000 Ang^3
#
#
#
# Elastic Constant Matrix: (Units=GPa)
#
#
# Indices 1 2 3 4 5 6 
#
# 1 126.1668 3.3708 35.6207 -9.7304 12.8830 8.6145
# 2 3.3708 28.4859 11.8692 -16.4400 -11.1839 6.1397
# 3 35.6207 11.8692 129.7644 -36.2652 4.7229 9.4365
# 4 -9.7304 -16.4400 -36.2652 33.0530 1.2095 1.1022
# 5 12.8830 -11.1839 4.7229 1.2095 17.1737 -11.6405
# 6 8.6145 6.1397 9.4365 1.1022 -11.6405 37.0923
#
#
#
# Elastic Compliance Matrix: (Units=1/GPa)
#
#
# Indices 1 2 3 4 5 6 
#
# 1 0.010363 -0.005548 -0.001587 -0.000720 -0.014760 -0.005695
# 2 -0.005548 0.075944 0.002814 0.037193 0.052514 0.003377
# 3 -0.001587 0.002814 0.012743 0.015288 -0.005245 -0.005440
# 4 -0.000720 0.037193 0.015288 0.065234 0.010102 -0.008647
# 5 -0.014760 0.052514 -0.005245 0.010102 0.128750 0.036175
# 6 -0.005695 0.003377 -0.005440 -0.008647 0.036175 0.040717
#
#
# Mechanical properties :
#
#
# Convention : Reuss Voigt Hill
#
# Bulk Modulus (GPa) = 11.06092 42.90428 26.98260
# Shear Modulus (GPa) = 13.42178 33.03421 23.22800
#
# Velocity S-wave (km/s) = 2.51970 3.95298 3.31474
# Velocity P-wave (km/s) = 3.70098 6.41324 5.23579
#
# Compressibility (1/GPa) = 0.09040837
#
# Stress axis : x y z
#
# Youngs Moduli (GPa) = 96.49929 13.16762 78.47188
#
# Poissons Ratio (x) = 0.07305 0.12454
# Poissons Ratio (y) = 0.53536 -0.22082
# Poissons Ratio (z) = 0.15315 -0.03705
#
# Static dielectric constant tensor:
#      x y z
#    x 1.746090 -0.026740 0.014980 
#    y -0.026740 1.771750 -0.001070 
#    z 0.014980 -0.001070 1.756300 
# 
# From -- ./inp_files/566923.got.cif
#   From: 2010.05.17/outbox.cif.g08.bks.cpg/sg2_284_cif.got.tgz:566923.got - 2010.06.03 11:33:40.
