data_PCOD9028689
_publ_section_title
;
Structure prediction by ZEFSAII (Michael W. Deem and Ramdas Pophale) SiO2 
 PCOD9028689
Probable space group: P -1
;
_chemical_formula_sum "Si O2"
_cell_formula_units_Z 10
_cell_length_a 8.387341
_cell_length_b 16.542470
_cell_length_c 16.357176
_cell_angle_alpha 24.150067
_cell_angle_beta 29.392842
_cell_angle_gamma 33.114654
_cell_volume 445.359567
_symmetry_space_group_name_H-M "P -1"
_symmetry_group_IT_number 2
_symmetry_cell_setting 'triclinic'
loop_
_space_group_symop_operation_xyz
x,y,z
-x,-y,-z
loop_
_atom_site_type_symbol
_atom_site_label
_atom_site_fract_x
_atom_site_fract_y
_atom_site_fract_z
Si Si1 0.526527 0.723657 0.259428
Si Si2 0.704905 0.422875 0.156547
Si Si3 0.768925 0.916392 0.833715
Si Si4 0.667969 0.849473 0.328000
Si Si5 0.157806 0.783524 0.020195
O O1 0.500000 0.500000 0.500000
O O2 0.883393 0.752551 0.106790
O O3 0.258271 0.888538 0.276197
O O4 0.535172 0.783070 0.105965
O O5 0.472588 0.334758 0.404643
O O6 0.481771 0.606151 0.037729
O O7 0.881819 0.231860 0.199770
O O8 0.000000 0.500000 0.000000
O O9 0.612381 0.005924 0.735576
O O10 0.974583 0.779474 0.193893
O O11 0.756867 0.995999 0.222906
#
# Coordination Sequence:
#
# PCOD9028689 Si02
#       5
#     2   2   2   2   2
#     4  10  24  44  66  88 130 175 211 254 316 386
#     4  12  24  37  68 101 129 161 209 269 322 363
#     4  10  23  40  64  95 124 168 209 257 319 370
#     4  10  22  42  64  93 133 163 214 261 308 383
#     4  10  23  40  65  94 127 169 214 254 320 371
#
# _framework density 22.453766999999999
#
# number of rings (size 3 to 8) (size 9 to 14) (size 15 to 20)
#    0.000    1.600    2.000    1.200    5.600    7.200 
#    0.000    2.000    0.000    0.000    0.000    0.000 
#    0.000    0.000    0.000    0.000    0.000    0.000 
#
# Total GULP energy -55919.921971 kJ/mol
# GULP energy per Si atom -5591.992197 kJ/mol
# Density = 2.240266 g / cm^3
# Si number density = 22.453767 Si / 1000 Ang^3
#
#
#
# Elastic Constant Matrix: (Units=GPa)
#
#
# Indices 1 2 3 4 5 6 
#
# 1 64.7808 -0.1019 10.4794 -8.8195 -8.7262 -16.6127
# 2 -0.1019 131.1938 -12.7702 -25.5608 -5.1955 -15.3213
# 3 10.4794 -12.7702 121.1492 -16.3311 -14.2977 3.4259
# 4 -8.8195 -25.5608 -16.3311 29.2255 -5.1885 7.3169
# 5 -8.7262 -5.1955 -14.2977 -5.1885 22.1346 3.3447
# 6 -16.6127 -15.3213 3.4259 7.3169 3.3447 26.1858
#
#
#
# Elastic Compliance Matrix: (Units=1/GPa)
#
#
# Indices 1 2 3 4 5 6 
#
# 1 0.020733 0.003401 0.000473 0.008284 0.009473 0.011557
# 2 0.003401 0.011478 0.003810 0.014025 0.009289 0.003269
# 3 0.000473 0.003810 0.012082 0.013613 0.012754 -0.004484
# 4 0.008284 0.014025 0.013613 0.064950 0.032174 -0.010578
# 5 0.009473 0.009289 0.012754 0.032174 0.068068 -0.007908
# 6 0.011557 0.003269 -0.004484 -0.010578 -0.007908 0.051986
#
#
# Mechanical properties :
#
#
# Convention : Reuss Voigt Hill
#
# Bulk Modulus (GPa) = 16.76143 34.70427 25.73285
# Shear Modulus (GPa) = 21.38430 36.81027 29.09728
#
# Velocity S-wave (km/s) = 3.08940 4.05332 3.60373
# Velocity P-wave (km/s) = 4.49521 6.11517 5.36667
#
# Compressibility (1/GPa) = 0.05966078
#
# Stress axis : x y z
#
# Youngs Moduli (GPa) = 48.23238 87.12313 82.76709
#
# Poissons Ratio (x) = -0.29629 -0.03914
# Poissons Ratio (y) = -0.16403 -0.31535
# Poissons Ratio (z) = -0.02281 -0.33195
#
# Static dielectric constant tensor:
#      x y z
#    x 1.878270 0.017410 0.006690 
#    y 0.017410 1.838110 0.004810 
#    z 0.006690 0.004810 1.818140 
# 
# From -- ./inp_files/15390.got.cif
#   From: 2010.05.17/outbox.cif.g08.bks.cpg/sg2_8_cif.got.tgz:15390.got - 2010.06.03 11:33:40.
