data_PCOD9028474
_publ_section_title
;
Structure prediction by ZEFSAII (Michael W. Deem and Ramdas Pophale) SiO2 
 PCOD9028474
Probable space group: P -1
;
_chemical_formula_sum "Si O2"
_cell_formula_units_Z 15
_cell_length_a 7.370645
_cell_length_b 14.314487
_cell_length_c 7.461859
_cell_angle_alpha 71.436879
_cell_angle_beta 123.888785
_cell_angle_gamma 99.835727
_cell_volume 619.513107
_symmetry_space_group_name_H-M "P -1"
_symmetry_group_IT_number 2
_symmetry_cell_setting 'triclinic'
loop_
_space_group_symop_operation_xyz
x,y,z
-x,-y,-z
loop_
_atom_site_type_symbol
_atom_site_label
_atom_site_fract_x
_atom_site_fract_y
_atom_site_fract_z
Si Si1 0.094586 0.473231 0.348886
Si Si2 0.470236 0.893323 0.727769
Si Si3 0.000000 0.000000 0.500000
Si Si4 0.363653 0.551184 0.733929
Si Si5 0.596129 0.747082 0.602825
Si Si6 0.275557 0.975161 0.998750
Si Si7 0.582656 0.231601 0.884114
Si Si8 0.004718 0.649931 0.968006
O O1 0.311216 0.477325 0.584726
O O2 0.109303 0.419489 0.200591
O O3 0.883947 0.425825 0.353175
O O4 0.021481 0.585647 0.194809
O O5 0.486251 0.841378 0.577030
O O6 0.236356 0.942857 0.613829
O O7 0.670639 0.968357 0.823387
O O8 0.504374 0.807489 0.951131
O O9 0.086162 0.015249 0.744444
O O10 0.474752 0.649935 0.666252
O O11 0.500000 0.500000 0.000000
O O12 0.588747 0.749148 0.381450
O O13 0.843078 0.742413 0.815584
O O14 0.500000 0.000000 0.000000
O O15 0.272460 0.857342 0.069186
O O16 0.749357 0.319605 0.958087
#
# Coordination Sequence:
#
# PCOD9028474 Si02
#       8
#     2   2   1   2   2   2   2   2
#     4  10  23  41  64  86 125 166 215 259 320 383
#     4  10  23  42  66  92 128 170 213 255 318 386
#     4   8  16  38  66  86 114 168 202 250 312 366
#     4  11  22  43  65  90 125 174 213 262 322 378
#     4  12  25  40  63  99 129 164 217 265 313 379
#     4   8  18  38  63  89 121 165 207 250 316 378
#     4  10  22  42  62  94 131 159 216 265 312 381
#     4  11  23  40  60  94 124 164 212 268 315 371
#
# _framework density 24.21256
#
# number of rings (size 3 to 8) (size 9 to 14) (size 15 to 20)
#    0.000    2.133    2.667    0.800    0.000   10.667 
#    0.000    3.333    0.000    0.000    0.000    0.000 
#    0.000    0.000    0.000    0.000    0.000    0.000 
#
# Total GULP energy -83506.910309 kJ/mol
# GULP energy per Si atom -5567.127354 kJ/mol
# Density = 2.415745 g / cm^3
# Si number density = 24.212560 Si / 1000 Ang^3
#
#
#
# Elastic Constant Matrix: (Units=GPa)
#
#
# Indices 1 2 3 4 5 6 
#
# 1 36.2290 4.3221 27.2851 -1.1692 -2.0330 -2.9849
# 2 4.3221 56.2143 36.1952 23.8030 -0.2588 -5.3835
# 3 27.2851 36.1952 181.1372 9.8491 -2.2466 0.3123
# 4 -1.1692 23.8030 9.8491 28.4494 -4.9101 -4.9262
# 5 -2.0330 -0.2588 -2.2466 -4.9101 32.5274 -2.3121
# 6 -2.9849 -5.3835 0.3123 -4.9262 -2.3121 32.9875
#
#
#
# Elastic Compliance Matrix: (Units=1/GPa)
#
#
# Indices 1 2 3 4 5 6 
#
# 1 0.032000 -0.001095 -0.004847 0.005012 0.002676 0.003699
# 2 -0.001095 0.031916 -0.004874 -0.025556 -0.003933 0.001064
# 3 -0.004847 -0.004874 0.007162 0.001255 0.000264 -0.001096
# 4 0.005012 -0.025556 0.001255 0.058937 0.009501 0.005738
# 5 0.002676 -0.003933 0.000264 0.009501 0.032566 0.003299
# 6 0.003699 0.001064 -0.001096 0.005738 0.003299 0.031921
#
#
# Mechanical properties :
#
#
# Convention : Reuss Voigt Hill
#
# Bulk Modulus (GPa) = 20.22384 45.46502 32.84443
# Shear Modulus (GPa) = 21.49458 32.51141 27.00299
#
# Velocity S-wave (km/s) = 2.98274 3.66833 3.34315
# Velocity P-wave (km/s) = 4.49812 6.06304 5.33823
#
# Compressibility (1/GPa) = 0.04944659
#
# Stress axis : x y z
#
# Youngs Moduli (GPa) = 31.24999 31.33180 139.63345
#
# Poissons Ratio (x) = 0.03431 0.67682
# Poissons Ratio (y) = 0.03422 0.68053
# Poissons Ratio (z) = 0.15147 0.15270
#
# Static dielectric constant tensor:
#      x y z
#    x 1.971920 -0.047210 -0.040450 
#    y -0.047210 2.079680 -0.017300 
#    z -0.040450 -0.017300 1.971650 
# 
# From -- ./inp_files/201187.got.cif
#   From: 2010.05.17/outbox.cif.g08.bks.cpg/sg2_101_cif.got.tgz:201187.got - 2010.06.03 11:33:40.
