data_PCOD9028527
_publ_section_title
;
Structure prediction by ZEFSAII (Michael W. Deem and Ramdas Pophale) SiO2 
 PCOD9028527
Probable space group: P -1
;
_chemical_formula_sum "Si O2"
_cell_formula_units_Z 14
_cell_length_a 13.524374
_cell_length_b 8.198527
_cell_length_c 14.707721
_cell_angle_alpha 87.973281
_cell_angle_beta 29.716452
_cell_angle_gamma 69.180376
_cell_volume 610.144665
_symmetry_space_group_name_H-M "P -1"
_symmetry_group_IT_number 2
_symmetry_cell_setting 'triclinic'
loop_
_space_group_symop_operation_xyz
x,y,z
-x,-y,-z
loop_
_atom_site_type_symbol
_atom_site_label
_atom_site_fract_x
_atom_site_fract_y
_atom_site_fract_z
Si Si1 0.733614 0.445616 0.462683
Si Si2 0.366187 0.893194 0.843842
Si Si3 0.953981 0.620485 0.942436
Si Si4 0.799286 0.897617 0.777210
Si Si5 0.202647 0.134242 0.413254
Si Si6 0.192451 0.772571 0.134738
Si Si7 0.463509 0.364029 0.818991
O O1 0.536167 0.694759 0.644138
O O2 0.594693 0.364232 0.621872
O O3 0.796581 0.434892 0.307154
O O4 0.021783 0.285878 0.285763
O O5 0.578603 0.843629 0.749168
O O6 0.155605 0.895404 0.067637
O O7 0.241462 0.120642 0.895424
O O8 0.816086 0.562800 0.987189
O O9 0.000000 0.500000 0.000000
O O10 0.939986 0.779451 0.571275
O O11 0.779284 0.098450 0.816430
O O12 0.500000 0.000000 0.000000
O O13 0.029165 0.219345 0.640987
O O14 0.355697 0.880513 0.289024
O O15 0.421786 0.526467 0.924148
#
# Coordination Sequence:
#
# PCOD9028527 Si02
#       7
#     2   2   2   2   2   2   2
#     4  11  23  43  61  89 130 163 201 254 310 359
#     4  10  22  42  63  88 127 163 198 253 312 360
#     4  11  23  44  69  93 118 152 205 263 312 375
#     4  12  22  39  62  90 129 168 212 250 290 352
#     4  11  21  38  59  89 125 166 207 246 289 353
#     4  11  21  40  59  87 127 164 202 247 296 357
#     4  10  23  41  63  91 123 164 200 249 313 363
#
# _framework density 22.945378000000002
#
# number of rings (size 3 to 8) (size 9 to 14) (size 15 to 20)
#    0.000    1.143    4.286    2.143    0.000    2.286 
#    2.571    2.857    0.000    0.000    0.000    0.000 
#    0.000    0.000    0.000    0.000    0.000    0.000 
#
# Total GULP energy -78155.319847 kJ/mol
# GULP energy per Si atom -5582.522846 kJ/mol
# Density = 2.289315 g / cm^3
# Si number density = 22.945378 Si / 1000 Ang^3
#
#
#
# Elastic Constant Matrix: (Units=GPa)
#
#
# Indices 1 2 3 4 5 6 
#
# 1 16.5394 14.9419 16.3438 -1.3256 9.6212 -7.4883
# 2 14.9419 70.1623 25.9271 -13.0526 15.4434 -10.3949
# 3 16.3438 25.9271 100.8039 -18.7736 13.9579 -6.8898
# 4 -1.3256 -13.0526 -18.7736 40.0817 4.5396 9.2706
# 5 9.6212 15.4434 13.9579 4.5396 23.2832 -9.6886
# 6 -7.4883 -10.3949 -6.8898 9.2706 -9.6886 27.9359
#
#
#
# Elastic Compliance Matrix: (Units=1/GPa)
#
#
# Indices 1 2 3 4 5 6 
#
# 1 0.099220 -0.012091 -0.010626 -0.007021 -0.018894 0.015254
# 2 -0.012091 0.020496 -0.000552 0.007669 -0.010580 -0.001965
# 3 -0.010626 -0.000552 0.013908 0.007866 -0.007063 -0.004684
# 4 -0.007021 0.007669 0.007866 0.037163 -0.021114 -0.016744
# 5 -0.018894 -0.010580 -0.007063 -0.021114 0.075461 0.022434
# 6 0.015254 -0.001965 -0.004684 -0.016744 0.022434 0.051336
#
#
# Mechanical properties :
#
#
# Convention : Reuss Voigt Hill
#
# Bulk Modulus (GPa) = 11.48300 33.54790 22.51545
# Shear Modulus (GPa) = 13.39943 26.94632 20.17288
#
# Velocity S-wave (km/s) = 2.41917 3.43062 2.96830
# Velocity P-wave (km/s) = 3.58030 5.50861 4.64560
#
# Compressibility (1/GPa) = 0.08708528
#
# Stress axis : x y z
#
# Youngs Moduli (GPa) = 10.07865 48.78994 71.90091
#
# Poissons Ratio (x) = 0.58991 0.76402
# Poissons Ratio (y) = 0.12186 0.03972
# Poissons Ratio (z) = 0.10710 0.02695
#
# Static dielectric constant tensor:
#      x y z
#    x 1.874620 -0.008630 0.012580 
#    y -0.008630 1.842160 -0.043560 
#    z 0.012580 -0.043560 1.923420 
# 
# From -- ./inp_files/313073.got.cif
#   From: 2010.05.17/outbox.cif.g08.bks.cpg/sg2_157_cif.got.tgz:313073.got - 2010.06.03 11:33:40.
