data_PCOD9028352
_publ_section_title
;
Structure prediction by ZEFSAII (Michael W. Deem and Ramdas Pophale) SiO2 
 PCOD9028352
Probable space group: P -1
;
_chemical_formula_sum "Si O2"
_cell_formula_units_Z 15
_cell_length_a 16.819434
_cell_length_b 6.266255
_cell_length_c 13.309868
_cell_angle_alpha 104.089812
_cell_angle_beta 30.885548
_cell_angle_gamma 91.458335
_cell_volume 649.273552
_symmetry_space_group_name_H-M "P -1"
_symmetry_group_IT_number 2
_symmetry_cell_setting 'triclinic'
loop_
_space_group_symop_operation_xyz
x,y,z
-x,-y,-z
loop_
_atom_site_type_symbol
_atom_site_label
_atom_site_fract_x
_atom_site_fract_y
_atom_site_fract_z
Si Si1 0.313651 0.337959 0.467508
Si Si2 0.814815 0.176201 0.749418
Si Si3 0.181294 0.097214 0.751969
Si Si4 0.005455 0.789172 0.826509
Si Si5 0.512741 0.381550 0.580202
Si Si6 0.434464 0.078782 0.952183
Si Si7 0.500000 0.500000 0.000000
Si Si8 0.746936 0.633970 0.000489
O O1 0.256540 0.253005 0.622959
O O2 0.162618 0.552262 0.611211
O O3 0.454342 0.442065 0.354986
O O4 0.390042 0.125208 0.285030
O O5 0.695014 0.338582 0.810380
O O6 0.826702 0.368531 0.840831
O O7 0.000000 0.000000 0.500000
O O8 0.710214 0.021110 0.884910
O O9 0.070517 0.003848 0.786112
O O10 0.331443 0.866354 0.606259
O O11 0.064379 0.218882 0.985992
O O12 0.867369 0.778973 0.898663
O O13 0.500000 0.500000 0.500000
O O14 0.342268 0.357735 0.795241
O O15 0.452125 0.264561 0.032878
O O16 0.396631 0.226177 0.905528
#
# Coordination Sequence:
#
# PCOD9028352 Si02
#       8
#     2   2   2   2   2   2   1   2
#     4  11  22  41  65  92 132 180 221 274 335 401
#     4  11  26  50  74 104 137 174 225 292 353 417
#     4  10  22  42  59  92 137 180 226 278 326 389
#     4  10  24  38  63  96 134 177 228 272 327 396
#     4  11  23  38  67  96 135 181 229 272 332 395
#     4  11  24  47  72  98 139 174 223 284 347 414
#     4  10  26  46  76 104 132 172 224 278 358 418
#     4  11  24  43  66 105 132 175 233 277 335 409
#
# _framework density 23.102741999999999
#
# number of rings (size 3 to 8) (size 9 to 14) (size 15 to 20)
#    0.000    1.333    2.667    1.600    3.733    6.400 
#    4.800    0.000    0.000    0.000    0.000    0.000 
#    0.000    0.000    0.000    0.000    0.000    0.000 
#
# Total GULP energy -83607.570853 kJ/mol
# GULP energy per Si atom -5573.838057 kJ/mol
# Density = 2.305016 g / cm^3
# Si number density = 23.102742 Si / 1000 Ang^3
#
#
#
# Elastic Constant Matrix: (Units=GPa)
#
#
# Indices 1 2 3 4 5 6 
#
# 1 57.0580 1.7662 13.2425 4.2263 -15.2444 -0.1948
# 2 1.7662 69.3752 22.1441 4.0831 0.8363 26.1303
# 3 13.2425 22.1441 105.6015 16.6392 -6.4048 8.7319
# 4 4.2263 4.0831 16.6392 28.5788 4.0497 0.9604
# 5 -15.2444 0.8363 -6.4048 4.0497 24.9785 -9.0363
# 6 -0.1948 26.1303 8.7319 0.9604 -9.0363 33.7782
#
#
#
# Elastic Compliance Matrix: (Units=1/GPa)
#
#
# Indices 1 2 3 4 5 6 
#
# 1 0.022889 -0.002992 -0.001010 -0.005079 0.017344 0.007492
# 2 -0.002992 0.023297 -0.003767 0.001553 -0.011087 -0.020075
# 3 -0.001010 -0.003767 0.011580 -0.006658 0.003981 0.001169
# 4 -0.005079 0.001553 -0.006658 0.041391 -0.013084 -0.004187
# 5 0.017344 -0.011087 0.003981 -0.013084 0.063145 0.024912
# 6 0.007492 -0.020075 0.001169 -0.004187 0.024912 0.051659
#
#
# Mechanical properties :
#
#
# Convention : Reuss Voigt Hill
#
# Bulk Modulus (GPa) = 23.68201 34.03781 28.85991
# Shear Modulus (GPa) = 20.52750 30.45921 25.49336
#
# Velocity S-wave (km/s) = 2.98406 3.63495 3.32547
# Velocity P-wave (km/s) = 4.70593 5.69055 5.22150
#
# Compressibility (1/GPa) = 0.04222615
#
# Stress axis : x y z
#
# Youngs Moduli (GPa) = 43.68962 42.92459 86.35548
#
# Poissons Ratio (x) = 0.12845 0.08723
# Poissons Ratio (y) = 0.13074 0.32531
# Poissons Ratio (z) = 0.04413 0.16170
#
# Static dielectric constant tensor:
#      x y z
#    x 1.928940 0.021680 0.013440 
#    y 0.021680 1.934870 -0.000430 
#    z 0.013440 -0.000430 1.830810 
# 
# From -- ./inp_files/89237.got.cif
#   From: 2010.05.17/outbox.cif.g08.bks.cpg/sg2_45_cif.got.tgz:89237.got - 2010.06.03 11:33:40.
