data_PCOD9028184
_publ_section_title
;
Structure prediction by ZEFSAII (Michael W. Deem and Ramdas Pophale) SiO2 
 PCOD9028184
Probable space group: P -1
;
_chemical_formula_sum "Si O2"
_cell_formula_units_Z 14
_cell_length_a 9.298839
_cell_length_b 9.710218
_cell_length_c 10.228360
_cell_angle_alpha 135.828988
_cell_angle_beta 72.132499
_cell_angle_gamma 108.162319
_cell_volume 606.622177
_symmetry_space_group_name_H-M "P -1"
_symmetry_group_IT_number 2
_symmetry_cell_setting 'triclinic'
loop_
_space_group_symop_operation_xyz
x,y,z
-x,-y,-z
loop_
_atom_site_type_symbol
_atom_site_label
_atom_site_fract_x
_atom_site_fract_y
_atom_site_fract_z
Si Si1 0.808904 0.218375 0.386882
Si Si2 0.118733 0.314105 0.221336
Si Si3 0.440835 0.464757 0.845464
Si Si4 0.472825 0.184504 0.418667
Si Si5 0.133417 0.475357 0.043136
Si Si6 0.165194 0.927470 0.435215
Si Si7 0.575663 0.800362 0.845862
O O1 0.829569 0.458044 0.581990
O O2 0.644487 0.134180 0.314064
O O3 0.823420 0.086781 0.421551
O O4 0.955512 0.217602 0.254071
O O5 0.108231 0.340657 0.086772
O O6 0.251287 0.192092 0.149113
O O7 0.505638 0.305622 0.627996
O O8 0.477549 0.661758 0.883689
O O9 0.500000 0.500000 0.000000
O O10 0.263003 0.401697 0.869021
O O11 0.434111 0.279929 0.355729
O O12 0.315315 0.045551 0.404352
O O13 0.176041 0.700794 0.234822
O O14 0.000000 0.500000 0.000000
O O15 0.000000 0.000000 0.500000
O O16 0.500000 0.000000 0.000000
#
# Coordination Sequence:
#
# PCOD9028184 Si02
#       7
#     2   2   2   2   2   2   2
#     4  10  22  41  72 102 140 187 245 303 367 446
#     4  10  22  45  69 104 147 188 246 307 375 437
#     4  12  24  46  74 104 149 193 248 303 368 445
#     4  12  25  44  75 106 142 196 252 297 380 438
#     4  11  24  43  72 103 143 198 246 303 376 445
#     4  11  23  44  67 106 149 189 244 310 371 446
#     4  12  26  46  71 110 152 191 247 316 368 442
#
# _framework density 23.078614999999999
#
# number of rings (size 3 to 8) (size 9 to 14) (size 15 to 20)
#    0.000    0.857    2.857    4.286    2.000    2.286 
#    2.571    0.714    0.000    0.000    0.000    0.000 
#    0.000    0.000    0.000    0.000    0.000    0.000 
#
# Total GULP energy -78194.195515 kJ/mol
# GULP energy per Si atom -5585.299680 kJ/mol
# Density = 2.302609 g / cm^3
# Si number density = 23.078615 Si / 1000 Ang^3
#
#
#
# Elastic Constant Matrix: (Units=GPa)
#
#
# Indices 1 2 3 4 5 6 
#
# 1 207.8603 89.0169 42.1188 -39.3778 -10.5692 -2.7251
# 2 89.0169 153.3848 49.0418 -41.8572 -1.6757 13.9250
# 3 42.1188 49.0418 93.0574 -29.7359 -2.7555 1.5857
# 4 -39.3778 -41.8572 -29.7359 50.6256 -5.7409 -4.8978
# 5 -10.5692 -1.6757 -2.7555 -5.7409 42.4051 -11.7661
# 6 -2.7251 13.9250 1.5857 -4.8978 -11.7661 40.2848
#
#
#
# Elastic Compliance Matrix: (Units=1/GPa)
#
#
# Indices 1 2 3 4 5 6 
#
# 1 0.007109 -0.003379 -0.000415 0.003089 0.002825 0.002866
# 2 -0.003379 0.010852 -0.002809 0.004222 -0.001040 -0.003659
# 3 -0.000415 -0.002809 0.014437 0.006235 0.002048 0.001731
# 4 0.003089 0.004222 0.006235 0.030459 0.006614 0.004139
# 5 0.002825 -0.001040 0.002048 0.006614 0.027887 0.009419
# 6 0.002866 -0.003659 0.001731 0.004139 0.009419 0.029468
#
#
# Mechanical properties :
#
#
# Convention : Reuss Voigt Hill
#
# Bulk Modulus (GPa) = 52.10301 90.51749 71.31025
# Shear Modulus (GPa) = 35.76155 44.93808 40.34981
#
# Velocity S-wave (km/s) = 3.94071 4.41747 4.18588
# Velocity P-wave (km/s) = 6.58262 8.08240 7.37076
#
# Compressibility (1/GPa) = 0.01919275
#
# Stress axis : x y z
#
# Youngs Moduli (GPa) = 140.67635 92.15134 69.26422
#
# Poissons Ratio (x) = 0.31139 0.02872
# Poissons Ratio (y) = 0.47536 0.19455
# Poissons Ratio (z) = 0.05832 0.25883
#
# Static dielectric constant tensor:
#      x y z
#    x 2.638500 -0.005200 0.397690 
#    y -0.005200 1.833670 0.068330 
#    z 0.397690 0.068330 2.155750 
# 
# From -- ./inp_files/160102.got.cif
#   From: 2010.05.17/outbox.cif.g08.bks.cpg/sg2_81_cif.got.tgz:160102.got - 2010.06.03 11:33:40.
