data_PCOD9028720
_publ_section_title
;
Structure prediction by ZEFSAII (Michael W. Deem and Ramdas Pophale) SiO2 
 PCOD9028720
Probable space group: P -1
;
_chemical_formula_sum "Si O2"
_cell_formula_units_Z 16
_cell_length_a 7.001579
_cell_length_b 8.445827
_cell_length_c 25.265630
_cell_angle_alpha 43.897087
_cell_angle_beta 42.040244
_cell_angle_gamma 53.444016
_cell_volume 687.809222
_symmetry_space_group_name_H-M "P -1"
_symmetry_group_IT_number 2
_symmetry_cell_setting 'triclinic'
loop_
_space_group_symop_operation_xyz
x,y,z
-x,-y,-z
loop_
_atom_site_type_symbol
_atom_site_label
_atom_site_fract_x
_atom_site_fract_y
_atom_site_fract_z
Si Si1 0.499328 0.560620 0.127911
Si Si2 0.466798 0.304793 0.096764
Si Si3 0.160280 0.339016 0.781482
Si Si4 0.275629 0.981224 0.285656
Si Si5 0.327972 0.183340 0.335096
Si Si6 0.261051 0.566727 0.602226
Si Si7 0.277571 0.129799 0.912529
Si Si8 0.737970 0.808302 0.392428
O O1 0.635648 0.413350 0.085257
O O2 0.451590 0.383493 0.227846
O O3 0.662138 0.759319 0.071087
O O4 0.176881 0.681316 0.150297
O O5 0.222622 0.223574 0.205947
O O6 0.498503 0.074827 0.108428
O O7 0.500000 0.500000 0.000000
O O8 0.390736 0.120634 0.768461
O O9 0.228313 0.534149 0.679520
O O10 0.227330 0.336314 0.830420
O O11 0.051247 0.825020 0.346685
O O12 0.245661 0.014363 0.346100
O O13 0.021925 0.280368 0.399131
O O14 0.555927 0.055231 0.359021
O O15 0.547544 0.668686 0.503223
O O16 0.248322 0.324662 0.634136
O O17 0.000000 0.000000 0.000000
#
# Coordination Sequence:
#
# PCOD9028720 Si02
#       8
#     2   2   2   2   2   2   2   2
#     4  10  24  45  69  99 139 184 223 291 349 401
#     4  10  23  42  65 100 138 174 233 282 343 417
#     4  10  22  42  65  96 135 175 232 278 340 420
#     4  10  23  41  66  95 129 178 231 279 340 412
#     4  10  22  42  64  95 133 178 230 275 344 414
#     4  10  23  42  66  96 137 178 225 286 347 407
#     4  11  25  43  70 102 134 184 234 280 352 416
#     4  11  23  43  64  98 136 178 228 284 345 410
#
# _framework density 23.262263999999998
#
# number of rings (size 3 to 8) (size 9 to 14) (size 15 to 20)
#    0.000    1.750    1.250    1.125    7.000    7.500 
#    0.000    3.750    0.000    0.000    0.000    0.000 
#    0.000    0.000    0.000    0.000    0.000    0.000 
#
# Total GULP energy -89118.658953 kJ/mol
# GULP energy per Si atom -5569.916185 kJ/mol
# Density = 2.320932 g / cm^3
# Si number density = 23.262264 Si / 1000 Ang^3
#
#
#
# Elastic Constant Matrix: (Units=GPa)
#
#
# Indices 1 2 3 4 5 6 
#
# 1 93.3300 40.1813 32.1502 -13.4846 -6.5208 20.9288
# 2 40.1813 75.5158 -2.9591 -3.9432 -12.3500 1.9743
# 3 32.1502 -2.9591 29.1692 3.7482 -2.4588 17.3435
# 4 -13.4846 -3.9432 3.7482 26.3420 1.5225 -0.0240
# 5 -6.5208 -12.3500 -2.4588 1.5225 23.1898 -5.7862
# 6 20.9288 1.9743 17.3435 -0.0240 -5.7862 40.9542
#
#
#
# Elastic Compliance Matrix: (Units=1/GPa)
#
#
# Indices 1 2 3 4 5 6 
#
# 1 0.044443 -0.025905 -0.056655 0.027443 -0.008782 0.001305
# 2 -0.025905 0.029804 0.035339 -0.014578 0.012957 -0.001342
# 3 -0.056655 0.035339 0.119568 -0.041491 0.012904 -0.021587
# 4 0.027443 -0.014578 -0.041491 0.056158 -0.007323 0.003248
# 5 -0.008782 0.012957 0.012904 -0.007323 0.050792 0.005570
# 6 0.001305 -0.001342 -0.021587 0.003248 0.005570 0.033746
#
#
# Mechanical properties :
#
#
# Convention : Reuss Voigt Hill
#
# Bulk Modulus (GPa) = 10.06318 37.41774 23.74046
# Shear Modulus (GPa) = 10.82072 26.67338 18.74705
#
# Velocity S-wave (km/s) = 2.15910 3.38988 2.84192
# Velocity P-wave (km/s) = 3.24823 5.60730 4.58218
#
# Compressibility (1/GPa) = 0.09937221
#
# Stress axis : x y z
#
# Youngs Moduli (GPa) = 22.50082 33.55278 8.36347
#
# Poissons Ratio (x) = 0.86919 0.47383
# Poissons Ratio (y) = 0.58288 -0.29556
# Poissons Ratio (z) = 1.27479 -1.18573
#
# Static dielectric constant tensor:
#      x y z
#    x 1.872420 -0.032420 0.017700 
#    y -0.032420 1.488580 -0.247680 
#    z 0.017700 -0.247680 1.762180 
# 
# From -- ./inp_files/603958.got.cif
#   From: 2010.05.17/outbox.cif.g08.bks.cpg/sg2_302_cif.got.tgz:603958.got - 2010.06.03 11:33:40.
