data_PCOD9028152
_publ_section_title
;
Structure prediction by ZEFSAII (Michael W. Deem and Ramdas Pophale) SiO2 
 PCOD9028152
Probable space group: P -1
;
_chemical_formula_sum "Si O2"
_cell_formula_units_Z 16
_cell_length_a 13.089380
_cell_length_b 12.155743
_cell_length_c 11.202882
_cell_angle_alpha 134.928971
_cell_angle_beta 97.706998
_cell_angle_gamma 118.436884
_cell_volume 726.896916
_symmetry_space_group_name_H-M "P -1"
_symmetry_group_IT_number 2
_symmetry_cell_setting 'triclinic'
loop_
_space_group_symop_operation_xyz
x,y,z
-x,-y,-z
loop_
_atom_site_type_symbol
_atom_site_label
_atom_site_fract_x
_atom_site_fract_y
_atom_site_fract_z
Si Si1 0.494108 0.307281 0.876176
Si Si2 0.139589 0.799915 0.299927
Si Si3 0.113052 0.280564 0.678042
Si Si4 0.380870 0.983181 0.819166
Si Si5 0.840776 0.697989 0.582946
Si Si6 0.978415 0.599539 0.675067
Si Si7 0.777750 0.976613 0.772184
Si Si8 0.466950 0.143245 0.212745
O O1 0.340109 0.030292 0.562932
O O2 0.430942 0.194294 0.914095
O O3 0.500000 0.500000 0.000000
O O4 0.695913 0.488235 0.046546
O O5 0.185338 0.956818 0.309539
O O6 0.017216 0.737195 0.328422
O O7 0.000000 0.500000 0.000000
O O8 0.142719 0.306271 0.560022
O O9 0.000000 0.000000 0.500000
O O10 0.210330 0.682436 0.515012
O O11 0.529774 0.029775 0.871934
O O12 0.352005 0.997819 0.962522
O O13 0.977985 0.763300 0.730005
O O14 0.656628 0.410604 0.388340
O O15 0.835993 0.875697 0.737593
O O16 0.000000 0.500000 0.500000
O O17 0.108205 0.764710 0.932904
O O18 0.584311 0.792489 0.647491
#
# Coordination Sequence:
#
# PCOD9028152 Si02
#       8
#     2   2   2   2   2   2   2   2
#     4  12  25  47  76 106 144 202 251 291 368 444
#     4  12  30  47  73 111 150 196 243 309 367 434
#     4  12  25  50  76 104 148 194 249 305 362 448
#     4  10  22  42  67 104 131 178 245 287 356 436
#     4  11  24  45  70 103 139 188 241 298 368 435
#     4  11  24  40  71 102 137 189 232 301 366 430
#     4  12  24  46  66 105 147 178 241 300 367 435
#     4  10  22  41  71  98 138 180 227 304 358 422
#
# _framework density 22.011374
#
# number of rings (size 3 to 8) (size 9 to 14) (size 15 to 20)
#    0.000    0.750    5.000    1.500    5.250    0.500 
#    4.500    0.000    0.000    0.000    0.000    0.000 
#    0.000    0.000    0.000    0.000    0.000    0.000 
#
# Total GULP energy -89192.742531 kJ/mol
# GULP energy per Si atom -5574.546408 kJ/mol
# Density = 2.196127 g / cm^3
# Si number density = 22.011374 Si / 1000 Ang^3
#
#
#
# Elastic Constant Matrix: (Units=GPa)
#
#
# Indices 1 2 3 4 5 6 
#
# 1 81.5549 42.4738 9.2170 -4.6216 -9.3118 17.0830
# 2 42.4738 121.9517 15.2004 7.4745 -4.1229 -7.7406
# 3 9.2170 15.2004 90.9302 -1.5339 20.6643 10.5176
# 4 -4.6216 7.4745 -1.5339 27.5856 -2.6886 -4.6990
# 5 -9.3118 -4.1229 20.6643 -2.6886 40.6417 0.7546
# 6 17.0830 -7.7406 10.5176 -4.6990 0.7546 32.7510
#
#
#
# Elastic Compliance Matrix: (Units=1/GPa)
#
#
# Indices 1 2 3 4 5 6 
#
# 1 0.019240 -0.007462 -0.000306 0.003725 0.004262 -0.011265
# 2 -0.007462 0.011706 -0.002093 -0.003354 0.000193 0.006845
# 3 -0.000306 -0.002093 0.013509 -0.000196 -0.007080 -0.004538
# 4 0.003725 -0.003354 -0.000196 0.038551 0.003111 0.002787
# 5 0.004262 0.000193 -0.007080 0.003111 0.029409 -0.000135
# 6 -0.011265 0.006845 -0.004538 0.002787 -0.000135 0.039887
#
#
# Mechanical properties :
#
#
# Convention : Reuss Voigt Hill
#
# Bulk Modulus (GPa) = 40.43009 47.57993 44.00501
# Shear Modulus (GPa) = 27.73656 35.36537 31.55097
#
# Velocity S-wave (km/s) = 3.55364 4.01270 3.79013
# Velocity P-wave (km/s) = 5.93679 6.56749 6.26009
#
# Compressibility (1/GPa) = 0.02473406
#
# Stress axis : x y z
#
# Youngs Moduli (GPa) = 51.97574 85.42435 74.02613
#
# Poissons Ratio (x) = 0.63744 0.02263
# Poissons Ratio (y) = 0.38784 0.15491
# Poissons Ratio (z) = 0.01589 0.17877
#
# Static dielectric constant tensor:
#      x y z
#    x 1.913400 -0.006230 0.088730 
#    y -0.006230 1.795640 0.046610 
#    z 0.088730 0.046610 1.918620 
# 
# From -- ./inp_files/429094.got.cif
#   From: 2010.05.17/outbox.cif.g08.bks.cpg/sg2_215_cif.got.tgz:429094.got - 2010.06.03 11:33:40.
