data_PCOD9028676
_publ_section_title
;
Structure prediction by ZEFSAII (Michael W. Deem and Ramdas Pophale) SiO2 
 PCOD9028676
Probable space group: P -1
;
_chemical_formula_sum "Si O2"
_cell_formula_units_Z 16
_cell_length_a 8.371121
_cell_length_b 13.815354
_cell_length_c 18.831574
_cell_angle_alpha 140.752824
_cell_angle_beta 54.116520
_cell_angle_gamma 95.063504
_cell_volume 782.353312
_symmetry_space_group_name_H-M "P -1"
_symmetry_group_IT_number 2
_symmetry_cell_setting 'triclinic'
loop_
_space_group_symop_operation_xyz
x,y,z
-x,-y,-z
loop_
_atom_site_type_symbol
_atom_site_label
_atom_site_fract_x
_atom_site_fract_y
_atom_site_fract_z
Si Si1 0.490895 0.122696 0.376398
Si Si2 0.995461 0.078537 0.968736
Si Si3 0.211749 0.477359 0.762184
Si Si4 0.643794 0.469006 0.091893
Si Si5 0.357099 0.304764 0.911259
Si Si6 0.198928 0.931655 0.215946
Si Si7 0.886896 0.370860 0.610538
Si Si8 0.464987 0.854463 0.960093
O O1 0.703254 0.074434 0.235472
O O2 0.440442 0.259298 0.534011
O O3 0.183371 0.263462 0.502424
O O4 0.608701 0.890007 0.233440
O O5 0.790912 0.091349 0.980142
O O6 0.000000 0.000000 0.000000
O O7 0.872293 0.318897 0.139616
O O8 0.298372 0.477080 0.818969
O O9 0.929667 0.532966 0.876767
O O10 0.654844 0.574933 0.083006
O O11 0.336584 0.561544 0.233753
O O12 0.855574 0.208558 0.878430
O O13 0.621353 0.190170 0.828288
O O14 0.391755 0.906546 0.092095
O O15 0.949976 0.186271 0.441899
O O16 0.733128 0.594119 0.736848
O O17 0.500000 0.000000 0.000000
#
# Coordination Sequence:
#
# PCOD9028676 Si02
#       8
#     2   2   2   2   2   2   2   2
#     4  10  25  43  66  96 135 174 213 270 326 386
#     4  11  26  45  66  97 130 173 215 266 334 393
#     4  11  22  42  64  93 141 167 217 269 327 385
#     4  11  22  39  66 100 130 176 220 268 325 380
#     4  10  23  40  66  97 134 175 218 265 328 386
#     4  10  22  42  64  92 133 169 213 273 322 381
#     4  10  23  43  65  96 132 168 220 269 322 384
#     4  11  25  43  68  96 128 167 216 271 333 388
#
# _framework density 20.451118000000001
#
# number of rings (size 3 to 8) (size 9 to 14) (size 15 to 20)
#    0.000    1.500    2.500    2.250    8.750    4.500 
#    0.000    0.000    0.000    0.000    0.000    0.000 
#    0.000    0.000    0.000    0.000    0.000    0.000 
#
# Total GULP energy -89427.698999 kJ/mol
# GULP energy per Si atom -5589.231187 kJ/mol
# Density = 2.040457 g / cm^3
# Si number density = 20.451118 Si / 1000 Ang^3
#
#
#
# Elastic Constant Matrix: (Units=GPa)
#
#
# Indices 1 2 3 4 5 6 
#
# 1 71.0896 20.7193 27.3483 3.8352 2.5667 7.5908
# 2 20.7193 173.6449 60.9928 9.7696 1.2262 -1.4231
# 3 27.3483 60.9928 144.6557 6.6329 18.0080 8.3607
# 4 3.8352 9.7696 6.6329 12.5222 -3.3423 -2.3058
# 5 2.5667 1.2262 18.0080 -3.3423 36.6623 -7.2663
# 6 7.5908 -1.4231 8.3607 -2.3058 -7.2663 29.1487
#
#
#
# Elastic Compliance Matrix: (Units=1/GPa)
#
#
# Indices 1 2 3 4 5 6 
#
# 1 0.015844 -0.000987 -0.001975 -0.004179 -0.001334 -0.004271
# 2 -0.000987 0.007071 -0.002901 -0.003058 0.001278 0.001511
# 3 -0.001975 -0.002901 0.009680 -0.004574 -0.005770 -0.004204
# 4 -0.004179 -0.003058 -0.004574 0.091950 0.013583 0.012911
# 5 -0.001334 0.001278 -0.005770 0.013583 0.033685 0.011536
# 6 -0.004271 0.001511 -0.004204 0.012911 0.011536 0.040596
#
#
# Mechanical properties :
#
#
# Convention : Reuss Voigt Hill
#
# Bulk Modulus (GPa) = 47.91721 67.50124 57.70922
# Shear Modulus (GPa) = 22.98756 34.35527 28.67142
#
# Velocity S-wave (km/s) = 3.35629 4.10307 3.74832
# Velocity P-wave (km/s) = 6.20488 7.45149 6.85657
#
# Compressibility (1/GPa) = 0.02086933
#
# Stress axis : x y z
#
# Youngs Moduli (GPa) = 63.11627 141.42057 103.30066
#
# Poissons Ratio (x) = 0.13964 0.20398
# Poissons Ratio (y) = 0.06232 0.29968
# Poissons Ratio (z) = 0.12463 0.41027
#
# Static dielectric constant tensor:
#      x y z
#    x 1.780900 0.003560 0.007910 
#    y 0.003560 1.676050 0.005050 
#    z 0.007910 0.005050 1.740680 
# 
# From -- ./inp_files/313932.got.cif
#   From: 2010.05.17/outbox.cif.g08.bks.cpg/sg2_157_cif.got.tgz:313932.got - 2010.06.03 11:33:40.
