data_PCOD9028055
_publ_section_title
;
Structure prediction by ZEFSAII (Michael W. Deem and Ramdas Pophale) SiO2 
 PCOD9028055
Probable space group: P -1
;
_chemical_formula_sum "Si O2"
_cell_formula_units_Z 16
_cell_length_a 9.289406
_cell_length_b 9.106316
_cell_length_c 21.871994
_cell_angle_alpha 111.010333
_cell_angle_beta 152.961191
_cell_angle_gamma 71.745997
_cell_volume 785.089536
_symmetry_space_group_name_H-M "P -1"
_symmetry_group_IT_number 2
_symmetry_cell_setting 'triclinic'
loop_
_space_group_symop_operation_xyz
x,y,z
-x,-y,-z
loop_
_atom_site_type_symbol
_atom_site_label
_atom_site_fract_x
_atom_site_fract_y
_atom_site_fract_z
Si Si1 0.368850 0.540006 0.643281
Si Si2 0.291541 0.629917 0.826788
Si Si3 0.793206 0.886080 0.091831
Si Si4 0.994789 0.905271 0.046063
Si Si5 0.290835 0.538107 0.367453
Si Si6 0.669885 0.404778 0.855666
Si Si7 0.834919 0.093695 0.637671
Si Si8 0.721804 0.173691 0.262974
O O1 0.523924 0.506378 0.631459
O O2 0.547623 0.432660 0.744958
O O3 0.358364 0.718107 0.692793
O O4 0.000000 0.500000 0.500000
O O5 0.418978 0.479347 0.816831
O O6 0.132108 0.731050 0.726048
O O7 0.028325 0.570168 0.765531
O O8 0.605752 0.718317 0.986273
O O9 0.993465 0.892369 0.229737
O O10 0.018463 0.954561 0.133082
O O11 0.500000 0.000000 0.000000
O O12 0.626791 0.855397 0.899793
O O13 0.246423 0.768267 0.117791
O O14 0.000000 0.000000 0.000000
O O15 0.500000 0.500000 0.500000
O O16 0.214920 0.724179 0.371359
O O17 0.000000 0.500000 0.000000
O O18 0.500000 0.000000 0.500000
O O19 0.073018 0.981227 0.672262
#
# Coordination Sequence:
#
# PCOD9028055 Si02
#       8
#     2   2   2   2   2   2   2   2
#     4  11  23  45  74  96 134 186 231 271 347 417
#     4  10  22  41  70  99 139 166 239 286 340 408
#     4  11  22  42  70  96 135 188 221 281 357 405
#     4  11  23  39  67 102 137 170 231 284 342 407
#     4  12  27  44  71 108 139 180 236 295 340 410
#     4  11  20  43  69  95 134 182 221 279 344 411
#     4  12  25  45  71  99 143 186 228 278 361 416
#     4  10  22  46  64  98 137 184 218 285 348 416
#
# _framework density 20.379840000000002
#
# number of rings (size 3 to 8) (size 9 to 14) (size 15 to 20)
#    0.000    1.000    6.250    3.750    1.750    1.500 
#    0.000    0.625    0.000    0.000    0.000    0.000 
#    0.000    0.000    0.000    0.000    0.000    0.000 
#
# Total GULP energy -89132.519231 kJ/mol
# GULP energy per Si atom -5570.782452 kJ/mol
# Density = 2.033345 g / cm^3
# Si number density = 20.379840 Si / 1000 Ang^3
#
#
#
# Elastic Constant Matrix: (Units=GPa)
#
#
# Indices 1 2 3 4 5 6 
#
# 1 133.9389 69.6710 38.0207 -13.1866 0.3033 1.4290
# 2 69.6710 130.4375 34.6976 -35.4424 -12.3395 -8.7060
# 3 38.0207 34.6976 107.1417 -20.4778 -9.3940 13.9265
# 4 -13.1866 -35.4424 -20.4778 35.4324 7.1662 5.2605
# 5 0.3033 -12.3395 -9.3940 7.1662 29.6554 0.0106
# 6 1.4290 -8.7060 13.9265 5.2605 0.0106 33.2077
#
#
#
# Elastic Compliance Matrix: (Units=1/GPa)
#
#
# Indices 1 2 3 4 5 6 
#
# 1 0.011314 -0.006502 -0.002701 -0.003184 -0.002907 -0.000554
# 2 -0.006502 0.014731 -0.000391 0.011020 0.003408 0.002559
# 3 -0.002701 -0.000391 0.012664 0.006388 0.002335 -0.006310
# 4 -0.003184 0.011020 0.006388 0.043507 -0.003870 -0.006543
# 5 -0.002907 0.003408 0.002335 -0.003870 0.036843 0.000640
# 6 -0.000554 0.002559 -0.006310 -0.006543 0.000640 0.034491
#
#
# Mechanical properties :
#
#
# Convention : Reuss Voigt Hill
#
# Bulk Modulus (GPa) = 51.22345 72.92185 62.07265
# Shear Modulus (GPa) = 27.89503 34.93437 31.41470
#
# Velocity S-wave (km/s) = 3.70368 4.14474 3.93040
# Velocity P-wave (km/s) = 6.59383 7.66578 7.14992
#
# Compressibility (1/GPa) = 0.01952231
#
# Stress axis : x y z
#
# Youngs Moduli (GPa) = 88.38803 67.88482 78.96297
#
# Poissons Ratio (x) = 0.44136 0.21326
# Poissons Ratio (y) = 0.57467 0.03086
# Poissons Ratio (z) = 0.23871 0.02653
#
# Static dielectric constant tensor:
#      x y z
#    x 1.958010 -0.006310 -0.002970 
#    y -0.006310 1.837350 0.091520 
#    z -0.002970 0.091520 1.878330 
# 
# From -- ./inp_files/587426.got.cif
#   From: 2010.05.17/outbox.cif.g08.bks.cpg/sg2_294_cif.got.tgz:587426.got - 2010.06.03 11:33:40.
