data_PCOD9028513
_publ_section_title
;
Structure prediction by ZEFSAII (Michael W. Deem and Ramdas Pophale) SiO2 
 PCOD9028513
Probable space group: P -1
;
_chemical_formula_sum "Si O2"
_cell_formula_units_Z 16
_cell_length_a 13.419795
_cell_length_b 26.036082
_cell_length_c 5.339116
_cell_angle_alpha 105.418818
_cell_angle_beta 65.181652
_cell_angle_gamma 154.108087
_cell_volume 709.384230
_symmetry_space_group_name_H-M "P -1"
_symmetry_group_IT_number 2
_symmetry_cell_setting 'triclinic'
loop_
_space_group_symop_operation_xyz
x,y,z
-x,-y,-z
loop_
_atom_site_type_symbol
_atom_site_label
_atom_site_fract_x
_atom_site_fract_y
_atom_site_fract_z
Si Si1 0.067284 0.416282 0.974050
Si Si2 0.597755 0.241328 0.578520
Si Si3 0.496276 0.532194 0.799280
Si Si4 0.166357 0.567085 0.156120
Si Si5 0.097007 0.071464 0.734385
Si Si6 0.295538 0.805209 0.268520
Si Si7 0.176134 0.937130 0.106137
Si Si8 0.052656 0.816913 0.585440
O O1 0.834764 0.336055 0.272995
O O2 0.268465 0.552888 0.968647
O O3 0.937123 0.334376 0.759020
O O4 0.220188 0.437085 0.969110
O O5 0.647344 0.302238 0.840992
O O6 0.391103 0.185192 0.578874
O O7 0.563942 0.166997 0.624495
O O8 0.500000 0.500000 0.500000
O O9 0.748601 0.677930 0.731520
O O10 0.500000 0.500000 0.000000
O O11 0.000000 0.500000 0.500000
O O12 0.000000 0.500000 0.000000
O O13 0.004221 0.091567 0.816762
O O14 0.000000 0.000000 0.500000
O O15 0.000000 0.000000 0.000000
O O16 0.177332 0.812014 0.441908
O O17 0.533336 0.916433 0.976107
O O18 0.109264 0.875801 0.350558
O O19 0.155264 0.889704 0.823654
#
# Coordination Sequence:
#
# PCOD9028513 Si02
#       8
#     2   2   2   2   2   2   2   2
#     4  11  25  44  74 106 145 189 245 305 373 441
#     4  11  25  44  75 109 147 193 250 310 377 447
#     4  12  26  49  75 105 145 193 252 299 369 445
#     4  10  22  42  63 104 139 174 233 298 365 424
#     4  12  26  49  75 106 147 198 254 301 371 447
#     4  12  24  45  78 104 146 197 249 303 369 451
#     4  12  28  49  72 109 153 193 248 304 368 435
#     4  12  28  49  72 112 148 196 245 306 370 432
#
# _framework density 22.554773999999998
#
# number of rings (size 3 to 8) (size 9 to 14) (size 15 to 20)
#    0.000    0.500    3.750    3.750    5.250    0.000 
#    4.500    0.000    0.000    0.000    0.000    0.000 
#    0.000    0.000    0.000    0.000    0.000    0.000 
#
# Total GULP energy -89188.466467 kJ/mol
# GULP energy per Si atom -5574.279154 kJ/mol
# Density = 2.250344 g / cm^3
# Si number density = 22.554774 Si / 1000 Ang^3
#
#
#
# Elastic Constant Matrix: (Units=GPa)
#
#
# Indices 1 2 3 4 5 6 
#
# 1 158.3865 38.1854 65.5943 19.8688 -20.5401 2.3215
# 2 38.1854 68.4781 30.6346 14.0855 -6.4226 12.9215
# 3 65.5943 30.6346 101.3336 22.2718 3.1662 -0.9360
# 4 19.8688 14.0855 22.2718 47.2656 4.0409 -0.7227
# 5 -20.5401 -6.4226 3.1662 4.0409 57.9555 -7.6059
# 6 2.3215 12.9215 -0.9360 -0.7227 -7.6059 43.8164
#
#
#
# Elastic Compliance Matrix: (Units=1/GPa)
#
#
# Indices 1 2 3 4 5 6 
#
# 1 0.009782 -0.002610 -0.005412 -0.001085 0.003648 0.000751
# 2 -0.002610 0.019446 -0.003570 -0.003179 0.000916 -0.005566
# 3 -0.005412 -0.003570 0.015347 -0.003640 -0.002750 0.001130
# 4 -0.001085 -0.003179 -0.003640 0.024471 -0.002119 0.000953
# 5 0.003648 0.000916 -0.002750 -0.002119 0.019314 0.002795
# 6 0.000751 -0.005566 0.001130 0.000953 0.002795 0.024949
#
#
# Mechanical properties :
#
#
# Convention : Reuss Voigt Hill
#
# Bulk Modulus (GPa) = 46.74944 66.33631 56.54287
# Shear Modulus (GPa) = 34.81275 42.72643 38.76959
#
# Velocity S-wave (km/s) = 3.93297 4.35712 4.15047
# Velocity P-wave (km/s) = 6.43401 7.40188 6.93485
#
# Compressibility (1/GPa) = 0.02139063
#
# Stress axis : x y z
#
# Youngs Moduli (GPa) = 102.22574 51.42379 65.15805
#
# Poissons Ratio (x) = 0.13424 0.35261
# Poissons Ratio (y) = 0.26686 0.23264
# Poissons Ratio (z) = 0.55321 0.18361
#
# Static dielectric constant tensor:
#      x y z
#    x 2.040840 -0.122680 -0.073750 
#    y -0.122680 2.004370 -0.018740 
#    z -0.073750 -0.018740 1.840920 
# 
# From -- ./inp_files/84426.got.cif
#   From: 2010.05.17/outbox.cif.g08.bks.cpg/sg2_43_cif.got.tgz:84426.got - 2010.06.03 11:33:40.
