data_PCOD9028359
_publ_section_title
;
Structure prediction by ZEFSAII (Michael W. Deem and Ramdas Pophale) SiO2 
 PCOD9028359
Probable space group: P -1
;
_chemical_formula_sum "Si O2"
_cell_formula_units_Z 16
_cell_length_a 11.830670
_cell_length_b 9.194863
_cell_length_c 21.204427
_cell_angle_alpha 136.960972
_cell_angle_beta 144.176426
_cell_angle_gamma 38.564550
_cell_volume 811.398866
_symmetry_space_group_name_H-M "P -1"
_symmetry_group_IT_number 2
_symmetry_cell_setting 'triclinic'
loop_
_space_group_symop_operation_xyz
x,y,z
-x,-y,-z
loop_
_atom_site_type_symbol
_atom_site_label
_atom_site_fract_x
_atom_site_fract_y
_atom_site_fract_z
Si Si1 0.029569 0.985405 0.763891
Si Si2 0.550396 0.893388 0.347278
Si Si3 0.376652 0.969270 0.995370
Si Si4 0.351121 0.859195 0.752648
Si Si5 0.488910 0.691054 0.375278
Si Si6 0.155603 0.200709 0.660614
Si Si7 0.343287 0.422954 0.442653
Si Si8 0.346211 0.512968 0.818845
O O1 0.157483 0.975324 0.754036
O O2 0.131700 0.703812 0.742278
O O3 0.771734 0.133029 0.687888
O O4 0.124332 0.087132 0.895298
O O5 0.591947 0.809740 0.411688
O O6 0.497339 0.700662 0.225413
O O7 0.761779 0.865162 0.395014
O O8 0.369297 0.170415 0.346913
O O9 0.457982 0.073155 0.121302
O O10 0.562687 0.312925 0.058918
O O11 0.500000 0.000000 0.000000
O O12 0.450959 0.572801 0.707563
O O13 0.253369 0.969106 0.675577
O O14 0.578730 0.644584 0.471646
O O15 0.100940 0.641117 0.399803
O O16 0.263305 0.373033 0.783706
O O17 0.500000 0.500000 0.500000
#
# Coordination Sequence:
#
# PCOD9028359 Si02
#       8
#     2   2   2   2   2   2   2   2
#     4   9  19  38  59  89 119 148 197 247 284 340
#     4  10  22  42  60  84 117 157 198 246 290 348
#     4   8  16  35  64  89 116 153 195 240 295 341
#     4  11  20  37  62  90 120 159 192 241 298 349
#     4  12  23  37  65  88 118 156 203 240 294 352
#     4  10  23  40  60  83 127 155 194 241 299 345
#     4  12  26  41  60  89 118 157 199 247 296 351
#     4   8  18  40  59  85 121 151 190 245 288 345
#
# _framework density 19.719031000000001
#
# number of rings (size 3 to 8) (size 9 to 14) (size 15 to 20)
#    1.500    0.500    1.250    2.625    0.000    4.500 
#    0.000    0.000    0.000    1.500    0.000    0.000 
#    0.000    0.000    0.000    0.000    0.000    0.000 
#
# Total GULP energy -89086.440344 kJ/mol
# GULP energy per Si atom -5567.902522 kJ/mol
# Density = 1.967415 g / cm^3
# Si number density = 19.719031 Si / 1000 Ang^3
#
#
#
# Elastic Constant Matrix: (Units=GPa)
#
#
# Indices 1 2 3 4 5 6 
#
# 1 91.3118 25.2302 17.9368 -0.8853 0.1278 5.0537
# 2 25.2302 77.3258 39.4190 4.7963 -1.6354 3.5764
# 3 17.9368 39.4190 61.1896 10.7831 -4.1456 -7.3933
# 4 -0.8853 4.7963 10.7831 22.8764 4.0724 5.9310
# 5 0.1278 -1.6354 -4.1456 4.0724 14.9917 3.8900
# 6 5.0537 3.5764 -7.3933 5.9310 3.8900 31.8157
#
#
#
# Elastic Compliance Matrix: (Units=1/GPa)
#
#
# Indices 1 2 3 4 5 6 
#
# 1 0.012465 -0.002655 -0.002989 0.003438 -0.001418 -0.002843
# 2 -0.002655 0.021082 -0.014285 0.003939 -0.001178 -0.005858
# 3 -0.002989 -0.014285 0.031249 -0.016320 0.008601 0.011333
# 4 0.003438 0.003939 -0.016320 0.057070 -0.016126 -0.013448
# 5 -0.001418 -0.001178 0.008601 -0.016126 0.074312 -0.003724
# 6 -0.002843 -0.005858 0.011333 -0.013448 -0.003724 0.038137
#
#
# Mechanical properties :
#
#
# Convention : Reuss Voigt Hill
#
# Bulk Modulus (GPa) = 40.09827 43.88879 41.99353
# Shear Modulus (GPa) = 17.69995 23.75285 20.72640
#
# Velocity S-wave (km/s) = 2.99926 3.47445 3.24556
# Velocity P-wave (km/s) = 5.68973 6.19686 5.94870
#
# Compressibility (1/GPa) = 0.02493873
#
# Stress axis : x y z
#
# Youngs Moduli (GPa) = 80.22504 47.43279 32.00085
#
# Poissons Ratio (x) = 0.12594 0.09565
# Poissons Ratio (y) = 0.21301 0.45713
# Poissons Ratio (z) = 0.23978 0.67757
#
# Static dielectric constant tensor:
#      x y z
#    x 1.707280 0.011700 -0.012710 
#    y 0.011700 1.672460 0.028700 
#    z -0.012710 0.028700 1.744160 
# 
# From -- ./inp_files/609696.got.cif
#   From: 2010.05.17/outbox.cif.g08.bks.cpg/sg2_305_cif.got.tgz:609696.got - 2010.06.03 11:33:40.
