data_PCOD9028898
_publ_section_title
;
Structure prediction by ZEFSAII (Michael W. Deem and Ramdas Pophale) SiO2 
 PCOD9028898
Probable space group: P -1
;
_chemical_formula_sum "Si O2"
_cell_formula_units_Z 12
_cell_length_a 8.582965
_cell_length_b 13.504685
_cell_length_c 9.444364
_cell_angle_alpha 147.735648
_cell_angle_beta 98.842740
_cell_angle_gamma 67.569289
_cell_volume 507.525503
_symmetry_space_group_name_H-M "P -1"
_symmetry_group_IT_number 2
_symmetry_cell_setting 'triclinic'
loop_
_space_group_symop_operation_xyz
x,y,z
-x,-y,-z
loop_
_atom_site_type_symbol
_atom_site_label
_atom_site_fract_x
_atom_site_fract_y
_atom_site_fract_z
Si Si1 0.900182 0.647456 0.531436
Si Si2 0.853823 0.963190 0.137021
Si Si3 0.868466 0.227918 0.821414
Si Si4 0.463202 0.075086 0.245565
Si Si5 0.168574 0.592591 0.264778
Si Si6 0.537166 0.168448 0.797745
O O1 0.701682 0.688437 0.505710
O O2 0.000000 0.500000 0.500000
O O3 0.021216 0.581835 0.330587
O O4 0.865849 0.870093 0.868928
O O5 0.664966 0.012207 0.245241
O O6 0.838451 0.192805 0.419040
O O7 0.024824 0.792479 0.043213
O O8 0.858382 0.379480 0.874668
O O9 0.680686 0.229603 0.825802
O O10 0.000000 0.000000 0.500000
O O11 0.395739 0.950822 0.188032
O O12 0.500000 0.000000 0.000000
O O13 0.355265 0.382993 0.057142
O O14 0.500000 0.000000 0.500000
#
# Coordination Sequence:
#
# PCOD9028898 Si02
#       6
#     2   2   2   2   2   2
#     4  11  24  43  67  96 127 166 211 260 318 377
#     4  10  22  43  66  95 130 166 209 260 313 376
#     4  10  22  42  65  94 127 168 212 260 316 374
#     4  10  22  43  66  94 129 167 210 261 314 375
#     4  11  23  42  66  95 127 167 212 259 317 376
#     4  12  25  43  65  94 130 168 212 264 315 374
#
# _framework density 23.644131000000002
#
# number of rings (size 3 to 8) (size 9 to 14) (size 15 to 20)
#    0.000    1.333    0.000    7.000    0.000    4.000 
#    0.000   15.833    0.000    0.000    0.000    0.000 
#    0.000    0.000    0.000    0.000    0.000    0.000 
#
# Total GULP energy -66988.060347 kJ/mol
# GULP energy per Si atom -5582.338362 kJ/mol
# Density = 2.359032 g / cm^3
# Si number density = 23.644131 Si / 1000 Ang^3
#
#
#
# Elastic Constant Matrix: (Units=GPa)
#
#
# Indices 1 2 3 4 5 6 
#
# 1 151.4673 56.8352 55.9539 -7.4180 -42.0896 3.8800
# 2 56.8352 159.9624 43.6178 -1.4947 -10.8484 -1.9413
# 3 55.9539 43.6178 107.8886 -3.9036 -8.8771 -4.1956
# 4 -7.4180 -1.4947 -3.9036 50.3912 -7.8328 -10.3767
# 5 -42.0896 -10.8484 -8.8771 -7.8328 53.7582 1.3363
# 6 3.8800 -1.9413 -4.1956 -10.3767 1.3363 43.2966
#
#
#
# Elastic Compliance Matrix: (Units=1/GPa)
#
#
# Indices 1 2 3 4 5 6 
#
# 1 0.011490 -0.002348 -0.004302 0.002302 0.008178 -0.001253
# 2 -0.002348 0.007557 -0.001892 -0.000309 -0.000679 0.000313
# 3 -0.004302 -0.001892 0.012197 0.000319 -0.001730 0.001612
# 4 0.002302 -0.000309 0.000319 0.021971 0.004871 0.004926
# 5 0.008178 -0.000679 -0.001730 0.004871 0.025305 -0.000545
# 6 -0.001253 0.000313 0.001612 0.004926 -0.000545 0.024576
#
#
# Mechanical properties :
#
#
# Convention : Reuss Voigt Hill
#
# Bulk Modulus (GPa) = 70.62946 81.34801 75.98874
# Shear Modulus (GPa) = 40.03202 47.01664 43.52433
#
# Velocity S-wave (km/s) = 4.11920 4.46411 4.29512
# Velocity P-wave (km/s) = 7.24986 7.81351 7.53696
#
# Compressibility (1/GPa) = 0.01415840
#
# Stress axis : x y z
#
# Youngs Moduli (GPa) = 87.03345 132.33435 81.98882
#
# Poissons Ratio (x) = 0.31077 0.35272
# Poissons Ratio (y) = 0.20439 0.15512
# Poissons Ratio (z) = 0.37442 0.25037
#
# Static dielectric constant tensor:
#      x y z
#    x 2.035850 -0.120600 0.098970 
#    y -0.120600 1.856820 -0.013280 
#    z 0.098970 -0.013280 1.968550 
# 
# From -- ./inp_files/191094.got.cif
#   From: 2010.05.17/outbox.cif.g08.bks.cpg/sg2_96_cif.got.tgz:191094.got - 2010.06.03 11:33:40.
