data_PCOD9028229
_publ_section_title
;
Structure prediction by ZEFSAII (Michael W. Deem and Ramdas Pophale) SiO2 
 PCOD9028229
Probable space group: P -1
;
_chemical_formula_sum "Si O2"
_cell_formula_units_Z 15
_cell_length_a 8.091350
_cell_length_b 18.306539
_cell_length_c 14.515087
_cell_angle_alpha 159.643248
_cell_angle_beta 70.935411
_cell_angle_gamma 111.495595
_cell_volume 694.951431
_symmetry_space_group_name_H-M "P -1"
_symmetry_group_IT_number 2
_symmetry_cell_setting 'triclinic'
loop_
_space_group_symop_operation_xyz
x,y,z
-x,-y,-z
loop_
_atom_site_type_symbol
_atom_site_label
_atom_site_fract_x
_atom_site_fract_y
_atom_site_fract_z
Si Si1 0.281742 0.283831 0.045340
Si Si2 0.131582 0.188000 0.649078
Si Si3 0.505490 0.052128 0.451906
Si Si4 0.193446 0.567863 0.228100
Si Si5 0.304211 0.915583 0.972686
Si Si6 0.187186 0.456426 0.451506
Si Si7 0.045392 0.120939 0.376272
Si Si8 0.000000 0.000000 0.000000
O O1 0.441673 0.156149 0.850456
O O2 0.261386 0.437621 0.145169
O O3 0.297152 0.408785 0.285308
O O4 0.101761 0.098752 0.864381
O O5 0.322924 0.119421 0.536105
O O6 0.070844 0.196433 0.565452
O O7 0.132824 0.398804 0.958152
O O8 0.000000 0.000000 0.500000
O O9 0.656953 0.250294 0.628801
O O10 0.500000 0.000000 0.500000
O O11 0.041391 0.696462 0.441742
O O12 0.284787 0.678426 0.739993
O O13 0.163281 0.897525 0.893197
O O14 0.500000 0.000000 0.000000
O O15 0.225248 0.068902 0.239745
O O16 0.000000 0.500000 0.500000
O O17 0.135896 0.236134 0.254366
#
# Coordination Sequence:
#
# PCOD9028229 Si02
#       8
#     2   2   2   2   2   2   2   1
#     4  11  22  43  70 101 129 180 233 276 346 413
#     4  12  23  44  66  98 138 177 218 287 345 410
#     4  11  24  43  67  99 135 175 233 274 334 423
#     4  11  24  43  71  92 137 184 219 282 344 411
#     4  11  26  46  68 105 142 180 242 294 346 427
#     4  10  22  41  72  98 135 178 231 283 346 421
#     4  11  24  42  66 103 136 177 232 281 348 417
#     4  10  22  44  74  92 136 188 220 288 362 392
#
# _framework density 21.584243000000001
#
# number of rings (size 3 to 8) (size 9 to 14) (size 15 to 20)
#    0.000    1.067    5.333    1.600    3.733    2.667 
#    2.400    0.000    0.000    0.000    0.000    0.000 
#    0.000    0.000    0.000    0.000    0.000    0.000 
#
# Total GULP energy -83551.932316 kJ/mol
# GULP energy per Si atom -5570.128821 kJ/mol
# Density = 2.153512 g / cm^3
# Si number density = 21.584243 Si / 1000 Ang^3
#
#
#
# Elastic Constant Matrix: (Units=GPa)
#
#
# Indices 1 2 3 4 5 6 
#
# 1 42.2665 25.5527 21.0383 9.4311 -0.2982 6.9550
# 2 25.5527 60.5489 67.4630 -2.9665 -10.6019 21.8626
# 3 21.0383 67.4630 153.1991 19.4956 -19.6015 11.8787
# 4 9.4311 -2.9665 19.4956 47.3176 -2.3087 -1.5216
# 5 -0.2982 -10.6019 -19.6015 -2.3087 20.1806 -1.9285
# 6 6.9550 21.8626 11.8787 -1.5216 -1.9285 31.3174
#
#
#
# Elastic Compliance Matrix: (Units=1/GPa)
#
#
# Indices 1 2 3 4 5 6 
#
# 1 0.040089 -0.031510 0.008313 -0.013529 -0.008598 0.008754
# 2 -0.031510 0.076374 -0.027980 0.022081 0.011766 -0.033909
# 3 0.008313 -0.027980 0.018689 -0.010617 0.003344 0.010288
# 4 -0.013529 0.022081 -0.010617 0.029560 0.003828 -0.006711
# 5 -0.008598 0.011766 0.003344 0.003828 0.058934 -0.003758
# 6 0.008754 -0.033909 0.010288 -0.006711 -0.003758 0.049199
#
#
# Mechanical properties :
#
#
# Convention : Reuss Voigt Hill
#
# Bulk Modulus (GPa) = 30.49000 53.79138 42.14069
# Shear Modulus (GPa) = 12.94900 29.22716 21.08808
#
# Velocity S-wave (km/s) = 2.45200 3.68380 3.12911
# Velocity P-wave (km/s) = 4.70883 6.56274 5.71151
#
# Compressibility (1/GPa) = 0.03279763
#
# Stress axis : x y z
#
# Youngs Moduli (GPa) = 24.94475 13.09342 53.50870
#
# Poissons Ratio (x) = 0.41257 -0.44483
# Poissons Ratio (y) = 0.78600 1.49720
# Poissons Ratio (z) = -0.20737 0.36636
#
# Static dielectric constant tensor:
#      x y z
#    x 1.700440 -0.127080 0.060970 
#    y -0.127080 1.646490 0.073200 
#    z 0.060970 0.073200 1.760600 
# 
# From -- ./inp_files/507120.got.cif
#   From: 2010.05.17/outbox.cif.g08.bks.cpg/sg2_254_cif.got.tgz:507120.got - 2010.06.03 11:33:40.
