data_PCOD9028799
_publ_section_title
;
Structure prediction by ZEFSAII (Michael W. Deem and Ramdas Pophale) SiO2 
 PCOD9028799
Probable space group: P -1
;
_chemical_formula_sum "Si O2"
_cell_formula_units_Z 14
_cell_length_a 8.751039
_cell_length_b 17.207307
_cell_length_c 11.748806
_cell_angle_alpha 148.811068
_cell_angle_beta 127.880425
_cell_angle_gamma 39.217203
_cell_volume 572.805745
_symmetry_space_group_name_H-M "P -1"
_symmetry_group_IT_number 2
_symmetry_cell_setting 'triclinic'
loop_
_space_group_symop_operation_xyz
x,y,z
-x,-y,-z
loop_
_atom_site_type_symbol
_atom_site_label
_atom_site_fract_x
_atom_site_fract_y
_atom_site_fract_z
Si Si1 0.938146 0.802526 0.676402
Si Si2 0.643278 0.364176 0.504238
Si Si3 0.295256 0.861479 0.562115
Si Si4 0.276003 0.695038 0.902848
Si Si5 0.504125 0.878164 0.250276
Si Si6 0.775719 0.552870 0.269523
Si Si7 0.972556 0.746288 0.177921
O O1 0.935562 0.623106 0.459719
O O2 0.084367 0.765451 0.580666
O O3 0.078970 0.806967 0.852683
O O4 0.666534 0.990573 0.769300
O O5 0.500000 0.500000 0.500000
O O6 0.598429 0.224806 0.371109
O O7 0.533437 0.526165 0.751515
O O8 0.500724 0.736465 0.402724
O O9 0.103184 0.816383 0.397450
O O10 0.175493 0.079787 0.763303
O O11 0.185740 0.603808 0.824709
O O12 0.357344 0.805462 0.140619
O O13 0.778226 0.743880 0.159311
O O14 0.500000 0.000000 0.500000
O O15 0.843221 0.452654 0.052242
#
# Coordination Sequence:
#
# PCOD9028799 Si02
#       7
#     2   2   2   2   2   2   2
#     4  11  22  43  68  97 140 177 226 281 340 406
#     4   9  20  40  68  92 131 178 232 274 336 401
#     4  10  22  42  65 101 141 181 222 288 339 408
#     4  10  24  43  68  97 136 180 227 279 344 403
#     4  12  26  43  66 101 139 177 231 282 337 411
#     4  11  23  42  71 100 133 180 228 280 340 407
#     4  11  24  41  67 101 142 177 229 277 352 407
#
# _framework density 24.441096000000002
#
# number of rings (size 3 to 8) (size 9 to 14) (size 15 to 20)
#    0.000    1.429    1.429    3.000    6.000    2.286 
#    0.000    5.714    0.000    0.000    0.000    0.000 
#    0.000    0.000    0.000    0.000    0.000    0.000 
#
# Total GULP energy -78203.331417 kJ/mol
# GULP energy per Si atom -5585.952244 kJ/mol
# Density = 2.438547 g / cm^3
# Si number density = 24.441096 Si / 1000 Ang^3
#
#
#
# Elastic Constant Matrix: (Units=GPa)
#
#
# Indices 1 2 3 4 5 6 
#
# 1 115.8539 17.1986 32.4842 -4.6749 -12.1452 -5.9280
# 2 17.1986 83.1949 11.3203 8.1664 -3.8965 5.5676
# 3 32.4842 11.3203 72.9297 -7.0069 5.6344 -0.8700
# 4 -4.6749 8.1664 -7.0069 28.6862 -4.6603 -1.9988
# 5 -12.1452 -3.8965 5.6344 -4.6603 38.6471 10.5936
# 6 -5.9280 5.5676 -0.8700 -1.9988 10.5936 38.7555
#
#
#
# Elastic Compliance Matrix: (Units=1/GPa)
#
#
# Indices 1 2 3 4 5 6 
#
# 1 0.010687 -0.001625 -0.004628 0.001757 0.003862 0.000799
# 2 -0.001625 0.013307 -0.001911 -0.004498 0.001335 -0.002800
# 3 -0.004628 -0.001911 0.016712 0.003304 -0.004017 0.001210
# 4 0.001757 -0.004498 0.003304 0.037964 0.003661 0.001946
# 5 0.003862 0.001335 -0.004017 0.003661 0.030391 -0.007810
# 6 0.000799 -0.002800 0.001210 0.001946 -0.007810 0.028590
#
#
# Mechanical properties :
#
#
# Convention : Reuss Voigt Hill
#
# Bulk Modulus (GPa) = 41.01781 43.77606 42.39693
# Shear Modulus (GPa) = 30.84431 35.28277 33.06354
#
# Velocity S-wave (km/s) = 3.55630 3.80357 3.68201
# Velocity P-wave (km/s) = 5.80360 6.10240 5.95487
#
# Compressibility (1/GPa) = 0.02437965
#
# Stress axis : x y z
#
# Youngs Moduli (GPa) = 93.57100 75.14724 59.83717
#
# Poissons Ratio (x) = 0.12208 0.27693
# Poissons Ratio (y) = 0.15201 0.11433
# Poissons Ratio (z) = 0.43306 0.14358
#
# Static dielectric constant tensor:
#      x y z
#    x 1.940200 0.055260 0.009120 
#    y 0.055260 2.064770 0.041960 
#    z 0.009120 0.041960 1.948030 
# 
# From -- ./inp_files/214171.got.cif
#   From: 2010.05.17/outbox.cif.g08.bks.cpg/sg2_108_cif.got.tgz:214171.got - 2010.06.03 11:33:40.
