data_PCOD9028598
_publ_section_title
;
Structure prediction by ZEFSAII (Michael W. Deem and Ramdas Pophale) SiO2 
 PCOD9028598
Probable space group: P -1
;
_chemical_formula_sum "Si O2"
_cell_formula_units_Z 16
_cell_length_a 9.782273
_cell_length_b 11.451087
_cell_length_c 18.087966
_cell_angle_alpha 29.930672
_cell_angle_beta 136.852203
_cell_angle_gamma 124.290851
_cell_volume 677.141594
_symmetry_space_group_name_H-M "P -1"
_symmetry_group_IT_number 2
_symmetry_cell_setting 'triclinic'
loop_
_space_group_symop_operation_xyz
x,y,z
-x,-y,-z
loop_
_atom_site_type_symbol
_atom_site_label
_atom_site_fract_x
_atom_site_fract_y
_atom_site_fract_z
Si Si1 0.055486 0.386026 0.362352
Si Si2 0.734033 0.144355 0.446600
Si Si3 0.088445 0.416102 0.191836
Si Si4 0.566005 0.020501 0.098634
Si Si5 0.997470 0.221124 0.641300
Si Si6 0.083537 0.872684 0.179075
Si Si7 0.502456 0.780278 0.346143
Si Si8 0.664624 0.504810 0.888208
O O1 0.055524 0.490795 0.222573
O O2 0.069075 0.597351 0.308672
O O3 0.270227 0.195450 0.556628
O O4 0.862198 0.276409 0.367822
O O5 0.805355 0.199106 0.527537
O O6 0.493606 0.251408 0.290766
O O7 0.812870 0.865441 0.617028
O O8 0.246432 0.522132 0.145497
O O9 0.867107 0.468836 0.037235
O O10 0.456157 0.880652 0.190539
O O11 0.542340 0.292167 0.966223
O O12 0.804851 0.901060 0.259654
O O13 0.500000 0.000000 0.000000
O O14 0.006655 0.083979 0.798488
O O15 0.000000 0.500000 0.500000
O O16 0.319366 0.897476 0.262293
O O17 0.000000 0.000000 0.000000
O O18 0.500000 0.500000 0.500000
#
# Coordination Sequence:
#
# PCOD9028598 Si02
#       8
#     2   2   2   2   2   2   2   2
#     4  11  24  44  69  97 138 186 233 282 349 419
#     4  12  24  47  73 101 136 187 239 286 357 416
#     4  11  26  49  70 100 144 184 240 289 344 425
#     4  12  24  41  71 103 143 182 228 296 353 413
#     4  12  22  42  69 101 142 179 230 286 349 422
#     4  11  25  39  64 107 143 178 228 289 350 416
#     4  10  22  42  63  98 140 182 230 278 355 415
#     4  11  27  45  72 105 137 184 240 290 351 418
#
# _framework density 23.628736
#
# number of rings (size 3 to 8) (size 9 to 14) (size 15 to 20)
#    0.000    0.750    3.750    3.000    8.750    0.500 
#    2.250    0.000    0.000    0.000    0.000    0.000 
#    0.000    0.000    0.000    0.000    0.000    0.000 
#
# Total GULP energy -89530.911097 kJ/mol
# GULP energy per Si atom -5595.681944 kJ/mol
# Density = 2.357496 g / cm^3
# Si number density = 23.628736 Si / 1000 Ang^3
#
#
#
# Elastic Constant Matrix: (Units=GPa)
#
#
# Indices 1 2 3 4 5 6 
#
# 1 139.0938 19.7165 37.3203 13.3296 -18.7880 0.6538
# 2 19.7165 42.6301 15.6869 1.7690 -0.6644 -8.0135
# 3 37.3203 15.6869 91.0761 7.7833 3.2983 8.0928
# 4 13.3296 1.7690 7.7833 29.1316 -3.0039 -4.6657
# 5 -18.7880 -0.6644 3.2983 -3.0039 58.4654 5.6808
# 6 0.6538 -8.0135 8.0928 -4.6657 5.6808 27.5796
#
#
#
# Elastic Compliance Matrix: (Units=1/GPa)
#
#
# Indices 1 2 3 4 5 6 
#
# 1 0.009149 -0.003264 -0.002898 -0.003135 0.003048 -0.001473
# 2 -0.003264 0.028523 -0.004672 0.002544 -0.001345 0.010443
# 3 -0.002898 -0.004672 0.013783 -0.003108 -0.001380 -0.005575
# 4 -0.003135 0.002544 -0.003108 0.037762 0.000356 0.008040
# 5 0.003048 -0.001345 -0.001380 0.000356 0.018535 -0.003816
# 6 -0.001473 0.010443 -0.005575 0.008040 -0.003816 0.043110
#
#
# Mechanical properties :
#
#
# Convention : Reuss Voigt Hill
#
# Bulk Modulus (GPa) = 33.57246 46.47192 40.02219
# Shear Modulus (GPa) = 27.40336 36.37375 31.88855
#
# Velocity S-wave (km/s) = 3.40920 3.92776 3.67763
# Velocity P-wave (km/s) = 5.45308 6.34665 5.91675
#
# Compressibility (1/GPa) = 0.02978632
#
# Stress axis : x y z
#
# Youngs Moduli (GPa) = 109.30303 35.05948 72.55292
#
# Poissons Ratio (x) = 0.11444 0.21028
# Poissons Ratio (y) = 0.35678 0.33895
# Poissons Ratio (z) = 0.31679 0.16379
#
# Static dielectric constant tensor:
#      x y z
#    x 1.815180 -0.013560 0.018520 
#    y -0.013560 1.846540 0.019310 
#    z 0.018520 0.019310 1.956600 
# 
# From -- ./inp_files/186502.got.cif
#   From: 2010.05.17/outbox.cif.g08.bks.cpg/sg2_94_cif.got.tgz:186502.got - 2010.06.03 11:33:40.
