data_PCOD9028932
_publ_section_title
;
Structure prediction by ZEFSAII (Michael W. Deem and Ramdas Pophale) SiO2 
 PCOD9028932
Probable space group: P -1
;
_chemical_formula_sum "Si O2"
_cell_formula_units_Z 15
_cell_length_a 24.394020
_cell_length_b 8.310693
_cell_length_c 12.162193
_cell_angle_alpha 49.436834
_cell_angle_beta 27.899348
_cell_angle_gamma 33.687123
_cell_volume 604.562140
_symmetry_space_group_name_H-M "P -1"
_symmetry_group_IT_number 2
_symmetry_cell_setting 'triclinic'
loop_
_space_group_symop_operation_xyz
x,y,z
-x,-y,-z
loop_
_atom_site_type_symbol
_atom_site_label
_atom_site_fract_x
_atom_site_fract_y
_atom_site_fract_z
Si Si1 0.848267 0.011541 0.189508
Si Si2 0.051423 0.372581 0.216047
Si Si3 0.589300 0.509191 0.709436
Si Si4 0.400220 0.948193 0.056436
Si Si5 0.000000 0.500000 0.500000
Si Si6 0.678871 0.639575 0.279084
Si Si7 0.594234 0.032886 0.574414
Si Si8 0.097525 0.681280 0.687081
O O1 0.827840 0.273033 0.155000
O O2 0.659402 0.179156 0.420106
O O3 0.916290 0.740016 0.270178
O O4 0.965685 0.856663 0.942289
O O5 0.046011 0.339099 0.368729
O O6 0.000271 0.244899 0.284804
O O7 0.227622 0.257581 0.921346
O O8 0.565197 0.295978 0.816563
O O9 0.594144 0.656817 0.530822
O O10 0.777557 0.282500 0.533543
O O11 0.456828 0.765161 0.920586
O O12 0.205977 0.270090 0.259076
O O13 0.524481 0.987224 0.821126
O O14 0.551832 0.789780 0.335898
O O15 0.764684 0.689214 0.383021
#
# Coordination Sequence:
#
# PCOD9028932 Si02
#       8
#     2   2   2   2   1   2   2   2
#     4  11  23  41  68 106 133 172 221 285 332 396
#     4  11  23  41  68 100 132 182 219 274 340 399
#     4  10  23  42  67  96 140 170 229 265 342 399
#     4  10  23  42  63  94 132 185 207 279 326 406
#     4  12  24  42  66  94 136 170 238 262 330 402
#     4  12  23  40  72 103 131 175 228 282 329 388
#     4  10  22  42  65  95 136 170 223 270 335 392
#     4  10  23  42  68 100 136 174 223 275 337 402
#
# _framework density 24.811346
#
# number of rings (size 3 to 8) (size 9 to 14) (size 15 to 20)
#    0.000    1.333    2.667    3.200    3.733    4.267 
#    0.000   12.667    0.000    0.000    0.000    0.933 
#    0.000    0.000    0.000    0.000    0.000    0.000 
#
# Total GULP energy -83627.022680 kJ/mol
# GULP energy per Si atom -5575.134845 kJ/mol
# Density = 2.475487 g / cm^3
# Si number density = 24.811346 Si / 1000 Ang^3
#
#
#
# Elastic Constant Matrix: (Units=GPa)
#
#
# Indices 1 2 3 4 5 6 
#
# 1 76.9336 0.2292 10.1259 -19.8543 -4.5368 -0.0788
# 2 0.2292 40.1185 26.8452 -3.3304 -6.9131 6.9498
# 3 10.1259 26.8452 153.8526 0.7475 -5.7847 9.3138
# 4 -19.8543 -3.3304 0.7475 35.8099 0.9297 -4.3625
# 5 -4.5368 -6.9131 -5.7847 0.9297 44.2262 2.4785
# 6 -0.0788 6.9498 9.3138 -4.3625 2.4785 29.8228
#
#
#
# Elastic Compliance Matrix: (Units=1/GPa)
#
#
# Indices 1 2 3 4 5 6 
#
# 1 0.015561 0.001588 -0.001370 0.008924 0.001406 0.001288
# 2 0.001588 0.030146 -0.004882 0.003008 0.004477 -0.005428
# 3 -0.001370 -0.004882 0.007546 -0.001555 0.000198 -0.001466
# 4 0.008924 0.003008 -0.001555 0.033756 0.000208 0.004729
# 5 0.001406 0.004477 0.000198 0.000208 0.023647 -0.003036
# 6 0.001288 -0.005428 -0.001466 0.004729 -0.003036 0.036202
#
#
# Mechanical properties :
#
#
# Convention : Reuss Voigt Hill
#
# Bulk Modulus (GPa) = 22.76675 38.36725 30.56700
# Shear Modulus (GPa) = 29.26948 37.55206 33.41077
#
# Velocity S-wave (km/s) = 3.43837 3.89460 3.67358
# Velocity P-wave (km/s) = 4.99591 5.97671 5.50818
#
# Compressibility (1/GPa) = 0.04392370
#
# Stress axis : x y z
#
# Youngs Moduli (GPa) = 64.26302 33.17241 132.52916
#
# Poissons Ratio (x) = -0.05266 0.18151
# Poissons Ratio (y) = -0.10202 0.64703
# Poissons Ratio (z) = 0.08802 0.16195
#
# Static dielectric constant tensor:
#      x y z
#    x 2.001660 -0.006650 -0.026880 
#    y -0.006650 2.026420 -0.021750 
#    z -0.026880 -0.021750 1.990090 
# 
# From -- ./inp_files/474150.got.cif
#   From: 2010.05.17/outbox.cif.g08.bks.cpg/sg2_238_cif.got.tgz:474150.got - 2010.06.03 11:33:40.
