data_PCOD9028697
_publ_section_title
;
Structure prediction by ZEFSAII (Michael W. Deem and Ramdas Pophale) SiO2 
 PCOD9028697
Probable space group: P -1
;
_chemical_formula_sum "Si O2"
_cell_formula_units_Z 16
_cell_length_a 9.018073
_cell_length_b 8.908151
_cell_length_c 14.086927
_cell_angle_alpha 116.476911
_cell_angle_beta 65.729580
_cell_angle_gamma 129.931741
_cell_volume 763.791503
_symmetry_space_group_name_H-M "P -1"
_symmetry_group_IT_number 2
_symmetry_cell_setting 'triclinic'
loop_
_space_group_symop_operation_xyz
x,y,z
-x,-y,-z
loop_
_atom_site_type_symbol
_atom_site_label
_atom_site_fract_x
_atom_site_fract_y
_atom_site_fract_z
Si Si1 0.849083 0.402425 0.725857
Si Si2 0.227422 0.980708 0.018752
Si Si3 0.187100 0.057270 0.666119
Si Si4 0.339152 0.830597 0.113495
Si Si5 0.565092 0.701572 0.485992
Si Si6 0.029346 0.855522 0.833894
Si Si7 0.173739 0.970710 0.335726
Si Si8 0.221080 0.699560 0.488291
O O1 0.745194 0.354805 0.842891
O O2 0.941198 0.267777 0.671421
O O3 0.718744 0.305182 0.638094
O O4 0.976544 0.642066 0.747635
O O5 0.107321 0.876657 0.925265
O O6 0.456204 0.108121 0.966289
O O7 0.204263 0.824440 0.061842
O O8 0.152923 0.120253 0.110513
O O9 0.186567 0.033328 0.772260
O O10 0.224844 0.897633 0.565326
O O11 0.339175 0.268425 0.634465
O O12 0.971551 0.994046 0.672850
O O13 0.345201 0.995974 0.229364
O O14 0.500000 0.500000 0.500000
O O15 0.372795 0.701286 0.519402
O O16 0.729593 0.884049 0.559788
O O17 0.000000 0.500000 0.500000
#
# Coordination Sequence:
#
# PCOD9028697 Si02
#       8
#     2   2   2   2   2   2   2   2
#     4  10  23  40  68  94 130 169 216 255 332 378
#     4  10  22  42  64  94 126 168 222 272 321 379
#     4  12  23  42  67  93 140 170 211 268 319 386
#     4   9  21  42  66  88 133 169 210 277 322 374
#     4  12  28  40  67  99 130 175 219 259 327 397
#     4  11  23  39  70  95 125 172 217 267 330 377
#     4  10  23  44  63  95 132 176 210 266 325 384
#     4  12  25  42  67 100 133 169 213 267 323 394
#
# _framework density 20.948125000000001
#
# number of rings (size 3 to 8) (size 9 to 14) (size 15 to 20)
#    0.750    0.500    3.750    1.500    5.250    1.000 
#    0.000    0.000    5.500    0.000    0.000    0.000 
#    0.000    0.000    0.000    0.000    0.000    0.000 
#
# Total GULP energy -89188.659482 kJ/mol
# GULP energy per Si atom -5574.291218 kJ/mol
# Density = 2.090045 g / cm^3
# Si number density = 20.948125 Si / 1000 Ang^3
#
#
#
# Elastic Constant Matrix: (Units=GPa)
#
#
# Indices 1 2 3 4 5 6 
#
# 1 96.0042 17.6707 21.2295 0.8901 -3.1456 -22.7658
# 2 17.6707 77.2268 28.9431 -14.5178 -9.7046 -23.3211
# 3 21.2295 28.9431 73.3841 -14.6185 3.9835 -18.3131
# 4 0.8901 -14.5178 -14.6185 38.6547 -6.1021 0.5806
# 5 -3.1456 -9.7046 3.9835 -6.1021 23.0377 -6.9219
# 6 -22.7658 -23.3211 -18.3131 0.5806 -6.9219 24.2907
#
#
#
# Elastic Compliance Matrix: (Units=1/GPa)
#
#
# Indices 1 2 3 4 5 6 
#
# 1 0.015319 0.005857 -0.001192 0.003004 0.012328 0.022523
# 2 0.005857 0.032876 -0.002224 0.015842 0.032530 0.044267
# 3 -0.001192 -0.002224 0.018784 0.006224 0.000584 0.010927
# 4 0.003004 0.015842 0.006224 0.037558 0.024619 0.028835
# 5 0.012328 0.032530 0.000584 0.024619 0.085330 0.066953
# 6 0.022523 0.044267 0.010927 0.028835 0.066953 0.131404
#
#
# Mechanical properties :
#
#
# Convention : Reuss Voigt Hill
#
# Bulk Modulus (GPa) = 13.91582 42.47797 28.19690
# Shear Modulus (GPa) = 14.69110 29.11475 21.90293
#
# Velocity S-wave (km/s) = 2.65110 3.73211 3.23705
# Velocity P-wave (km/s) = 4.00356 6.23645 5.24031
#
# Compressibility (1/GPa) = 0.07186065
#
# Stress axis : x y z
#
# Youngs Moduli (GPa) = 65.27987 30.41723 53.23751
#
# Poissons Ratio (x) = -0.17815 0.06345
# Poissons Ratio (y) = -0.38233 0.11840
# Poissons Ratio (z) = 0.07780 0.06765
#
# Static dielectric constant tensor:
#      x y z
#    x 1.735950 -0.013360 0.002980 
#    y -0.013360 1.782690 -0.063020 
#    z 0.002980 -0.063020 1.801310 
# 
# From -- ./inp_files/495575.got.cif
#   From: 2010.05.17/outbox.cif.g08.bks.cpg/sg2_248_cif.got.tgz:495575.got - 2010.06.03 11:33:40.
