data_PCOD9028924
_publ_section_title
;
Structure prediction by ZEFSAII (Michael W. Deem and Ramdas Pophale) SiO2 
 PCOD9028924
Probable space group: P -1
;
_chemical_formula_sum "Si O2"
_cell_formula_units_Z 13
_cell_length_a 8.904118
_cell_length_b 15.808508
_cell_length_c 16.024769
_cell_angle_alpha 18.779318
_cell_angle_beta 91.182338
_cell_angle_gamma 101.106500
_cell_volume 612.062190
_symmetry_space_group_name_H-M "P -1"
_symmetry_group_IT_number 2
_symmetry_cell_setting 'triclinic'
loop_
_space_group_symop_operation_xyz
x,y,z
-x,-y,-z
loop_
_atom_site_type_symbol
_atom_site_label
_atom_site_fract_x
_atom_site_fract_y
_atom_site_fract_z
Si Si1 0.869445 0.665698 0.129083
Si Si2 0.500000 0.000000 0.000000
Si Si3 0.898799 0.123950 0.559239
Si Si4 0.249489 0.991880 0.880720
Si Si5 0.526241 0.611767 0.238307
Si Si6 0.300356 0.625646 0.078419
Si Si7 0.542054 0.824847 0.733701
O O1 0.874357 0.841488 0.879344
O O2 0.872779 0.359160 0.396338
O O3 0.693227 0.586514 0.248096
O O4 0.048640 0.899873 0.962990
O O5 0.307686 0.862134 0.077543
O O6 0.421100 0.061663 0.027185
O O7 0.102039 0.328720 0.337887
O O8 0.746044 0.006448 0.598028
O O9 0.395475 0.359868 0.540543
O O10 0.275462 0.862352 0.913976
O O11 0.414440 0.543469 0.216635
O O12 0.415102 0.768908 0.863308
O O13 0.500000 0.000000 0.500000
O O14 0.500000 0.500000 0.000000
#
# Coordination Sequence:
#
# PCOD9028924 Si02
#       7
#     2   1   2   2   2   2   2
#     4  11  23  39  72  97 124 177 225 263 313 391
#     4  10  24  40  60 102 134 170 214 274 328 380
#     4  11  23  44  66  99 127 169 226 263 320 393
#     4  10  22  42  65  95 130 173 222 265 325 386
#     4  11  21  41  67  92 130 176 215 270 322 385
#     4  10  23  41  69  90 130 176 218 264 325 385
#     4  12  27  42  66 101 135 166 215 271 330 388
#
# _framework density 21.239671999999999
#
# number of rings (size 3 to 8) (size 9 to 14) (size 15 to 20)
#    0.000    1.231    3.077    2.308    4.308    1.846 
#    0.000    1.538    0.000    0.000    0.000    0.000 
#    0.000    0.000    0.000    0.000    0.000    0.000 
#
# Total GULP energy -72400.628678 kJ/mol
# GULP energy per Si atom -5569.279129 kJ/mol
# Density = 2.119133 g / cm^3
# Si number density = 21.239672 Si / 1000 Ang^3
#
#
#
# Elastic Constant Matrix: (Units=GPa)
#
#
# Indices 1 2 3 4 5 6 
#
# 1 318.7507 411.6410 42.1716 820.4716 34.2464 427.0512
# 2 411.6410 885.2626 70.9842 1773.1444 94.5182 894.8672
# 3 42.1716 70.9842 57.3165 111.1163 6.0638 58.8110
# 4 820.4716 1773.1444 111.1163 4053.2981 270.6593 1967.8893
# 5 34.2464 94.5182 6.0638 270.6593 48.6722 126.5277
# 6 427.0512 894.8672 58.8110 1967.8893 126.5277 983.0159
#
#
#
# Elastic Compliance Matrix: (Units=1/GPa)
#
#
# Indices 1 2 3 4 5 6 
#
# 1 0.009039 -0.000647 -0.002236 0.001849 0.004275 -0.007456
# 2 -0.000647 0.019235 -0.005620 0.000869 0.011131 -0.020065
# 3 -0.002236 -0.005620 0.021019 0.000282 -0.004190 0.004804
# 4 0.001849 0.000869 0.000282 0.010059 -0.003643 -0.021278
# 5 0.004275 0.011131 -0.004190 -0.003643 0.042473 -0.009914
# 6 -0.007456 -0.020065 0.004804 -0.021278 -0.009914 0.066108
#
#
# Mechanical properties :
#
#
# Convention : Reuss Voigt Hill
#
# Bulk Modulus (GPa) = 30.97154 256.76927 143.87041
# Shear Modulus (GPa) = 25.54933 1066.09944 545.82438
#
# Velocity S-wave (km/s) = 3.47206 22.42827 16.04809
# Velocity P-wave (km/s) = 5.53960 28.13996 20.27985
#
# Compressibility (1/GPa) = 0.03228771
#
# Stress axis : x y z
#
# Youngs Moduli (GPa) = 110.63245 51.98865 47.57653
#
# Poissons Ratio (x) = 0.03363 0.10638
# Poissons Ratio (y) = 0.07157 0.26736
# Poissons Ratio (z) = 0.24737 0.29216
#
# Static dielectric constant tensor:
#      x y z
#    x 1.810670 0.009960 -0.087380 
#    y 0.009960 1.754480 -0.054750 
#    z -0.087380 -0.054750 2.334170 
# 
# From -- ./inp_files/30168.got.cif
#   From: 2010.05.17/outbox.cif.g08.bks.cpg/sg2_16_cif.got.tgz:30168.got - 2010.06.03 11:33:40.
