data_PCOD9028362
_publ_section_title
;
Structure prediction by ZEFSAII (Michael W. Deem and Ramdas Pophale) SiO2 
 PCOD9028362
Probable space group: P -1
;
_chemical_formula_sum "Si O2"
_cell_formula_units_Z 16
_cell_length_a 7.469790
_cell_length_b 20.071541
_cell_length_c 16.940779
_cell_angle_alpha 151.924645
_cell_angle_beta 140.626951
_cell_angle_gamma 41.166309
_cell_volume 736.717108
_symmetry_space_group_name_H-M "P -1"
_symmetry_group_IT_number 2
_symmetry_cell_setting 'triclinic'
loop_
_space_group_symop_operation_xyz
x,y,z
-x,-y,-z
loop_
_atom_site_type_symbol
_atom_site_label
_atom_site_fract_x
_atom_site_fract_y
_atom_site_fract_z
Si Si1 0.804847 0.892374 0.468238
Si Si2 0.702269 0.336056 0.066006
Si Si3 0.646283 0.333093 0.724053
Si Si4 0.267232 0.193054 0.170462
Si Si5 0.600461 0.880068 0.679668
Si Si6 0.899888 0.094538 0.251123
Si Si7 0.742398 0.843907 0.223875
Si Si8 0.489337 0.333948 0.835257
O O1 0.816851 0.925667 0.414012
O O2 0.775033 0.723163 0.277794
O O3 0.000877 0.904973 0.623233
O O4 0.500000 0.000000 0.500000
O O5 0.490379 0.497261 0.160449
O O6 0.004442 0.330175 0.204953
O O7 0.530504 0.227339 0.932639
O O8 0.741565 0.283447 0.932742
O O9 0.572886 0.241293 0.530407
O O10 0.493561 0.278061 0.689826
O O11 0.974554 0.288955 0.822548
O O12 0.288330 0.152758 0.228094
O O13 0.579700 0.203592 0.254824
O O14 0.167851 0.060347 0.954747
O O15 0.861963 0.878943 0.704106
O O16 0.366336 0.035029 0.752985
O O17 0.500000 0.500000 0.000000
#
# Coordination Sequence:
#
# PCOD9028362 Si02
#       8
#     2   2   2   2   2   2   2   2
#     4  11  18  36  62  87 117 153 196 260 314 349
#     4  10  22  42  60  87 130 166 202 253 307 382
#     4  11  22  38  64  94 123 157 204 263 322 366
#     4  11  25  41  63  90 127 174 212 247 314 368
#     4  12  23  41  63  94 127 157 213 263 302 374
#     4  11  22  40  64  90 123 167 209 262 305 366
#     4  11  22  37  64  95 123 156 204 261 325 367
#     4   9  19  36  60  84 119 153 193 248 311 360
#
# _framework density 21.717970000000001
#
# number of rings (size 3 to 8) (size 9 to 14) (size 15 to 20)
#    0.000    1.250    3.750    2.625    0.000    3.500 
#    0.000    0.625    0.000    0.000    0.000    0.000 
#    0.000    0.000    0.000    0.000    0.000    0.000 
#
# Total GULP energy -89127.005604 kJ/mol
# GULP energy per Si atom -5570.437850 kJ/mol
# Density = 2.166854 g / cm^3
# Si number density = 21.717970 Si / 1000 Ang^3
#
#
#
# Elastic Constant Matrix: (Units=GPa)
#
#
# Indices 1 2 3 4 5 6 
#
# 1 54.8133 30.8623 4.8238 -7.4547 7.2519 2.0861
# 2 30.8623 140.8303 45.8792 -21.7093 -3.2806 -6.1387
# 3 4.8238 45.8792 87.9682 -15.1226 -3.6732 8.4951
# 4 -7.4547 -21.7093 -15.1226 38.4769 1.3867 2.8331
# 5 7.2519 -3.2806 -3.6732 1.3867 32.3603 -11.5790
# 6 2.0861 -6.1387 8.4951 2.8331 -11.5790 37.7027
#
#
#
# Elastic Compliance Matrix: (Units=1/GPa)
#
#
# Indices 1 2 3 4 5 6 
#
# 1 0.022837 -0.005769 0.002430 0.002778 -0.007420 -0.005238
# 2 -0.005769 0.010642 -0.005058 0.002496 0.003107 0.003958
# 3 0.002430 -0.005058 0.014977 0.003922 -0.001327 -0.005035
# 4 0.002778 0.002496 0.003922 0.029836 -0.002506 -0.003643
# 5 -0.007420 0.003107 -0.001327 -0.002506 0.037455 0.012907
# 6 -0.005238 0.003958 -0.005035 -0.003643 0.012907 0.032830
#
#
# Mechanical properties :
#
#
# Convention : Reuss Voigt Hill
#
# Bulk Modulus (GPa) = 31.58227 49.63806 40.61017
# Shear Modulus (GPa) = 28.42118 35.17774 31.79946
#
# Velocity S-wave (km/s) = 3.62145 4.02898 3.83064
# Velocity P-wave (km/s) = 5.66216 6.67450 6.18907
#
# Compressibility (1/GPa) = 0.03166333
#
# Stress axis : x y z
#
# Youngs Moduli (GPa) = 43.78835 93.96443 66.76761
#
# Poissons Ratio (x) = 0.54211 -0.16226
# Poissons Ratio (y) = 0.25263 0.33768
# Poissons Ratio (z) = -0.10641 0.47523
#
# Static dielectric constant tensor:
#      x y z
#    x 1.932480 -0.073470 -0.010160 
#    y -0.073470 1.849030 0.024590 
#    z -0.010160 0.024590 1.810230 
# 
# From -- ./inp_files/307621.got.cif
#   From: 2010.05.17/outbox.cif.g08.bks.cpg/sg2_154_cif.got.tgz:307621.got - 2010.06.03 11:33:40.
