data_PCOD9028989
_publ_section_title
;
Structure prediction by ZEFSAII (Michael W. Deem and Ramdas Pophale) SiO2 
 PCOD9028989
Probable space group: P -1
;
_chemical_formula_sum "Si O2"
_cell_formula_units_Z 16
_cell_length_a 7.930719
_cell_length_b 10.978247
_cell_length_c 9.417694
_cell_angle_alpha 90.103043
_cell_angle_beta 62.096739
_cell_angle_gamma 100.189378
_cell_volume 710.099559
_symmetry_space_group_name_H-M "P -1"
_symmetry_group_IT_number 2
_symmetry_cell_setting 'triclinic'
loop_
_space_group_symop_operation_xyz
x,y,z
-x,-y,-z
loop_
_atom_site_type_symbol
_atom_site_label
_atom_site_fract_x
_atom_site_fract_y
_atom_site_fract_z
Si Si1 0.046524 0.819380 0.659448
Si Si2 0.589933 0.777813 0.782833
Si Si3 0.994975 0.144962 0.002436
Si Si4 0.800371 0.379974 0.586614
Si Si5 0.278429 0.786042 0.134418
Si Si6 0.610390 0.031829 0.643035
Si Si7 0.650178 0.594867 0.537743
Si Si8 0.629038 0.771493 0.307296
O O1 0.821007 0.817857 0.718547
O O2 0.071323 0.818697 0.817920
O O3 0.102538 0.699184 0.563616
O O4 0.193605 0.933039 0.527198
O O5 0.552943 0.649665 0.709771
O O6 0.538695 0.888795 0.707618
O O7 0.468402 0.766250 0.974858
O O8 0.858581 0.174447 0.930742
O O9 0.212056 0.213782 0.877469
O O10 0.000000 0.000000 0.000000
O O11 0.827206 0.335170 0.736110
O O12 0.811577 0.521629 0.533919
O O13 0.567560 0.321834 0.660845
O O14 0.336272 0.896019 0.227301
O O15 0.446051 0.099535 0.641202
O O16 0.500000 0.500000 0.500000
O O17 0.714713 0.715278 0.412025
#
# Coordination Sequence:
#
# PCOD9028989 Si02
#       8
#     2   2   2   2   2   2   2   2
#     4  10  23  40  64  97 134 169 215 257 330 392
#     4  12  23  38  71  93 130 178 212 256 341 377
#     4  12  24  38  63 101 139 163 209 267 323 393
#     4   9  22  48  65  87 131 170 222 272 305 384
#     4  10  23  39  65  96 133 166 214 265 324 385
#     4  10  22  42  65  98 137 165 210 262 325 412
#     4  10  24  42  69  93 126 170 230 272 311 371
#     4   9  21  41  65  90 133 167 206 265 336 363
#
# _framework density 22.532050999999999
#
# number of rings (size 3 to 8) (size 9 to 14) (size 15 to 20)
#    0.000    2.000    0.000    3.750   10.500    1.500 
#    0.000    0.625    0.000    0.000    0.000    0.000 
#    0.000    0.000    0.000    0.000    0.000    0.000 
#
# Total GULP energy -89485.218354 kJ/mol
# GULP energy per Si atom -5592.826147 kJ/mol
# Density = 2.248077 g / cm^3
# Si number density = 22.532051 Si / 1000 Ang^3
#
#
#
# Elastic Constant Matrix: (Units=GPa)
#
#
# Indices 1 2 3 4 5 6 
#
# 1 101.8915 37.2172 59.4116 0.0555 10.5010 -22.9103
# 2 37.2172 111.3291 54.3472 -11.3547 12.4496 -28.9528
# 3 59.4116 54.3472 194.0318 -4.3513 -5.2706 -15.2025
# 4 0.0555 -11.3547 -4.3513 18.2287 -3.2487 13.7876
# 5 10.5010 12.4496 -5.2706 -3.2487 43.7125 -8.8264
# 6 -22.9103 -28.9528 -15.2025 13.7876 -8.8264 45.4794
#
#
#
# Elastic Compliance Matrix: (Units=1/GPa)
#
#
# Indices 1 2 3 4 5 6 
#
# 1 0.014335 -0.001775 -0.003609 -0.007509 -0.002587 0.006659
# 2 -0.001775 0.012714 -0.002623 0.003172 -0.002282 0.004918
# 3 -0.003609 -0.002623 0.007001 0.001284 0.002335 -0.001084
# 4 -0.007509 0.003172 0.001284 0.075556 0.001848 -0.023881
# 5 -0.002587 -0.002282 0.002335 0.001848 0.025036 0.002323
# 6 0.006659 0.004918 -0.001084 -0.023881 0.002323 0.035802
#
#
# Mechanical properties :
#
#
# Convention : Reuss Voigt Hill
#
# Bulk Modulus (GPa) = 55.44600 78.80049 67.12325
# Shear Modulus (GPa) = 25.97801 38.56922 32.27361
#
# Velocity S-wave (km/s) = 3.39917 4.14182 3.78874
# Velocity P-wave (km/s) = 6.32984 7.61061 6.99958
#
# Compressibility (1/GPa) = 0.01803556
#
# Stress axis : x y z
#
# Youngs Moduli (GPa) = 69.75865 78.65257 142.83931
#
# Poissons Ratio (x) = 0.13962 0.51551
# Poissons Ratio (y) = 0.12383 0.37468
# Poissons Ratio (z) = 0.25176 0.20631
#
# Static dielectric constant tensor:
#      x y z
#    x 1.903400 -0.000760 0.001520 
#    y -0.000760 1.881550 -0.029900 
#    z 0.001520 -0.029900 1.808250 
# 
# From -- ./inp_files/187354.got.cif
#   From: 2010.05.17/outbox.cif.g08.bks.cpg/sg2_94_cif.got.tgz:187354.got - 2010.06.03 11:33:40.
