data_PCOD9028677
_publ_section_title
;
Structure prediction by ZEFSAII (Michael W. Deem and Ramdas Pophale) SiO2 
 PCOD9028677
Probable space group: P -1
;
_chemical_formula_sum "Si O2"
_cell_formula_units_Z 14
_cell_length_a 6.956860
_cell_length_b 7.070094
_cell_length_c 19.000513
_cell_angle_alpha 118.215144
_cell_angle_beta 45.971207
_cell_angle_gamma 126.762865
_cell_volume 535.675161
_symmetry_space_group_name_H-M "P -1"
_symmetry_group_IT_number 2
_symmetry_cell_setting 'triclinic'
loop_
_space_group_symop_operation_xyz
x,y,z
-x,-y,-z
loop_
_atom_site_type_symbol
_atom_site_label
_atom_site_fract_x
_atom_site_fract_y
_atom_site_fract_z
Si Si1 0.649469 0.872306 0.642758
Si Si2 0.115150 0.137152 0.674218
Si Si3 0.137889 0.756012 0.859637
Si Si4 0.132305 0.605314 0.312556
Si Si5 0.744070 0.985471 0.986591
Si Si6 0.226948 0.329204 0.828680
Si Si7 0.732728 0.434076 0.502149
O O1 0.342680 0.814242 0.749282
O O2 0.659812 0.664101 0.557331
O O3 0.766028 0.136311 0.627841
O O4 0.878398 0.906656 0.655597
O O5 0.148480 0.146673 0.750615
O O6 0.434143 0.227942 0.571760
O O7 0.985115 0.327738 0.717349
O O8 0.130400 0.527611 0.860636
O O9 0.173936 0.237723 0.076664
O O10 0.302360 0.962977 0.912169
O O11 0.424157 0.564587 0.227336
O O12 0.872004 0.409961 0.388765
O O13 0.045103 0.198789 0.919595
O O14 0.500000 0.000000 0.000000
O O15 0.000000 0.500000 0.500000
#
# Coordination Sequence:
#
# PCOD9028677 Si02
#       7
#     2   2   2   2   2   2   2
#     4  10  22  42  64  92 135 173 213 275 325 381
#     4  10  23  38  66  91 133 173 222 266 320 395
#     4  11  23  44  66  97 134 167 217 280 321 395
#     4  10  23  41  64  93 135 173 219 272 323 385
#     4  11  25  42  68  97 131 170 218 270 339 395
#     4  12  22  45  68  96 132 174 220 272 330 394
#     4  12  21  41  63  97 132 176 225 267 321 391
#
# _framework density 26.135245000000001
#
# number of rings (size 3 to 8) (size 9 to 14) (size 15 to 20)
#    0.857    0.286    4.286    2.143    0.000    2.286 
#    0.000    1.429    0.000    0.000    0.000    0.000 
#    0.000    0.000    0.000    0.000    0.000    0.000 
#
# Total GULP energy -78363.701656 kJ/mol
# GULP energy per Si atom -5597.407261 kJ/mol
# Density = 2.607576 g / cm^3
# Si number density = 26.135245 Si / 1000 Ang^3
#
#
#
# Elastic Constant Matrix: (Units=GPa)
#
#
# Indices 1 2 3 4 5 6 
#
# 1 177.1563 5.9068 32.1926 9.4828 -26.1711 -13.5109
# 2 5.9068 47.4968 21.3323 12.6983 -16.4237 -15.9492
# 3 32.1926 21.3323 121.9074 -1.6831 -10.4795 -2.2836
# 4 9.4828 12.6983 -1.6831 25.7756 -7.0320 -0.4026
# 5 -26.1711 -16.4237 -10.4795 -7.0320 46.0707 3.5115
# 6 -13.5109 -15.9492 -2.2836 -0.4026 3.5115 45.5905
#
#
#
# Elastic Compliance Matrix: (Units=1/GPa)
#
#
# Indices 1 2 3 4 5 6 
#
# 1 0.006849 0.003123 -0.002015 -0.003092 0.003868 0.002696
# 2 0.003123 0.035016 -0.006132 -0.016020 0.009503 0.011995
# 3 -0.002015 -0.006132 0.009802 0.004292 -0.000279 -0.002192
# 4 -0.003092 -0.016020 0.004292 0.048381 0.001349 -0.005983
# 5 0.003868 0.009503 -0.000279 0.001349 0.027253 0.002370
# 6 0.002696 0.011995 -0.002192 -0.005983 0.002370 0.026585
#
#
# Mechanical properties :
#
#
# Convention : Reuss Voigt Hill
#
# Bulk Modulus (GPa) = 24.02658 51.71377 37.87017
# Shear Modulus (GPa) = 28.12029 42.62928 35.37478
#
# Velocity S-wave (km/s) = 3.28373 4.04307 3.68302
# Velocity P-wave (km/s) = 4.85699 6.45176 5.71032
#
# Compressibility (1/GPa) = 0.04162058
#
# Stress axis : x y z
#
# Youngs Moduli (GPa) = 145.99902 28.55805 102.01756
#
# Poissons Ratio (x) = -0.08918 0.20555
# Poissons Ratio (y) = -0.45593 0.62554
# Poissons Ratio (z) = 0.29417 0.17511
#
# Static dielectric constant tensor:
#      x y z
#    x 2.048100 0.013890 -0.026130 
#    y 0.013890 2.110020 0.079670 
#    z -0.026130 0.079670 2.004620 
# 
# From -- ./inp_files/225107.got.cif
#   From: 2010.05.17/outbox.cif.g08.bks.cpg/sg2_113_cif.got.tgz:225107.got - 2010.06.03 11:33:40.
