data_PCOD9028880
_publ_section_title
;
Structure prediction by ZEFSAII (Michael W. Deem and Ramdas Pophale) SiO2 
 PCOD9028880
Probable space group: P -1
;
_chemical_formula_sum "Si O2"
_cell_formula_units_Z 16
_cell_length_a 7.917433
_cell_length_b 17.773319
_cell_length_c 12.029828
_cell_angle_alpha 121.963969
_cell_angle_beta 50.771381
_cell_angle_gamma 81.393860
_cell_volume 751.756267
_symmetry_space_group_name_H-M "P -1"
_symmetry_group_IT_number 2
_symmetry_cell_setting 'triclinic'
loop_
_space_group_symop_operation_xyz
x,y,z
-x,-y,-z
loop_
_atom_site_type_symbol
_atom_site_label
_atom_site_fract_x
_atom_site_fract_y
_atom_site_fract_z
Si Si1 0.220018 0.005826 0.973556
Si Si2 0.494454 0.901269 0.131100
Si Si3 0.641224 0.405333 0.763103
Si Si4 0.350144 0.672272 0.766351
Si Si5 0.748334 0.748758 0.122551
Si Si6 0.700349 0.746006 0.710093
Si Si7 0.403976 0.469886 0.666594
Si Si8 0.141270 0.855972 0.541296
O O1 0.022584 0.101963 0.236931
O O2 0.358114 0.044517 0.873127
O O3 0.520431 0.863771 0.790299
O O4 0.000000 0.000000 0.000000
O O5 0.544648 0.823366 0.153897
O O6 0.701611 0.795522 0.864356
O O7 0.132632 0.019995 0.327195
O O8 0.437942 0.449805 0.768724
O O9 0.761237 0.270894 0.640247
O O10 0.941984 0.374413 0.574566
O O11 0.500000 0.500000 0.000000
O O12 0.496224 0.718452 0.783919
O O13 0.528804 0.531120 0.628681
O O14 0.405893 0.650952 0.592415
O O15 0.987763 0.762153 0.031367
O O16 0.470552 0.814390 0.378719
O O17 0.021274 0.589739 0.888607
#
# Coordination Sequence:
#
# PCOD9028880 Si02
#       8
#     2   2   2   2   2   2   2   2
#     4  11  23  41  70  96 126 176 222 268 323 394
#     4  11  21  45  67  94 131 172 221 268 326 396
#     4  12  26  40  65  96 136 174 216 271 333 390
#     4   9  21  41  65  96 126 176 224 265 321 390
#     4  10  22  42  65  93 129 173 211 274 329 379
#     4  11  22  40  67  97 127 173 227 268 322 391
#     4   9  23  43  61  93 131 178 222 261 321 390
#     4  11  24  43  64  99 133 168 213 277 332 382
#
# _framework density 21.283491999999999
#
# number of rings (size 3 to 8) (size 9 to 14) (size 15 to 20)
#    0.750    0.750    2.500    2.625    3.500    3.000 
#    0.000    5.625    0.000    0.000    0.000    0.000 
#    0.000    0.000    0.000    0.000    0.000    0.000 
#
# Total GULP energy -89221.178018 kJ/mol
# GULP energy per Si atom -5576.323626 kJ/mol
# Density = 2.123505 g / cm^3
# Si number density = 21.283492 Si / 1000 Ang^3
#
#
#
# Elastic Constant Matrix: (Units=GPa)
#
#
# Indices 1 2 3 4 5 6 
#
# 1 54.7186 8.1461 32.4212 -4.8228 0.3396 16.2289
# 2 8.1461 40.2244 14.3521 0.5016 -2.6161 -10.7475
# 3 32.4212 14.3521 83.7903 -1.1566 -20.6840 4.7161
# 4 -4.8228 0.5016 -1.1566 18.5032 10.7559 -1.8347
# 5 0.3396 -2.6161 -20.6840 10.7559 35.1645 -5.8776
# 6 16.2289 -10.7475 4.7161 -1.8347 -5.8776 34.3825
#
#
#
# Elastic Compliance Matrix: (Units=1/GPa)
#
#
# Indices 1 2 3 4 5 6 
#
# 1 0.036877 -0.008578 -0.016215 0.018138 -0.019460 -0.020222
# 2 -0.008578 0.031555 -0.001646 -0.004883 0.005430 0.014806
# 3 -0.016215 -0.001646 0.022446 -0.012722 0.018214 0.006495
# 4 0.018138 -0.004883 -0.012722 0.076323 -0.033024 -0.009915
# 5 -0.019460 0.005430 0.018214 -0.033024 0.052450 0.015589
# 6 -0.020222 0.014806 0.006495 -0.009915 0.015589 0.044503
#
#
# Mechanical properties :
#
#
# Convention : Reuss Voigt Hill
#
# Bulk Modulus (GPa) = 26.31571 32.06356 29.18964
# Shear Modulus (GPa) = 15.16540 25.86429 20.51485
#
# Velocity S-wave (km/s) = 2.67225 3.48979 3.10802
# Velocity P-wave (km/s) = 4.68107 5.59785 5.15986
#
# Compressibility (1/GPa) = 0.03800012
#
# Stress axis : x y z
#
# Youngs Moduli (GPa) = 27.11730 31.69055 44.55228
#
# Poissons Ratio (x) = 0.27183 0.72241
# Poissons Ratio (y) = 0.23260 0.07334
# Poissons Ratio (z) = 0.43970 0.05217
#
# Static dielectric constant tensor:
#      x y z
#    x 1.785700 -0.022500 -0.035150 
#    y -0.022500 1.806440 0.012340 
#    z -0.035150 0.012340 1.758670 
# 
# From -- ./inp_files/403146.got.cif
#   From: 2010.05.17/outbox.cif.g08.bks.cpg/sg2_202_cif.got.tgz:403146.got - 2010.06.03 11:33:40.
