data_PCOD9028381
_publ_section_title
;
Structure prediction by ZEFSAII (Michael W. Deem and Ramdas Pophale) SiO2 
 PCOD9028381
Probable space group: P -1
;
_chemical_formula_sum "Si O2"
_cell_formula_units_Z 16
_cell_length_a 19.579535
_cell_length_b 9.235559
_cell_length_c 14.739079
_cell_angle_alpha 128.426859
_cell_angle_beta 18.699461
_cell_angle_gamma 124.695994
_cell_volume 667.388666
_symmetry_space_group_name_H-M "P -1"
_symmetry_group_IT_number 2
_symmetry_cell_setting 'triclinic'
loop_
_space_group_symop_operation_xyz
x,y,z
-x,-y,-z
loop_
_atom_site_type_symbol
_atom_site_label
_atom_site_fract_x
_atom_site_fract_y
_atom_site_fract_z
Si Si1 0.922592 0.299605 0.142230
Si Si2 0.913501 0.039573 0.322239
Si Si3 0.568691 0.508470 0.567640
Si Si4 0.120128 0.374350 0.106813
Si Si5 0.027567 0.996354 0.356977
Si Si6 0.828389 0.597928 0.684616
Si Si7 0.432077 0.813476 0.318706
Si Si8 0.418663 0.786468 0.723649
O O1 0.786303 0.474461 0.337225
O O2 0.098069 0.339381 0.013031
O O3 0.739590 0.210789 0.396706
O O4 0.014181 0.149215 0.895456
O O5 0.875972 0.009533 0.464558
O O6 0.092696 0.183831 0.123572
O O7 0.698677 0.139560 0.590447
O O8 0.550508 0.698763 0.608629
O O9 0.581366 0.349599 0.413156
O O10 0.340312 0.469788 0.886568
O O11 0.909091 0.502932 0.452577
O O12 0.134930 0.188050 0.285005
O O13 0.000000 0.000000 0.500000
O O14 0.180223 0.815584 0.073194
O O15 0.000000 0.500000 0.500000
O O16 0.586104 0.626076 0.036032
O O17 0.525358 0.011055 0.299042
#
# Coordination Sequence:
#
# PCOD9028381 Si02
#       8
#     2   2   2   2   2   2   2   2
#     4  11  23  40  69 101 127 169 216 267 329 380
#     4  11  22  42  65  98 131 165 216 270 324 383
#     4  11  22  40  67  96 131 171 209 273 321 377
#     4  11  23  41  66 101 131 163 220 268 323 386
#     4  11  23  42  63  88 128 175 218 256 318 393
#     4  11  22  42  64  93 127 172 217 261 318 382
#     4  10  23  41  65  95 133 168 208 271 323 384
#     4  10  22  42  60  94 132 167 217 257 325 388
#
# _framework density 23.974036000000002
#
# number of rings (size 3 to 8) (size 9 to 14) (size 15 to 20)
#    0.000    1.250    2.500    4.500    1.750    3.000 
#    9.000    3.125    0.000    0.000    0.000    0.000 
#    0.000    0.000    0.000    0.000    0.000    0.000 
#
# Total GULP energy -89282.947505 kJ/mol
# GULP energy per Si atom -5580.184219 kJ/mol
# Density = 2.391947 g / cm^3
# Si number density = 23.974036 Si / 1000 Ang^3
#
#
#
# Elastic Constant Matrix: (Units=GPa)
#
#
# Indices 1 2 3 4 5 6 
#
# 1 104.3754 0.6712 22.5860 -0.6857 2.9677 -31.2285
# 2 0.6712 51.0880 14.8264 7.4538 -6.5639 -6.3389
# 3 22.5860 14.8264 106.7400 6.5346 -2.9176 -3.4170
# 4 -0.6857 7.4538 6.5346 30.9801 -5.1352 -3.3273
# 5 2.9677 -6.5639 -2.9176 -5.1352 32.6948 11.6816
# 6 -31.2285 -6.3389 -3.4170 -3.3273 11.6816 34.8478
#
#
#
# Elastic Compliance Matrix: (Units=1/GPa)
#
#
# Indices 1 2 3 4 5 6 
#
# 1 0.015295 0.001670 -0.003215 0.001201 -0.006914 0.016128
# 2 0.001670 0.021721 -0.002953 -0.003811 0.001857 0.004171
# 3 -0.003215 -0.002953 0.010503 -0.001660 0.001460 -0.003036
# 4 0.001201 -0.003811 -0.001660 0.034410 0.003556 0.002314
# 5 -0.006914 0.001857 0.001460 0.003556 0.038848 -0.018398
# 6 0.016128 0.004171 -0.003036 0.002314 -0.018398 0.049998
#
#
# Mechanical properties :
#
#
# Convention : Reuss Voigt Hill
#
# Bulk Modulus (GPa) = 25.95776 37.59673 31.77724
# Shear Modulus (GPa) = 25.95866 34.64586 30.30226
#
# Velocity S-wave (km/s) = 3.29414 3.80562 3.55908
# Velocity P-wave (km/s) = 5.03184 5.91833 5.49300
#
# Compressibility (1/GPa) = 0.03852413
#
# Stress axis : x y z
#
# Youngs Moduli (GPa) = 65.37902 46.03799 95.20841
#
# Poissons Ratio (x) = -0.07686 0.30606
# Poissons Ratio (y) = -0.10915 0.28113
# Poissons Ratio (z) = 0.21017 0.13594
#
# Static dielectric constant tensor:
#      x y z
#    x 1.813590 -0.002320 -0.049060 
#    y -0.002320 1.972800 -0.062730 
#    z -0.049060 -0.062730 2.121530 
# 
# From -- ./inp_files/298763.got.cif
#   From: 2010.05.17/outbox.cif.g08.bks.cpg/sg2_150_cif.got.tgz:298763.got - 2010.06.03 11:33:40.
