data_PCOD9028126
_publ_section_title
;
Structure prediction by ZEFSAII (Michael W. Deem and Ramdas Pophale) SiO2 
 PCOD9028126
Probable space group: P -1
;
_chemical_formula_sum "Si O2"
_cell_formula_units_Z 16
_cell_length_a 10.073944
_cell_length_b 10.759860
_cell_length_c 7.931531
_cell_angle_alpha 50.296458
_cell_angle_beta 65.562284
_cell_angle_gamma 73.210379
_cell_volume 601.815034
_symmetry_space_group_name_H-M "P -1"
_symmetry_group_IT_number 2
_symmetry_cell_setting 'triclinic'
loop_
_space_group_symop_operation_xyz
x,y,z
-x,-y,-z
loop_
_atom_site_type_symbol
_atom_site_label
_atom_site_fract_x
_atom_site_fract_y
_atom_site_fract_z
Si Si1 0.482442 0.655963 0.754654
Si Si2 0.119692 0.859438 0.529410
Si Si3 0.284206 0.085531 0.031224
Si Si4 0.956830 0.222572 0.990459
Si Si5 0.966618 0.567964 0.766121
Si Si6 0.666017 0.164640 0.031459
Si Si7 0.354530 0.501171 0.456741
Si Si8 0.714527 0.583960 0.104995
O O1 0.620501 0.644248 0.565227
O O2 0.500000 0.500000 0.000000
O O3 0.429868 0.799592 0.780310
O O4 0.357124 0.582219 0.768175
O O5 0.878917 0.851016 0.004215
O O6 0.255825 0.944532 0.304365
O O7 0.121602 0.787369 0.777245
O O8 0.000000 0.000000 0.500000
O O9 0.350776 0.239852 0.954098
O O10 0.371205 0.993998 0.916450
O O11 0.955156 0.414663 0.784206
O O12 0.838913 0.141943 0.004247
O O13 0.802942 0.631175 0.851114
O O14 0.052457 0.729423 0.551242
O O15 0.000000 0.500000 0.000000
O O16 0.656727 0.330980 0.782396
O O17 0.500000 0.500000 0.500000
O O18 0.230546 0.471129 0.687056
#
# Coordination Sequence:
#
# PCOD9028126 Si02
#       8
#     2   2   2   2   2   2   2   2
#     4   9  20  41  62  84 111 145 206 265 304 343
#     4   9  18  34  54  82 128 163 204 233 276 346
#     4  11  23  36  57  97 131 163 198 236 290 385
#     4  10  20  36  56  89 132 164 199 239 285 369
#     4  10  17  31  61  86 120 162 207 233 279 357
#     4  11  22  37  63  89 124 163 190 251 330 339
#     4   9  22  41  65  88 106 151 217 267 293 359
#     4  11  19  38  65  86 118 159 208 245 296 365
#
# _framework density 26.586241000000001
#
# number of rings (size 3 to 8) (size 9 to 14) (size 15 to 20)
#    0.000    2.000    5.000    0.375    3.500    0.000 
#    0.000   13.750    0.000    0.000    0.000    0.000 
#    0.000    0.000    0.000    0.000    0.000    0.000 
#
# Total GULP energy -89087.857853 kJ/mol
# GULP energy per Si atom -5567.991116 kJ/mol
# Density = 2.652573 g / cm^3
# Si number density = 26.586241 Si / 1000 Ang^3
#
#
#
# Elastic Constant Matrix: (Units=GPa)
#
#
# Indices 1 2 3 4 5 6 
#
# 1 49.3910 1.2569 -5.8249 -0.2948 5.6817 -3.9888
# 2 1.2569 196.0027 24.4746 2.4942 -4.5051 0.9818
# 3 -5.8249 24.4746 74.7854 -4.2580 0.3835 3.9884
# 4 -0.2948 2.4942 -4.2580 40.7596 8.7051 -5.3231
# 5 5.6817 -4.5051 0.3835 8.7051 22.2555 -5.0874
# 6 -3.9888 0.9818 3.9884 -5.3231 -5.0874 30.1955
#
#
#
# Elastic Compliance Matrix: (Units=1/GPa)
#
#
# Indices 1 2 3 4 5 6 
#
# 1 0.021325 -0.000540 0.001873 0.001892 -0.005885 0.001929
# 2 -0.000540 0.005386 -0.001869 -0.000860 0.001625 0.000123
# 3 0.001873 -0.001869 0.014334 0.001886 -0.002212 -0.001626
# 4 0.001892 -0.000860 0.001886 0.027492 -0.010742 0.003065
# 5 -0.005885 0.001625 -0.002212 -0.010742 0.052469 0.006408
# 6 0.001929 0.000123 -0.001626 0.003065 0.006408 0.035203
#
#
# Mechanical properties :
#
#
# Convention : Reuss Voigt Hill
#
# Bulk Modulus (GPa) = 25.01581 39.99914 32.50747
# Shear Modulus (GPa) = 29.30732 38.66029 33.98381
#
# Velocity S-wave (km/s) = 3.32377 3.81746 3.57914
# Velocity P-wave (km/s) = 4.91524 5.87439 5.41609
#
# Compressibility (1/GPa) = 0.03997472
#
# Stress axis : x y z
#
# Youngs Moduli (GPa) = 46.89289 185.65171 69.76237
#
# Poissons Ratio (x) = 0.10017 -0.13063
# Poissons Ratio (y) = 0.02530 0.13036
# Poissons Ratio (z) = -0.08781 0.34691
#
# Static dielectric constant tensor:
#      x y z
#    x 0.093070 0.062540 0.709770 
#    y 0.062540 2.146390 0.004540 
#    z 0.709770 0.004540 1.853720 
# 
# From -- ./inp_files/261495.got.cif
#   From: 2010.05.17/outbox.cif.g08.bks.cpg/sg2_131_cif.got.tgz:261495.got - 2010.06.03 11:33:40.
