data_PCOD9028630
_publ_section_title
;
Structure prediction by ZEFSAII (Michael W. Deem and Ramdas Pophale) SiO2 
 PCOD9028630
Probable space group: P -1
;
_chemical_formula_sum "Si O2"
_cell_formula_units_Z 16
_cell_length_a 18.743388
_cell_length_b 12.525946
_cell_length_c 9.273160
_cell_angle_alpha 82.602042
_cell_angle_beta 129.675107
_cell_angle_gamma 139.244165
_cell_volume 774.522362
_symmetry_space_group_name_H-M "P -1"
_symmetry_group_IT_number 2
_symmetry_cell_setting 'triclinic'
loop_
_space_group_symop_operation_xyz
x,y,z
-x,-y,-z
loop_
_atom_site_type_symbol
_atom_site_label
_atom_site_fract_x
_atom_site_fract_y
_atom_site_fract_z
Si Si1 0.881688 0.266675 0.873434
Si Si2 0.706637 0.662462 0.100012
Si Si3 0.734019 0.461158 0.737492
Si Si4 0.488474 0.876815 0.243306
Si Si5 0.417526 0.168009 0.886494
Si Si6 0.123686 0.036386 0.454763
Si Si7 0.602652 0.565200 0.474453
Si Si8 0.406498 0.033417 0.187207
O O1 0.703350 0.094217 0.559821
O O2 0.776559 0.134701 0.912810
O O3 0.000000 0.500000 0.000000
O O4 0.037459 0.335321 0.018577
O O5 0.786314 0.802277 0.322295
O O6 0.574826 0.425224 0.018012
O O7 0.567735 0.599040 0.839024
O O8 0.889568 0.811266 0.211019
O O9 0.651208 0.348484 0.808320
O O10 0.682396 0.528154 0.611954
O O11 0.604758 0.251640 0.501116
O O12 0.516357 0.863467 0.121270
O O13 0.402501 0.907846 0.144943
O O14 0.207829 0.003095 0.593185
O O15 0.408404 0.119331 0.045703
O O16 0.217883 0.178510 0.403908
O O17 0.500000 0.500000 0.500000
#
# Coordination Sequence:
#
# PCOD9028630 Si02
#       8
#     2   2   2   2   2   2   2   2
#     4  11  21  42  63  85 120 160 204 248 290 354
#     4  10  22  43  64  83 123 161 201 252 293 359
#     4  11  21  39  66  87 118 164 204 243 299 357
#     4  11  23  39  60  89 125 159 196 251 304 354
#     4  11  23  39  60  92 123 157 199 249 308 353
#     4  10  22  42  64  87 120 161 206 245 298 363
#     4  11  23  38  61  95 126 155 197 252 306 358
#     4  11  22  39  63  89 119 160 207 243 296 364
#
# _framework density 20.657892
#
# number of rings (size 3 to 8) (size 9 to 14) (size 15 to 20)
#    0.000    1.250    2.500    5.625    0.000    7.500 
#    0.000    0.625    0.000    0.000    0.000    0.000 
#    0.000    0.000    0.000    0.000    0.000    0.000 
#
# Total GULP energy -89504.677240 kJ/mol
# GULP energy per Si atom -5594.042327 kJ/mol
# Density = 2.061087 g / cm^3
# Si number density = 20.657892 Si / 1000 Ang^3
#
#
#
# Elastic Constant Matrix: (Units=GPa)
#
#
# Indices 1 2 3 4 5 6 
#
# 1 49.1194 21.0958 24.9165 10.4595 6.8730 22.0226
# 2 21.0958 98.7830 40.7722 -11.1171 9.7863 27.1796
# 3 24.9165 40.7722 54.8770 5.2180 27.7597 8.7691
# 4 10.4595 -11.1171 5.2180 20.3298 7.2228 5.1552
# 5 6.8730 9.7863 27.7597 7.2228 42.0208 1.4409
# 6 22.0226 27.1796 8.7691 5.1552 1.4409 38.2207
#
#
#
# Elastic Compliance Matrix: (Units=1/GPa)
#
#
# Indices 1 2 3 4 5 6 
#
# 1 0.039058 0.003086 -0.020521 -0.011610 0.009089 -0.018768
# 2 0.003086 0.025024 -0.021716 0.020292 0.005126 -0.017521
# 3 -0.020521 -0.021716 0.055714 -0.010232 -0.027212 0.016891
# 4 -0.011610 0.020292 -0.010232 0.075809 -0.008573 -0.015295
# 5 0.009089 0.005126 -0.027212 -0.008573 0.040671 -0.003016
# 6 -0.018768 -0.017521 0.016891 -0.015295 -0.003016 0.047739
#
#
# Mechanical properties :
#
#
# Convention : Reuss Voigt Hill
#
# Bulk Modulus (GPa) = 24.10074 41.81648 32.95861
# Shear Modulus (GPa) = 13.29256 27.84725 20.56990
#
# Velocity S-wave (km/s) = 2.53941 3.67552 3.15896
# Velocity P-wave (km/s) = 4.50445 6.18861 5.41244
#
# Compressibility (1/GPa) = 0.04149251
#
# Stress axis : x y z
#
# Youngs Moduli (GPa) = 25.60284 39.96139 17.94883
#
# Poissons Ratio (x) = -0.12331 0.36833
# Poissons Ratio (y) = -0.07900 0.38978
# Poissons Ratio (z) = 0.52540 0.86781
#
# Static dielectric constant tensor:
#      x y z
#    x 1.748410 -0.009140 -0.006300 
#    y -0.009140 1.708230 0.014480 
#    z -0.006300 0.014480 1.735190 
# 
# From -- ./inp_files/258340.got.cif
#   From: 2010.05.17/outbox.cif.g08.bks.cpg/sg2_130_cif.got.tgz:258340.got - 2010.06.03 11:33:40.
