data_PCOD9028115
_publ_section_title
;
Structure prediction by ZEFSAII (Michael W. Deem and Ramdas Pophale) SiO2 
 PCOD9028115
Probable space group: P -1
;
_chemical_formula_sum "Si O2"
_cell_formula_units_Z 14
_cell_length_a 7.520673
_cell_length_b 11.026782
_cell_length_c 11.685942
_cell_angle_alpha 125.892583
_cell_angle_beta 42.090536
_cell_angle_gamma 111.152094
_cell_volume 521.308247
_symmetry_space_group_name_H-M "P -1"
_symmetry_group_IT_number 2
_symmetry_cell_setting 'triclinic'
loop_
_space_group_symop_operation_xyz
x,y,z
-x,-y,-z
loop_
_atom_site_type_symbol
_atom_site_label
_atom_site_fract_x
_atom_site_fract_y
_atom_site_fract_z
Si Si1 0.547704 0.519659 0.352356
Si Si2 0.029031 0.168671 0.154896
Si Si3 0.648486 0.023933 0.802052
Si Si4 0.235494 0.465961 0.247051
Si Si5 0.282465 0.812203 0.913638
Si Si6 0.471417 0.825653 0.443888
Si Si7 0.327784 0.723195 0.220272
O O1 0.500000 0.500000 0.500000
O O2 0.959210 0.653605 0.749823
O O3 0.317712 0.495329 0.353583
O O4 0.740117 0.362237 0.149044
O O5 0.915485 0.135737 0.066735
O O6 0.820661 0.149389 0.343376
O O7 0.336923 0.101956 0.988095
O O8 0.772300 0.091894 0.891726
O O9 0.770098 0.109812 0.687153
O O10 0.580669 0.853073 0.754989
O O11 0.616642 0.688805 0.381258
O O12 0.131968 0.619789 0.314941
O O13 0.510752 0.382659 0.010120
O O14 0.506434 0.750146 0.260280
O O15 0.500000 0.000000 0.500000
#
# Coordination Sequence:
#
# PCOD9028115 Si02
#       7
#     2   2   2   2   2   2   2
#     4  11  21  40  64  96 129 166 216 264 326 383
#     4  11  21  40  68  95 126 170 222 257 319 394
#     4  10  22  41  71  90 131 166 223 263 316 392
#     4   9  20  39  65  92 122 172 218 255 316 387
#     4  11  21  39  66  98 123 173 214 270 318 378
#     4  11  24  38  65  96 130 173 210 267 332 380
#     4   9  18  37  63  87 127 169 204 261 323 371
#
# _framework density 26.855512000000001
#
# number of rings (size 3 to 8) (size 9 to 14) (size 15 to 20)
#    0.000    1.714    4.286    1.286    0.000    3.429 
#    0.000    0.714    6.286    6.857    0.000    0.000 
#    0.000    0.000    0.000    0.000    0.000    0.000 
#
# Total GULP energy -78033.960950 kJ/mol
# GULP energy per Si atom -5573.854354 kJ/mol
# Density = 2.679439 g / cm^3
# Si number density = 26.855512 Si / 1000 Ang^3
#
#
#
# Elastic Constant Matrix: (Units=GPa)
#
#
# Indices 1 2 3 4 5 6 
#
# 1 98.6752 25.9432 50.3646 -9.8476 22.3563 -25.5091
# 2 25.9432 245.4504 2.1758 -3.8915 -5.1526 -14.1087
# 3 50.3646 2.1758 90.2476 8.2621 15.6900 -22.1055
# 4 -9.8476 -3.8915 8.2621 30.7768 -22.5564 0.6301
# 5 22.3563 -5.1526 15.6900 -22.5564 45.1860 -0.3474
# 6 -25.5091 -14.1087 -22.1055 0.6301 -0.3474 46.7300
#
#
#
# Elastic Compliance Matrix: (Units=1/GPa)
#
#
# Indices 1 2 3 4 5 6 
#
# 1 0.017279 -0.001455 -0.008284 0.005071 -0.003269 0.004982
# 2 -0.001455 0.004317 0.000518 0.001082 0.001578 0.000752
# 3 -0.008284 0.000518 0.020420 -0.016237 -0.010997 0.005431
# 4 0.005071 0.001082 -0.016237 0.064767 0.035544 -0.005195
# 5 -0.003269 0.001578 -0.010997 0.035544 0.045439 -0.006652
# 6 0.004982 0.000752 0.005431 -0.005195 -0.006652 0.026936
#
#
# Mechanical properties :
#
#
# Convention : Reuss Voigt Hill
#
# Bulk Modulus (GPa) = 42.41600 65.70448 54.06024
# Shear Modulus (GPa) = 24.33614 48.26453 36.30034
#
# Velocity S-wave (km/s) = 3.01356 4.24393 3.68052
# Velocity P-wave (km/s) = 5.28556 6.96661 6.18348
#
# Compressibility (1/GPa) = 0.02357601
#
# Stress axis : x y z
#
# Youngs Moduli (GPa) = 57.87224 231.65293 48.97244
#
# Poissons Ratio (x) = 0.33701 0.40567
# Poissons Ratio (y) = 0.08419 -0.02539
# Poissons Ratio (z) = 0.47939 -0.12010
#
# Static dielectric constant tensor:
#      x y z
#    x 2.068560 0.006590 -0.037060 
#    y 0.006590 2.373480 0.041560 
#    z -0.037060 0.041560 2.131310 
# 
# From -- ./inp_files/385731.got.cif
#   From: 2010.05.17/outbox.cif.g08.bks.cpg/sg2_193_cif.got.tgz:385731.got - 2010.06.03 11:33:40.
