data_PCOD9028465
_publ_section_title
;
Structure prediction by ZEFSAII (Michael W. Deem and Ramdas Pophale) SiO2 
 PCOD9028465
Probable space group: P -1
;
_chemical_formula_sum "Si O2"
_cell_formula_units_Z 14
_cell_length_a 11.770573
_cell_length_b 12.761903
_cell_length_c 12.009147
_cell_angle_alpha 70.141009
_cell_angle_beta 101.472209
_cell_angle_gamma 40.571548
_cell_volume 733.686746
_symmetry_space_group_name_H-M "P -1"
_symmetry_group_IT_number 2
_symmetry_cell_setting 'triclinic'
loop_
_space_group_symop_operation_xyz
x,y,z
-x,-y,-z
loop_
_atom_site_type_symbol
_atom_site_label
_atom_site_fract_x
_atom_site_fract_y
_atom_site_fract_z
Si Si1 0.632266 0.213535 0.823674
Si Si2 0.290363 0.435986 0.477060
Si Si3 0.221697 0.657380 0.186096
Si Si4 0.381002 0.486794 0.023952
Si Si5 0.284342 0.189573 0.486186
Si Si6 0.208342 0.054074 0.661038
Si Si7 0.113063 0.643681 0.710723
O O1 0.527272 0.247618 0.678282
O O2 0.681786 0.301816 0.779434
O O3 0.400959 0.399464 0.801262
O O4 0.904893 0.930676 0.024433
O O5 0.328548 0.475959 0.359559
O O6 0.254588 0.338526 0.472926
O O7 0.030383 0.706224 0.391686
O O8 0.306850 0.560317 0.111613
O O9 0.596659 0.203553 0.158626
O O10 0.500000 0.500000 0.000000
O O11 0.137822 0.666057 0.831822
O O12 0.015446 0.367906 0.320393
O O13 0.500000 0.000000 0.500000
O O14 0.349835 0.045207 0.649793
O O15 0.073424 0.126429 0.493374
#
# Coordination Sequence:
#
# PCOD9028465 Si02
#       7
#     2   2   2   2   2   2   2
#     4  10  22  42  62  93 130 163 213 260 309 379
#     4  11  22  43  66  91 128 173 204 263 315 369
#     4  11  24  38  63  97 128 165 213 256 312 377
#     4  12  23  41  64  92 133 166 207 262 315 370
#     4  10  22  43  66  94 128 159 219 257 312 383
#     4   9  23  41  64  91 127 164 213 256 313 370
#     4   9  22  43  62  93 126 163 211 258 316 373
#
# _framework density 19.081714000000002
#
# number of rings (size 3 to 8) (size 9 to 14) (size 15 to 20)
#    0.857    0.857    1.429    2.571    4.000    0.571 
#    2.571    2.857    0.000    0.000    0.000    0.000 
#    0.000    0.000    0.000    0.000    0.000    0.000 
#
# Total GULP energy -78103.012840 kJ/mol
# GULP energy per Si atom -5578.786631 kJ/mol
# Density = 1.903828 g / cm^3
# Si number density = 19.081714 Si / 1000 Ang^3
#
#
#
# Elastic Constant Matrix: (Units=GPa)
#
#
# Indices 1 2 3 4 5 6 
#
# 1 414.4695 -622.2764 -149.8774 37.7320 -477.7861 -150.6632
# 2 -622.2764 1307.6207 373.3100 -49.1567 957.7287 311.2360
# 3 -149.8774 373.3100 163.5308 -0.4991 276.7266 97.4855
# 4 37.7320 -49.1567 -0.4991 41.8753 -47.1358 -11.1937
# 5 -477.7861 957.7287 276.7266 -47.1358 759.8123 238.2475
# 6 -150.6632 311.2360 97.4855 -11.1937 238.2475 116.9992
#
#
#
# Elastic Compliance Matrix: (Units=1/GPa)
#
#
# Indices 1 2 3 4 5 6 
#
# 1 0.010554 0.003404 -0.005277 -0.000899 0.003978 0.000745
# 2 0.003404 0.012290 -0.005445 -0.001466 -0.010956 -0.001604
# 3 -0.005277 -0.005445 0.022545 -0.006764 -0.003882 -0.003837
# 4 -0.000899 -0.001466 -0.006764 0.029177 0.005681 -0.000400
# 5 0.003978 -0.010956 -0.003882 0.005681 0.020648 -0.004001
# 6 0.000745 -0.001604 -0.003837 -0.000400 -0.004001 0.025079
#
#
# Mechanical properties :
#
#
# Convention : Reuss Voigt Hill
#
# Bulk Modulus (GPa) = 32.51684 120.88150 76.69917
# Shear Modulus (GPa) = 34.43966 336.03502 185.23734
#
# Velocity S-wave (km/s) = 4.25296 13.28478 9.86340
# Velocity P-wave (km/s) = 6.41831 17.28586 13.03832
#
# Compressibility (1/GPa) = 0.03075330
#
# Stress axis : x y z
#
# Youngs Moduli (GPa) = 94.74875 81.36728 44.35514
#
# Poissons Ratio (x) = -0.27698 0.23406
# Poissons Ratio (y) = -0.32253 0.24152
# Poissons Ratio (z) = 0.49999 0.44305
#
# Static dielectric constant tensor:
#      x y z
#    x 1.640070 -0.016000 0.007800 
#    y -0.016000 1.679290 0.008160 
#    z 0.007800 0.008160 1.660550 
# 
# From -- ./inp_files/428172.got.cif
#   From: 2010.05.17/outbox.cif.g08.bks.cpg/sg2_215_cif.got.tgz:428172.got - 2010.06.03 11:33:40.
