data_PCOD9028052
_publ_section_title
;
Structure prediction by ZEFSAII (Michael W. Deem and Ramdas Pophale) SiO2 
 PCOD9028052
Probable space group: P -1
;
_chemical_formula_sum "Si O2"
_cell_formula_units_Z 16
_cell_length_a 12.122575
_cell_length_b 4.876433
_cell_length_c 12.712625
_cell_angle_alpha 83.005181
_cell_angle_beta 60.528716
_cell_angle_gamma 83.660858
_cell_volume 648.283372
_symmetry_space_group_name_H-M "P -1"
_symmetry_group_IT_number 2
_symmetry_cell_setting 'triclinic'
loop_
_space_group_symop_operation_xyz
x,y,z
-x,-y,-z
loop_
_atom_site_type_symbol
_atom_site_label
_atom_site_fract_x
_atom_site_fract_y
_atom_site_fract_z
Si Si1 0.815648 0.929572 0.809484
Si Si2 0.353343 0.610357 0.254686
Si Si3 0.219788 0.085110 0.647954
Si Si4 0.046728 0.584520 0.733485
Si Si5 0.326906 0.936077 0.813338
Si Si6 0.909910 0.214492 0.965446
Si Si7 0.396370 0.087792 0.371143
Si Si8 0.585081 0.766735 0.031888
O O1 0.748614 0.183846 0.765487
O O2 0.870335 0.063251 0.883585
O O3 0.933796 0.748563 0.716170
O O4 0.708989 0.718534 0.904665
O O5 0.317016 0.315889 0.327408
O O6 0.480955 0.557325 0.125526
O O7 0.390341 0.793338 0.330171
O O8 0.112832 0.320194 0.658025
O O9 0.335795 0.082501 0.513860
O O10 0.155336 0.794453 0.691632
O O11 0.262617 0.131477 0.745093
O O12 0.984657 0.471682 0.875790
O O13 0.221622 0.729993 0.911699
O O14 0.458755 0.823198 0.704937
O O15 0.365138 0.100361 0.890858
O O16 0.000000 0.000000 0.000000
O O17 0.500000 0.000000 0.000000
#
# Coordination Sequence:
#
# PCOD9028052 Si02
#       8
#     2   2   2   2   2   2   2   2
#     4  10  22  41  70  99 138 174 221 271 346 405
#     4  10  23  44  68  99 132 176 225 280 332 395
#     4  12  26  46  67  97 138 181 227 278 323 396
#     4  12  25  44  68  99 140 175 221 274 338 396
#     4  10  22  42  71 102 133 177 221 270 347 394
#     4  11  22  44  69 106 138 173 213 281 339 411
#     4  11  25  46  69  96 134 177 233 279 325 386
#     4   8  18  40  64 101 135 170 209 274 336 403
#
# _framework density 24.680565000000001
#
# number of rings (size 3 to 8) (size 9 to 14) (size 15 to 20)
#    0.000    1.500    2.500    1.125    3.500    4.000 
#    0.000   11.875    0.000    0.000    0.000    0.000 
#    0.000    0.000    0.000    0.000    0.000    0.000 
#
# Total GULP energy -89567.084639 kJ/mol
# GULP energy per Si atom -5597.942790 kJ/mol
# Density = 2.462439 g / cm^3
# Si number density = 24.680565 Si / 1000 Ang^3
#
#
#
# Elastic Constant Matrix: (Units=GPa)
#
#
# Indices 1 2 3 4 5 6 
#
# 1 88.8532 18.4958 42.4435 -13.9284 -17.0946 -5.5774
# 2 18.4958 108.0386 28.4168 -7.4110 -14.4154 -0.6805
# 3 42.4435 28.4168 118.1786 -2.0657 -32.5684 0.7975
# 4 -13.9284 -7.4110 -2.0657 28.7075 -1.7204 -4.4879
# 5 -17.0946 -14.4154 -32.5684 -1.7204 39.2397 4.1801
# 6 -5.5774 -0.6805 0.7975 -4.4879 4.1801 33.7896
#
#
#
# Elastic Compliance Matrix: (Units=1/GPa)
#
#
# Indices 1 2 3 4 5 6 
#
# 1 0.015500 -0.000533 -0.004568 0.007741 0.002748 0.003344
# 2 -0.000533 0.010242 -0.001599 0.002438 0.002289 0.000197
# 3 -0.004568 -0.001599 0.012723 -0.001585 0.008159 -0.002306
# 4 0.007741 0.002438 -0.001585 0.040321 0.004058 0.006218
# 5 0.002748 0.002289 0.008159 0.004058 0.034841 -0.003464
# 6 0.003344 0.000197 -0.002306 0.006218 -0.003464 0.031460
#
#
# Mechanical properties :
#
#
# Convention : Reuss Voigt Hill
#
# Bulk Modulus (GPa) = 39.89879 54.86471 47.38175
# Shear Modulus (GPa) = 29.96846 35.39497 32.68172
#
# Velocity S-wave (km/s) = 3.48839 3.79109 3.64289
# Velocity P-wave (km/s) = 5.69442 6.43749 6.07732
#
# Compressibility (1/GPa) = 0.02506342
#
# Stress axis : x y z
#
# Youngs Moduli (GPa) = 64.51668 97.63978 78.59592
#
# Poissons Ratio (x) = 0.05206 0.35906
# Poissons Ratio (y) = 0.03440 0.12568
# Poissons Ratio (z) = 0.29474 0.15614
#
# Static dielectric constant tensor:
#      x y z
#    x 2.029730 0.002820 -0.005220 
#    y 0.002820 1.947850 0.001990 
#    z -0.005220 0.001990 1.961640 
# 
# From -- ./inp_files/410204.got.cif
#   From: 2010.05.17/outbox.cif.g08.bks.cpg/sg2_206_cif.got.tgz:410204.got - 2010.06.03 11:33:40.
