data_PCOD9028169
_publ_section_title
;
Structure prediction by ZEFSAII (Michael W. Deem and Ramdas Pophale) SiO2 
 PCOD9028169
Probable space group: P -1
;
_chemical_formula_sum "Si O2"
_cell_formula_units_Z 16
_cell_length_a 16.280903
_cell_length_b 11.708200
_cell_length_c 11.546096
_cell_angle_alpha 40.350334
_cell_angle_beta 48.867890
_cell_angle_gamma 28.146408
_cell_volume 671.487369
_symmetry_space_group_name_H-M "P -1"
_symmetry_group_IT_number 2
_symmetry_cell_setting 'triclinic'
loop_
_space_group_symop_operation_xyz
x,y,z
-x,-y,-z
loop_
_atom_site_type_symbol
_atom_site_label
_atom_site_fract_x
_atom_site_fract_y
_atom_site_fract_z
Si Si1 0.217936 0.198792 0.398119
Si Si2 0.150951 0.525610 0.418535
Si Si3 0.708023 0.735946 0.265088
Si Si4 0.120893 0.752553 0.675199
Si Si5 0.598262 0.368429 0.390834
Si Si6 0.785868 0.181428 0.968392
Si Si7 0.986890 0.367303 0.927717
Si Si8 0.491401 0.341867 0.974422
O O1 0.236424 0.308668 0.402137
O O2 0.036642 0.323289 0.497115
O O3 0.371903 0.863859 0.506750
O O4 0.185031 0.330224 0.201820
O O5 0.267108 0.362767 0.551484
O O6 0.142648 0.738213 0.224689
O O7 0.735496 0.544337 0.297504
O O8 0.874821 0.655563 0.152686
O O9 0.542751 0.073038 0.147600
O O10 0.213980 0.785387 0.637378
O O11 0.033611 0.731217 0.865873
O O12 0.000000 0.000000 0.500000
O O13 0.500000 0.500000 0.500000
O O14 0.501693 0.610369 0.200850
O O15 0.633998 0.276412 0.962590
O O16 0.934673 0.845787 0.088458
O O17 0.695325 0.362828 0.029336
#
# Coordination Sequence:
#
# PCOD9028169 Si02
#       8
#     2   2   2   2   2   2   2   2
#     4  10  24  43  67 101 133 171 225 281 343 386
#     4  10  22  41  72 100 131 170 228 285 329 394
#     4  10  23  42  69  98 134 177 226 272 334 399
#     4  12  26  45  74  99 131 180 235 272 330 405
#     4  12  30  46  66  95 144 181 220 281 335 400
#     4  10  22  42  70  96 135 175 226 273 336 402
#     4  10  22  42  71  99 131 173 224 289 327 394
#     4  10  26  43  64  98 138 180 219 272 343 404
#
# _framework density 23.827701999999999
#
# number of rings (size 3 to 8) (size 9 to 14) (size 15 to 20)
#    0.000    1.500    0.000    3.375   17.500    2.500 
#    0.000    0.000    0.000    0.000    0.000    0.000 
#    0.000    0.000    0.000    0.000    0.000    0.000 
#
# Total GULP energy -89615.514060 kJ/mol
# GULP energy per Si atom -5600.969629 kJ/mol
# Density = 2.377347 g / cm^3
# Si number density = 23.827702 Si / 1000 Ang^3
#
#
#
# Elastic Constant Matrix: (Units=GPa)
#
#
# Indices 1 2 3 4 5 6 
#
# 1 52.3015 24.8118 9.0443 -6.4540 -7.2674 18.9307
# 2 24.8118 76.5641 9.6239 -0.7797 -2.6151 24.9170
# 3 9.0443 9.6239 75.2312 17.5556 -1.6007 7.3825
# 4 -6.4540 -0.7797 17.5556 32.4646 11.4934 -8.6829
# 5 -7.2674 -2.6151 -1.6007 11.4934 33.0350 -0.2014
# 6 18.9307 24.9170 7.3825 -8.6829 -0.2014 39.9873
#
#
#
# Elastic Compliance Matrix: (Units=1/GPa)
#
#
# Indices 1 2 3 4 5 6 
#
# 1 0.025788 -0.005345 -0.002147 0.002555 0.004209 -0.007906
# 2 -0.005345 0.017857 0.000208 -0.003812 0.001516 -0.009455
# 3 -0.002147 0.000208 0.017071 -0.012670 0.004749 -0.004992
# 4 0.002555 -0.003812 -0.012670 0.047732 -0.016876 0.013784
# 5 0.004209 0.001516 0.004749 -0.016876 0.037374 -0.007291
# 6 -0.007906 -0.009455 -0.004992 0.013784 -0.007291 0.038521
#
#
# Mechanical properties :
#
#
# Convention : Reuss Voigt Hill
#
# Bulk Modulus (GPa) = 21.66925 32.33964 27.00445
# Shear Modulus (GPa) = 23.33238 31.80515 27.56877
#
# Velocity S-wave (km/s) = 3.13263 3.65745 3.40517
# Velocity P-wave (km/s) = 4.71152 5.60693 5.17861
#
# Compressibility (1/GPa) = 0.04614834
#
# Stress axis : x y z
#
# Youngs Moduli (GPa) = 38.77706 56.00063 58.57762
#
# Poissons Ratio (x) = 0.29930 0.12579
# Poissons Ratio (y) = 0.20725 -0.01217
# Poissons Ratio (z) = 0.08327 -0.01164
#
# Static dielectric constant tensor:
#      x y z
#    x 1.874950 -0.038560 -0.038280 
#    y -0.038560 1.921500 0.027100 
#    z -0.038280 0.027100 1.889150 
# 
# From -- ./inp_files/261950.got.cif
#   From: 2010.05.17/outbox.cif.g08.bks.cpg/sg2_131_cif.got.tgz:261950.got - 2010.06.03 11:33:40.
