data_PCOD9028447
_publ_section_title
;
Structure prediction by ZEFSAII (Michael W. Deem and Ramdas Pophale) SiO2 
 PCOD9028447
Probable space group: P -1
;
_chemical_formula_sum "Si O2"
_cell_formula_units_Z 14
_cell_length_a 9.092178
_cell_length_b 13.416354
_cell_length_c 7.170438
_cell_angle_alpha 55.318168
_cell_angle_beta 72.089694
_cell_angle_gamma 50.409140
_cell_volume 552.179544
_symmetry_space_group_name_H-M "P -1"
_symmetry_group_IT_number 2
_symmetry_cell_setting 'triclinic'
loop_
_space_group_symop_operation_xyz
x,y,z
-x,-y,-z
loop_
_atom_site_type_symbol
_atom_site_label
_atom_site_fract_x
_atom_site_fract_y
_atom_site_fract_z
Si Si1 0.072888 0.336976 0.581758
Si Si2 0.431573 0.752136 0.218705
Si Si3 0.671013 0.860120 0.968851
Si Si4 0.239170 0.657908 0.160751
Si Si5 0.391329 0.339995 0.341195
Si Si6 0.329381 0.984274 0.540941
Si Si7 0.000059 0.993296 0.733588
O O1 0.232200 0.307112 0.406469
O O2 0.000000 0.500000 0.500000
O O3 0.886765 0.343397 0.621575
O O4 0.174380 0.238419 0.830624
O O5 0.411986 0.645950 0.207298
O O6 0.546498 0.682884 0.440292
O O7 0.561697 0.790195 0.018109
O O8 0.212327 0.891708 0.215951
O O9 0.743858 0.917753 0.724137
O O10 0.500000 0.000000 0.000000
O O11 0.309397 0.513158 0.156431
O O12 0.106450 0.821757 0.942364
O O13 0.577175 0.191494 0.339584
O O14 0.146828 0.037462 0.683307
O O15 0.500000 0.000000 0.500000
O O16 0.000000 0.000000 0.500000
#
# Coordination Sequence:
#
# PCOD9028447 Si02
#       7
#     2   2   2   2   2   2   2
#     4   9  19  35  62  91 116 153 202 254 302 348
#     4  11  22  40  67  97 118 161 215 260 302 362
#     4  11  19  40  67  84 122 165 208 252 297 364
#     4  11  23  38  67  93 124 161 215 258 303 367
#     4  10  22  42  62  91 127 164 204 259 316 359
#     4  12  25  40  64  93 126 166 209 251 311 382
#     4  12  24  41  61  95 132 163 199 258 318 362
#
# _framework density 25.35407
#
# number of rings (size 3 to 8) (size 9 to 14) (size 15 to 20)
#    0.000    1.143    4.286    3.429    2.000    0.571 
#    0.000    0.000    0.000    2.571    0.000    0.000 
#    0.000    0.000    0.000    0.000    0.000    0.000 
#
# Total GULP energy -78143.243333 kJ/mol
# GULP energy per Si atom -5581.660238 kJ/mol
# Density = 2.529636 g / cm^3
# Si number density = 25.354070 Si / 1000 Ang^3
#
#
#
# Elastic Constant Matrix: (Units=GPa)
#
#
# Indices 1 2 3 4 5 6 
#
# 1 131.9063 -9.4615 4.7153 4.1922 -44.7402 -4.6806
# 2 -9.4615 91.1642 15.5800 -17.3994 -12.6748 -8.6849
# 3 4.7153 15.5800 84.0263 -12.2849 -12.5928 -2.4346
# 4 4.1922 -17.3994 -12.2849 37.4024 -5.9170 -2.8066
# 5 -44.7402 -12.6748 -12.5928 -5.9170 55.5282 6.7270
# 6 -4.6806 -8.6849 -2.4346 -2.8066 6.7270 42.5254
#
#
#
# Elastic Compliance Matrix: (Units=1/GPa)
#
#
# Indices 1 2 3 4 5 6 
#
# 1 0.011049 0.002799 0.000616 0.001850 0.009831 0.000390
# 2 0.002799 0.013747 -0.000774 0.006916 0.005635 0.002636
# 3 0.000616 -0.000774 0.013250 0.004546 0.003764 0.000373
# 4 0.001850 0.006916 0.004546 0.032599 0.007225 0.002885
# 5 0.009831 0.005635 0.003764 0.007225 0.029042 -0.001669
# 6 0.000390 0.002636 0.000373 0.002885 -0.001669 0.024572
#
#
# Mechanical properties :
#
#
# Convention : Reuss Voigt Hill
#
# Bulk Modulus (GPa) = 23.08001 36.52936 29.80469
# Shear Modulus (GPa) = 37.47586 46.84206 42.15896
#
# Velocity S-wave (km/s) = 3.84878 4.30294 4.08218
# Velocity P-wave (km/s) = 5.37342 6.25508 5.83094
#
# Compressibility (1/GPa) = 0.04332753
#
# Stress axis : x y z
#
# Youngs Moduli (GPa) = 90.50203 72.74576 75.47450
#
# Poissons Ratio (x) = -0.20359 -0.04651
# Poissons Ratio (y) = -0.25328 0.05841
# Poissons Ratio (z) = -0.05577 0.05630
#
# Static dielectric constant tensor:
#      x y z
#    x 2.175040 0.018740 -0.013320 
#    y 0.018740 2.150000 0.051300 
#    z -0.013320 0.051300 2.076460 
# 
# From -- ./inp_files/158188.got.cif
#   From: 2010.05.17/outbox.cif.g08.bks.cpg/sg2_80_cif.got.tgz:158188.got - 2010.06.03 11:33:40.
