data_PCOD9028795
_publ_section_title
;
Structure prediction by ZEFSAII (Michael W. Deem and Ramdas Pophale) SiO2 
 PCOD9028795
Probable space group: P -1
;
_chemical_formula_sum "Si O2"
_cell_formula_units_Z 14
_cell_length_a 6.809112
_cell_length_b 14.023458
_cell_length_c 16.637134
_cell_angle_alpha 33.577822
_cell_angle_beta 122.754994
_cell_angle_gamma 135.931547
_cell_volume 604.216752
_symmetry_space_group_name_H-M "P -1"
_symmetry_group_IT_number 2
_symmetry_cell_setting 'triclinic'
loop_
_space_group_symop_operation_xyz
x,y,z
-x,-y,-z
loop_
_atom_site_type_symbol
_atom_site_label
_atom_site_fract_x
_atom_site_fract_y
_atom_site_fract_z
Si Si1 0.707855 0.977048 0.618489
Si Si2 0.404341 0.645974 0.348701
Si Si3 0.331057 0.770733 0.081029
Si Si4 0.704620 0.931598 0.347446
Si Si5 0.327090 0.692816 0.950991
Si Si6 0.225647 0.634781 0.567749
Si Si7 0.662513 0.489855 0.148985
O O1 0.516193 0.737054 0.775177
O O2 0.500000 0.000000 0.500000
O O3 0.819912 0.178272 0.558610
O O4 0.977350 0.004426 0.614068
O O5 0.500000 0.500000 0.500000
O O6 0.375164 0.642369 0.248862
O O7 0.636518 0.871247 0.280717
O O8 0.096858 0.568011 0.373077
O O9 0.417077 0.760198 0.017311
O O10 0.990166 0.650413 0.084117
O O11 0.500000 0.000000 0.000000
O O12 0.471882 0.729797 0.489527
O O13 0.658769 0.114141 0.223351
O O14 0.510062 0.606592 0.026555
O O15 0.000000 0.500000 0.000000
O O16 0.331516 0.578609 0.709732
#
# Coordination Sequence:
#
# PCOD9028795 Si02
#       7
#     2   2   2   2   2   2   2
#     4  10  22  42  65 101 138 180 230 285 351 402
#     4  11  23  45  71 103 137 183 234 288 350 411
#     4  11  26  49  69  97 146 186 226 289 348 415
#     4  12  24  43  70 102 142 177 238 285 347 417
#     4  12  27  46  70 105 139 186 234 282 347 418
#     4  10  24  42  69 102 136 181 228 295 345 408
#     4  10  25  43  69 101 137 182 233 279 355 410
#
# _framework density 23.170493
#
# number of rings (size 3 to 8) (size 9 to 14) (size 15 to 20)
#    0.000    1.143    4.286    0.429    4.000    5.714 
#    0.000    0.000    0.000    0.000    0.000    0.000 
#    0.000    0.000    0.000    0.000    0.000    0.000 
#
# Total GULP energy -78207.090323 kJ/mol
# GULP energy per Si atom -5586.220737 kJ/mol
# Density = 2.311776 g / cm^3
# Si number density = 23.170493 Si / 1000 Ang^3
#
#
#
# Elastic Constant Matrix: (Units=GPa)
#
#
# Indices 1 2 3 4 5 6 
#
# 1 79.6146 20.4678 58.9140 19.1555 23.3923 11.3919
# 2 20.4678 78.1688 28.6724 2.3944 4.5721 9.2554
# 3 58.9140 28.6724 114.9942 11.0762 18.1540 8.8848
# 4 19.1555 2.3944 11.0762 35.2631 -0.6622 8.8232
# 5 23.3923 4.5721 18.1540 -0.6622 47.1328 0.3763
# 6 11.3919 9.2554 8.8848 8.8232 0.3763 36.0190
#
#
#
# Elastic Compliance Matrix: (Units=1/GPa)
#
#
# Indices 1 2 3 4 5 6 
#
# 1 0.026200 -0.001921 -0.010328 -0.010373 -0.008964 -0.002611
# 2 -0.001921 0.014530 -0.002671 0.001626 0.000618 -0.002872
# 3 -0.010328 -0.002671 0.014566 0.001195 -0.000209 0.000069
# 4 -0.010373 0.001626 0.001195 0.035126 0.005072 -0.006089
# 5 -0.008964 0.000618 -0.000209 0.005072 0.025748 0.001216
# 6 -0.002611 -0.002872 0.000069 -0.006089 0.001216 0.030789
#
#
# Mechanical properties :
#
#
# Convention : Reuss Voigt Hill
#
# Bulk Modulus (GPa) = 39.28384 54.32066 46.80225
# Shear Modulus (GPa) = 26.98584 34.66455 30.82520
#
# Velocity S-wave (km/s) = 3.41642 3.87210 3.65137
# Velocity P-wave (km/s) = 5.70558 6.59436 6.16601
#
# Compressibility (1/GPa) = 0.02545576
#
# Stress axis : x y z
#
# Youngs Moduli (GPa) = 38.16808 68.82511 68.65373
#
# Poissons Ratio (x) = 0.13220 0.70905
# Poissons Ratio (y) = 0.07331 0.18338
# Poissons Ratio (z) = 0.39420 0.18384
#
# Static dielectric constant tensor:
#      x y z
#    x 2.037110 -0.153080 -0.096890 
#    y -0.153080 1.974350 0.021780 
#    z -0.096890 0.021780 1.928370 
# 
# From -- ./inp_files/126867.got.cif
#   From: 2010.05.17/outbox.cif.g08.bks.cpg/sg2_64_cif.got.tgz:126867.got - 2010.06.03 11:33:40.
