data_PCOD9028864
_publ_section_title
;
Structure prediction by ZEFSAII (Michael W. Deem and Ramdas Pophale) SiO2 
 PCOD9028864
Probable space group: P -1
;
_chemical_formula_sum "Si O2"
_cell_formula_units_Z 16
_cell_length_a 9.025499
_cell_length_b 6.944116
_cell_length_c 17.028659
_cell_angle_alpha 130.260093
_cell_angle_beta 80.162308
_cell_angle_gamma 80.025405
_cell_volume 743.184339
_symmetry_space_group_name_H-M "P -1"
_symmetry_group_IT_number 2
_symmetry_cell_setting 'triclinic'
loop_
_space_group_symop_operation_xyz
x,y,z
-x,-y,-z
loop_
_atom_site_type_symbol
_atom_site_label
_atom_site_fract_x
_atom_site_fract_y
_atom_site_fract_z
Si Si1 0.508791 0.162325 0.830659
Si Si2 0.058485 0.565807 0.234200
Si Si3 0.816174 0.206746 0.579236
Si Si4 0.509206 0.161509 0.647489
Si Si5 0.234615 0.615950 0.075794
Si Si6 0.027934 0.955481 0.893759
Si Si7 0.263860 0.875722 0.597055
Si Si8 0.361865 0.729400 0.724648
O O1 0.482605 0.244603 0.763261
O O2 0.674067 0.189701 0.850317
O O3 0.492577 0.871039 0.757561
O O4 0.367570 0.369008 0.952079
O O5 0.172962 0.591034 0.301084
O O6 0.157346 0.522529 0.132552
O O7 0.002095 0.320406 0.194021
O O8 0.898670 0.846251 0.313080
O O9 0.699127 0.058871 0.582852
O O10 0.758185 0.299718 0.520135
O O11 0.000000 0.000000 0.500000
O O12 0.416583 0.960643 0.587990
O O13 0.428732 0.430317 0.674241
O O14 0.095138 0.790692 0.075413
O O15 0.207954 0.907099 0.837377
O O16 0.000000 0.000000 0.000000
O O17 0.299683 0.742440 0.644251
#
# Coordination Sequence:
#
# PCOD9028864 Si02
#       8
#     2   2   2   2   2   2   2   2
#     4  10  24  40  63  94 128 172 209 257 319 374
#     4  11  22  43  64  93 131 166 210 266 311 373
#     4  10  23  42  68  92 121 171 215 260 320 371
#     4  11  21  42  66  92 131 162 209 266 313 378
#     4  11  23  41  64  92 130 170 212 258 316 377
#     4  12  25  39  65  97 128 170 212 257 314 379
#     4  10  22  42  65  92 128 167 213 260 320 368
#     4  11  23  39  64  95 129 165 211 259 313 380
#
# _framework density 21.528977999999999
#
# number of rings (size 3 to 8) (size 9 to 14) (size 15 to 20)
#    0.000    1.250    3.750    1.875    3.500    1.500 
#    0.000    5.000    0.000    0.000    0.000    0.000 
#    0.000    0.000    0.000    0.000    0.000    0.000 
#
# Total GULP energy -89489.964328 kJ/mol
# GULP energy per Si atom -5593.122770 kJ/mol
# Density = 2.147998 g / cm^3
# Si number density = 21.528978 Si / 1000 Ang^3
#
#
#
# Elastic Constant Matrix: (Units=GPa)
#
#
# Indices 1 2 3 4 5 6 
#
# 1 98.4702 10.4184 23.5531 -8.8288 -3.8863 3.9492
# 2 10.4184 63.9335 17.9630 -17.7745 6.6277 0.5826
# 3 23.5531 17.9630 94.5317 -25.1762 15.0608 -2.7523
# 4 -8.8288 -17.7745 -25.1762 23.8195 -7.3074 -6.0013
# 5 -3.8863 6.6277 15.0608 -7.3074 39.6147 -7.1125
# 6 3.9492 0.5826 -2.7523 -6.0013 -7.1125 25.7645
#
#
#
# Elastic Compliance Matrix: (Units=1/GPa)
#
#
# Indices 1 2 3 4 5 6 
#
# 1 0.011133 -0.001027 -0.002742 0.000865 0.002259 -0.001151
# 2 -0.001027 0.020110 0.000957 0.016506 -0.000136 0.003612
# 3 -0.002742 0.000957 0.016314 0.017620 -0.002378 0.005589
# 4 0.000865 0.016506 0.017620 0.082159 0.009956 0.023262
# 5 0.002259 -0.000136 -0.002378 0.009956 0.030025 0.010011
# 6 -0.001151 0.003612 0.005589 0.023262 0.010011 0.047687
#
#
# Mechanical properties :
#
#
# Convention : Reuss Voigt Hill
#
# Bulk Modulus (GPa) = 23.84718 40.08938 31.96828
# Shear Modulus (GPa) = 22.02378 31.50646 26.76512
#
# Velocity S-wave (km/s) = 3.20188 3.82965 3.52975
# Velocity P-wave (km/s) = 4.97697 6.18195 5.61189
#
# Compressibility (1/GPa) = 0.04193368
#
# Stress axis : x y z
#
# Youngs Moduli (GPa) = 89.82558 49.72743 61.29781
#
# Poissons Ratio (x) = 0.05107 0.16805
# Poissons Ratio (y) = 0.09225 -0.05868
# Poissons Ratio (z) = 0.24626 -0.04761
#
# Static dielectric constant tensor:
#      x y z
#    x 1.784800 -0.000360 0.008210 
#    y -0.000360 1.730370 0.010880 
#    z 0.008210 0.010880 1.803920 
# 
# From -- ./inp_files/38614.got.cif
#   From: 2010.05.17/outbox.cif.g08.bks.cpg/sg2_20_cif.got.tgz:38614.got - 2010.06.03 11:33:40.
