data_PCOD9028646
_publ_section_title
;
Structure prediction by ZEFSAII (Michael W. Deem and Ramdas Pophale) SiO2 
 PCOD9028646
Probable space group: P -1
;
_chemical_formula_sum "Si O2"
_cell_formula_units_Z 16
_cell_length_a 12.187401
_cell_length_b 6.761537
_cell_length_c 9.473615
_cell_angle_alpha 79.570985
_cell_angle_beta 96.578121
_cell_angle_gamma 119.941852
_cell_volume 665.039245
_symmetry_space_group_name_H-M "P -1"
_symmetry_group_IT_number 2
_symmetry_cell_setting 'triclinic'
loop_
_space_group_symop_operation_xyz
x,y,z
-x,-y,-z
loop_
_atom_site_type_symbol
_atom_site_label
_atom_site_fract_x
_atom_site_fract_y
_atom_site_fract_z
Si Si1 0.843909 0.246560 0.619694
Si Si2 0.986300 0.275448 0.346770
Si Si3 0.867210 0.758370 0.014976
Si Si4 0.633763 0.849039 0.009614
Si Si5 0.479528 0.447469 0.244436
Si Si6 0.792659 0.754735 0.704650
Si Si7 0.619713 0.226257 0.426937
Si Si8 0.230365 0.748642 0.835303
O O1 0.933657 0.451684 0.705950
O O2 0.730218 0.287738 0.548210
O O3 0.918824 0.254203 0.488142
O O4 0.801716 0.999490 0.708276
O O5 0.093983 0.202443 0.388269
O O6 0.873599 0.172307 0.230217
O O7 0.836776 0.676937 0.859500
O O8 0.752299 0.802045 0.034808
O O9 0.843285 0.528914 0.123576
O O10 0.000000 0.000000 0.000000
O O11 0.540067 0.686475 0.139102
O O12 0.689821 0.112416 0.033691
O O13 0.564181 0.747111 0.862998
O O14 0.355934 0.405976 0.318342
O O15 0.576948 0.413764 0.360362
O O16 0.676068 0.188202 0.293385
O O17 0.500000 0.000000 0.500000
#
# Coordination Sequence:
#
# PCOD9028646 Si02
#       8
#     2   2   2   2   2   2   2   2
#     4  10  22  42  64  89 132 175 213 278 322 382
#     4  10  23  41  63  94 126 173 221 267 328 390
#     4  11  23  40  67  99 134 170 213 280 330 390
#     4  10  23  44  67  98 134 173 214 275 332 397
#     4  10  22  44  66  96 137 170 218 274 333 385
#     4  11  22  39  64  92 127 169 221 263 327 390
#     4  11  22  44  68  96 132 175 223 271 326 391
#     4  11  24  43  70  99 132 173 221 270 338 389
#
# _framework density 24.058733
#
# number of rings (size 3 to 8) (size 9 to 14) (size 15 to 20)
#    0.000    1.500    2.500    1.875    0.000    5.500 
#    6.750    1.250    0.000    0.000    0.000    0.000 
#    0.000    0.000    0.000    0.000    0.000    0.000 
#
# Total GULP energy -89351.001969 kJ/mol
# GULP energy per Si atom -5584.437623 kJ/mol
# Density = 2.400397 g / cm^3
# Si number density = 24.058733 Si / 1000 Ang^3
#
#
#
# Elastic Constant Matrix: (Units=GPa)
#
#
# Indices 1 2 3 4 5 6 
#
# 1 154.5508 19.5700 32.0998 -6.2764 -0.4069 9.2910
# 2 19.5700 87.9267 27.3128 -10.4679 -8.4276 12.3602
# 3 32.0998 27.3128 59.8767 -6.6407 2.4840 3.9472
# 4 -6.2764 -10.4679 -6.6407 36.0776 8.7685 -0.0738
# 5 -0.4069 -8.4276 2.4840 8.7685 31.5563 -3.7526
# 6 9.2910 12.3602 3.9472 -0.0738 -3.7526 26.4159
#
#
#
# Elastic Compliance Matrix: (Units=1/GPa)
#
#
# Indices 1 2 3 4 5 6 
#
# 1 0.007401 -0.000156 -0.003701 0.000569 -0.000049 -0.001982
# 2 -0.000156 0.014644 -0.006107 0.002335 0.003094 -0.005438
# 3 -0.003701 -0.006107 0.021910 0.002612 -0.004092 0.000311
# 4 0.000569 0.002335 0.002612 0.031044 -0.008535 -0.002808
# 5 -0.000049 0.003094 -0.004092 -0.008535 0.035712 0.004230
# 6 -0.001982 -0.005438 0.000311 -0.002808 0.004230 0.041645
#
#
# Mechanical properties :
#
#
# Convention : Reuss Voigt Hill
#
# Bulk Modulus (GPa) = 41.62000 51.14659 46.38329
# Shear Modulus (GPa) = 27.73291 33.70139 30.71715
#
# Velocity S-wave (km/s) = 3.39885 3.74678 3.57705
# Velocity P-wave (km/s) = 5.72187 6.32638 6.03170
#
# Compressibility (1/GPa) = 0.02402691
#
# Stress axis : x y z
#
# Youngs Moduli (GPa) = 135.11909 68.28784 45.64198
#
# Poissons Ratio (x) = 0.01065 0.16891
# Poissons Ratio (y) = 0.02107 0.27874
# Poissons Ratio (z) = 0.50003 0.41704
#
# Static dielectric constant tensor:
#      x y z
#    x 1.944470 -0.001800 -0.040870 
#    y -0.001800 1.963270 0.008710 
#    z -0.040870 0.008710 1.932570 
# 
# From -- ./inp_files/410285.got.cif
#   From: 2010.05.17/outbox.cif.g08.bks.cpg/sg2_206_cif.got.tgz:410285.got - 2010.06.03 11:33:40.
