data_PCOD9028045
_publ_section_title
;
Structure prediction by ZEFSAII (Michael W. Deem and Ramdas Pophale) SiO2 
 PCOD9028045
Probable space group: P -1
;
_chemical_formula_sum "Si O2"
_cell_formula_units_Z 13
_cell_length_a 11.832704
_cell_length_b 5.082735
_cell_length_c 9.702005
_cell_angle_alpha 108.148286
_cell_angle_beta 109.639346
_cell_angle_gamma 102.691287
_cell_volume 486.710446
_symmetry_space_group_name_H-M "P -1"
_symmetry_group_IT_number 2
_symmetry_cell_setting 'triclinic'
loop_
_space_group_symop_operation_xyz
x,y,z
-x,-y,-z
loop_
_atom_site_type_symbol
_atom_site_label
_atom_site_fract_x
_atom_site_fract_y
_atom_site_fract_z
Si Si1 0.253990 0.823636 0.137972
Si Si2 0.483773 0.207737 0.749151
Si Si3 0.119669 0.235799 0.285317
Si Si4 0.199849 0.899705 0.486658
Si Si5 0.000000 0.000000 0.500000
Si Si6 0.614301 0.842571 0.011098
Si Si7 0.131600 0.247621 0.858565
O O1 0.388884 0.834769 0.262938
O O2 0.204684 0.068947 0.220712
O O3 0.147573 0.499342 0.022792
O O4 0.299595 0.910875 0.014991
O O5 0.453514 0.080875 0.872581
O O6 0.350566 0.059170 0.591683
O O7 0.521884 0.559379 0.841888
O O8 0.171572 0.587214 0.349516
O O9 0.137983 0.142694 0.439710
O O10 0.971396 0.052956 0.166045
O O11 0.106989 0.842915 0.569637
O O12 0.932265 0.724979 0.307732
O O13 0.722657 0.727836 0.099973
#
# Coordination Sequence:
#
# PCOD9028045 Si02
#       7
#     2   2   2   2   1   2   2
#     4  11  25  43  69  99 144 187 230 283 347 421
#     4  10  23  44  67 103 134 184 236 290 343 409
#     4  11  28  45  69 107 142 191 228 281 350 424
#     4  11  26  46  72 102 142 184 236 288 346 411
#     4  10  22  46  68 102 136 174 234 290 352 396
#     4  10  22  41  70  99 134 181 236 290 347 405
#     4  10  23  42  69 101 134 182 230 295 344 412
#
# _framework density 26.709924999999998
#
# number of rings (size 3 to 8) (size 9 to 14) (size 15 to 20)
#    0.000    1.538    1.538    0.923   10.769    6.769 
#    0.000    0.000    0.000    0.000    0.000    0.000 
#    0.000    0.000    0.000    0.000    0.000    0.000 
#
# Total GULP energy -72494.331908 kJ/mol
# GULP energy per Si atom -5576.487070 kJ/mol
# Density = 2.664913 g / cm^3
# Si number density = 26.709925 Si / 1000 Ang^3
#
#
#
# Elastic Constant Matrix: (Units=GPa)
#
#
# Indices 1 2 3 4 5 6 
#
# 1 198.1260 21.9495 82.5582 38.3509 5.5676 -19.1143
# 2 21.9495 63.8408 43.1526 24.9585 15.4757 -3.4862
# 3 82.5582 43.1526 169.7597 48.0104 25.2382 -8.2368
# 4 38.3509 24.9585 48.0104 40.9966 16.1282 -9.4313
# 5 5.5676 15.4757 25.2382 16.1282 47.6038 7.8475
# 6 -19.1143 -3.4862 -8.2368 -9.4313 7.8475 34.5551
#
#
#
# Elastic Compliance Matrix: (Units=1/GPa)
#
#
# Indices 1 2 3 4 5 6 
#
# 1 0.006952 0.000672 -0.002511 -0.004075 0.001368 0.001892
# 2 0.000672 0.021642 -0.002741 -0.009730 -0.002327 -0.000226
# 3 -0.002511 -0.002741 0.010083 -0.007423 -0.001490 -0.000950
# 4 -0.004075 -0.009730 -0.007423 0.049742 -0.011106 0.011093
# 5 0.001368 -0.002327 -0.001490 -0.011106 0.027663 -0.009147
# 6 0.001892 -0.000226 -0.000950 0.011093 -0.009147 0.034842
#
#
# Mechanical properties :
#
#
# Convention : Reuss Voigt Hill
#
# Bulk Modulus (GPa) = 33.87958 80.78299 57.33128
# Shear Modulus (GPa) = 29.42497 43.56885 36.49691
#
# Velocity S-wave (km/s) = 3.32271 4.04318 3.70052
# Velocity P-wave (km/s) = 5.23759 7.21849 6.30630
#
# Compressibility (1/GPa) = 0.02951631
#
# Stress axis : x y z
#
# Youngs Moduli (GPa) = 143.84382 46.20738 99.17360
#
# Poissons Ratio (x) = -0.03104 0.24901
# Poissons Ratio (y) = -0.09661 0.27185
# Poissons Ratio (z) = 0.36117 0.12666
#
# Static dielectric constant tensor:
#      x y z
#    x 2.734600 0.237130 -0.351400 
#    y 0.237130 2.351480 -0.222100 
#    z -0.351400 -0.222100 2.335590 
# 
# From -- ./inp_files/64065.got.cif
#   From: 2010.05.17/outbox.cif.g08.bks.cpg/sg2_33_cif.got.tgz:64065.got - 2010.06.03 11:33:40.
