data_PCOD9028326
_publ_section_title
;
Structure prediction by ZEFSAII (Michael W. Deem and Ramdas Pophale) SiO2 
 PCOD9028326
Probable space group: P -1
;
_chemical_formula_sum "Si O2"
_cell_formula_units_Z 14
_cell_length_a 15.562347
_cell_length_b 9.840757
_cell_length_c 9.393834
_cell_angle_alpha 105.047502
_cell_angle_beta 55.194856
_cell_angle_gamma 145.651835
_cell_volume 592.877220
_symmetry_space_group_name_H-M "P -1"
_symmetry_group_IT_number 2
_symmetry_cell_setting 'triclinic'
loop_
_space_group_symop_operation_xyz
x,y,z
-x,-y,-z
loop_
_atom_site_type_symbol
_atom_site_label
_atom_site_fract_x
_atom_site_fract_y
_atom_site_fract_z
Si Si1 0.958469 0.755799 0.258266
Si Si2 0.813654 0.255013 0.002028
Si Si3 0.335714 0.146996 0.600006
Si Si4 0.822564 0.708047 0.793432
Si Si5 0.426417 0.696006 0.322087
Si Si6 0.728811 0.627410 0.190577
Si Si7 0.016099 0.409548 0.332868
O O1 0.780061 0.494915 0.457236
O O2 0.859577 0.668316 0.171564
O O3 0.138631 0.852569 0.110409
O O4 0.041870 0.002374 0.296598
O O5 0.829769 0.364404 0.873346
O O6 0.000000 0.500000 0.000000
O O7 0.589481 0.001769 0.209353
O O8 0.462720 0.269559 0.655132
O O9 0.495704 0.343459 0.375822
O O10 0.217117 0.155626 0.740748
O O11 0.192104 0.852524 0.624910
O O12 0.637526 0.471026 0.797267
O O13 0.934456 0.686545 0.677560
O O14 0.757443 0.653694 0.003676
O O15 0.000000 0.500000 0.500000
#
# Coordination Sequence:
#
# PCOD9028326 Si02
#       7
#     2   2   2   2   2   2   2
#     4  11  24  47  74 103 142 186 235 298 350 418
#     4  12  26  47  71 102 147 190 232 285 360 427
#     4  10  22  46  69 105 141 184 232 289 362 411
#     4  12  25  46  75 107 138 181 247 294 348 415
#     4  11  26  45  70 109 141 186 234 293 355 418
#     4  10  22  41  77 103 138 181 237 297 345 419
#     4  12  27  47  70 102 147 186 231 295 353 420
#
# _framework density 23.613657
#
# number of rings (size 3 to 8) (size 9 to 14) (size 15 to 20)
#    0.000    0.857    2.857    3.429    2.000    3.429 
#    7.714    0.000    0.000    0.000    0.000    0.000 
#    0.000    0.000    0.000    0.000    0.000    0.000 
#
# Total GULP energy -78391.108032 kJ/mol
# GULP energy per Si atom -5599.364859 kJ/mol
# Density = 2.355991 g / cm^3
# Si number density = 23.613657 Si / 1000 Ang^3
#
#
#
# Elastic Constant Matrix: (Units=GPa)
#
#
# Indices 1 2 3 4 5 6 
#
# 1 53.9222 17.2015 3.6339 12.6775 -3.4625 5.6743
# 2 17.2015 109.7044 60.6075 1.7405 3.2713 10.0101
# 3 3.6339 60.6075 117.1967 -24.1183 11.5146 11.2409
# 4 12.6775 1.7405 -24.1183 33.9017 -7.3090 -2.1165
# 5 -3.4625 3.2713 11.5146 -7.3090 25.0402 8.6800
# 6 5.6743 10.0101 11.2409 -2.1165 8.6800 40.4425
#
#
#
# Elastic Compliance Matrix: (Units=1/GPa)
#
#
# Indices 1 2 3 4 5 6 
#
# 1 0.021896 -0.002489 -0.001081 -0.008496 0.002454 -0.003127
# 2 -0.002489 0.014387 -0.008484 -0.005833 0.000407 -0.001246
# 3 -0.001081 -0.008484 0.015633 0.011344 -0.002592 -0.000944
# 4 -0.008496 -0.005833 0.011344 0.042501 0.006682 0.000273
# 5 0.002454 0.000407 -0.002592 0.006682 0.046616 -0.009380
# 6 -0.003127 -0.001246 -0.000944 0.000273 -0.009380 0.027763
#
#
# Mechanical properties :
#
#
# Convention : Reuss Voigt Hill
#
# Bulk Modulus (GPa) = 35.96094 49.30100 42.63097
# Shear Modulus (GPa) = 24.73117 33.16891 28.95004
#
# Velocity S-wave (km/s) = 3.23975 3.75193 3.50521
# Velocity P-wave (km/s) = 5.40894 6.30022 5.87152
#
# Compressibility (1/GPa) = 0.02780795
#
# Stress axis : x y z
#
# Youngs Moduli (GPa) = 45.67018 69.50827 63.96655
#
# Poissons Ratio (x) = 0.17300 0.06917
# Poissons Ratio (y) = 0.11367 0.54268
# Poissons Ratio (z) = 0.04938 0.58969
#
# Static dielectric constant tensor:
#      x y z
#    x 1.903920 -0.003630 -0.019300 
#    y -0.003630 1.919630 -0.027560 
#    z -0.019300 -0.027560 1.910210 
# 
# From -- ./inp_files/298747.got.cif
#   From: 2010.05.17/outbox.cif.g08.bks.cpg/sg2_150_cif.got.tgz:298747.got - 2010.06.03 11:33:40.
