data_PCOD9028068
_publ_section_title
;
Structure prediction by ZEFSAII (Michael W. Deem and Ramdas Pophale) SiO2 
 PCOD9028068
Probable space group: P -1
;
_chemical_formula_sum "Si O2"
_cell_formula_units_Z 15
_cell_length_a 9.243148
_cell_length_b 11.343190
_cell_length_c 11.053300
_cell_angle_alpha 45.465055
_cell_angle_beta 122.187893
_cell_angle_gamma 130.538614
_cell_volume 621.454325
_symmetry_space_group_name_H-M "P -1"
_symmetry_group_IT_number 2
_symmetry_cell_setting 'triclinic'
loop_
_space_group_symop_operation_xyz
x,y,z
-x,-y,-z
loop_
_atom_site_type_symbol
_atom_site_label
_atom_site_fract_x
_atom_site_fract_y
_atom_site_fract_z
Si Si1 0.392501 0.626149 0.351626
Si Si2 0.000000 0.000000 0.500000
Si Si3 0.010924 0.600476 0.235675
Si Si4 0.584958 0.893078 0.471883
Si Si5 0.995376 0.105516 0.164188
Si Si6 0.373221 0.205474 0.875934
Si Si7 0.586134 0.454273 0.192356
Si Si8 0.752477 0.041827 0.767289
O O1 0.500000 0.500000 0.500000
O O2 0.165010 0.522997 0.346256
O O3 0.492499 0.780516 0.387021
O O4 0.435567 0.721629 0.170477
O O5 0.807560 0.021636 0.449435
O O6 0.030212 0.136786 0.298915
O O7 0.093000 0.749034 0.276624
O O8 0.789979 0.457243 0.256133
O O9 0.019535 0.728523 0.032486
O O10 0.554599 0.733770 0.669626
O O11 0.431236 0.968859 0.375422
O O12 0.798516 0.910841 0.209103
O O13 0.138046 0.055647 0.182658
O O14 0.368933 0.381700 0.809354
O O15 0.335282 0.065396 0.069512
O O16 0.500000 0.500000 0.000000
#
# Coordination Sequence:
#
# PCOD9028068 Si02
#       8
#     2   1   2   2   2   2   2   2
#     4  11  23  41  68 102 133 175 224 276 337 399
#     4  12  26  42  62  98 142 170 218 282 330 394
#     4  10  22  41  71  98 131 175 226 274 333 395
#     4  11  26  42  65  98 136 177 221 281 335 387
#     4  11  21  42  69  98 131 178 220 276 332 393
#     4  11  21  42  70  93 134 173 220 274 329 402
#     4  12  24  45  66  97 136 178 223 277 329 403
#     4  10  22  41  71 101 124 178 232 273 326 398
#
# _framework density 24.136928999999999
#
# number of rings (size 3 to 8) (size 9 to 14) (size 15 to 20)
#    0.000    1.067    5.333    1.600    1.867    5.333 
#    0.000    0.667    0.000    0.000    0.000    0.000 
#    0.000    0.000    0.000    0.000    0.000    0.000 
#
# Total GULP energy -83636.924128 kJ/mol
# GULP energy per Si atom -5575.794942 kJ/mol
# Density = 2.408199 g / cm^3
# Si number density = 24.136929 Si / 1000 Ang^3
#
#
#
# Elastic Constant Matrix: (Units=GPa)
#
#
# Indices 1 2 3 4 5 6 
#
# 1 119.7009 34.2050 66.6730 1.8783 3.6702 37.7194
# 2 34.2050 43.1550 -6.1405 -4.7976 1.8541 23.4429
# 3 66.6730 -6.1405 79.1475 0.4020 -3.9205 16.3150
# 4 1.8783 -4.7976 0.4020 21.8291 3.2349 4.3138
# 5 3.6702 1.8541 -3.9205 3.2349 50.1723 1.0285
# 6 37.7194 23.4429 16.3150 4.3138 1.0285 37.4794
#
#
#
# Elastic Compliance Matrix: (Units=1/GPa)
#
#
# Indices 1 2 3 4 5 6 
#
# 1 0.039856 -0.038869 -0.037070 -0.011081 -0.003697 0.001714
# 2 -0.038869 0.083634 0.046800 0.027790 0.002373 -0.036829
# 3 -0.037070 0.046800 0.050925 0.015056 0.004318 -0.015985
# 4 -0.011081 0.027790 0.015056 0.056740 -0.002304 -0.019252
# 5 -0.003697 0.002373 0.004318 -0.002304 0.020599 0.000056
# 6 0.001714 -0.036829 -0.015985 -0.019252 0.000056 0.057165
#
#
# Mechanical properties :
#
#
# Convention : Reuss Voigt Hill
#
# Bulk Modulus (GPa) = 8.61062 47.94206 28.27634
# Shear Modulus (GPa) = 12.31798 31.71388 22.01593
#
# Velocity S-wave (km/s) = 2.26152 3.62873 3.02342
# Velocity P-wave (km/s) = 3.22404 6.12067 4.89168
#
# Compressibility (1/GPa) = 0.11613566
#
# Stress axis : x y z
#
# Youngs Moduli (GPa) = 25.09020 11.95691 19.63654
#
# Poissons Ratio (x) = 0.46476 0.72793
# Poissons Ratio (y) = 0.97524 -0.91899
# Poissons Ratio (z) = 0.93010 -0.55958
#
# Static dielectric constant tensor:
#      x y z
#    x 1.963570 -0.016220 0.033120 
#    y -0.016220 1.968730 0.032980 
#    z 0.033120 0.032980 1.963080 
# 
# From -- ./inp_files/258304.got.cif
#   From: 2010.05.17/outbox.cif.g08.bks.cpg/sg2_130_cif.got.tgz:258304.got - 2010.06.03 11:33:40.
