data_PCOD9028206
_publ_section_title
;
Structure prediction by ZEFSAII (Michael W. Deem and Ramdas Pophale) SiO2 
 PCOD9028206
Probable space group: P -1
;
_chemical_formula_sum "Si O2"
_cell_formula_units_Z 16
_cell_length_a 12.925601
_cell_length_b 7.285492
_cell_length_c 9.295262
_cell_angle_alpha 133.579475
_cell_angle_beta 80.804238
_cell_angle_gamma 83.741019
_cell_volume 595.826441
_symmetry_space_group_name_H-M "P -1"
_symmetry_group_IT_number 2
_symmetry_cell_setting 'triclinic'
loop_
_space_group_symop_operation_xyz
x,y,z
-x,-y,-z
loop_
_atom_site_type_symbol
_atom_site_label
_atom_site_fract_x
_atom_site_fract_y
_atom_site_fract_z
Si Si1 0.015914 0.071271 0.217020
Si Si2 0.538505 0.175436 0.805437
Si Si3 0.107763 0.087461 0.486921
Si Si4 0.564130 0.227739 0.499826
Si Si5 0.648689 0.297940 0.113431
Si Si6 0.161995 0.478327 0.906178
Si Si7 0.180214 0.179034 0.040544
Si Si8 0.216738 0.669081 0.448114
O O1 0.085657 0.181885 0.380598
O O2 0.276512 0.538160 0.886597
O O3 0.067695 0.760891 0.080699
O O4 0.936596 0.852729 0.900545
O O5 0.582311 0.113073 0.598717
O O6 0.454509 0.997958 0.724513
O O7 0.500000 0.500000 0.000000
O O8 0.613268 0.122474 0.902428
O O9 0.129547 0.318038 0.698500
O O10 0.200887 0.829400 0.385087
O O11 0.000000 0.000000 0.500000
O O12 0.456017 0.486544 0.674840
O O13 0.669829 0.324554 0.506373
O O14 0.730078 0.099112 0.096412
O O15 0.111644 0.807308 0.647864
O O16 0.171802 0.303304 0.951921
O O17 0.212243 0.386188 0.248298
#
# Coordination Sequence:
#
# PCOD9028206 Si02
#       8
#     2   2   2   2   2   2   2   2
#     4  10  24  50  75 110 152 200 251 324 379 455
#     4   9  20  40  69 108 143 192 254 311 370 445
#     4  10  24  46  76 108 146 196 248 312 382 452
#     4  10  22  41  72 109 151 199 252 312 381 455
#     4  10  24  45  75 109 152 201 252 315 377 452
#     4  11  24  47  80 111 150 199 259 313 383 461
#     4  11  24  47  78 111 153 206 256 315 383 454
#     4  11  23  45  73 109 149 202 252 311 387 452
#
# _framework density 26.853456999999999
#
# number of rings (size 3 to 8) (size 9 to 14) (size 15 to 20)
#    0.000    1.750    1.250    1.125    7.000    2.500 
#    6.750    3.125    0.000    0.000    0.000    0.000 
#    0.000    0.000    0.000    0.000    0.000    0.000 
#
# Total GULP energy -89660.447193 kJ/mol
# GULP energy per Si atom -5603.777950 kJ/mol
# Density = 2.679234 g / cm^3
# Si number density = 26.853457 Si / 1000 Ang^3
#
#
#
# Elastic Constant Matrix: (Units=GPa)
#
#
# Indices 1 2 3 4 5 6 
#
# 1 225.6980 75.1881 75.0786 22.0236 15.7647 -1.0711
# 2 75.1881 156.5757 45.9828 2.7557 -14.2239 -8.4595
# 3 75.0786 45.9828 120.9038 19.2245 23.7324 1.5501
# 4 22.0236 2.7557 19.2245 27.2735 1.0738 4.6012
# 5 15.7647 -14.2239 23.7324 1.0738 59.6981 6.8732
# 6 -1.0711 -8.4595 1.5501 4.6012 6.8732 43.5812
#
#
#
# Elastic Compliance Matrix: (Units=1/GPa)
#
#
# Indices 1 2 3 4 5 6 
#
# 1 0.006429 -0.002473 -0.002254 -0.003354 -0.001368 0.000328
# 2 -0.002473 0.008808 -0.003044 0.002960 0.003811 0.000844
# 3 -0.002254 -0.003044 0.012934 -0.006858 -0.005199 0.000438
# 4 -0.003354 0.002960 -0.006858 0.044526 0.004047 -0.004603
# 5 -0.001368 0.003811 -0.005199 0.004047 0.020330 -0.002742
# 6 0.000328 0.000844 0.000438 -0.004603 -0.002742 0.024020
#
#
# Mechanical properties :
#
#
# Convention : Reuss Voigt Hill
#
# Bulk Modulus (GPa) = 79.18259 99.51960 89.35110
# Shear Modulus (GPa) = 36.55035 46.57242 41.56138
#
# Velocity S-wave (km/s) = 3.69332 4.16903 3.93836
# Velocity P-wave (km/s) = 6.90930 7.76628 7.35029
#
# Compressibility (1/GPa) = 0.01262904
#
# Stress axis : x y z
#
# Youngs Moduli (GPa) = 155.55452 113.53707 77.31714
#
# Poissons Ratio (x) = 0.28074 0.17427
# Poissons Ratio (y) = 0.38463 0.23535
# Poissons Ratio (z) = 0.35061 0.34560
#
# Static dielectric constant tensor:
#      x y z
#    x 2.122350 -0.016660 0.011230 
#    y -0.016660 2.146920 -0.101110 
#    z 0.011230 -0.101110 2.211260 
# 
# From -- ./inp_files/415926.got.cif
#   From: 2010.05.17/outbox.cif.g08.bks.cpg/sg2_208_cif.got.tgz:415926.got - 2010.06.03 11:33:40.
