data_PCOD9028712
_publ_section_title
;
Structure prediction by ZEFSAII (Michael W. Deem and Ramdas Pophale) SiO2 
 PCOD9028712
Probable space group: P -1
;
_chemical_formula_sum "Si O2"
_cell_formula_units_Z 16
_cell_length_a 7.924439
_cell_length_b 16.354288
_cell_length_c 7.361897
_cell_angle_alpha 93.174057
_cell_angle_beta 67.338661
_cell_angle_gamma 52.032668
_cell_volume 635.568317
_symmetry_space_group_name_H-M "P -1"
_symmetry_group_IT_number 2
_symmetry_cell_setting 'triclinic'
loop_
_space_group_symop_operation_xyz
x,y,z
-x,-y,-z
loop_
_atom_site_type_symbol
_atom_site_label
_atom_site_fract_x
_atom_site_fract_y
_atom_site_fract_z
Si Si1 0.537760 0.056835 0.840543
Si Si2 0.564256 0.723714 0.120042
Si Si3 0.683310 0.517984 0.385155
Si Si4 0.481662 0.722579 0.749743
Si Si5 0.947793 0.167076 0.524539
Si Si6 0.990781 0.816235 0.081493
Si Si7 0.907761 0.401895 0.936506
Si Si8 0.052669 0.322792 0.464988
O O1 0.483767 0.168022 0.915285
O O2 0.308040 0.101653 0.810237
O O3 0.828661 0.958927 0.652440
O O4 0.500000 0.000000 0.000000
O O5 0.824745 0.645648 0.112489
O O6 0.339415 0.773179 0.360967
O O7 0.542650 0.681729 0.932410
O O8 0.500000 0.500000 0.500000
O O9 0.949676 0.407413 0.350060
O O10 0.592307 0.621592 0.554409
O O11 0.705731 0.513264 0.156068
O O12 0.649558 0.751148 0.641344
O O13 0.174965 0.814860 0.879699
O O14 0.993099 0.246005 0.446563
O O15 0.982320 0.160545 0.724950
O O16 0.102955 0.689527 0.007290
O O17 0.910115 0.396775 0.717067
#
# Coordination Sequence:
#
# PCOD9028712 Si02
#       8
#     2   2   2   2   2   2   2   2
#     4  11  22  37  67  96 126 173 217 262 331 395
#     4  10  22  42  66  91 140 166 215 274 324 381
#     4  12  25  43  69  93 135 174 215 273 328 382
#     4  11  22  43  65  93 131 175 212 276 328 375
#     4  10  22  42  64  95 127 176 214 268 324 386
#     4   9  21  41  62  90 132 166 212 273 319 380
#     4  10  22  43  64  96 131 173 212 269 324 376
#     4  11  25  42  67  99 132 169 228 262 319 400
#
# _framework density 25.174318
#
# number of rings (size 3 to 8) (size 9 to 14) (size 15 to 20)
#    0.000    1.500    2.500    1.875    1.750    3.000 
#    0.000    6.875    0.000    0.000    0.000    0.000 
#    0.000    0.000    0.000    0.000    0.000    0.000 
#
# Total GULP energy -89502.581484 kJ/mol
# GULP energy per Si atom -5593.911343 kJ/mol
# Density = 2.511702 g / cm^3
# Si number density = 25.174318 Si / 1000 Ang^3
#
#
#
# Elastic Constant Matrix: (Units=GPa)
#
#
# Indices 1 2 3 4 5 6 
#
# 1 92.6233 1.3018 12.1487 0.3120 -22.7231 -3.4563
# 2 1.3018 36.7171 1.8809 0.1431 7.6561 -0.2245
# 3 12.1487 1.8809 86.8855 2.1668 -10.8574 -7.9643
# 4 0.3120 0.1431 2.1668 32.3652 -1.7833 -7.9608
# 5 -22.7231 7.6561 -10.8574 -1.7833 57.8819 -4.2711
# 6 -3.4563 -0.2245 -7.9643 -7.9608 -4.2711 30.7347
#
#
#
# Elastic Compliance Matrix: (Units=1/GPa)
#
#
# Indices 1 2 3 4 5 6 
#
# 1 0.012231 -0.001420 -0.000889 0.000719 0.004993 0.002015
# 2 -0.001420 0.028293 -0.001067 -0.000541 -0.004591 -0.001007
# 3 -0.000889 -0.001067 0.012262 0.000168 0.002351 0.003440
# 4 0.000719 -0.000541 0.000168 0.033212 0.002073 0.009011
# 5 0.004993 -0.004591 0.002351 0.002073 0.020685 0.004549
# 6 0.002015 -0.001007 0.003440 0.009011 0.004549 0.036613
#
#
# Mechanical properties :
#
#
# Convention : Reuss Voigt Hill
#
# Bulk Modulus (GPa) = 21.72215 27.43206 24.57710
# Shear Modulus (GPa) = 30.23133 37.58934 33.91034
#
# Velocity S-wave (km/s) = 3.46913 3.86834 3.67416
# Velocity P-wave (km/s) = 4.96930 5.55631 5.27098
#
# Compressibility (1/GPa) = 0.04603596
#
# Stress axis : x y z
#
# Youngs Moduli (GPa) = 81.76133 35.34383 81.55479
#
# Poissons Ratio (x) = 0.05018 0.07247
# Poissons Ratio (y) = 0.11609 0.08698
# Poissons Ratio (z) = 0.07266 0.03769
#
# Static dielectric constant tensor:
#      x y z
#    x 2.136670 -0.190060 -0.156280 
#    y -0.190060 2.238070 0.142140 
#    z -0.156280 0.142140 2.120960 
# 
# From -- ./inp_files/187910.got.cif
#   From: 2010.05.17/outbox.cif.g08.bks.cpg/sg2_94_cif.got.tgz:187910.got - 2010.06.03 11:33:40.
