data_PCOD9028802
_publ_section_title
;
Structure prediction by ZEFSAII (Michael W. Deem and Ramdas Pophale) SiO2 
 PCOD9028802
Probable space group: P -1
;
_chemical_formula_sum "Si O2"
_cell_formula_units_Z 16
_cell_length_a 12.237485
_cell_length_b 21.282446
_cell_length_c 12.456618
_cell_angle_alpha 27.061378
_cell_angle_beta 37.415949
_cell_angle_gamma 27.989035
_cell_volume 692.196177
_symmetry_space_group_name_H-M "P -1"
_symmetry_group_IT_number 2
_symmetry_cell_setting 'triclinic'
loop_
_space_group_symop_operation_xyz
x,y,z
-x,-y,-z
loop_
_atom_site_type_symbol
_atom_site_label
_atom_site_fract_x
_atom_site_fract_y
_atom_site_fract_z
Si Si1 0.404086 0.446346 0.914230
Si Si2 0.106888 0.159099 0.900581
Si Si3 0.623534 0.938802 0.785946
Si Si4 0.350122 0.387715 0.819048
Si Si5 0.208273 0.524060 0.488787
Si Si6 0.001965 0.325689 0.945808
Si Si7 0.645271 0.041087 0.389940
Si Si8 0.893665 0.117733 0.794896
O O1 0.265896 0.482124 0.856418
O O2 0.559963 0.509362 0.683802
O O3 0.571855 0.230848 0.122610
O O4 0.227815 0.534939 0.016742
O O5 0.960287 0.275554 0.940495
O O6 0.003876 0.284980 0.684776
O O7 0.377548 0.062765 0.849787
O O8 0.102358 0.000809 0.119584
O O9 0.612604 0.050569 0.527819
O O10 0.651719 0.776563 0.949872
O O11 0.832092 0.848742 0.843580
O O12 0.228735 0.506791 0.627294
O O13 0.626477 0.289385 0.753456
O O14 0.148077 0.395217 0.702050
O O15 0.500000 0.000000 0.500000
O O16 0.910436 0.874876 0.408283
O O17 0.000000 0.000000 0.000000
#
# Coordination Sequence:
#
# PCOD9028802 Si02
#       8
#     2   2   2   2   2   2   2   2
#     4  12  24  44  66 105 139 177 228 278 353 414
#     4  11  22  48  70  96 133 184 235 278 343 408
#     4  10  23  43  69  99 131 180 233 287 341 401
#     4  10  22  42  65 102 134 177 224 287 348 402
#     4  11  24  43  68 100 138 183 225 286 341 405
#     4  11  27  45  68  99 143 185 225 284 344 414
#     4  12  22  41  68 103 135 174 227 285 345 409
#     4  11  21  41  70  97 134 175 232 287 340 401
#
# _framework density 23.114833999999998
#
# number of rings (size 3 to 8) (size 9 to 14) (size 15 to 20)
#    0.000    1.000    3.750    2.625    1.750    3.500 
#    4.500    0.625    0.000    0.000    0.000    0.000 
#    0.000    0.000    0.000    0.000    0.000    0.000 
#
# Total GULP energy -89483.538573 kJ/mol
# GULP energy per Si atom -5592.721161 kJ/mol
# Density = 2.306222 g / cm^3
# Si number density = 23.114834 Si / 1000 Ang^3
#
#
#
# Elastic Constant Matrix: (Units=GPa)
#
#
# Indices 1 2 3 4 5 6 
#
# 1 52.9080 32.8408 25.9038 -5.8346 2.5519 15.7809
# 2 32.8408 117.7147 19.0543 7.0601 8.6510 16.1523
# 3 25.9038 19.0543 78.7874 7.2385 6.7399 10.2684
# 4 -5.8346 7.0601 7.2385 26.0517 -9.7461 6.2245
# 5 2.5519 8.6510 6.7399 -9.7461 23.9780 -9.4828
# 6 15.7809 16.1523 10.2684 6.2245 -9.4828 39.4657
#
#
#
# Elastic Compliance Matrix: (Units=1/GPa)
#
#
# Indices 1 2 3 4 5 6 
#
# 1 0.032431 -0.007639 -0.009588 0.015959 0.005067 -0.008647
# 2 -0.007639 0.011852 0.001424 -0.007665 -0.008130 -0.002912
# 3 -0.009588 0.001424 0.017520 -0.010472 -0.009435 -0.001923
# 4 0.015959 -0.007665 -0.010472 0.057491 0.026063 -0.003325
# 5 0.005067 -0.008130 -0.009435 0.026063 0.063211 0.014834
# 6 -0.008647 -0.002912 -0.001923 -0.003325 0.014834 0.034577
#
#
# Mechanical properties :
#
#
# Convention : Reuss Voigt Hill
#
# Bulk Modulus (GPa) = 33.11448 45.00086 39.05767
# Shear Modulus (GPa) = 19.32337 29.33983 24.33160
#
# Velocity S-wave (km/s) = 2.89446 3.56660 3.24796
# Velocity P-wave (km/s) = 5.05249 6.03916 5.56773
#
# Compressibility (1/GPa) = 0.03019827
#
# Stress axis : x y z
#
# Youngs Moduli (GPa) = 30.83443 84.37055 57.07733
#
# Poissons Ratio (x) = 0.64450 0.54726
# Poissons Ratio (y) = 0.23554 -0.08129
# Poissons Ratio (z) = 0.29564 -0.12017
#
# Static dielectric constant tensor:
#      x y z
#    x 1.868880 0.017830 -0.021290 
#    y 0.017830 1.896600 0.014020 
#    z -0.021290 0.014020 1.924070 
# 
# From -- ./inp_files/282836.got.cif
#   From: 2010.05.17/outbox.cif.g08.bks.cpg/sg2_142_cif.got.tgz:282836.got - 2010.06.03 11:33:40.
