data_PCOD9028957
_publ_section_title
;
Structure prediction by ZEFSAII (Michael W. Deem and Ramdas Pophale) SiO2 
 PCOD9028957
Probable space group: P -1
;
_chemical_formula_sum "Si O2"
_cell_formula_units_Z 16
_cell_length_a 10.958793
_cell_length_b 8.479430
_cell_length_c 9.001601
_cell_angle_alpha 128.765357
_cell_angle_beta 93.682088
_cell_angle_gamma 94.703272
_cell_volume 642.784135
_symmetry_space_group_name_H-M "P -1"
_symmetry_group_IT_number 2
_symmetry_cell_setting 'triclinic'
loop_
_space_group_symop_operation_xyz
x,y,z
-x,-y,-z
loop_
_atom_site_type_symbol
_atom_site_label
_atom_site_fract_x
_atom_site_fract_y
_atom_site_fract_z
Si Si1 0.957292 0.895839 0.635310
Si Si2 0.710918 0.310044 0.707813
Si Si3 0.896269 0.338414 0.977284
Si Si4 0.213142 0.077587 0.623041
Si Si5 0.493686 0.449812 0.292829
Si Si6 0.247120 0.622836 0.733382
Si Si7 0.293389 0.107427 0.970253
Si Si8 0.140317 0.380148 0.301048
O O1 0.967935 0.735732 0.672364
O O2 0.086248 0.939253 0.587400
O O3 0.934960 0.115223 0.827616
O O4 0.844057 0.824723 0.468466
O O5 0.759507 0.320637 0.884823
O O6 0.698310 0.076603 0.517587
O O7 0.591163 0.404675 0.708902
O O8 0.831760 0.446500 0.719371
O O9 0.870182 0.397097 0.177569
O O10 0.000000 0.500000 0.000000
O O11 0.270621 0.177111 0.839057
O O12 0.500000 0.500000 0.500000
O O13 0.630395 0.457418 0.243613
O O14 0.419992 0.224319 0.118082
O O15 0.281381 0.864165 0.837735
O O16 0.222797 0.499990 0.507001
O O17 0.191513 0.191670 0.114264
#
# Coordination Sequence:
#
# PCOD9028957 Si02
#       8
#     2   2   2   2   2   2   2   2
#     4  10  24  42  65  98 138 189 228 285 340 416
#     4  10  23  43  65 102 137 175 231 286 340 409
#     4  11  27  45  67  98 145 184 233 285 347 411
#     4  10  22  42  65  96 140 184 227 280 357 399
#     4  11  22  43  73 102 139 177 232 294 339 412
#     4  12  24  44  72 102 138 190 227 282 358 401
#     4  11  22  42  69 103 138 178 232 284 347 417
#     4  11  23  40  67 102 135 177 238 282 334 420
#
# _framework density 24.891717
#
# number of rings (size 3 to 8) (size 9 to 14) (size 15 to 20)
#    0.000    1.250    5.000    0.375    8.750    2.500 
#    0.000    0.000    0.000    3.750    0.000    0.000 
#    0.000    0.000    0.000    0.000    0.000    0.000 
#
# Total GULP energy -89370.779140 kJ/mol
# GULP energy per Si atom -5585.673696 kJ/mol
# Density = 2.483506 g / cm^3
# Si number density = 24.891717 Si / 1000 Ang^3
#
#
#
# Elastic Constant Matrix: (Units=GPa)
#
#
# Indices 1 2 3 4 5 6 
#
# 1 65.9604 27.1181 48.1177 -14.7896 4.7109 -20.5070
# 2 27.1181 56.9683 49.9894 5.4476 -4.5901 -21.6003
# 3 48.1177 49.9894 156.3178 -6.6046 5.8859 -23.7293
# 4 -14.7896 5.4476 -6.6046 32.4287 2.6883 -4.2157
# 5 4.7109 -4.5901 5.8859 2.6883 34.7529 0.5224
# 6 -20.5070 -21.6003 -23.7293 -4.2157 0.5224 45.4465
#
#
#
# Elastic Compliance Matrix: (Units=1/GPa)
#
#
# Indices 1 2 3 4 5 6 
#
# 1 0.027592 -0.008845 -0.003650 0.014797 -0.005552 0.007777
# 2 -0.008845 0.032288 -0.007361 -0.010738 0.007444 0.006430
# 3 -0.003650 -0.007361 0.010090 0.001862 -0.002335 0.000323
# 4 0.014797 -0.010738 0.001862 0.041189 -0.007023 0.006447
# 5 -0.005552 0.007444 -0.002335 -0.007023 0.031467 -0.001199
# 6 0.007777 0.006430 0.000323 0.006447 -0.001199 0.029350
#
#
# Mechanical properties :
#
#
# Convention : Reuss Voigt Hill
#
# Bulk Modulus (GPa) = 33.04852 58.85522 45.95187
# Shear Modulus (GPa) = 22.54563 32.79373 27.66968
#
# Velocity S-wave (km/s) = 3.01283 3.63361 3.33769
# Velocity P-wave (km/s) = 5.04069 6.42651 5.77532
#
# Compressibility (1/GPa) = 0.03025854
#
# Stress axis : x y z
#
# Youngs Moduli (GPa) = 36.24257 30.97165 99.10596
#
# Poissons Ratio (x) = 0.27395 0.36173
# Poissons Ratio (y) = 0.32057 0.72948
# Poissons Ratio (z) = 0.13228 0.22797
#
# Static dielectric constant tensor:
#      x y z
#    x 1.957400 0.008640 0.031670 
#    y 0.008640 2.025070 -0.023150 
#    z 0.031670 -0.023150 1.962690 
# 
# From -- ./inp_files/246099.got.cif
#   From: 2010.05.17/outbox.cif.g08.bks.cpg/sg2_124_cif.got.tgz:246099.got - 2010.06.03 11:33:40.
