data_PCOD9028960
_publ_section_title
;
Structure prediction by ZEFSAII (Michael W. Deem and Ramdas Pophale) SiO2 
 PCOD9028960
Probable space group: P -1
;
_chemical_formula_sum "Si O2"
_cell_formula_units_Z 16
_cell_length_a 7.665365
_cell_length_b 20.442659
_cell_length_c 12.164330
_cell_angle_alpha 23.986769
_cell_angle_beta 116.959859
_cell_angle_gamma 117.362944
_cell_volume 685.242542
_symmetry_space_group_name_H-M "P -1"
_symmetry_group_IT_number 2
_symmetry_cell_setting 'triclinic'
loop_
_space_group_symop_operation_xyz
x,y,z
-x,-y,-z
loop_
_atom_site_type_symbol
_atom_site_label
_atom_site_fract_x
_atom_site_fract_y
_atom_site_fract_z
Si Si1 0.612280 0.191214 0.839189
Si Si2 0.225014 0.494306 0.022569
Si Si3 0.150075 0.571631 0.635788
Si Si4 0.914409 0.140699 0.698311
Si Si5 0.574730 0.154023 0.436358
Si Si6 0.268857 0.161938 0.639900
Si Si7 0.796763 0.998218 0.549932
Si Si8 0.904216 0.240393 0.027794
O O1 0.719854 0.318792 0.584523
O O2 0.384634 0.189247 0.746963
O O3 0.696813 0.240419 0.906983
O O4 0.670335 0.009367 0.117579
O O5 0.311761 0.328272 0.330182
O O6 0.237104 0.509718 0.869795
O O7 0.356101 0.655981 0.858212
O O8 0.000000 0.500000 0.000000
O O9 0.023191 0.700732 0.455708
O O10 0.025162 0.416488 0.786253
O O11 0.034797 0.151371 0.603748
O O12 0.682744 0.125914 0.626423
O O13 0.000000 0.000000 0.000000
O O14 0.671777 0.037889 0.557588
O O15 0.344356 0.102140 0.428520
O O16 0.875465 0.167825 0.253406
O O17 0.966634 0.888151 0.793409
#
# Coordination Sequence:
#
# PCOD9028960 Si02
#       8
#     2   2   2   2   2   2   2   2
#     4  11  26  43  63  94 136 167 210 258 321 388
#     4  11  22  40  71  96 127 160 217 269 310 375
#     4  11  24  42  64  95 125 169 214 258 319 375
#     4  11  22  41  69  93 129 164 208 266 323 373
#     4  10  22  42  65  97 123 161 220 262 317 372
#     4  11  24  42  67  97 127 168 210 262 321 374
#     4  10  24  41  66  91 126 171 211 264 314 380
#     4  11  25  43  63  88 132 171 212 256 321 373
#
# _framework density 23.349395999999999
#
# number of rings (size 3 to 8) (size 9 to 14) (size 15 to 20)
#    0.000    1.250    3.750    1.875    7.000    1.500 
#    0.000    0.625    0.000    0.000    0.000    0.000 
#    0.000    0.000    0.000    0.000    0.000    0.000 
#
# Total GULP energy -89315.019291 kJ/mol
# GULP energy per Si atom -5582.188706 kJ/mol
# Density = 2.329625 g / cm^3
# Si number density = 23.349396 Si / 1000 Ang^3
#
#
#
# Elastic Constant Matrix: (Units=GPa)
#
#
# Indices 1 2 3 4 5 6 
#
# 1 48.7030 7.1079 0.1884 -1.9137 -7.3709 14.2152
# 2 7.1079 90.3597 39.0733 1.9533 2.6844 17.8353
# 3 0.1884 39.0733 160.8168 6.4093 -17.1784 11.3899
# 4 -1.9137 1.9533 6.4093 26.1786 8.8881 0.3652
# 5 -7.3709 2.6844 -17.1784 8.8881 19.2424 0.6757
# 6 14.2152 17.8353 11.3899 0.3652 0.6757 34.4180
#
#
#
# Elastic Compliance Matrix: (Units=1/GPa)
#
#
# Indices 1 2 3 4 5 6 
#
# 1 0.026099 -0.001419 0.002825 -0.003526 0.014740 -0.011231
# 2 -0.001419 0.014040 -0.003839 0.002149 -0.006736 -0.005310
# 3 0.002825 -0.003839 0.008854 -0.005815 0.012288 -0.002287
# 4 -0.003526 0.002149 -0.005815 0.049246 -0.029670 0.002326
# 5 0.014740 -0.006736 0.012288 -0.029670 0.083509 -0.007988
# 6 -0.011231 -0.005310 -0.002287 0.002326 -0.007988 0.037333
#
#
# Mechanical properties :
#
#
# Convention : Reuss Voigt Hill
#
# Bulk Modulus (GPa) = 22.66232 43.62430 33.14331
# Shear Modulus (GPa) = 20.95054 32.86846 26.90950
#
# Velocity S-wave (km/s) = 2.99868 3.75598 3.39849
# Velocity P-wave (km/s) = 4.66007 6.12647 5.44288
#
# Compressibility (1/GPa) = 0.04412612
#
# Stress axis : x y z
#
# Youngs Moduli (GPa) = 38.31563 71.22439 112.94372
#
# Poissons Ratio (x) = 0.10110 -0.31904
# Poissons Ratio (y) = 0.05439 0.43356
# Poissons Ratio (z) = -0.10823 0.27341
#
# Static dielectric constant tensor:
#      x y z
#    x 1.885480 -0.034480 -0.076410 
#    y -0.034480 1.889770 0.001170 
#    z -0.076410 0.001170 1.878410 
# 
# From -- ./inp_files/508581.got.cif
#   From: 2010.05.17/outbox.cif.g08.bks.cpg/sg2_255_cif.got.tgz:508581.got - 2010.06.03 11:33:40.
