data_PCOD9028504
_publ_section_title
;
Structure prediction by ZEFSAII (Michael W. Deem and Ramdas Pophale) SiO2 
 PCOD9028504
Probable space group: P -1
;
_chemical_formula_sum "Si O2"
_cell_formula_units_Z 14
_cell_length_a 16.245664
_cell_length_b 11.345016
_cell_length_c 9.735501
_cell_angle_alpha 140.082083
_cell_angle_beta 47.688800
_cell_angle_gamma 150.812573
_cell_volume 561.463880
_symmetry_space_group_name_H-M "P -1"
_symmetry_group_IT_number 2
_symmetry_cell_setting 'triclinic'
loop_
_space_group_symop_operation_xyz
x,y,z
-x,-y,-z
loop_
_atom_site_type_symbol
_atom_site_label
_atom_site_fract_x
_atom_site_fract_y
_atom_site_fract_z
Si Si1 0.894974 0.148962 0.157498
Si Si2 0.205578 0.971295 0.547586
Si Si3 0.781582 0.769761 0.488453
Si Si4 0.363686 0.414335 0.974730
Si Si5 0.418851 0.990640 0.714724
Si Si6 0.983700 0.272454 0.873089
Si Si7 0.504029 0.146202 0.251182
O O1 0.922060 0.224915 0.357591
O O2 0.744612 0.099577 0.231447
O O3 0.015375 0.309362 0.035024
O O4 0.817265 0.844974 0.982438
O O5 0.147452 0.027604 0.540492
O O6 0.312778 0.941577 0.334792
O O7 0.348492 0.265404 0.729149
O O8 0.597211 0.453757 0.388527
O O9 0.891892 0.721010 0.328623
O O10 0.805119 0.947933 0.744824
O O11 0.432366 0.695681 0.113581
O O12 0.500000 0.500000 0.000000
O O13 0.500000 0.000000 0.500000
O O14 0.390159 0.808564 0.701592
O O15 0.000000 0.500000 0.000000
O O16 0.500000 0.000000 0.000000
#
# Coordination Sequence:
#
# PCOD9028504 Si02
#       7
#     2   2   2   2   2   2   2
#     4   9  21  39  67  87 126 174 217 279 319 389
#     4  10  22  42  63 101 130 169 221 274 345 394
#     4  11  27  45  67  96 139 178 222 277 336 395
#     4   8  17  34  59  90 130 166 205 267 330 384
#     4  11  19  34  59  99 131 165 218 262 331 402
#     4  11  26  49  70  93 130 183 235 270 327 402
#     4  12  25  38  67 103 139 173 209 283 343 400
#
# _framework density 24.934819000000001
#
# number of rings (size 3 to 8) (size 9 to 14) (size 15 to 20)
#    0.857    0.857    1.429    2.143   10.000    0.571 
#    0.000    0.714    0.000    0.000    0.000    0.000 
#    0.000    0.000    0.000    0.000    0.000    0.000 
#
# Total GULP energy -78066.546221 kJ/mol
# GULP energy per Si atom -5576.181873 kJ/mol
# Density = 2.487807 g / cm^3
# Si number density = 24.934819 Si / 1000 Ang^3
#
#
#
# Elastic Constant Matrix: (Units=GPa)
#
#
# Indices 1 2 3 4 5 6 
#
# 1 110.1491 16.7511 31.0486 -5.0142 4.3635 -30.2012
# 2 16.7511 98.9881 45.5012 13.7513 4.5898 -30.0109
# 3 31.0486 45.5012 150.5695 -3.5873 8.8941 -12.6162
# 4 -5.0142 13.7513 -3.5873 26.2715 -15.0203 9.6235
# 5 4.3635 4.5898 8.8941 -15.0203 43.1072 -2.4034
# 6 -30.2012 -30.0109 -12.6162 9.6235 -2.4034 35.5158
#
#
#
# Elastic Compliance Matrix: (Units=1/GPa)
#
#
# Indices 1 2 3 4 5 6 
#
# 1 0.013739 0.006254 -0.003202 -0.009989 -0.003858 0.018276
# 2 0.006254 0.028323 -0.006989 -0.034530 -0.012270 0.035294
# 3 -0.003202 -0.006989 0.008880 0.007911 0.001574 -0.007511
# 4 -0.009989 -0.034530 0.007911 0.095706 0.033139 -0.058552
# 5 -0.003858 -0.012270 0.001574 0.033139 0.035019 -0.019699
# 6 0.018276 0.035294 -0.007511 -0.058552 -0.019699 0.085386
#
#
# Mechanical properties :
#
#
# Convention : Reuss Voigt Hill
#
# Bulk Modulus (GPa) = 23.21895 60.70095 41.95995
# Shear Modulus (GPa) = 17.28416 38.73930 28.01173
#
# Velocity S-wave (km/s) = 2.63568 3.94588 3.35535
# Velocity P-wave (km/s) = 4.31213 6.71987 5.64584
#
# Compressibility (1/GPa) = 0.04306828
#
# Stress axis : x y z
#
# Youngs Moduli (GPa) = 72.78429 35.30740 112.61339
#
# Poissons Ratio (x) = -0.22082 0.36058
# Poissons Ratio (y) = -0.45521 0.78708
# Poissons Ratio (z) = 0.23305 0.24677
#
# Static dielectric constant tensor:
#      x y z
#    x 1.961860 0.029620 -0.014380 
#    y 0.029620 2.104280 -0.038210 
#    z -0.014380 -0.038210 1.951500 
# 
# From -- ./inp_files/333696.got.cif
#   From: 2010.05.17/outbox.cif.g08.bks.cpg/sg2_167_cif.got.tgz:333696.got - 2010.06.03 11:33:40.
