data_PCOD9028006
_publ_section_title
;
Structure prediction by ZEFSAII (Michael W. Deem and Ramdas Pophale) SiO2 
 PCOD9028006
Probable space group: P -1
;
_chemical_formula_sum "Si O2"
_cell_formula_units_Z 16
_cell_length_a 18.139758
_cell_length_b 6.634091
_cell_length_c 8.931583
_cell_angle_alpha 57.580285
_cell_angle_beta 121.011523
_cell_angle_gamma 126.642761
_cell_volume 697.101673
_symmetry_space_group_name_H-M "P -1"
_symmetry_group_IT_number 2
_symmetry_cell_setting 'triclinic'
loop_
_space_group_symop_operation_xyz
x,y,z
-x,-y,-z
loop_
_atom_site_type_symbol
_atom_site_label
_atom_site_fract_x
_atom_site_fract_y
_atom_site_fract_z
Si Si1 0.377946 0.410327 0.913153
Si Si2 0.048655 0.179167 0.122627
Si Si3 0.397206 0.512521 0.407512
Si Si4 0.451217 0.046771 0.076478
Si Si5 0.715648 0.434295 0.463611
Si Si6 0.866569 0.214443 0.065458
Si Si7 0.705033 0.893256 0.774179
Si Si8 0.897691 0.942147 0.485619
O O1 0.469318 0.688795 0.868229
O O2 0.295435 0.490677 0.747576
O O3 0.372013 0.151494 0.922660
O O4 0.373876 0.326682 0.113916
O O5 0.085939 0.012393 0.337124
O O6 0.965384 0.218313 0.108893
O O7 0.123232 0.484572 0.038958
O O8 0.000000 0.000000 0.000000
O O9 0.500000 0.500000 0.500000
O O10 0.357408 0.498668 0.538531
O O11 0.307894 0.288364 0.312016
O O12 0.415073 0.795253 0.244302
O O13 0.500000 0.000000 0.000000
O O14 0.825133 0.628821 0.535513
O O15 0.688714 0.133110 0.592901
O O16 0.855056 0.092094 0.270599
O O17 0.790438 0.036612 0.928354
O O18 0.000000 0.000000 0.500000
#
# Coordination Sequence:
#
# PCOD9028006 Si02
#       8
#     2   2   2   2   2   2   2   2
#     4  11  24  41  69  92 128 185 219 277 346 394
#     4  10  22  41  70  96 132 175 217 274 341 402
#     4  12  27  43  67 102 138 179 232 285 338 402
#     4  11  22  42  65  94 134 172 229 275 333 406
#     4  12  25  44  67  99 136 171 231 281 335 405
#     4  10  22  42  66  96 133 172 222 276 334 404
#     4  12  24  43  67  97 136 181 226 283 342 400
#     4  10  22  43  68  98 134 173 218 273 334 405
#
# _framework density 22.952176000000001
#
# number of rings (size 3 to 8) (size 9 to 14) (size 15 to 20)
#    0.000    1.000    5.000    1.500    3.500    1.500 
#    0.000    2.500    0.000    0.000    0.000    0.000 
#    0.000    0.000    0.000    0.000    0.000    0.000 
#
# Total GULP energy -89152.547921 kJ/mol
# GULP energy per Si atom -5572.034245 kJ/mol
# Density = 2.289994 g / cm^3
# Si number density = 22.952176 Si / 1000 Ang^3
#
#
#
# Elastic Constant Matrix: (Units=GPa)
#
#
# Indices 1 2 3 4 5 6 
#
# 1 48.5043 12.1485 5.8535 -8.9613 -0.6043 7.8572
# 2 12.1485 126.1615 67.9307 -7.9676 -2.2438 4.1132
# 3 5.8535 67.9307 163.2326 -27.5297 -2.5230 -10.7159
# 4 -8.9613 -7.9676 -27.5297 37.0520 3.7120 1.4729
# 5 -0.6043 -2.2438 -2.5230 3.7120 28.1609 2.7489
# 6 7.8572 4.1132 -10.7159 1.4729 2.7489 26.9018
#
#
#
# Elastic Compliance Matrix: (Units=1/GPa)
#
#
# Indices 1 2 3 4 5 6 
#
# 1 0.023186 -0.001925 0.000520 0.005816 0.000270 -0.006616
# 2 -0.001925 0.010745 -0.004882 -0.001753 0.000903 -0.003022
# 3 0.000520 -0.004882 0.009404 0.005973 -0.000722 0.004087
# 4 0.005816 -0.001753 0.005973 0.032852 -0.003765 -0.000465
# 5 0.000270 0.000903 -0.000722 -0.003765 0.036412 -0.004019
# 6 -0.006616 -0.003022 0.004087 -0.000465 -0.004019 0.041631
#
#
# Mechanical properties :
#
#
# Convention : Reuss Voigt Hill
#
# Bulk Modulus (GPa) = 32.50959 56.64043 44.57501
# Shear Modulus (GPa) = 28.23951 35.22066 31.73008
#
# Velocity S-wave (km/s) = 3.51146 3.92155 3.72216
# Velocity P-wave (km/s) = 5.53491 6.72576 6.15919
#
# Compressibility (1/GPa) = 0.03076016
#
# Stress axis : x y z
#
# Youngs Moduli (GPa) = 43.12986 93.07070 106.33806
#
# Poissons Ratio (x) = 0.17917 -0.05535
# Poissons Ratio (y) = 0.08303 0.51919
# Poissons Ratio (z) = -0.02245 0.45442
#
# Static dielectric constant tensor:
#      x y z
#    x 2.024760 0.049350 0.090530 
#    y 0.049350 1.859990 0.053210 
#    z 0.090530 0.053210 1.911460 
# 
# From -- ./inp_files/138667.got.cif
#   From: 2010.05.17/outbox.cif.g08.bks.cpg/sg2_70_cif.got.tgz:138667.got - 2010.06.03 11:33:40.
