data_PCOD9028471
_publ_section_title
;
Structure prediction by ZEFSAII (Michael W. Deem and Ramdas Pophale) SiO2 
 PCOD9028471
Probable space group: P -1
;
_chemical_formula_sum "Si O2"
_cell_formula_units_Z 12
_cell_length_a 9.259525
_cell_length_b 18.915403
_cell_length_c 6.038201
_cell_angle_alpha 79.156715
_cell_angle_beta 128.206459
_cell_angle_gamma 130.558270
_cell_volume 589.398563
_symmetry_space_group_name_H-M "P -1"
_symmetry_group_IT_number 2
_symmetry_cell_setting 'triclinic'
loop_
_space_group_symop_operation_xyz
x,y,z
-x,-y,-z
loop_
_atom_site_type_symbol
_atom_site_label
_atom_site_fract_x
_atom_site_fract_y
_atom_site_fract_z
Si Si1 0.726894 0.108993 0.558834
Si Si2 0.705498 0.257858 0.689900
Si Si3 0.590643 0.603825 0.080869
Si Si4 0.932888 0.512417 0.177528
Si Si5 0.759819 0.763832 0.803698
Si Si6 0.929370 0.230574 0.286871
O O1 0.704039 0.183156 0.595969
O O2 0.743667 0.127041 0.303031
O O3 0.500000 0.000000 0.500000
O O4 0.000195 0.150237 0.864970
O O5 0.930466 0.372653 0.762007
O O6 0.440391 0.228002 0.438532
O O7 0.773378 0.250014 0.005012
O O8 0.609780 0.660027 0.852038
O O9 0.866071 0.679409 0.407480
O O10 0.373035 0.572821 0.057364
O O11 0.500000 0.500000 0.000000
O O12 0.000000 0.500000 0.500000
O O13 0.000000 0.500000 0.000000
O O14 0.898708 0.767741 0.721674
#
# Coordination Sequence:
#
# PCOD9028471 Si02
#       6
#     2   2   2   2   2   2
#     4  10  24  45  67  94 130 168 222 287 352 412
#     4  11  24  41  67  96 132 177 228 277 341 402
#     4  11  23  40  61  91 138 179 227 272 338 397
#     4  12  26  41  67 101 141 184 233 276 336 411
#     4  10  22  42  62  94 128 171 220 276 337 409
#     4  10  23  41  64  90 129 172 224 282 337 408
#
# _framework density 20.359736999999999
#
# number of rings (size 3 to 8) (size 9 to 14) (size 15 to 20)
#    0.000    1.333    1.667    4.000    4.667    7.333 
#    0.000    1.667    0.000    0.000    0.000    0.000 
#    0.000    0.000    0.000    0.000    0.000    0.000 
#
# Total GULP energy -66953.317125 kJ/mol
# GULP energy per Si atom -5579.443094 kJ/mol
# Density = 2.031340 g / cm^3
# Si number density = 20.359737 Si / 1000 Ang^3
#
#
#
# Elastic Constant Matrix: (Units=GPa)
#
#
# Indices 1 2 3 4 5 6 
#
# 1 100.5086 61.5747 45.3427 -17.1707 8.8542 14.6890
# 2 61.5747 188.8480 57.3133 -8.8280 7.0178 30.8709
# 3 45.3427 57.3133 107.5819 -31.0633 29.3944 3.2486
# 4 -17.1707 -8.8280 -31.0633 30.5380 0.0133 -3.4419
# 5 8.8542 7.0178 29.3944 0.0133 43.2435 -1.9898
# 6 14.6890 30.8709 3.2486 -3.4419 -1.9898 31.9269
#
#
#
# Elastic Compliance Matrix: (Units=1/GPa)
#
#
# Indices 1 2 3 4 5 6 
#
# 1 0.014332 -0.003041 -0.003169 0.003621 -0.000424 -0.002967
# 2 -0.003041 0.008718 -0.005461 -0.005524 0.002603 -0.006909
# 3 -0.003169 -0.005461 0.023234 0.020928 -0.014000 0.005758
# 4 0.003621 -0.005524 0.020928 0.055228 -0.013782 0.006641
# 5 -0.000424 0.002603 -0.014000 -0.013782 0.032293 -0.000371
# 6 -0.002967 -0.006909 0.005758 0.006641 -0.000371 0.039473
#
#
# Mechanical properties :
#
#
# Convention : Reuss Voigt Hill
#
# Bulk Modulus (GPa) = 43.58689 80.59996 62.09343
# Shear Modulus (GPa) = 24.47765 36.65553 30.56659
#
# Velocity S-wave (km/s) = 3.47112 4.24771 3.87890
# Velocity P-wave (km/s) = 6.12534 7.98318 7.11516
#
# Compressibility (1/GPa) = 0.02294268
#
# Stress axis : x y z
#
# Youngs Moduli (GPa) = 69.77473 114.69953 43.04009
#
# Poissons Ratio (x) = 0.34881 0.13640
# Poissons Ratio (y) = 0.21219 0.23503
# Poissons Ratio (z) = 0.22113 0.62633
#
# Static dielectric constant tensor:
#      x y z
#    x 1.773820 0.024600 -0.036310 
#    y 0.024600 1.701490 -0.031080 
#    z -0.036310 -0.031080 1.792940 
# 
# From -- ./inp_files/51432.got.cif
#   From: 2010.05.17/outbox.cif.g08.bks.cpg/sg2_26_cif.got.tgz:51432.got - 2010.06.03 11:33:40.
