data_PCOD9028770
_publ_section_title
;
Structure prediction by ZEFSAII (Michael W. Deem and Ramdas Pophale) SiO2 
 PCOD9028770
Probable space group: P -1
;
_chemical_formula_sum "Si O2"
_cell_formula_units_Z 12
_cell_length_a 9.839008
_cell_length_b 8.651605
_cell_length_c 18.232019
_cell_angle_alpha 35.432371
_cell_angle_beta 36.817068
_cell_angle_gamma 44.927270
_cell_volume 532.202294
_symmetry_space_group_name_H-M "P -1"
_symmetry_group_IT_number 2
_symmetry_cell_setting 'triclinic'
loop_
_space_group_symop_operation_xyz
x,y,z
-x,-y,-z
loop_
_atom_site_type_symbol
_atom_site_label
_atom_site_fract_x
_atom_site_fract_y
_atom_site_fract_z
Si Si1 0.670512 0.338387 0.427695
Si Si2 0.131555 0.256113 0.432460
Si Si3 0.482031 0.688721 0.864291
Si Si4 0.760059 0.736911 0.445924
Si Si5 0.054951 0.774513 0.903665
Si Si6 0.790395 0.861630 0.115080
O O1 0.500000 0.500000 0.500000
O O2 0.496887 0.245568 0.478804
O O3 0.812372 0.553335 0.248374
O O4 0.842494 0.061075 0.476542
O O5 0.295059 0.366524 0.260399
O O6 0.220079 0.280099 0.468606
O O7 0.893293 0.459667 0.459439
O O8 0.266367 0.689904 0.902146
O O9 0.435378 0.985067 0.807263
O O10 0.500000 0.500000 0.000000
O O11 0.870035 0.993159 0.269809
O O12 0.000000 0.500000 0.000000
O O13 0.821848 0.889941 0.004230
O O14 0.000000 0.000000 0.000000
#
# Coordination Sequence:
#
# PCOD9028770 Si02
#       6
#     2   2   2   2   2   2
#     4  12  22  43  72 101 137 183 230 288 350 414
#     4  11  24  45  71 102 138 181 239 287 347 422
#     4  11  23  44  67  98 143 185 228 293 352 419
#     4  11  25  45  71 103 141 181 235 290 349 420
#     4  11  23  44  72 101 139 186 234 292 354 417
#     4  10  22  42  64  98 138 177 226 281 351 415
#
# _framework density 22.547817999999999
#
# number of rings (size 3 to 8) (size 9 to 14) (size 15 to 20)
#    0.000    1.000    3.333    3.500    2.333    2.000 
#   12.000    1.667    0.000    0.000    0.000    0.000 
#    0.000    0.000    0.000    0.000    0.000    0.000 
#
# Total GULP energy -67014.498067 kJ/mol
# GULP energy per Si atom -5584.541506 kJ/mol
# Density = 2.249650 g / cm^3
# Si number density = 22.547818 Si / 1000 Ang^3
#
#
#
# Elastic Constant Matrix: (Units=GPa)
#
#
# Indices 1 2 3 4 5 6 
#
# 1 73.2998 17.3745 30.7196 -1.9055 20.9041 -4.8948
# 2 17.3745 141.2406 38.0283 -2.9673 6.2967 -2.8002
# 3 30.7196 38.0283 153.5296 -14.3797 23.6784 7.8370
# 4 -1.9055 -2.9673 -14.3797 48.7147 6.1050 7.3309
# 5 20.9041 6.2967 23.6784 6.1050 32.8431 1.3943
# 6 -4.8948 -2.8002 7.8370 7.3309 1.3943 35.8182
#
#
#
# Elastic Compliance Matrix: (Units=1/GPa)
#
#
# Indices 1 2 3 4 5 6 
#
# 1 0.017763 -0.001182 -0.001766 0.000928 -0.010103 0.002925
# 2 -0.001182 0.007705 -0.001846 -0.000334 0.000630 0.000889
# 3 -0.001766 -0.001846 0.008594 0.003428 -0.005238 -0.002764
# 4 0.000928 -0.000334 0.003428 0.023216 -0.007095 -0.005125
# 5 -0.010103 0.000630 -0.005238 -0.007095 0.041868 -0.000363
# 6 0.002925 0.000889 -0.002764 -0.005125 -0.000363 0.030056
#
#
# Mechanical properties :
#
#
# Convention : Reuss Voigt Hill
#
# Bulk Modulus (GPa) = 40.85763 60.03497 50.44630
# Shear Modulus (GPa) = 34.02588 42.27172 38.14880
#
# Velocity S-wave (km/s) = 3.88887 4.33455 4.11774
# Velocity P-wave (km/s) = 6.19065 7.19267 6.71039
#
# Compressibility (1/GPa) = 0.02447523
#
# Stress axis : x y z
#
# Youngs Moduli (GPa) = 56.29536 129.78605 116.36254
#
# Poissons Ratio (x) = 0.15338 0.20547
# Poissons Ratio (y) = 0.06653 0.21479
# Poissons Ratio (z) = 0.09941 0.23957
#
# Static dielectric constant tensor:
#      x y z
#    x 1.624580 0.010440 0.100370 
#    y 0.010440 1.906550 -0.015620 
#    z 0.100370 -0.015620 1.802940 
# 
# From -- ./inp_files/183210.got.cif
#   From: 2010.05.17/outbox.cif.g08.bks.cpg/sg2_92_cif.got.tgz:183210.got - 2010.06.03 11:33:40.
