data_PCOD9028211
_publ_section_title
;
Structure prediction by ZEFSAII (Michael W. Deem and Ramdas Pophale) SiO2 
 PCOD9028211
Probable space group: P -1
;
_chemical_formula_sum "Si O2"
_cell_formula_units_Z 12
_cell_length_a 14.742611
_cell_length_b 13.383533
_cell_length_c 9.964894
_cell_angle_alpha 99.213361
_cell_angle_beta 69.948092
_cell_angle_gamma 159.587610
_cell_volume 560.779093
_symmetry_space_group_name_H-M "P -1"
_symmetry_group_IT_number 2
_symmetry_cell_setting 'triclinic'
loop_
_space_group_symop_operation_xyz
x,y,z
-x,-y,-z
loop_
_atom_site_type_symbol
_atom_site_label
_atom_site_fract_x
_atom_site_fract_y
_atom_site_fract_z
Si Si1 0.266277 0.504426 0.815245
Si Si2 0.413024 0.418089 0.681805
Si Si3 0.726005 0.653005 0.830914
Si Si4 0.866020 0.339674 0.388247
Si Si5 0.219349 0.512776 0.132368
Si Si6 0.221580 0.868013 0.178601
O O1 0.369887 0.492575 0.756014
O O2 0.034150 0.304162 0.772533
O O3 0.570026 0.880585 0.750664
O O4 0.103921 0.363071 0.011176
O O5 0.500000 0.500000 0.500000
O O6 0.658611 0.613793 0.702170
O O7 0.077782 0.028973 0.779679
O O8 0.673869 0.482538 0.847069
O O9 0.500000 0.500000 0.000000
O O10 0.000000 0.500000 0.500000
O O11 0.962638 0.322060 0.297905
O O12 0.043658 0.589028 0.245178
O O13 0.500000 0.000000 0.500000
O O14 0.526381 0.886216 0.017912
#
# Coordination Sequence:
#
# PCOD9028211 Si02
#       6
#     2   2   2   2   2   2
#     4  10  22  41  72  95 129 180 231 260 343 396
#     4  12  26  43  66 104 144 178 223 286 343 396
#     4  12  24  44  73 100 138 180 236 278 327 415
#     4  12  28  45  67 103 137 171 223 285 345 398
#     4  10  26  43  74  95 133 183 229 272 338 402
#     4  10  23  44  71  91 135 174 231 269 335 407
#
# _framework density 21.398800000000001
#
# number of rings (size 3 to 8) (size 9 to 14) (size 15 to 20)
#    1.000    0.000    1.667    4.500    4.667    4.667 
#    0.000    0.000    0.000    0.000    0.000    0.000 
#    0.000    0.000    0.000    0.000    0.000    0.000 
#
# Total GULP energy -67053.385597 kJ/mol
# GULP energy per Si atom -5587.782133 kJ/mol
# Density = 2.135010 g / cm^3
# Si number density = 21.398800 Si / 1000 Ang^3
#
#
#
# Elastic Constant Matrix: (Units=GPa)
#
#
# Indices 1 2 3 4 5 6 
#
# 1 129.7472 17.0703 51.4510 -9.3791 -17.2494 3.3712
# 2 17.0703 83.7430 10.1407 -10.2602 -16.9440 11.9703
# 3 51.4510 10.1407 76.7864 5.0282 -23.3678 -9.6245
# 4 -9.3791 -10.2602 5.0282 35.1101 -1.7564 2.2042
# 5 -17.2494 -16.9440 -23.3678 -1.7564 29.1181 3.7110
# 6 3.3712 11.9703 -9.6245 2.2042 3.7110 27.5531
#
#
#
# Elastic Compliance Matrix: (Units=1/GPa)
#
#
# Indices 1 2 3 4 5 6 
#
# 1 0.011643 0.000172 -0.008399 0.004734 0.001176 -0.004970
# 2 0.000172 0.016147 -0.000566 0.005948 0.010566 -0.009133
# 3 -0.008399 -0.000566 0.023963 -0.005744 0.012506 0.008420
# 4 0.004734 0.005948 -0.005744 0.033074 0.004728 -0.008452
# 5 0.001176 0.010566 0.012506 0.004728 0.052505 -0.007816
# 6 -0.004970 -0.009133 0.008420 -0.008452 -0.007816 0.045539
#
#
# Mechanical properties :
#
#
# Convention : Reuss Voigt Hill
#
# Bulk Modulus (GPa) = 29.26904 49.73339 39.50121
# Shear Modulus (GPa) = 23.60179 32.46391 28.03285
#
# Velocity S-wave (km/s) = 3.32467 3.89921 3.62335
# Velocity P-wave (km/s) = 5.33343 6.60026 6.00037
#
# Compressibility (1/GPa) = 0.03416580
#
# Stress axis : x y z
#
# Youngs Moduli (GPa) = 85.88750 61.93196 41.73030
#
# Poissons Ratio (x) = -0.01067 0.35051
# Poissons Ratio (y) = -0.01479 0.02364
# Poissons Ratio (z) = 0.72141 0.03508
#
# Static dielectric constant tensor:
#      x y z
#    x 1.752860 -0.018690 0.024760 
#    y -0.018690 1.771540 -0.017890 
#    z 0.024760 -0.017890 1.781990 
# 
# From -- ./inp_files/313333.got.cif
#   From: 2010.05.17/outbox.cif.g08.bks.cpg/sg2_157_cif.got.tgz:313333.got - 2010.06.03 11:33:40.
