data_PCOD9028287
_publ_section_title
;
Structure prediction by ZEFSAII (Michael W. Deem and Ramdas Pophale) SiO2 
 PCOD9028287
Probable space group: P -1
;
_chemical_formula_sum "Si O2"
_cell_formula_units_Z 14
_cell_length_a 20.536570
_cell_length_b 13.996042
_cell_length_c 11.623820
_cell_angle_alpha 146.911674
_cell_angle_beta 146.365899
_cell_angle_gamma 21.807274
_cell_volume 652.454216
_symmetry_space_group_name_H-M "P -1"
_symmetry_group_IT_number 2
_symmetry_cell_setting 'triclinic'
loop_
_space_group_symop_operation_xyz
x,y,z
-x,-y,-z
loop_
_atom_site_type_symbol
_atom_site_label
_atom_site_fract_x
_atom_site_fract_y
_atom_site_fract_z
Si Si1 0.192750 0.980663 0.180925
Si Si2 0.305724 0.759385 0.529792
Si Si3 0.201002 0.104237 0.934377
Si Si4 0.978062 0.193589 0.309760
Si Si5 0.579641 0.460349 0.201840
Si Si6 0.284650 0.207412 0.379361
Si Si7 0.152473 0.674509 0.391814
O O1 0.055542 0.165352 0.271082
O O2 0.223034 0.108325 0.267113
O O3 0.394560 0.705286 0.246822
O O4 0.118603 0.886239 0.919346
O O5 0.500000 0.500000 0.500000
O O6 0.266775 0.621155 0.400743
O O7 0.283633 0.953831 0.779644
O O8 0.148649 0.972700 0.421560
O O9 0.981562 0.333443 0.837786
O O10 0.302045 0.837638 0.886832
O O11 0.249022 0.209288 0.194045
O O12 0.836753 0.497897 0.452456
O O13 0.718108 0.457468 0.439440
O O14 0.500000 0.500000 0.000000
O O15 0.500000 0.000000 0.500000
O O16 0.000000 0.000000 0.500000
#
# Coordination Sequence:
#
# PCOD9028287 Si02
#       7
#     2   2   2   2   2   2   2
#     4  11  24  43  66  98 135 171 226 275 340 400
#     4  10  20  37  63  92 130 169 224 267 331 402
#     4  10  21  38  59  93 131 170 222 278 332 396
#     4  11  25  42  68  96 134 184 215 277 343 403
#     4  10  17  31  65  93 125 170 222 270 330 385
#     4  12  26  42  68 100 134 175 227 285 332 401
#     4   8  18  32  57  90 123 166 213 265 322 389
#
# _framework density 21.457446000000001
#
# number of rings (size 3 to 8) (size 9 to 14) (size 15 to 20)
#    0.000    2.000    1.429    3.857    4.000    1.714 
#    0.000    1.429    0.000    5.143    0.000    0.000 
#    0.000    0.000    0.000    0.000    0.000    0.000 
#
# Total GULP energy -78005.639190 kJ/mol
# GULP energy per Si atom -5571.831371 kJ/mol
# Density = 2.140861 g / cm^3
# Si number density = 21.457446 Si / 1000 Ang^3
#
#
#
# Elastic Constant Matrix: (Units=GPa)
#
#
# Indices 1 2 3 4 5 6 
#
# 1 111.2348 67.4210 59.3693 3.4809 6.6009 -19.4107
# 2 67.4210 176.2230 96.0941 -20.0923 -10.1803 -23.2163
# 3 59.3693 96.0941 180.9840 -10.2239 -9.5498 -11.4608
# 4 3.4809 -20.0923 -10.2239 47.5728 4.8809 -6.7296
# 5 6.6009 -10.1803 -9.5498 4.8809 33.2839 0.6456
# 6 -19.4107 -23.2163 -11.4608 -6.7296 0.6456 46.5101
#
#
#
# Elastic Compliance Matrix: (Units=1/GPa)
#
#
# Indices 1 2 3 4 5 6 
#
# 1 0.013558 -0.003963 -0.002530 -0.002373 -0.004333 0.002774
# 2 -0.003963 0.010103 -0.003527 0.004006 0.002217 0.003069
# 3 -0.002530 -0.003527 0.008284 0.000183 0.001788 -0.000774
# 4 -0.002373 0.004006 0.000183 0.023751 -0.001822 0.004516
# 5 -0.004333 0.002217 0.001788 -0.001822 0.032381 -0.000974
# 6 0.002774 0.003069 -0.000774 0.004516 -0.000974 0.024667
#
#
# Mechanical properties :
#
#
# Convention : Reuss Voigt Hill
#
# Bulk Modulus (GPa) = 84.00007 101.57894 92.78951
# Shear Modulus (GPa) = 36.56293 41.84386 39.20340
#
# Velocity S-wave (km/s) = 4.13240 4.42077 4.27901
# Velocity P-wave (km/s) = 7.87409 8.57322 8.23108
#
# Compressibility (1/GPa) = 0.01190475
#
# Stress axis : x y z
#
# Youngs Moduli (GPa) = 73.75887 98.98179 120.71993
#
# Poissons Ratio (x) = 0.39222 0.30548
# Poissons Ratio (y) = 0.29227 0.42574
# Poissons Ratio (z) = 0.18665 0.34908
#
# Static dielectric constant tensor:
#      x y z
#    x 2.017660 -0.046700 0.176300 
#    y -0.046700 1.817480 -0.063780 
#    z 0.176300 -0.063780 2.066490 
# 
# From -- ./inp_files/472021.got.cif
#   From: 2010.05.17/outbox.cif.g08.bks.cpg/sg2_237_cif.got.tgz:472021.got - 2010.06.03 11:33:40.
