data_PCOD9028140
_publ_section_title
;
Structure prediction by ZEFSAII (Michael W. Deem and Ramdas Pophale) SiO2 
 PCOD9028140
Probable space group: P -1
;
_chemical_formula_sum "Si O2"
_cell_formula_units_Z 16
_cell_length_a 8.228452
_cell_length_b 7.439681
_cell_length_c 14.759870
_cell_angle_alpha 68.404019
_cell_angle_beta 128.279418
_cell_angle_gamma 102.841427
_cell_volume 659.479305
_symmetry_space_group_name_H-M "P -1"
_symmetry_group_IT_number 2
_symmetry_cell_setting 'triclinic'
loop_
_space_group_symop_operation_xyz
x,y,z
-x,-y,-z
loop_
_atom_site_type_symbol
_atom_site_label
_atom_site_fract_x
_atom_site_fract_y
_atom_site_fract_z
Si Si1 0.319889 0.618067 0.605719
Si Si2 0.723461 0.430762 0.834824
Si Si3 0.691008 0.001177 0.938572
Si Si4 0.835798 0.541665 0.239662
Si Si5 0.724853 0.583247 0.544305
Si Si6 0.112962 0.014992 0.438360
Si Si7 0.777728 0.986465 0.174733
Si Si8 0.201280 0.427811 0.978709
O O1 0.563110 0.569874 0.703155
O O2 0.235675 0.604611 0.681079
O O3 0.231220 0.450840 0.541245
O O4 0.243368 0.820253 0.502349
O O5 0.696909 0.202425 0.848748
O O6 0.960141 0.484334 0.892892
O O7 0.679562 0.467452 0.919548
O O8 0.452039 0.952862 0.885903
O O9 0.802762 0.038732 0.067476
O O10 0.783699 0.805872 0.963876
O O11 0.780390 0.753500 0.217449
O O12 0.084787 0.525944 0.321152
O O13 0.949276 0.049985 0.294120
O O14 0.500000 0.500000 0.500000
O O15 0.737875 0.804156 0.534636
O O16 0.000000 0.000000 0.500000
O O17 0.738230 0.516078 0.112321
#
# Coordination Sequence:
#
# PCOD9028140 Si02
#       8
#     2   2   2   2   2   2   2   2
#     4  12  25  45  70 103 142 187 237 292 342 423
#     4  11  24  43  67 100 142 183 234 288 355 428
#     4  10  22  41  71  96 139 181 226 299 348 411
#     4  11  21  45  69  97 144 183 232 297 346 415
#     4  12  27  46  71 102 145 190 233 290 358 413
#     4  12  26  43  73 105 140 189 236 290 346 423
#     4  10  22  43  66 107 134 175 244 290 343 416
#     4  10  25  42  64 104 136 184 234 288 358 415
#
# _framework density 24.261565999999998
#
# number of rings (size 3 to 8) (size 9 to 14) (size 15 to 20)
#    0.000    1.000    3.750    2.250    3.500    1.000 
#    0.000    2.500    0.000    0.000    0.000    0.000 
#    0.000    0.000    0.000    0.000    0.000    0.000 
#
# Total GULP energy -89618.594413 kJ/mol
# GULP energy per Si atom -5601.162151 kJ/mol
# Density = 2.420635 g / cm^3
# Si number density = 24.261566 Si / 1000 Ang^3
#
#
#
# Elastic Constant Matrix: (Units=GPa)
#
#
# Indices 1 2 3 4 5 6 
#
# 1 60.2601 14.1058 27.0973 -3.5519 13.1500 -1.1688
# 2 14.1058 107.8108 49.0765 4.8776 0.2289 -5.3763
# 3 27.0973 49.0765 127.2856 -0.2167 21.2515 -8.8183
# 4 -3.5519 4.8776 -0.2167 23.6744 -6.9480 0.0070
# 5 13.1500 0.2289 21.2515 -6.9480 46.3518 0.3837
# 6 -1.1688 -5.3763 -8.8183 0.0070 0.3837 31.1519
#
#
#
# Elastic Compliance Matrix: (Units=1/GPa)
#
#
# Indices 1 2 3 4 5 6 
#
# 1 0.019162 -0.001244 -0.002990 0.002001 -0.003757 -0.000296
# 2 -0.001244 0.011613 -0.004514 -0.002017 0.002057 0.000655
# 3 -0.002990 -0.004514 0.011119 -0.000694 -0.004350 0.002310
# 4 0.002001 -0.002017 -0.000694 0.044854 0.006488 -0.000560
# 5 -0.003757 0.002057 -0.004350 0.006488 0.025608 -0.001334
# 6 -0.000296 0.000655 0.002310 -0.000560 -0.001334 0.032873
#
#
# Mechanical properties :
#
#
# Convention : Reuss Voigt Hill
#
# Bulk Modulus (GPa) = 40.98630 52.87953 46.93291
# Shear Modulus (GPa) = 29.26441 33.90742 31.58591
#
# Velocity S-wave (km/s) = 3.47681 3.74247 3.61209
# Velocity P-wave (km/s) = 5.74872 6.36535 6.06488
#
# Compressibility (1/GPa) = 0.02439840
#
# Stress axis : x y z
#
# Youngs Moduli (GPa) = 52.18578 86.11288 89.94005
#
# Poissons Ratio (x) = 0.10708 0.26890
# Poissons Ratio (y) = 0.06489 0.40601
# Poissons Ratio (z) = 0.15602 0.38873
#
# Static dielectric constant tensor:
#      x y z
#    x 2.001170 -0.019470 -0.054820 
#    y -0.019470 1.881910 0.010860 
#    z -0.054820 0.010860 1.971850 
# 
# From -- ./inp_files/556104.got.cif
#   From: 2010.05.17/outbox.cif.g08.bks.cpg/sg2_279_cif.got.tgz:556104.got - 2010.06.03 11:33:40.
