data_PCOD9028849
_publ_section_title
;
Structure prediction by ZEFSAII (Michael W. Deem and Ramdas Pophale) SiO2 
 PCOD9028849
Probable space group: P -1
;
_chemical_formula_sum "Si O2"
_cell_formula_units_Z 14
_cell_length_a 8.518526
_cell_length_b 8.957763
_cell_length_c 11.483389
_cell_angle_alpha 113.617431
_cell_angle_beta 122.855691
_cell_angle_gamma 102.406045
_cell_volume 558.075179
_symmetry_space_group_name_H-M "P -1"
_symmetry_group_IT_number 2
_symmetry_cell_setting 'triclinic'
loop_
_space_group_symop_operation_xyz
x,y,z
-x,-y,-z
loop_
_atom_site_type_symbol
_atom_site_label
_atom_site_fract_x
_atom_site_fract_y
_atom_site_fract_z
Si Si1 0.718244 0.002285 0.310864
Si Si2 0.019035 0.844378 0.303506
Si Si3 0.342659 0.582663 0.975329
Si Si4 0.560709 0.879269 0.565815
Si Si5 0.821806 0.226831 0.189326
Si Si6 0.301090 0.449950 0.316590
Si Si7 0.266301 0.107586 0.111350
O O1 0.827765 0.118496 0.510333
O O2 0.786345 0.167132 0.290968
O O3 0.469190 0.794334 0.158936
O O4 0.850448 0.902792 0.294966
O O5 0.175618 0.012449 0.326292
O O6 0.888974 0.618358 0.138589
O O7 0.500000 0.500000 0.000000
O O8 0.281367 0.650095 0.852482
O O9 0.384471 0.663846 0.377921
O O10 0.581298 0.880220 0.714346
O O11 0.500000 0.000000 0.500000
O O12 0.070758 0.345387 0.265949
O O13 0.707284 0.012888 0.014607
O O14 0.500000 0.500000 0.500000
O O15 0.319663 0.324094 0.183520
O O16 0.000000 0.000000 0.000000
#
# Coordination Sequence:
#
# PCOD9028849 Si02
#       7
#     2   2   2   2   2   2   2
#     4  10  22  42  65  91 128 176 222 271 328 387
#     4  10  22  43  63  91 135 172 216 275 323 399
#     4  10  23  43  62  95 129 175 226 267 334 387
#     4  11  22  39  63  97 130 171 216 267 334 401
#     4  11  21  41  66  96 133 164 222 277 326 404
#     4   9  19  39  63  97 128 169 215 261 333 397
#     4   9  20  39  61  91 127 167 209 271 327 390
#
# _framework density 25.086226
#
# number of rings (size 3 to 8) (size 9 to 14) (size 15 to 20)
#    0.000    2.000    0.000    3.857    2.000    0.571 
#   20.571    3.571    0.000    0.000    0.000    0.000 
#    0.000    0.000    0.000    0.000    0.000    0.000 
#
# Total GULP energy -78061.148070 kJ/mol
# GULP energy per Si atom -5575.796291 kJ/mol
# Density = 2.502913 g / cm^3
# Si number density = 25.086226 Si / 1000 Ang^3
#
#
#
# Elastic Constant Matrix: (Units=GPa)
#
#
# Indices 1 2 3 4 5 6 
#
# 1 80.3412 47.1004 19.2444 7.3742 -0.2062 0.7686
# 2 47.1004 168.8482 57.1591 16.6740 -6.5916 -14.4886
# 3 19.2444 57.1591 81.2512 21.1874 10.6809 0.6445
# 4 7.3742 16.6740 21.1874 63.2529 -1.4891 7.2529
# 5 -0.2062 -6.5916 10.6809 -1.4891 33.6626 0.2064
# 6 0.7686 -14.4886 0.6445 7.2529 0.2064 45.3180
#
#
#
# Elastic Compliance Matrix: (Units=1/GPa)
#
#
# Indices 1 2 3 4 5 6 
#
# 1 0.015040 -0.004160 -0.000458 -0.000343 -0.000583 -0.001521
# 2 -0.004160 0.009662 -0.006277 -0.000244 0.003827 0.003271
# 3 -0.000458 -0.006277 0.019046 -0.004677 -0.007473 -0.001487
# 4 -0.000343 -0.000244 -0.004677 0.017863 0.002242 -0.002875
# 5 -0.000583 0.003827 -0.007473 0.002242 0.032918 0.000831
# 6 -0.001521 0.003271 -0.001487 -0.002875 0.000831 0.023615
#
#
# Mechanical properties :
#
#
# Convention : Reuss Voigt Hill
#
# Bulk Modulus (GPa) = 45.54174 64.16094 54.85134
# Shear Modulus (GPa) = 33.95544 42.24247 38.09896
#
# Velocity S-wave (km/s) = 3.68305 4.10798 3.90130
# Velocity P-wave (km/s) = 6.02329 6.93775 6.49663
#
# Compressibility (1/GPa) = 0.02195788
#
# Stress axis : x y z
#
# Youngs Moduli (GPa) = 66.49029 103.49779 52.50575
#
# Poissons Ratio (x) = 0.43054 0.02403
# Poissons Ratio (y) = 0.27659 0.32959
# Poissons Ratio (z) = 0.03043 0.64968
#
# Static dielectric constant tensor:
#      x y z
#    x 2.018890 0.194350 0.152160 
#    y 0.194350 1.452520 -0.067070 
#    z 0.152160 -0.067070 2.101250 
# 
# From -- ./inp_files/383033.got.cif
#   From: 2010.05.17/outbox.cif.g08.bks.cpg/sg2_192_cif.got.tgz:383033.got - 2010.06.03 11:33:40.
