data_PCOD9028580
_publ_section_title
;
Structure prediction by ZEFSAII (Michael W. Deem and Ramdas Pophale) SiO2 
 PCOD9028580
Probable space group: P -1
;
_chemical_formula_sum "Si O2"
_cell_formula_units_Z 14
_cell_length_a 12.635217
_cell_length_b 20.822118
_cell_length_c 15.483757
_cell_angle_alpha 152.589022
_cell_angle_beta 19.129615
_cell_angle_gamma 155.754628
_cell_volume 537.639287
_symmetry_space_group_name_H-M "P -1"
_symmetry_group_IT_number 2
_symmetry_cell_setting 'triclinic'
loop_
_space_group_symop_operation_xyz
x,y,z
-x,-y,-z
loop_
_atom_site_type_symbol
_atom_site_label
_atom_site_fract_x
_atom_site_fract_y
_atom_site_fract_z
Si Si1 0.555602 0.691868 0.281754
Si Si2 0.697420 0.778612 0.936570
Si Si3 0.263220 0.689000 0.329433
Si Si4 0.380430 0.579804 0.612409
Si Si5 0.247279 0.413429 0.825821
Si Si6 0.618638 0.014129 0.656720
Si Si7 0.701153 0.008949 0.944109
O O1 0.342688 0.617353 0.268782
O O2 0.537148 0.593907 0.263906
O O3 0.987299 0.804239 0.060717
O O4 0.440685 0.824191 0.555126
O O5 0.404675 0.602561 0.914063
O O6 0.087030 0.799214 0.627696
O O7 0.616342 0.770118 0.091580
O O8 0.586735 0.905042 0.137100
O O9 0.952024 0.553331 0.348469
O O10 0.500000 0.500000 0.500000
O O11 0.683493 0.660611 0.401436
O O12 0.181080 0.666179 0.915272
O O13 0.030465 0.071017 0.368775
O O14 0.570409 0.038388 0.822969
O O15 0.500000 0.000000 0.000000
#
# Coordination Sequence:
#
# PCOD9028580 Si02
#       7
#     2   2   2   2   2   2   2
#     4  10  26  41  68  98 130 168 224 263 328 380
#     4  10  22  42  63  96 126 172 209 264 330 379
#     4  10  23  40  66  95 132 170 213 272 318 385
#     4  10  22  43  62  95 134 173 211 260 330 389
#     4  10  23  42  65  96 128 167 214 272 320 383
#     4  10  23  42  65  92 129 170 218 265 320 390
#     4  10  23  45  64  93 128 178 219 266 319 387
#
# _framework density 26.039764999999999
#
# number of rings (size 3 to 8) (size 9 to 14) (size 15 to 20)
#    0.857    1.143    0.000    1.714    4.000    5.714 
#   15.429    0.000    0.000    0.000    0.000    0.000 
#    0.000    0.000    0.000    0.000    0.000    0.000 
#
# Total GULP energy -78308.600737 kJ/mol
# GULP energy per Si atom -5593.471481 kJ/mol
# Density = 2.598050 g / cm^3
# Si number density = 26.039765 Si / 1000 Ang^3
#
#
#
# Elastic Constant Matrix: (Units=GPa)
#
#
# Indices 1 2 3 4 5 6 
#
# 1 161.9827 23.4073 36.9311 -9.0286 5.6325 -18.9308
# 2 23.4073 67.9376 29.2572 5.8383 0.4086 -5.8138
# 3 36.9311 29.2572 153.7318 -12.4933 18.1309 -16.4065
# 4 -9.0286 5.8383 -12.4933 50.6063 -13.3499 -1.5085
# 5 5.6325 0.4086 18.1309 -13.3499 49.8700 -4.8671
# 6 -18.9308 -5.8138 -16.4065 -1.5085 -4.8671 39.5704
#
#
#
# Elastic Compliance Matrix: (Units=1/GPa)
#
#
# Indices 1 2 3 4 5 6 
#
# 1 0.007060 -0.001906 -0.000948 0.001382 0.000205 0.002782
# 2 -0.001906 0.016951 -0.003027 -0.002924 0.000420 0.000264
# 3 -0.000948 -0.003027 0.007924 0.001649 -0.002093 0.002192
# 4 0.001382 -0.002924 0.001649 0.022266 0.005467 0.002437
# 5 0.000205 0.000420 -0.002093 0.005467 0.022471 0.002264
# 6 0.002782 0.000264 0.002192 0.002437 0.002264 0.027922
#
#
# Mechanical properties :
#
#
# Convention : Reuss Voigt Hill
#
# Bulk Modulus (GPa) = 49.57351 62.53814 56.05583
# Shear Modulus (GPa) = 40.62376 47.61309 44.11843
#
# Velocity S-wave (km/s) = 3.95405 4.28071 4.12062
# Velocity P-wave (km/s) = 6.31862 6.96428 6.64929
#
# Compressibility (1/GPa) = 0.02017206
#
# Stress axis : x y z
#
# Youngs Moduli (GPa) = 141.63845 58.99321 126.20510
#
# Poissons Ratio (x) = 0.11245 0.11966
# Poissons Ratio (y) = 0.26998 0.38204
# Poissons Ratio (z) = 0.13430 0.17858
#
# Static dielectric constant tensor:
#      x y z
#    x 2.009500 0.053350 0.028410 
#    y 0.053350 2.115090 -0.051660 
#    z 0.028410 -0.051660 2.110320 
# 
# From -- ./inp_files/523280.got.cif
#   From: 2010.05.17/outbox.cif.g08.bks.cpg/sg2_262_cif.got.tgz:523280.got - 2010.06.03 11:33:40.
