data_PCOD9028915
_publ_section_title
;
Structure prediction by ZEFSAII (Michael W. Deem and Ramdas Pophale) SiO2 
 PCOD9028915
Probable space group: P -1
;
_chemical_formula_sum "Si O2"
_cell_formula_units_Z 12
_cell_length_a 5.162678
_cell_length_b 10.960258
_cell_length_c 11.685306
_cell_angle_alpha 97.794898
_cell_angle_beta 57.262035
_cell_angle_gamma 97.139849
_cell_volume 550.004402
_symmetry_space_group_name_H-M "P -1"
_symmetry_group_IT_number 2
_symmetry_cell_setting 'triclinic'
loop_
_space_group_symop_operation_xyz
x,y,z
-x,-y,-z
loop_
_atom_site_type_symbol
_atom_site_label
_atom_site_fract_x
_atom_site_fract_y
_atom_site_fract_z
Si Si1 0.357310 0.929321 0.133153
Si Si2 0.076918 0.581127 0.660313
Si Si3 0.801751 0.577834 0.972439
Si Si4 0.792206 0.669995 0.508455
Si Si5 0.759135 0.904228 0.407792
Si Si6 0.792914 0.801333 0.163906
O O1 0.641513 0.911976 0.147424
O O2 0.069282 0.970902 0.285052
O O3 0.157486 0.814618 0.105920
O O4 0.500000 0.000000 0.000000
O O5 0.431061 0.631427 0.575696
O O6 0.048067 0.432978 0.621347
O O7 0.968609 0.610474 0.817383
O O8 0.893300 0.644568 0.610906
O O9 0.500000 0.500000 0.000000
O O10 0.716751 0.691418 0.084021
O O11 0.000000 0.500000 0.000000
O O12 0.847194 0.812919 0.476588
O O13 0.643296 0.804602 0.324956
O O14 0.500000 0.000000 0.500000
#
# Coordination Sequence:
#
# PCOD9028915 Si02
#       6
#     2   2   2   2   2   2
#     4  10  23  45  69  97 136 181 231 289 346 407
#     4  10  23  41  65  97 131 182 224 286 341 410
#     4  12  24  41  69 101 137 178 229 283 350 418
#     4  10  22  42  65  94 136 173 233 280 344 413
#     4  10  25  44  71 101 139 188 233 293 353 418
#     4  10  24  42  68  99 133 181 227 282 352 405
#
# _framework density 21.818007999999999
#
# number of rings (size 3 to 8) (size 9 to 14) (size 15 to 20)
#    1.000    0.667    0.000    3.500    4.667    3.333 
#    3.000    0.000    0.000    0.000    0.000    0.000 
#    0.000    0.000    0.000    0.000    0.000    0.000 
#
# Total GULP energy -66874.251707 kJ/mol
# GULP energy per Si atom -5572.854309 kJ/mol
# Density = 2.176835 g / cm^3
# Si number density = 21.818008 Si / 1000 Ang^3
#
#
#
# Elastic Constant Matrix: (Units=GPa)
#
#
# Indices 1 2 3 4 5 6 
#
# 1 110.8403 26.2893 20.7075 -10.9354 19.0319 -17.2022
# 2 26.2893 79.9230 66.4522 -1.8925 1.2623 -24.2462
# 3 20.7075 66.4522 117.9440 -0.4197 14.7732 -4.1783
# 4 -10.9354 -1.8925 -0.4197 25.2477 4.4471 12.4771
# 5 19.0319 1.2623 14.7732 4.4471 37.9192 -3.5124
# 6 -17.2022 -24.2462 -4.1783 12.4771 -3.5124 42.4259
#
#
#
# Elastic Compliance Matrix: (Units=1/GPa)
#
#
# Indices 1 2 3 4 5 6 
#
# 1 0.011693 -0.005225 0.001793 0.006206 -0.007167 -0.000486
# 2 -0.005225 0.038973 -0.021976 -0.013516 0.013611 0.023092
# 3 0.001793 -0.021976 0.021447 0.007716 -0.010621 -0.012868
# 4 0.006206 -0.013516 0.007716 0.054601 -0.014082 -0.021672
# 5 -0.007167 0.013611 -0.010621 -0.014082 0.036322 0.010975
# 6 -0.000486 0.023092 -0.012868 -0.021672 0.010975 0.042585
#
#
# Mechanical properties :
#
#
# Convention : Reuss Voigt Hill
#
# Bulk Modulus (GPa) = 46.95033 59.51170 53.23101
# Shear Modulus (GPa) = 18.97276 34.13576 26.55426
#
# Velocity S-wave (km/s) = 2.95208 3.95975 3.49245
# Velocity P-wave (km/s) = 5.76069 6.94563 6.38073
#
# Compressibility (1/GPa) = 0.02129911
#
# Stress axis : x y z
#
# Youngs Moduli (GPa) = 85.51765 25.65894 46.62596
#
# Poissons Ratio (x) = 0.13406 -0.08361
# Poissons Ratio (y) = 0.44681 1.02464
# Poissons Ratio (z) = -0.15335 0.56387
#
# Static dielectric constant tensor:
#      x y z
#    x 1.800520 0.069250 -0.019030 
#    y 0.069250 1.672840 0.066500 
#    z -0.019030 0.066500 1.827100 
# 
# From -- ./inp_files/129634.got.cif
#   From: 2010.05.17/outbox.cif.g08.bks.cpg/sg2_65_cif.got.tgz:129634.got - 2010.06.03 11:33:40.
