data_PCOD9028021
_publ_section_title
;
Structure prediction by ZEFSAII (Michael W. Deem and Ramdas Pophale) SiO2 
 PCOD9028021
Probable space group: P -1
;
_chemical_formula_sum "Si O2"
_cell_formula_units_Z 14
_cell_length_a 10.945514
_cell_length_b 13.667798
_cell_length_c 9.365100
_cell_angle_alpha 116.096557
_cell_angle_beta 26.753150
_cell_angle_gamma 109.544129
_cell_volume 560.462044
_symmetry_space_group_name_H-M "P -1"
_symmetry_group_IT_number 2
_symmetry_cell_setting 'triclinic'
loop_
_space_group_symop_operation_xyz
x,y,z
-x,-y,-z
loop_
_atom_site_type_symbol
_atom_site_label
_atom_site_fract_x
_atom_site_fract_y
_atom_site_fract_z
Si Si1 0.429732 0.336673 0.230386
Si Si2 0.106959 0.804215 0.705497
Si Si3 0.425519 0.924602 0.662627
Si Si4 0.384576 0.143546 0.949007
Si Si5 0.323061 0.564566 0.594022
Si Si6 0.225763 0.578873 0.305003
Si Si7 0.725205 0.706599 0.324010
O O1 0.317391 0.242110 0.194704
O O2 0.260150 0.459596 0.501438
O O3 0.434403 0.291295 0.356856
O O4 0.706740 0.362146 0.877248
O O5 0.189083 0.862056 0.801069
O O6 0.181740 0.673389 0.531659
O O7 0.805345 0.820781 0.966223
O O8 0.299255 0.853627 0.419960
O O9 0.500000 0.000000 0.500000
O O10 0.659658 0.830752 0.415427
O O11 0.345734 0.016375 0.927967
O O12 0.500000 0.500000 0.500000
O O13 0.558380 0.635743 0.346805
O O14 0.036743 0.644020 0.976109
O O15 0.000000 0.500000 0.500000
O O16 0.500000 0.500000 0.000000
#
# Coordination Sequence:
#
# PCOD9028021 Si02
#       7
#     2   2   2   2   2   2   2
#     4  10  23  45  70 106 149 181 241 301 360 450
#     4  10  22  42  64  96 136 187 236 290 355 427
#     4  10  24  47  71 100 145 192 250 301 349 432
#     4  10  22  41  70  97 136 191 234 300 362 409
#     4  10  23  44  70 106 147 191 235 293 368 442
#     4  11  24  40  64 101 140 186 228 292 368 421
#     4  11  25  43  74 108 142 199 239 294 373 424
#
# _framework density 24.979391
#
# number of rings (size 3 to 8) (size 9 to 14) (size 15 to 20)
#    0.000    1.714    0.000    3.857    2.000   15.429 
#    0.000    0.000    0.000   11.143    0.000    0.000 
#    0.000    0.000    0.000    0.000    0.000    0.000 
#
# Total GULP energy -78076.081588 kJ/mol
# GULP energy per Si atom -5576.862971 kJ/mol
# Density = 2.492254 g / cm^3
# Si number density = 24.979391 Si / 1000 Ang^3
#
#
#
# Elastic Constant Matrix: (Units=GPa)
#
#
# Indices 1 2 3 4 5 6 
#
# 1 119.1691 75.2426 68.3686 4.0120 -4.3512 4.3735
# 2 75.2426 233.6560 65.0307 39.0474 -10.5980 25.5731
# 3 68.3686 65.0307 100.0333 -2.5316 -14.6908 0.9620
# 4 4.0120 39.0474 -2.5316 53.3100 -5.8886 5.8440
# 5 -4.3512 -10.5980 -14.6908 -5.8886 39.2147 6.1903
# 6 4.3735 25.5731 0.9620 5.8440 6.1903 51.2524
#
#
#
# Elastic Compliance Matrix: (Units=1/GPa)
#
#
# Indices 1 2 3 4 5 6 
#
# 1 0.015033 -0.002474 -0.009033 -0.000067 -0.002462 0.000426
# 2 -0.002474 0.006987 -0.002910 -0.004746 0.000238 -0.002708
# 3 -0.009033 -0.002910 0.019028 0.004292 0.005879 0.000667
# 4 -0.000067 -0.004746 0.004292 0.022960 0.003891 -0.000794
# 5 -0.002462 0.000238 0.005879 0.003891 0.028699 -0.003929
# 6 0.000426 -0.002708 0.000667 -0.000794 -0.003929 0.021379
#
#
# Mechanical properties :
#
#
# Convention : Reuss Voigt Hill
#
# Bulk Modulus (GPa) = 81.88351 96.68248 89.28299
# Shear Modulus (GPa) = 34.01558 45.03653 39.52606
#
# Velocity S-wave (km/s) = 3.69419 4.25072 3.98219
# Velocity P-wave (km/s) = 7.14476 7.92972 7.54745
#
# Compressibility (1/GPa) = 0.01221247
#
# Stress axis : x y z
#
# Youngs Moduli (GPa) = 66.52189 143.12624 52.55371
#
# Poissons Ratio (x) = 0.35407 0.47473
# Poissons Ratio (y) = 0.16456 0.15295
# Poissons Ratio (z) = 0.60091 0.41656
#
# Static dielectric constant tensor:
#      x y z
#    x 2.088990 -0.003150 0.097140 
#    y -0.003150 2.077200 0.035610 
#    z 0.097140 0.035610 2.095170 
# 
# From -- ./inp_files/454906.got.cif
#   From: 2010.05.17/outbox.cif.g08.bks.cpg/sg2_228_cif.got.tgz:454906.got - 2010.06.03 11:33:40.
