data_PCOD9028270
_publ_section_title
;
Structure prediction by ZEFSAII (Michael W. Deem and Ramdas Pophale) SiO2 
 PCOD9028270
Probable space group: P -1
;
_chemical_formula_sum "Si O2"
_cell_formula_units_Z 12
_cell_length_a 8.732326
_cell_length_b 12.713032
_cell_length_c 12.442098
_cell_angle_alpha 54.655663
_cell_angle_beta 136.964259
_cell_angle_gamma 90.968082
_cell_volume 526.140716
_symmetry_space_group_name_H-M "P -1"
_symmetry_group_IT_number 2
_symmetry_cell_setting 'triclinic'
loop_
_space_group_symop_operation_xyz
x,y,z
-x,-y,-z
loop_
_atom_site_type_symbol
_atom_site_label
_atom_site_fract_x
_atom_site_fract_y
_atom_site_fract_z
Si Si1 0.752895 0.315331 0.310107
Si Si2 0.694606 0.971812 0.719910
Si Si3 0.709705 0.738787 0.287351
Si Si4 0.389084 0.357445 0.284704
Si Si5 0.456297 0.970418 0.819065
Si Si6 0.439016 0.593875 0.300520
O O1 0.559731 0.290882 0.294925
O O2 0.061084 0.128593 0.512836
O O3 0.943266 0.337880 0.470772
O O4 0.500000 0.500000 0.000000
O O5 0.558623 0.173209 0.548250
O O6 0.500000 0.000000 0.500000
O O7 0.621501 0.918737 0.819905
O O8 0.078017 0.807682 0.989093
O O9 0.690183 0.602314 0.398533
O O10 0.485148 0.923544 0.141583
O O11 0.584503 0.806670 0.061499
O O12 0.444285 0.475075 0.290597
O O13 0.000000 0.500000 0.000000
O O14 0.500000 0.500000 0.500000
#
# Coordination Sequence:
#
# PCOD9028270 Si02
#       6
#     2   2   2   2   2   2
#     4  10  22  41  73  98 143 189 230 302 354 421
#     4  12  26  47  74 103 149 192 240 299 362 433
#     4   9  22  45  68 106 139 187 242 286 370 415
#     4  12  26  48  72 106 147 186 246 298 360 435
#     4   9  21  45  71 102 143 186 241 294 357 431
#     4  12  28  44  75 110 144 190 243 298 363 436
#
# _framework density 22.807585
#
# number of rings (size 3 to 8) (size 9 to 14) (size 15 to 20)
#    1.000    0.333    1.667    3.000    4.667    2.000 
#    3.000    1.667    0.000    0.000    0.000    0.000 
#    0.000    0.000    0.000    0.000    0.000    0.000 
#
# Total GULP energy -67102.857461 kJ/mol
# GULP energy per Si atom -5591.904788 kJ/mol
# Density = 2.275567 g / cm^3
# Si number density = 22.807585 Si / 1000 Ang^3
#
#
#
# Elastic Constant Matrix: (Units=GPa)
#
#
# Indices 1 2 3 4 5 6 
#
# 1 120.3353 24.2834 20.1060 8.3941 -8.4173 9.8534
# 2 24.2834 65.9513 2.1325 -11.1044 8.4052 13.3762
# 3 20.1060 2.1325 120.3572 -8.3734 -1.5573 6.1773
# 4 8.3941 -11.1044 -8.3734 26.6415 -0.5130 -4.1040
# 5 -8.4173 8.4052 -1.5573 -0.5130 45.1311 -3.5082
# 6 9.8534 13.3762 6.1773 -4.1040 -3.5082 38.1490
#
#
#
# Elastic Compliance Matrix: (Units=1/GPa)
#
#
# Indices 1 2 3 4 5 6 
#
# 1 0.010307 -0.004863 -0.001966 -0.006003 0.002611 -0.001044
# 2 -0.004863 0.020247 0.001329 0.009447 -0.004952 -0.005497
# 3 -0.001966 0.001329 0.008927 0.003815 -0.000342 -0.001025
# 4 -0.006003 0.009447 0.003815 0.044871 -0.002062 0.002258
# 5 0.002611 -0.004952 -0.000342 -0.002062 0.023771 0.003082
# 6 -0.001044 -0.005497 -0.001025 0.002258 0.003082 0.029103
#
#
# Mechanical properties :
#
#
# Convention : Reuss Voigt Hill
#
# Bulk Modulus (GPa) = 35.11123 44.40971 39.76047
# Shear Modulus (GPa) = 31.70187 39.32578 35.51382
#
# Velocity S-wave (km/s) = 3.73228 4.15690 3.95030
# Velocity P-wave (km/s) = 5.83105 6.52331 6.18687
#
# Compressibility (1/GPa) = 0.02848092
#
# Stress axis : x y z
#
# Youngs Moduli (GPa) = 97.02330 49.39004 112.01949
#
# Poissons Ratio (x) = 0.24019 0.22022
# Poissons Ratio (y) = 0.47183 -0.14887
# Poissons Ratio (z) = 0.19073 -0.06564
#
# Static dielectric constant tensor:
#      x y z
#    x 1.818630 -0.033020 0.008560 
#    y -0.033020 1.911280 -0.021530 
#    z 0.008560 -0.021530 1.820090 
# 
# From -- ./inp_files/387021.got.cif
#   From: 2010.05.17/outbox.cif.g08.bks.cpg/sg2_194_cif.got.tgz:387021.got - 2010.06.03 11:33:40.
