data_PCOD9028332
_publ_section_title
;
Structure prediction by ZEFSAII (Michael W. Deem and Ramdas Pophale) SiO2 
 PCOD9028332
Probable space group: P -1
;
_chemical_formula_sum "Si O2"
_cell_formula_units_Z 12
_cell_length_a 8.671972
_cell_length_b 5.298503
_cell_length_c 12.314023
_cell_angle_alpha 62.303946
_cell_angle_beta 91.050957
_cell_angle_gamma 85.804020
_cell_volume 498.761585
_symmetry_space_group_name_H-M "P -1"
_symmetry_group_IT_number 2
_symmetry_cell_setting 'triclinic'
loop_
_space_group_symop_operation_xyz
x,y,z
-x,-y,-z
loop_
_atom_site_type_symbol
_atom_site_label
_atom_site_fract_x
_atom_site_fract_y
_atom_site_fract_z
Si Si1 0.582592 0.404486 0.350308
Si Si2 0.854393 0.972754 0.923180
Si Si3 0.049369 0.592882 0.313325
Si Si4 0.624963 0.560622 0.079102
Si Si5 0.927707 0.214541 0.208835
Si Si6 0.703749 0.757078 0.477579
O O1 0.424474 0.323888 0.419459
O O2 0.562312 0.543994 0.203845
O O3 0.656594 0.612856 0.394062
O O4 0.685837 0.099637 0.402192
O O5 0.927000 0.751758 0.876281
O O6 0.831272 0.265123 0.795830
O O7 0.707695 0.850038 0.999406
O O8 0.000000 0.000000 0.000000
O O9 0.138359 0.393818 0.441751
O O10 0.945660 0.413553 0.271911
O O11 0.768815 0.313439 0.127668
O O12 0.500000 0.500000 0.000000
O O13 0.952515 0.877133 0.300392
#
# Coordination Sequence:
#
# PCOD9028332 Si02
#       6
#     2   2   2   2   2   2
#     4  10  25  43  70 101 150 177 243 298 355 416
#     4  10  23  43  72  97 149 190 228 286 358 438
#     4  10  22  41  78  93 133 196 244 269 356 435
#     4  12  26  44  72 113 149 181 240 306 366 415
#     4  10  23  43  68 104 140 187 232 286 357 437
#     4  10  22  48  69  98 138 201 233 288 359 434
#
# _framework density 24.05959
#
# number of rings (size 3 to 8) (size 9 to 14) (size 15 to 20)
#    1.000    0.667    1.667    1.500    2.333    5.333 
#    0.000   11.667    0.000    0.000    0.000    0.000 
#    0.000    0.000    0.000    0.000    0.000    0.000 
#
# Total GULP energy -67156.696452 kJ/mol
# GULP energy per Si atom -5596.391371 kJ/mol
# Density = 2.400483 g / cm^3
# Si number density = 24.059590 Si / 1000 Ang^3
#
#
#
# Elastic Constant Matrix: (Units=GPa)
#
#
# Indices 1 2 3 4 5 6 
#
# 1 101.3488 54.6194 69.6203 -3.4984 5.8416 16.1531
# 2 54.6194 147.7812 67.4655 -4.5793 1.6115 -4.1362
# 3 69.6203 67.4655 196.4323 -5.1149 -3.7873 23.0380
# 4 -3.4984 -4.5793 -5.1149 36.3133 0.9805 -6.8182
# 5 5.8416 1.6115 -3.7873 0.9805 55.6564 -11.9055
# 6 16.1531 -4.1362 23.0380 -6.8182 -11.9055 44.1345
#
#
#
# Elastic Compliance Matrix: (Units=1/GPa)
#
#
# Indices 1 2 3 4 5 6 
#
# 1 0.015534 -0.004262 -0.003511 -0.000413 -0.002825 -0.005078
# 2 -0.004262 0.009469 -0.002162 0.001206 0.000859 0.003994
# 3 -0.003511 -0.002162 0.007399 -0.000085 0.000359 -0.002696
# 4 -0.000413 0.001206 -0.000085 0.028537 0.000540 0.004862
# 5 -0.002825 0.000859 0.000359 0.000540 0.019601 0.006298
# 6 -0.005078 0.003994 -0.002696 0.004862 0.006298 0.028748
#
#
# Mechanical properties :
#
#
# Convention : Reuss Voigt Hill
#
# Bulk Modulus (GPa) = 79.80677 92.10811 85.95744
# Shear Modulus (GPa) = 37.49941 44.14464 40.82202
#
# Velocity S-wave (km/s) = 3.95220 4.28811 4.12358
# Velocity P-wave (km/s) = 7.35316 7.92992 7.64698
#
# Compressibility (1/GPa) = 0.01253026
#
# Stress axis : x y z
#
# Youngs Moduli (GPa) = 64.37503 105.60951 135.15866
#
# Poissons Ratio (x) = 0.45015 0.47459
# Poissons Ratio (y) = 0.27439 0.29220
# Poissons Ratio (z) = 0.22604 0.22832
#
# Static dielectric constant tensor:
#      x y z
#    x 1.971170 -0.022690 -0.100530 
#    y -0.022690 1.883950 -0.007310 
#    z -0.100530 -0.007310 1.935820 
# 
# From -- ./inp_files/371702.got.cif
#   From: 2010.05.17/outbox.cif.g08.bks.cpg/sg2_186_cif.got.tgz:371702.got - 2010.06.03 11:33:40.
