data_PCOD9028723
_publ_section_title
;
Structure prediction by ZEFSAII (Michael W. Deem and Ramdas Pophale) SiO2 
 PCOD9028723
Probable space group: P -1
;
_chemical_formula_sum "Si O2"
_cell_formula_units_Z 14
_cell_length_a 6.280608
_cell_length_b 13.221553
_cell_length_c 8.130279
_cell_angle_alpha 104.823163
_cell_angle_beta 93.683156
_cell_angle_gamma 75.811202
_cell_volume 632.753505
_symmetry_space_group_name_H-M "P -1"
_symmetry_group_IT_number 2
_symmetry_cell_setting 'triclinic'
loop_
_space_group_symop_operation_xyz
x,y,z
-x,-y,-z
loop_
_atom_site_type_symbol
_atom_site_label
_atom_site_fract_x
_atom_site_fract_y
_atom_site_fract_z
Si Si1 0.888891 0.399674 0.571521
Si Si2 0.632612 0.344932 0.237364
Si Si3 0.722691 0.935215 0.906900
Si Si4 0.416928 0.697040 0.267122
Si Si5 0.168778 0.490429 0.854648
Si Si6 0.855472 0.152263 0.957116
Si Si7 0.672414 0.744202 0.608194
O O1 0.713736 0.405781 0.420046
O O2 0.753141 0.370622 0.706760
O O3 0.016555 0.485393 0.683691
O O4 0.091117 0.306258 0.478148
O O5 0.698902 0.416013 0.122608
O O6 0.758380 0.222476 0.144337
O O7 0.397181 0.329715 0.280694
O O8 0.675900 0.857998 0.731437
O O9 0.883909 0.861158 0.016696
O O10 0.500000 0.000000 0.000000
O O11 0.830734 0.030492 0.892492
O O12 0.640320 0.619469 0.176096
O O13 0.495490 0.749177 0.456629
O O14 0.284804 0.783178 0.169741
O O15 0.000000 0.500000 0.000000
#
# Coordination Sequence:
#
# PCOD9028723 Si02
#       7
#     2   2   2   2   2   2   2
#     4  10  22  42  64  95 139 175 222 270 331 395
#     4  11  22  40  68  96 132 178 222 273 326 400
#     4  11  23  43  70  99 129 172 231 272 335 400
#     4  10  25  44  65 101 139 172 221 277 334 394
#     4  11  25  42  67  99 137 177 224 273 332 396
#     4  11  24  41  68 100 131 174 222 280 333 394
#     4  10  22  43  68  97 135 176 222 275 331 398
#
# _framework density 22.125520000000002
#
# number of rings (size 3 to 8) (size 9 to 14) (size 15 to 20)
#    0.000    1.429    2.857    1.286    0.000   13.714 
#    0.000    1.429    0.000    0.000    0.000    0.000 
#    0.000    0.000    0.000    0.000    0.000    0.000 
#
# Total GULP energy -78105.438745 kJ/mol
# GULP energy per Si atom -5578.959910 kJ/mol
# Density = 2.207516 g / cm^3
# Si number density = 22.125520 Si / 1000 Ang^3
#
#
#
# Elastic Constant Matrix: (Units=GPa)
#
#
# Indices 1 2 3 4 5 6 
#
# 1 127.2885 48.2625 51.6351 7.7054 -12.6493 -16.2440
# 2 48.2625 99.0329 50.0801 10.2653 6.5486 -0.2775
# 3 51.6351 50.0801 103.7209 19.4103 -3.8503 3.5570
# 4 7.7054 10.2653 19.4103 38.0957 5.3644 2.4641
# 5 -12.6493 6.5486 -3.8503 5.3644 46.4143 8.5258
# 6 -16.2440 -0.2775 3.5570 2.4641 8.5258 43.3118
#
#
#
# Elastic Compliance Matrix: (Units=1/GPa)
#
#
# Indices 1 2 3 4 5 6 
#
# 1 0.011751 -0.003847 -0.004054 0.000084 0.002629 0.004193
# 2 -0.003847 0.014955 -0.005438 0.000036 -0.003577 -0.000198
# 3 -0.004054 -0.005438 0.015541 -0.005747 0.002154 -0.002929
# 4 0.000084 0.000036 -0.005747 0.029716 -0.003813 -0.000436
# 5 0.002629 -0.003577 0.002154 -0.003813 0.024072 -0.003735
# 6 0.004193 -0.000198 -0.002929 -0.000436 -0.003735 0.025660
#
#
# Mechanical properties :
#
#
# Convention : Reuss Voigt Hill
#
# Bulk Modulus (GPa) = 64.23625 69.99974 67.11799
# Shear Modulus (GPa) = 32.55976 37.56865 35.06421
#
# Velocity S-wave (km/s) = 3.84030 4.12512 3.98526
# Velocity P-wave (km/s) = 6.98280 7.37530 7.18173
#
# Compressibility (1/GPa) = 0.01556753
#
# Stress axis : x y z
#
# Youngs Moduli (GPa) = 85.10095 66.86779 64.34520
#
# Poissons Ratio (x) = 0.25725 0.26087
# Poissons Ratio (y) = 0.32740 0.34992
# Poissons Ratio (z) = 0.34502 0.36364
#
# Static dielectric constant tensor:
#      x y z
#    x 1.933270 0.073280 0.023750 
#    y 0.073280 1.859300 -0.037650 
#    z 0.023750 -0.037650 1.878380 
# 
# From -- ./inp_files/131787.got.cif
#   From: 2010.05.17/outbox.cif.g08.bks.cpg/sg2_66_cif.got.tgz:131787.got - 2010.06.03 11:33:40.
