data_PCOD9028194
_publ_section_title
;
Structure prediction by ZEFSAII (Michael W. Deem and Ramdas Pophale) SiO2 
 PCOD9028194
Probable space group: P -1
;
_chemical_formula_sum "Si O2"
_cell_formula_units_Z 16
_cell_length_a 13.396073
_cell_length_b 8.598906
_cell_length_c 7.206882
_cell_angle_alpha 71.373319
_cell_angle_beta 114.938341
_cell_angle_gamma 87.084918
_cell_volume 696.512169
_symmetry_space_group_name_H-M "P -1"
_symmetry_group_IT_number 2
_symmetry_cell_setting 'triclinic'
loop_
_space_group_symop_operation_xyz
x,y,z
-x,-y,-z
loop_
_atom_site_type_symbol
_atom_site_label
_atom_site_fract_x
_atom_site_fract_y
_atom_site_fract_z
Si Si1 0.286314 0.305301 0.756468
Si Si2 0.276155 0.544403 0.960164
Si Si3 0.152674 0.715834 0.150181
Si Si4 0.616127 0.058128 0.089919
Si Si5 0.945485 0.542916 0.641557
Si Si6 0.020731 0.112081 0.301647
Si Si7 0.514354 0.401122 0.742120
Si Si8 0.243725 0.845200 0.530353
O O1 0.187401 0.386077 0.512650
O O2 0.398829 0.364211 0.749445
O O3 0.295434 0.106924 0.837008
O O4 0.252619 0.382104 0.902557
O O5 0.221629 0.591268 0.098410
O O6 0.412202 0.506817 0.101565
O O7 0.229841 0.701418 0.725177
O O8 0.054367 0.630081 0.188401
O O9 0.234745 0.758350 0.358529
O O10 0.080471 0.878631 0.927184
O O11 0.647091 0.105121 0.306025
O O12 0.600410 0.217585 0.881978
O O13 0.500000 0.000000 0.000000
O O14 0.987003 0.695405 0.713360
O O15 0.000000 0.500000 0.500000
O O16 0.144929 0.012491 0.377252
O O17 0.000000 0.000000 0.500000
O O18 0.500000 0.500000 0.500000
#
# Coordination Sequence:
#
# PCOD9028194 Si02
#       8
#     2   2   2   2   2   2   2   2
#     4  11  21  44  72  98 143 188 232 296 355 422
#     4  11  23  43  72 102 145 185 236 294 361 427
#     4  12  25  45  72 106 141 192 246 293 365 430
#     4   9  21  43  74 101 141 189 232 293 362 419
#     4  12  25  44  72 104 144 186 242 297 358 432
#     4  12  24  44  69  99 145 189 242 301 358 426
#     4  10  22  41  72 105 139 183 236 290 357 432
#     4  11  22  43  71 103 140 186 241 299 351 429
#
# _framework density 22.971602000000001
#
# number of rings (size 3 to 8) (size 9 to 14) (size 15 to 20)
#    0.000    1.000    3.750    3.375    0.000    0.000 
#    0.000    3.125    0.000    0.000    0.000    0.000 
#    0.000    0.000    0.000    0.000    0.000    0.000 
#
# Total GULP energy -89295.499371 kJ/mol
# GULP energy per Si atom -5580.968711 kJ/mol
# Density = 2.291932 g / cm^3
# Si number density = 22.971602 Si / 1000 Ang^3
#
#
#
# Elastic Constant Matrix: (Units=GPa)
#
#
# Indices 1 2 3 4 5 6 
#
# 1 76.2596 4.6043 41.5798 13.2113 2.2982 2.4205
# 2 4.6043 97.3436 61.3147 17.9579 -2.0820 0.9481
# 3 41.5798 61.3147 173.9406 10.9970 4.8936 0.7635
# 4 13.2113 17.9579 10.9970 44.9913 -1.2801 6.0493
# 5 2.2982 -2.0820 4.8936 -1.2801 40.6065 4.1980
# 6 2.4205 0.9481 0.7635 6.0493 4.1980 31.1149
#
#
#
# Elastic Compliance Matrix: (Units=1/GPa)
#
#
# Indices 1 2 3 4 5 6 
#
# 1 0.016330 0.003055 -0.004663 -0.004849 -0.000331 -0.000262
# 2 0.003055 0.014664 -0.005589 -0.005403 0.001045 0.000362
# 3 -0.004663 -0.005589 0.008774 0.001400 -0.001055 0.000188
# 4 -0.004849 -0.005403 0.001400 0.026133 0.001141 -0.004727
# 5 -0.000331 0.001045 -0.001055 0.001141 0.025235 -0.003607
# 6 -0.000262 0.000362 0.000188 -0.004727 -0.003607 0.033549
#
#
# Mechanical properties :
#
#
# Convention : Reuss Voigt Hill
#
# Bulk Modulus (GPa) = 39.41109 62.50462 50.95785
# Shear Modulus (GPa) = 33.88964 39.34551 36.61758
#
# Velocity S-wave (km/s) = 3.84511 4.14308 3.99687
# Velocity P-wave (km/s) = 6.07510 7.08204 6.59781
#
# Compressibility (1/GPa) = 0.02537357
#
# Stress axis : x y z
#
# Youngs Moduli (GPa) = 61.23842 68.19294 113.96934
#
# Poissons Ratio (x) = -0.20833 0.53148
# Poissons Ratio (y) = -0.18708 0.63696
# Poissons Ratio (z) = 0.28558 0.38112
#
# Static dielectric constant tensor:
#      x y z
#    x 1.959430 0.022520 0.032990 
#    y 0.022520 1.949840 -0.004360 
#    z 0.032990 -0.004360 1.855980 
# 
# From -- ./inp_files/90185.got.cif
#   From: 2010.05.17/outbox.cif.g08.bks.cpg/sg2_46_cif.got.tgz:90185.got - 2010.06.03 11:33:40.
