data_PCOD9028997
_publ_section_title
;
Structure prediction by ZEFSAII (Michael W. Deem and Ramdas Pophale) SiO2 
 PCOD9028997
Probable space group: P -1
;
_chemical_formula_sum "Si O2"
_cell_formula_units_Z 16
_cell_length_a 10.478547
_cell_length_b 14.666808
_cell_length_c 10.160115
_cell_angle_alpha 142.959730
_cell_angle_beta 78.562654
_cell_angle_gamma 126.384656
_cell_volume 623.482547
_symmetry_space_group_name_H-M "P -1"
_symmetry_group_IT_number 2
_symmetry_cell_setting 'triclinic'
loop_
_space_group_symop_operation_xyz
x,y,z
-x,-y,-z
loop_
_atom_site_type_symbol
_atom_site_label
_atom_site_fract_x
_atom_site_fract_y
_atom_site_fract_z
Si Si1 0.548113 0.471913 0.149438
Si Si2 0.080355 0.698778 0.114372
Si Si3 0.305159 0.531322 0.124451
Si Si4 0.767373 0.069959 0.157840
Si Si5 0.535484 0.955700 0.707725
Si Si6 0.157623 0.987406 0.664140
Si Si7 0.074289 0.185039 0.087495
Si Si8 0.518155 0.666421 0.577784
O O1 0.429864 0.508455 0.144814
O O2 0.616678 0.602991 0.420953
O O3 0.711179 0.547679 0.110208
O O4 0.388089 0.206719 0.883099
O O5 0.127832 0.884870 0.412093
O O6 0.266377 0.810263 0.120514
O O7 0.000000 0.500000 0.000000
O O8 0.907415 0.604789 0.946453
O O9 0.426804 0.787629 0.411847
O O10 0.615227 0.071098 0.213734
O O11 0.886075 0.158380 0.371706
O O12 0.924730 0.193699 0.152399
O O13 0.623748 0.806347 0.849364
O O14 0.566995 0.845412 0.675562
O O15 0.075045 0.081353 0.834786
O O16 0.289840 0.435313 0.355183
O O17 0.000000 0.000000 0.000000
#
# Coordination Sequence:
#
# PCOD9028997 Si02
#       8
#     2   2   2   2   2   2   2   2
#     4   9  20  41  66  99 126 170 220 270 341 384
#     4  12  27  42  67 101 134 181 224 270 337 405
#     4  10  22  42  66  94 137 171 213 284 326 393
#     4  11  24  41  68  92 141 179 215 284 320 402
#     4  11  25  44  63 100 134 178 228 263 340 400
#     4  10  22  42  65  99 134 166 225 275 335 399
#     4   9  22  42  62  98 125 165 225 270 330 388
#     4  10  23  42  67  97 131 175 224 271 335 401
#
# _framework density 25.662305
#
# number of rings (size 3 to 8) (size 9 to 14) (size 15 to 20)
#    0.000    1.750    1.250    1.125    3.500   12.500 
#    0.000    0.000    0.000    0.000    0.000    0.000 
#    0.000    0.000    0.000    0.000    0.000    0.000 
#
# Total GULP energy -89286.188312 kJ/mol
# GULP energy per Si atom -5580.386770 kJ/mol
# Density = 2.560390 g / cm^3
# Si number density = 25.662305 Si / 1000 Ang^3
#
#
#
# Elastic Constant Matrix: (Units=GPa)
#
#
# Indices 1 2 3 4 5 6 
#
# 1 65.0382 42.2369 6.9631 0.0509 7.8752 24.8348
# 2 42.2369 106.0478 15.9888 12.1769 -10.1277 35.4966
# 3 6.9631 15.9888 73.1248 -5.9930 11.0220 13.0498
# 4 0.0509 12.1769 -5.9930 40.1692 10.2413 -6.4551
# 5 7.8752 -10.1277 11.0220 10.2413 27.9725 4.7791
# 6 24.8348 35.4966 13.0498 -6.4551 4.7791 47.7403
#
#
#
# Elastic Compliance Matrix: (Units=1/GPa)
#
#
# Indices 1 2 3 4 5 6 
#
# 1 0.025938 -0.012401 0.003723 0.007852 -0.015680 -0.002659
# 2 -0.012401 0.024317 -0.006441 -0.016601 0.023381 -0.014454
# 3 0.003723 -0.006441 0.017278 0.007976 -0.013199 0.000529
# 4 0.007852 -0.016601 0.007976 0.040765 -0.028761 0.014469
# 5 -0.015680 0.023381 -0.013199 -0.028761 0.067133 -0.016229
# 6 -0.002659 -0.014454 0.000529 0.014469 -0.016229 0.036513
#
#
# Mechanical properties :
#
#
# Convention : Reuss Voigt Hill
#
# Bulk Modulus (GPa) = 26.81375 41.62092 34.21734
# Shear Modulus (GPa) = 19.63753 35.11120 27.37436
#
# Velocity S-wave (km/s) = 2.76928 3.70293 3.26960
# Velocity P-wave (km/s) = 4.54935 5.87675 5.25513
#
# Compressibility (1/GPa) = 0.03729429
#
# Stress axis : x y z
#
# Youngs Moduli (GPa) = 38.55303 41.12308 57.87794
#
# Poissons Ratio (x) = 0.50998 -0.21549
# Poissons Ratio (y) = 0.47811 0.37281
# Poissons Ratio (z) = -0.14354 0.26489
#
# Static dielectric constant tensor:
#      x y z
#    x 2.104060 -0.019090 0.006780 
#    y -0.019090 2.098910 -0.014970 
#    z 0.006780 -0.014970 2.024400 
# 
# From -- ./inp_files/437092.got.cif
#   From: 2010.05.17/outbox.cif.g08.bks.cpg/sg2_219_cif.got.tgz:437092.got - 2010.06.03 11:33:40.
