data_PCOD9028412
_publ_section_title
;
Structure prediction by ZEFSAII (Michael W. Deem and Ramdas Pophale) SiO2 
 PCOD9028412
Probable space group: P -1
;
_chemical_formula_sum "Si O2"
_cell_formula_units_Z 16
_cell_length_a 11.788975
_cell_length_b 10.807990
_cell_length_c 14.654397
_cell_angle_alpha 116.787695
_cell_angle_beta 150.262435
_cell_angle_gamma 81.072573
_cell_volume 699.390057
_symmetry_space_group_name_H-M "P -1"
_symmetry_group_IT_number 2
_symmetry_cell_setting 'triclinic'
loop_
_space_group_symop_operation_xyz
x,y,z
-x,-y,-z
loop_
_atom_site_type_symbol
_atom_site_label
_atom_site_fract_x
_atom_site_fract_y
_atom_site_fract_z
Si Si1 0.666826 0.496408 0.823419
Si Si2 0.943848 0.087212 0.571272
Si Si3 0.868424 0.270418 0.106326
Si Si4 0.587895 0.761680 0.924471
Si Si5 0.780447 0.432040 0.683987
Si Si6 0.430748 0.102799 0.224291
Si Si7 0.362363 0.239563 0.668076
Si Si8 0.936491 0.318960 0.382342
O O1 0.515225 0.588365 0.774750
O O2 0.692432 0.485749 0.730477
O O3 0.497500 0.318964 0.692790
O O4 0.966354 0.581214 0.106931
O O5 0.718952 0.126766 0.404432
O O6 0.224829 0.221725 0.854803
O O7 0.000000 0.000000 0.500000
O O8 0.812076 0.954907 0.517055
O O9 0.932493 0.277728 0.259823
O O10 0.094688 0.420152 0.253517
O O11 0.609206 0.288763 0.924448
O O12 0.760274 0.084076 0.935555
O O13 0.699205 0.875863 0.950804
O O14 0.357387 0.785256 0.812629
O O15 0.538038 0.258125 0.418235
O O16 0.164688 0.298111 0.580232
O O17 0.000000 0.500000 0.500000
#
# Coordination Sequence:
#
# PCOD9028412 Si02
#       8
#     2   2   2   2   2   2   2   2
#     4  10  22  44  67  94 127 169 220 269 318 386
#     4  11  23  41  63  94 134 171 211 262 323 385
#     4  10  24  43  64  98 129 166 220 262 318 390
#     4  12  23  40  64  97 131 166 214 264 325 385
#     4  10  22  46  70  90 131 172 218 272 321 378
#     4  11  23  42  66  96 129 173 216 263 326 385
#     4  10  22  42  61  92 130 167 209 264 316 380
#     4  12  23  38  64  97 131 169 210 260 324 389
#
# _framework density 22.877078999999998
#
# number of rings (size 3 to 8) (size 9 to 14) (size 15 to 20)
#    0.000    1.250    2.500    3.750    0.000    2.500 
#    2.250    3.125    0.000    0.000    0.000    0.000 
#    0.000    0.000    0.000    0.000    0.000    0.000 
#
# Total GULP energy -89361.149968 kJ/mol
# GULP energy per Si atom -5585.071873 kJ/mol
# Density = 2.282501 g / cm^3
# Si number density = 22.877079 Si / 1000 Ang^3
#
#
#
# Elastic Constant Matrix: (Units=GPa)
#
#
# Indices 1 2 3 4 5 6 
#
# 1 78.5871 23.3074 33.8536 12.1178 -17.2287 2.2553
# 2 23.3074 81.3538 27.9393 4.4593 -9.6208 11.8704
# 3 33.8536 27.9393 89.9341 1.4208 -18.3007 -4.5297
# 4 12.1178 4.4593 1.4208 38.7663 -6.4437 4.3032
# 5 -17.2287 -9.6208 -18.3007 -6.4437 30.3289 -3.9620
# 6 2.2553 11.8704 -4.5297 4.3032 -3.9620 23.3392
#
#
#
# Elastic Compliance Matrix: (Units=1/GPa)
#
#
# Indices 1 2 3 4 5 6 
#
# 1 0.017237 -0.002598 -0.004483 -0.004069 0.005458 0.000462
# 2 -0.002598 0.015787 -0.004417 0.000081 -0.000251 -0.008693
# 3 -0.004483 -0.004417 0.015882 0.001735 0.006867 0.006608
# 4 -0.004069 0.000081 0.001735 0.028119 0.004242 -0.003776
# 5 0.005458 -0.000251 0.006867 0.004242 0.041989 0.007279
# 6 0.000462 -0.008693 0.006608 -0.003776 0.007279 0.050438
#
#
# Mechanical properties :
#
#
# Convention : Reuss Voigt Hill
#
# Bulk Modulus (GPa) = 38.59400 46.67507 42.63453
# Shear Modulus (GPa) = 24.86516 29.47185 27.16851
#
# Velocity S-wave (km/s) = 3.30040 3.59314 3.44988
# Velocity P-wave (km/s) = 5.60627 6.13686 5.87756
#
# Compressibility (1/GPa) = 0.02591076
#
# Stress axis : x y z
#
# Youngs Moduli (GPa) = 58.01398 63.34149 62.96474
#
# Poissons Ratio (x) = 0.16454 0.28229
# Poissons Ratio (y) = 0.15070 0.27812
# Poissons Ratio (z) = 0.26009 0.27978
#
# Static dielectric constant tensor:
#      x y z
#    x 1.821620 0.015190 0.052490 
#    y 0.015190 1.875290 -0.005750 
#    z 0.052490 -0.005750 1.944700 
# 
# From -- ./inp_files/390124.got.cif
#   From: 2010.05.17/outbox.cif.g08.bks.cpg/sg2_196_cif.got.tgz:390124.got - 2010.06.03 11:33:40.
