data_PCOD9028826
_publ_section_title
;
Structure prediction by ZEFSAII (Michael W. Deem and Ramdas Pophale) SiO2 
 PCOD9028826
Probable space group: P -1
;
_chemical_formula_sum "Si O2"
_cell_formula_units_Z 14
_cell_length_a 11.953585
_cell_length_b 13.930896
_cell_length_c 9.055063
_cell_angle_alpha 144.701628
_cell_angle_beta 126.555028
_cell_angle_gamma 46.200204
_cell_volume 627.171966
_symmetry_space_group_name_H-M "P -1"
_symmetry_group_IT_number 2
_symmetry_cell_setting 'triclinic'
loop_
_space_group_symop_operation_xyz
x,y,z
-x,-y,-z
loop_
_atom_site_type_symbol
_atom_site_label
_atom_site_fract_x
_atom_site_fract_y
_atom_site_fract_z
Si Si1 0.184296 0.556774 0.169416
Si Si2 0.768800 0.592572 0.505356
Si Si3 0.682052 0.039772 0.620003
Si Si4 0.593501 0.000606 0.815080
Si Si5 0.676688 0.393693 0.946155
Si Si6 0.445814 0.345131 0.311058
Si Si7 0.022926 0.349725 0.624356
O O1 0.285030 0.609672 0.200611
O O2 0.304062 0.378687 0.129864
O O3 0.086609 0.689157 0.391723
O O4 0.066636 0.505284 0.921640
O O5 0.626890 0.618808 0.538338
O O6 0.922300 0.444622 0.520851
O O7 0.737421 0.803269 0.717079
O O8 0.755056 0.505869 0.231770
O O9 0.549564 0.041669 0.406038
O O10 0.819292 0.835935 0.494045
O O11 0.615336 0.098454 0.806862
O O12 0.739281 0.184887 0.788266
O O13 0.563924 0.136196 0.100924
O O14 0.500000 0.500000 0.000000
O O15 0.500000 0.500000 0.500000
#
# Coordination Sequence:
#
# PCOD9028826 Si02
#       7
#     2   2   2   2   2   2   2
#     4  10  22  42  65  89 132 174 208 255 331 381
#     4  11  24  40  66  94 130 167 216 263 320 376
#     4  11  23  39  67  93 128 169 219 257 321 379
#     4  11  22  40  65  97 124 170 216 265 310 387
#     4  12  23  40  66  99 130 167 214 274 316 372
#     4  11  22  40  65  98 128 162 212 276 319 369
#     4  10  23  44  64  93 129 179 208 259 318 396
#
# _framework density 22.322424000000002
#
# number of rings (size 3 to 8) (size 9 to 14) (size 15 to 20)
#    0.000    1.143    2.857    3.857    0.000    3.429 
#    0.000    2.857    0.000    0.000    0.000    0.000 
#    0.000    0.000    0.000    0.000    0.000    0.000 
#
# Total GULP energy -78181.326022 kJ/mol
# GULP energy per Si atom -5584.380430 kJ/mol
# Density = 2.227162 g / cm^3
# Si number density = 22.322424 Si / 1000 Ang^3
#
#
#
# Elastic Constant Matrix: (Units=GPa)
#
#
# Indices 1 2 3 4 5 6 
#
# 1 80.8309 17.1369 -7.4810 -5.0156 -9.4568 19.8960
# 2 17.1369 97.0360 14.5163 4.7491 -8.8378 -4.2042
# 3 -7.4810 14.5163 47.0549 6.1779 -8.0991 1.8670
# 4 -5.0156 4.7491 6.1779 30.0829 3.7865 0.8535
# 5 -9.4568 -8.8378 -8.0991 3.7865 19.4710 0.6382
# 6 19.8960 -4.2042 1.8670 0.8535 0.6382 42.7270
#
#
#
# Elastic Compliance Matrix: (Units=1/GPa)
#
#
# Indices 1 2 3 4 5 6 
#
# 1 0.016831 -0.003411 0.005422 0.001354 0.008900 -0.008570
# 2 -0.003411 0.011912 -0.003615 -0.002112 0.002562 0.002922
# 3 0.005422 -0.003615 0.026378 -0.005483 0.013166 -0.004120
# 4 0.001354 -0.002112 -0.005483 0.036165 -0.009576 -0.001178
# 5 0.008900 0.002562 0.013166 -0.009576 0.064354 -0.005237
# 6 -0.008570 0.002922 -0.004120 -0.001178 -0.005237 0.027964
#
#
# Mechanical properties :
#
#
# Convention : Reuss Voigt Hill
#
# Bulk Modulus (GPa) = 19.26232 30.36289 24.81261
# Shear Modulus (GPa) = 24.49583 31.83949 28.16766
#
# Velocity S-wave (km/s) = 3.31624 3.78080 3.55611
# Velocity P-wave (km/s) = 4.82816 5.71758 5.29159
#
# Compressibility (1/GPa) = 0.05191483
#
# Stress axis : x y z
#
# Youngs Moduli (GPa) = 59.41392 83.95035 37.90979
#
# Poissons Ratio (x) = 0.28632 -0.20555
# Poissons Ratio (y) = 0.20264 0.13703
# Poissons Ratio (z) = -0.32215 0.30346
#
# Static dielectric constant tensor:
#      x y z
#    x 1.934020 -0.016620 -0.016530 
#    y -0.016620 1.793600 -0.009700 
#    z -0.016530 -0.009700 1.823820 
# 
# From -- ./inp_files/177573.got.cif
#   From: 2010.05.17/outbox.cif.g08.bks.cpg/sg2_89_cif.got.tgz:177573.got - 2010.06.03 11:33:40.
