data_PCOD9028462
_publ_section_title
;
Structure prediction by ZEFSAII (Michael W. Deem and Ramdas Pophale) SiO2 
 PCOD9028462
Probable space group: P -1
;
_chemical_formula_sum "Si O2"
_cell_formula_units_Z 12
_cell_length_a 6.290414
_cell_length_b 13.210705
_cell_length_c 11.735549
_cell_angle_alpha 120.234200
_cell_angle_beta 73.309123
_cell_angle_gamma 63.258558
_cell_volume 561.371510
_symmetry_space_group_name_H-M "P -1"
_symmetry_group_IT_number 2
_symmetry_cell_setting 'triclinic'
loop_
_space_group_symop_operation_xyz
x,y,z
-x,-y,-z
loop_
_atom_site_type_symbol
_atom_site_label
_atom_site_fract_x
_atom_site_fract_y
_atom_site_fract_z
Si Si1 0.261711 0.066120 0.716171
Si Si2 0.296487 0.647717 0.205038
Si Si3 0.911625 0.162418 0.063573
Si Si4 0.840289 0.490083 0.662846
Si Si5 0.627810 0.137704 0.605351
Si Si6 0.127231 0.614822 0.642794
O O1 0.482758 0.096347 0.689726
O O2 0.990123 0.198060 0.740806
O O3 0.420731 0.891836 0.532809
O O4 0.103741 0.109158 0.886665
O O5 0.179921 0.601823 0.291919
O O6 0.479382 0.688872 0.256134
O O7 0.500000 0.500000 0.000000
O O8 0.528968 0.326287 0.195824
O O9 0.007670 0.222557 0.177700
O O10 0.000000 0.000000 0.000000
O O11 0.986718 0.374435 0.460846
O O12 0.046979 0.527748 0.676309
O O13 0.000000 0.000000 0.500000
O O14 0.500000 0.500000 0.500000
#
# Coordination Sequence:
#
# PCOD9028462 Si02
#       6
#     2   2   2   2   2   2
#     4  10  22  42  62  93 124 159 207 246 308 361
#     4  11  22  38  67  92 121 158 200 259 304 361
#     4  11  24  40  64  90 122 162 205 253 300 364
#     4  10  22  44  62  91 123 158 208 248 309 358
#     4   9  22  42  60  91 126 163 197 251 305 363
#     4   9  22  43  63  88 122 161 204 252 299 363
#
# _framework density 21.376218999999999
#
# number of rings (size 3 to 8) (size 9 to 14) (size 15 to 20)
#    0.000    2.000    1.667    0.000    4.667    4.000 
#   24.000    0.000    0.000    0.000    0.000    0.000 
#    0.000    0.000    0.000    0.000    0.000    0.000 
#
# Total GULP energy -66956.707555 kJ/mol
# GULP energy per Si atom -5579.725630 kJ/mol
# Density = 2.132757 g / cm^3
# Si number density = 21.376219 Si / 1000 Ang^3
#
#
#
# Elastic Constant Matrix: (Units=GPa)
#
#
# Indices 1 2 3 4 5 6 
#
# 1 108.8507 52.2949 62.5053 2.1776 16.0272 46.8604
# 2 52.2949 133.2646 91.9736 -19.2893 26.0666 38.3299
# 3 62.5053 91.9736 159.4050 -9.0022 31.7958 36.9517
# 4 2.1776 -19.2893 -9.0022 36.1096 13.3644 -5.5461
# 5 16.0272 26.0666 31.7958 13.3644 36.4083 11.7096
# 6 46.8604 38.3299 36.9517 -5.5461 11.7096 43.8886
#
#
#
# Elastic Compliance Matrix: (Units=1/GPa)
#
#
# Indices 1 2 3 4 5 6 
#
# 1 0.019590 -0.001861 -0.003711 -0.007651 0.004669 -0.018379
# 2 -0.001861 0.016264 -0.005473 0.009890 -0.008347 -0.004133
# 3 -0.003711 -0.005473 0.012166 0.002717 -0.006233 0.000505
# 4 -0.007651 0.009890 0.002717 0.045193 -0.025843 0.009850
# 5 0.004669 -0.008347 -0.006233 -0.025843 0.049156 -0.008828
# 6 -0.018379 -0.004133 0.000505 0.009850 -0.008828 0.049193
#
#
# Mechanical properties :
#
#
# Convention : Reuss Voigt Hill
#
# Bulk Modulus (GPa) = 38.56429 90.56310 64.56369
# Shear Modulus (GPa) = 22.49276 36.26437 29.37857
#
# Velocity S-wave (km/s) = 3.24733 4.12331 3.71125
# Velocity P-wave (km/s) = 5.66923 8.07014 6.97378
#
# Compressibility (1/GPa) = 0.02593072
#
# Stress axis : x y z
#
# Youngs Moduli (GPa) = 51.04751 61.48461 82.19819
#
# Poissons Ratio (x) = 0.11440 0.30501
# Poissons Ratio (y) = 0.09498 0.44987
# Poissons Ratio (z) = 0.18942 0.33651
#
# Static dielectric constant tensor:
#      x y z
#    x 1.844770 0.019590 0.034450 
#    y 0.019590 1.766490 0.033810 
#    z 0.034450 0.033810 1.838290 
# 
# From -- ./inp_files/19947.got.cif
#   From: 2010.05.17/outbox.cif.g08.bks.cpg/sg2_10_cif.got.tgz:19947.got - 2010.06.03 11:33:40.
