data_PCOD9028422
_publ_section_title
;
Structure prediction by ZEFSAII (Michael W. Deem and Ramdas Pophale) SiO2 
 PCOD9028422
Probable space group: P -1
;
_chemical_formula_sum "Si O2"
_cell_formula_units_Z 12
_cell_length_a 14.593951
_cell_length_b 8.792264
_cell_length_c 12.382914
_cell_angle_alpha 147.641752
_cell_angle_beta 39.470182
_cell_angle_gamma 125.483386
_cell_volume 528.464813
_symmetry_space_group_name_H-M "P -1"
_symmetry_group_IT_number 2
_symmetry_cell_setting 'triclinic'
loop_
_space_group_symop_operation_xyz
x,y,z
-x,-y,-z
loop_
_atom_site_type_symbol
_atom_site_label
_atom_site_fract_x
_atom_site_fract_y
_atom_site_fract_z
Si Si1 0.898299 0.691747 0.796490
Si Si2 0.394742 0.348667 0.206609
Si Si3 0.138503 0.667817 0.736843
Si Si4 0.336817 0.748857 0.948298
Si Si5 0.698617 0.289152 0.798605
Si Si6 0.168874 0.353073 0.730963
O O1 0.754525 0.558861 0.860634
O O2 0.000000 0.500000 0.500000
O O3 0.987151 0.661044 0.810553
O O4 0.868740 0.036497 0.013242
O O5 0.263781 0.626453 0.505295
O O6 0.492034 0.337612 0.221950
O O7 0.521551 0.331902 0.992002
O O8 0.324074 0.064959 0.096825
O O9 0.179634 0.404301 0.624191
O O10 0.278722 0.526013 0.792401
O O11 0.257765 0.744732 0.133807
O O12 0.780381 0.985863 0.490203
O O13 0.000000 0.500000 0.000000
#
# Coordination Sequence:
#
# PCOD9028422 Si02
#       6
#     2   2   2   2   2   2
#     4  11  26  44  61  87 132 170 212 259 300 375
#     4   9  20  42  65  93 127 166 193 270 318 356
#     4  11  24  42  64  91 125 169 214 249 318 371
#     4   9  20  40  63  98 131 148 205 263 316 366
#     4  10  22  42  61  96 127 155 212 261 302 377
#     4  12  23  35  70 101 120 169 205 255 324 368
#
# _framework density 22.707283
#
# number of rings (size 3 to 8) (size 9 to 14) (size 15 to 20)
#    1.000    0.667    1.667    2.000    4.667    6.000 
#    0.000    0.833    0.000    0.000    0.000    0.000 
#    0.000    0.000    0.000    0.000    0.000    0.000 
#
# Total GULP energy -66997.262625 kJ/mol
# GULP energy per Si atom -5583.105219 kJ/mol
# Density = 2.265560 g / cm^3
# Si number density = 22.707283 Si / 1000 Ang^3
#
#
#
# Elastic Constant Matrix: (Units=GPa)
#
#
# Indices 1 2 3 4 5 6 
#
# 1 66.0963 3.6594 -0.8401 11.6880 10.3991 12.4452
# 2 3.6594 89.5189 19.3638 -3.5367 2.2802 12.6272
# 3 -0.8401 19.3638 84.4799 -5.8149 -14.5634 14.0271
# 4 11.6880 -3.5367 -5.8149 36.3232 8.9989 0.2165
# 5 10.3991 2.2802 -14.5634 8.9989 24.7857 -3.4246
# 6 12.4452 12.6272 14.0271 0.2165 -3.4246 27.1177
#
#
#
# Elastic Compliance Matrix: (Units=1/GPa)
#
#
# Indices 1 2 3 4 5 6 
#
# 1 0.018924 0.000666 0.000058 -0.004000 -0.007895 -0.009990
# 2 0.000666 0.012653 -0.002630 0.001708 -0.004355 -0.005401
# 3 0.000058 -0.002630 0.014741 0.000113 0.008091 -0.005406
# 4 -0.004000 0.001708 0.000113 0.031459 -0.009906 -0.000520
# 5 -0.007895 -0.004355 0.008091 -0.009906 0.053558 0.008309
# 6 -0.009990 -0.005401 -0.005406 -0.000520 0.008309 0.047825
#
#
# Mechanical properties :
#
#
# Convention : Reuss Voigt Hill
#
# Bulk Modulus (GPa) = 23.52658 31.60682 27.56670
# Shear Modulus (GPa) = 25.36269 32.17278 28.76773
#
# Velocity S-wave (km/s) = 3.34569 3.76819 3.56321
# Velocity P-wave (km/s) = 5.03072 5.73426 5.39398
#
# Compressibility (1/GPa) = 0.04250511
#
# Stress axis : x y z
#
# Youngs Moduli (GPa) = 52.84376 79.03462 67.83933
#
# Poissons Ratio (x) = -0.05265 -0.00393
# Poissons Ratio (y) = -0.03520 0.17842
# Poissons Ratio (z) = -0.00306 0.20786
#
# Static dielectric constant tensor:
#      x y z
#    x 1.837180 -0.035570 0.006920 
#    y -0.035570 1.813760 -0.054430 
#    z 0.006920 -0.054430 1.882230 
# 
# From -- ./inp_files/134579.got.cif
#   From: 2010.05.17/outbox.cif.g08.bks.cpg/sg2_68_cif.got.tgz:134579.got - 2010.06.03 11:33:40.
