data_PCOD9028217
_publ_section_title
;
Structure prediction by ZEFSAII (Michael W. Deem and Ramdas Pophale) SiO2 
 PCOD9028217
Probable space group: P -1
;
_chemical_formula_sum "Si O2"
_cell_formula_units_Z 14
_cell_length_a 15.182757
_cell_length_b 17.494175
_cell_length_c 11.075806
_cell_angle_alpha 144.836706
_cell_angle_beta 46.898239
_cell_angle_gamma 157.049573
_cell_volume 628.200109
_symmetry_space_group_name_H-M "P -1"
_symmetry_group_IT_number 2
_symmetry_cell_setting 'triclinic'
loop_
_space_group_symop_operation_xyz
x,y,z
-x,-y,-z
loop_
_atom_site_type_symbol
_atom_site_label
_atom_site_fract_x
_atom_site_fract_y
_atom_site_fract_z
Si Si1 0.043939 0.854720 0.724563
Si Si2 0.826379 0.194751 0.000377
Si Si3 0.190002 0.344687 0.567248
Si Si4 0.704815 0.785972 0.530582
Si Si5 0.245452 0.763576 0.372642
Si Si6 0.402067 0.420253 0.122454
Si Si7 0.669409 0.227985 0.964954
O O1 0.107006 0.761050 0.545978
O O2 0.986694 0.834470 0.611737
O O3 0.807824 0.669612 0.780812
O O4 0.264759 0.154725 0.945870
O O5 0.076959 0.477783 0.184196
O O6 0.609726 0.010369 0.058579
O O7 0.763471 0.232615 0.996209
O O8 0.823756 0.041862 0.760690
O O9 0.451037 0.567482 0.553864
O O10 0.202208 0.506808 0.813337
O O11 0.159872 0.202459 0.511161
O O12 0.617084 0.659434 0.318047
O O13 0.287056 0.805837 0.244062
O O14 0.500000 0.000000 0.500000
O O15 0.500000 0.500000 0.000000
#
# Coordination Sequence:
#
# PCOD9028217 Si02
#       7
#     2   2   2   2   2   2   2
#     4  10  23  44  65  96 136 181 221 275 341 404
#     4  10  22  44  69 102 128 175 234 284 335 404
#     4   9  18  40  67  98 133 173 218 282 337 395
#     4   9  20  38  69 102 130 166 227 283 334 397
#     4  12  27  43  68  98 141 184 229 277 341 407
#     4  10  23  42  68  99 134 176 218 278 348 412
#     4  10  22  41  72  96 132 179 228 279 343 404
#
# _framework density 22.285893000000002
#
# number of rings (size 3 to 8) (size 9 to 14) (size 15 to 20)
#    0.000    2.000    1.429    0.429    6.000    0.571 
#    5.143    1.429    0.000    0.000    0.000    0.000 
#    0.000    0.000    0.000    0.000    0.000    0.000 
#
# Total GULP energy -78352.144779 kJ/mol
# GULP energy per Si atom -5596.581770 kJ/mol
# Density = 2.223517 g / cm^3
# Si number density = 22.285893 Si / 1000 Ang^3
#
#
#
# Elastic Constant Matrix: (Units=GPa)
#
#
# Indices 1 2 3 4 5 6 
#
# 1 77.4423 36.0022 59.6095 6.7633 -21.5688 -0.6791
# 2 36.0022 122.4674 69.1069 7.5752 9.8949 3.0851
# 3 59.6095 69.1069 168.3779 11.0473 -14.4112 9.6238
# 4 6.7633 7.5752 11.0473 52.0885 -2.8507 5.3607
# 5 -21.5688 9.8949 -14.4112 -2.8507 28.0050 5.3052
# 6 -0.6791 3.0851 9.6238 5.3607 5.3052 23.5000
#
#
#
# Elastic Compliance Matrix: (Units=1/GPa)
#
#
# Indices 1 2 3 4 5 6 
#
# 1 0.024484 -0.006177 -0.004452 -0.000213 0.018893 -0.000875
# 2 -0.006177 0.013565 -0.004552 -0.001205 -0.012587 0.003021
# 3 -0.004452 -0.004552 0.010011 -0.000189 0.004170 -0.004529
# 4 -0.000213 -0.001205 -0.000189 0.020138 0.003177 -0.005082
# 5 0.018893 -0.012587 0.004170 0.003177 0.059776 -0.013729
# 6 -0.000875 0.003021 -0.004529 -0.005082 -0.013729 0.048245
#
#
# Mechanical properties :
#
#
# Convention : Reuss Voigt Hill
#
# Bulk Modulus (GPa) = 56.49778 77.52496 67.01137
# Shear Modulus (GPa) = 23.53170 34.28999 28.91085
#
# Velocity S-wave (km/s) = 3.25299 3.92681 3.60567
# Velocity P-wave (km/s) = 6.28615 7.44458 6.88976
#
# Compressibility (1/GPa) = 0.01769981
#
# Stress axis : x y z
#
# Youngs Moduli (GPa) = 40.84351 73.71798 99.88613
#
# Poissons Ratio (x) = 0.45534 0.44466
# Poissons Ratio (y) = 0.25228 0.45466
# Poissons Ratio (z) = 0.18182 0.33555
#
# Static dielectric constant tensor:
#      x y z
#    x 1.798920 -0.005060 -0.015560 
#    y -0.005060 1.866590 -0.002500 
#    z -0.015560 -0.002500 1.802460 
# 
# From -- ./inp_files/467173.got.cif
#   From: 2010.05.17/outbox.cif.g08.bks.cpg/sg2_234_cif.got.tgz:467173.got - 2010.06.03 11:33:40.
