data_PCOD9028445
_publ_section_title
;
Structure prediction by ZEFSAII (Michael W. Deem and Ramdas Pophale) SiO2 
 PCOD9028445
Probable space group: P -1
;
_chemical_formula_sum "Si O2"
_cell_formula_units_Z 16
_cell_length_a 7.674657
_cell_length_b 9.118152
_cell_length_c 14.800397
_cell_angle_alpha 121.712150
_cell_angle_beta 63.908738
_cell_angle_gamma 117.075892
_cell_volume 756.523303
_symmetry_space_group_name_H-M "P -1"
_symmetry_group_IT_number 2
_symmetry_cell_setting 'triclinic'
loop_
_space_group_symop_operation_xyz
x,y,z
-x,-y,-z
loop_
_atom_site_type_symbol
_atom_site_label
_atom_site_fract_x
_atom_site_fract_y
_atom_site_fract_z
Si Si1 0.813937 0.696997 0.248375
Si Si2 0.578868 0.204983 0.582093
Si Si3 0.739911 0.552443 0.952278
Si Si4 0.772048 0.707114 0.816962
Si Si5 0.791605 0.550623 0.563310
Si Si6 0.689955 0.322931 0.055300
Si Si7 0.016228 0.892549 0.094576
Si Si8 0.985158 0.789911 0.436936
O O1 0.601354 0.747286 0.307675
O O2 0.769306 0.492114 0.158914
O O3 0.962877 0.836688 0.192233
O O4 0.903896 0.716343 0.333832
O O5 0.625255 0.355190 0.540056
O O6 0.791150 0.225866 0.592809
O O7 0.500000 0.000000 0.500000
O O8 0.799218 0.562149 0.837282
O O9 0.500000 0.500000 0.000000
O O10 0.781514 0.408647 0.965245
O O11 0.837959 0.753022 0.034245
O O12 0.770235 0.643998 0.693886
O O13 0.552261 0.731178 0.899172
O O14 0.942658 0.895693 0.855084
O O15 0.000000 0.500000 0.500000
O O16 0.822558 0.684478 0.515254
O O17 0.785263 0.162649 0.998798
O O18 0.000000 0.000000 0.500000
#
# Coordination Sequence:
#
# PCOD9028445 Si02
#       8
#     2   2   2   2   2   2   2   2
#     4  11  22  43  67  92 135 172 213 269 332 388
#     4  11  23  43  67  93 132 172 223 272 322 391
#     4   9  20  38  64  88 121 168 209 257 321 384
#     4  11  21  41  65  90 128 163 209 273 323 383
#     4  10  24  41  65  94 130 170 217 269 329 392
#     4  10  22  42  62  91 125 166 213 267 322 390
#     4  11  23  39  65  94 128 163 219 267 322 387
#     4  11  23  43  68  97 132 175 218 268 331 394
#
# _framework density 21.149381999999999
#
# number of rings (size 3 to 8) (size 9 to 14) (size 15 to 20)
#    0.000    1.500    2.500    3.000    1.750    4.500 
#    4.500    0.000    2.750    0.000    0.000    0.000 
#    0.000    0.000    0.000    0.000    0.000    0.000 
#
# Total GULP energy -89306.489060 kJ/mol
# GULP energy per Si atom -5581.655566 kJ/mol
# Density = 2.110124 g / cm^3
# Si number density = 21.149382 Si / 1000 Ang^3
#
#
#
# Elastic Constant Matrix: (Units=GPa)
#
#
# Indices 1 2 3 4 5 6 
#
# 1 92.3734 19.1786 33.7115 -6.0634 0.1355 3.9515
# 2 19.1786 131.9427 48.0069 -6.8732 9.4931 2.7113
# 3 33.7115 48.0069 93.9667 -24.8851 1.1216 -12.1898
# 4 -6.0634 -6.8732 -24.8851 31.4603 -8.1216 0.9250
# 5 0.1355 9.4931 1.1216 -8.1216 41.3423 -3.7804
# 6 3.9515 2.7113 -12.1898 0.9250 -3.7804 30.4031
#
#
#
# Elastic Compliance Matrix: (Units=1/GPa)
#
#
# Indices 1 2 3 4 5 6 
#
# 1 0.012950 0.000286 -0.005890 -0.002174 -0.000750 -0.004097
# 2 0.000286 0.010107 -0.006741 -0.003790 -0.003243 -0.003929
# 3 -0.005890 -0.006741 0.021535 0.015403 0.004936 0.010146
# 4 -0.002174 -0.003790 0.015403 0.045089 0.009926 0.006658
# 5 -0.000750 -0.003243 0.004936 0.009926 0.027250 0.005452
# 6 -0.004097 -0.003929 0.010146 0.006658 0.005452 0.038318
#
#
# Mechanical properties :
#
#
# Convention : Reuss Voigt Hill
#
# Bulk Modulus (GPa) = 50.24762 57.78632 54.01697
# Shear Modulus (GPa) = 26.79930 35.13353 30.96641
#
# Velocity S-wave (km/s) = 3.56356 4.08021 3.83061
# Velocity P-wave (km/s) = 6.38294 7.04129 6.72018
#
# Compressibility (1/GPa) = 0.01990144
#
# Stress axis : x y z
#
# Youngs Moduli (GPa) = 77.22286 98.94423 46.43539
#
# Poissons Ratio (x) = -0.02827 0.27350
# Poissons Ratio (y) = -0.02206 0.31301
# Poissons Ratio (z) = 0.45484 0.66696
#
# Static dielectric constant tensor:
#      x y z
#    x 1.960310 0.008140 0.033280 
#    y 0.008140 1.795250 -0.017900 
#    z 0.033280 -0.017900 1.764710 
# 
# From -- ./inp_files/493607.got.cif
#   From: 2010.05.17/outbox.cif.g08.bks.cpg/sg2_247_cif.got.tgz:493607.got - 2010.06.03 11:33:40.
