data_PCOD9028836
_publ_section_title
;
Structure prediction by ZEFSAII (Michael W. Deem and Ramdas Pophale) SiO2 
 PCOD9028836
Probable space group: P -1
;
_chemical_formula_sum "Si O2"
_cell_formula_units_Z 14
_cell_length_a 12.927968
_cell_length_b 15.065886
_cell_length_c 22.088280
_cell_angle_alpha 159.838437
_cell_angle_beta 151.209335
_cell_angle_gamma 40.413769
_cell_volume 663.661010
_symmetry_space_group_name_H-M "P -1"
_symmetry_group_IT_number 2
_symmetry_cell_setting 'triclinic'
loop_
_space_group_symop_operation_xyz
x,y,z
-x,-y,-z
loop_
_atom_site_type_symbol
_atom_site_label
_atom_site_fract_x
_atom_site_fract_y
_atom_site_fract_z
Si Si1 0.979542 0.264588 0.192788
Si Si2 0.651947 0.537309 0.385144
Si Si3 0.462052 0.764373 0.987694
Si Si4 0.941684 0.126334 0.416469
Si Si5 0.444136 0.319722 0.796740
Si Si6 0.876628 0.651557 0.989570
Si Si7 0.715441 0.080613 0.709803
O O1 0.177270 0.407201 0.435752
O O2 0.002351 0.543929 0.345906
O O3 0.728838 0.148221 0.021642
O O4 0.000000 0.000000 0.000000
O O5 0.614741 0.301366 0.164238
O O6 0.396559 0.512656 0.260184
O O7 0.756639 0.805305 0.568802
O O8 0.454773 0.502277 0.858074
O O9 0.727183 0.973541 0.252443
O O10 0.188373 0.103805 0.540846
O O11 0.887473 0.949500 0.212702
O O12 0.626161 0.179443 0.787095
O O13 0.500000 0.500000 0.000000
O O14 0.000000 0.500000 0.000000
O O15 0.043979 0.703253 0.051522
O O16 0.500000 0.000000 0.500000
#
# Coordination Sequence:
#
# PCOD9028836 Si02
#       7
#     2   2   2   2   2   2   2
#     4  11  26  44  62  91 132 168 216 262 315 379
#     4  11  23  39  68  94 122 168 213 263 315 373
#     4  10  22  43  66  89 121 166 218 265 315 372
#     4  10  22  42  65  90 130 165 212 269 309 376
#     4  11  23  38  60  94 132 167 203 256 324 381
#     4  11  20  38  67 100 126 153 212 266 312 378
#     4  12  19  37  64  92 127 160 203 256 318 376
#
# _framework density 21.095106000000001
#
# number of rings (size 3 to 8) (size 9 to 14) (size 15 to 20)
#    0.000    1.143    4.286    2.143    4.000    4.571 
#    2.571    0.000    0.000    0.000    0.000    0.000 
#    0.000    0.000    0.000    0.000    0.000    0.000 
#
# Total GULP energy -77986.481460 kJ/mol
# GULP energy per Si atom -5570.462961 kJ/mol
# Density = 2.104709 g / cm^3
# Si number density = 21.095106 Si / 1000 Ang^3
#
#
#
# Elastic Constant Matrix: (Units=GPa)
#
#
# Indices 1 2 3 4 5 6 
#
# 1 125.6193 20.7034 59.1305 -4.3682 24.2034 -44.3829
# 2 20.7034 31.2947 8.1863 5.3239 7.5844 -19.1316
# 3 59.1305 8.1863 78.5164 4.1075 17.0919 -12.3995
# 4 -4.3682 5.3239 4.1075 29.3794 -14.4781 -6.5788
# 5 24.2034 7.5844 17.0919 -14.4781 50.7657 -9.9985
# 6 -44.3829 -19.1316 -12.3995 -6.5788 -9.9985 30.5637
#
#
#
# Elastic Compliance Matrix: (Units=1/GPa)
#
#
# Indices 1 2 3 4 5 6 
#
# 1 0.036907 0.012172 -0.022265 0.022673 0.006185 0.059084
# 2 0.012172 0.056223 -0.007044 0.003458 -0.000907 0.050460
# 3 -0.022265 -0.007044 0.028079 -0.017672 -0.009158 -0.032150
# 4 0.022673 0.003458 -0.017672 0.060481 0.021308 0.047909
# 5 0.006185 -0.000907 -0.009158 0.021308 0.029794 0.019031
# 6 0.059084 0.050460 -0.032150 0.047909 0.019031 0.153598
#
#
# Mechanical properties :
#
#
# Convention : Reuss Voigt Hill
#
# Bulk Modulus (GPa) = 11.50264 45.71897 28.61080
# Shear Modulus (GPa) = 11.67310 31.96909 21.82110
#
# Velocity S-wave (km/s) = 2.35490 3.89713 3.21972
# Velocity P-wave (km/s) = 3.58590 6.47843 5.23587
#
# Compressibility (1/GPa) = 0.08693657
#
# Stress axis : x y z
#
# Youngs Moduli (GPa) = 27.09519 17.78620 35.61319
#
# Poissons Ratio (x) = -0.21650 0.79294
# Poissons Ratio (y) = -0.32981 0.25085
# Poissons Ratio (z) = 0.60328 0.12528
#
# Static dielectric constant tensor:
#      x y z
#    x 1.767990 0.008320 -0.022450 
#    y 0.008320 1.814010 -0.008890 
#    z -0.022450 -0.008890 1.885530 
# 
# From -- ./inp_files/222667.got.cif
#   From: 2010.05.17/outbox.cif.g08.bks.cpg/sg2_112_cif.got.tgz:222667.got - 2010.06.03 11:33:40.
