data_PCOD9028577
_publ_section_title
;
Structure prediction by ZEFSAII (Michael W. Deem and Ramdas Pophale) SiO2 
 PCOD9028577
Probable space group: P -1
;
_chemical_formula_sum "Si O2"
_cell_formula_units_Z 14
_cell_length_a 7.232103
_cell_length_b 14.677980
_cell_length_c 15.186864
_cell_angle_alpha 28.515582
_cell_angle_beta 108.022095
_cell_angle_gamma 90.346351
_cell_volume 593.298354
_symmetry_space_group_name_H-M "P -1"
_symmetry_group_IT_number 2
_symmetry_cell_setting 'triclinic'
loop_
_space_group_symop_operation_xyz
x,y,z
-x,-y,-z
loop_
_atom_site_type_symbol
_atom_site_label
_atom_site_fract_x
_atom_site_fract_y
_atom_site_fract_z
Si Si1 0.236899 0.545676 0.924664
Si Si2 0.344029 0.835392 0.439309
Si Si3 0.591958 0.521518 0.587524
Si Si4 0.628542 0.600780 0.115823
Si Si5 0.834995 0.092119 0.121955
Si Si6 0.987429 0.577035 0.533726
Si Si7 0.289448 0.195219 0.367142
O O1 0.229593 0.429483 0.111734
O O2 0.500000 0.500000 0.000000
O O3 0.257446 0.414008 0.948248
O O4 0.958069 0.781236 0.679335
O O5 0.383299 0.739098 0.428139
O O6 0.352763 0.640551 0.666870
O O7 0.566385 0.839833 0.493222
O O8 0.074494 0.063235 0.212925
O O9 0.500000 0.500000 0.500000
O O10 0.790067 0.563700 0.562789
O O11 0.703652 0.290123 0.859713
O O12 0.772682 0.592579 0.229242
O O13 0.353537 0.816093 0.904438
O O14 0.910058 0.841960 0.309015
O O15 0.000000 0.500000 0.500000
O O16 0.500000 0.000000 0.500000
#
# Coordination Sequence:
#
# PCOD9028577 Si02
#       7
#     2   2   2   2   2   2   2
#     4  11  24  44  67  93 138 178 224 289 343 403
#     4  10  22  42  63  95 136 168 226 284 335 418
#     4  11  24  42  67  96 133 174 224 286 342 413
#     4  10  22  42  67  94 130 179 222 280 346 407
#     4  10  24  42  68  95 133 182 220 276 359 400
#     4  11  24  42  65  98 135 172 230 281 337 423
#     4  11  26  41  66 102 134 180 234 279 351 420
#
# _framework density 23.596896000000001
#
# number of rings (size 3 to 8) (size 9 to 14) (size 15 to 20)
#    0.000    1.429    1.429    3.429    2.000   12.000 
#    0.000    0.000    0.000    0.000    0.000    0.000 
#    0.000    0.000    0.000    0.000    0.000    0.000 
#
# Total GULP energy -78187.463484 kJ/mol
# GULP energy per Si atom -5584.818820 kJ/mol
# Density = 2.354319 g / cm^3
# Si number density = 23.596896 Si / 1000 Ang^3
#
#
#
# Elastic Constant Matrix: (Units=GPa)
#
#
# Indices 1 2 3 4 5 6 
#
# 1 175.8383 30.2022 45.0191 -1.1298 35.7179 4.2504
# 2 30.2022 101.6107 23.2516 17.8924 23.8600 -12.8531
# 3 45.0191 23.2516 48.9354 5.1898 24.6903 2.2682
# 4 -1.1298 17.8924 5.1898 32.4208 0.2135 6.4443
# 5 35.7179 23.8600 24.6903 0.2135 55.2617 2.3159
# 6 4.2504 -12.8531 2.2682 6.4443 2.3159 44.3723
#
#
#
# Elastic Compliance Matrix: (Units=1/GPa)
#
#
# Indices 1 2 3 4 5 6 
#
# 1 0.007792 -0.000965 -0.005884 0.001939 -0.001960 -0.000904
# 2 -0.000965 0.014033 -0.002978 -0.008418 -0.004314 0.005757
# 3 -0.005884 -0.002978 0.032384 -0.003493 -0.009326 -0.000960
# 4 0.001939 -0.008418 -0.003493 0.037707 0.004137 -0.008138
# 5 -0.001960 -0.004314 -0.009326 0.004137 0.025481 -0.002516
# 6 -0.000904 0.005757 -0.000960 -0.008138 -0.002516 0.025653
#
#
# Mechanical properties :
#
#
# Convention : Reuss Voigt Hill
#
# Bulk Modulus (GPa) = 28.94001 58.14781 43.54391
# Shear Modulus (GPa) = 28.69893 41.60507 35.15200
#
# Velocity S-wave (km/s) = 3.49121 4.20355 3.86383
# Velocity P-wave (km/s) = 5.34251 6.94661 6.19669
#
# Compressibility (1/GPa) = 0.03455423
#
# Stress axis : x y z
#
# Youngs Moduli (GPa) = 128.33978 71.26013 30.87957
#
# Poissons Ratio (x) = 0.06876 0.18171
# Poissons Ratio (y) = 0.12385 0.09195
# Poissons Ratio (z) = 0.75521 0.21220
#
# Static dielectric constant tensor:
#      x y z
#    x 2.151270 0.179790 0.392390 
#    y 0.179790 2.048270 0.262210 
#    z 0.392390 0.262210 2.656780 
# 
# From -- ./inp_files/322191.got.cif
#   From: 2010.05.17/outbox.cif.g08.bks.cpg/sg2_162_cif.got.tgz:322191.got - 2010.06.03 11:33:40.
