data_PCOD9028699
_publ_section_title
;
Structure prediction by ZEFSAII (Michael W. Deem and Ramdas Pophale) SiO2 
 PCOD9028699
Probable space group: P -1
;
_chemical_formula_sum "Si O2"
_cell_formula_units_Z 12
_cell_length_a 20.263568
_cell_length_b 6.536116
_cell_length_c 7.533010
_cell_angle_alpha 55.348889
_cell_angle_beta 137.788011
_cell_angle_gamma 120.611347
_cell_volume 544.390501
_symmetry_space_group_name_H-M "P -1"
_symmetry_group_IT_number 2
_symmetry_cell_setting 'triclinic'
loop_
_space_group_symop_operation_xyz
x,y,z
-x,-y,-z
loop_
_atom_site_type_symbol
_atom_site_label
_atom_site_fract_x
_atom_site_fract_y
_atom_site_fract_z
Si Si1 0.559477 0.770575 0.693909
Si Si2 0.237299 0.358090 0.769928
Si Si3 0.112614 0.078764 0.968290
Si Si4 0.101208 0.182945 0.286192
Si Si5 0.441616 0.231737 0.731537
Si Si6 0.751768 0.097028 0.414427
O O1 0.496054 0.505737 0.762791
O O2 0.571860 0.754537 0.514015
O O3 0.500000 0.000000 0.500000
O O4 0.670369 0.793624 0.982895
O O5 0.155442 0.236419 0.808611
O O6 0.174792 0.371319 0.459326
O O7 0.282295 0.635293 0.794766
O O8 0.096289 0.237870 0.037932
O O9 0.009401 0.894266 0.824307
O O10 0.198527 0.929396 0.281510
O O11 0.158069 0.937206 0.519671
O O12 0.335431 0.138555 0.655491
O O13 0.500000 0.000000 0.000000
#
# Coordination Sequence:
#
# PCOD9028699 Si02
#       6
#     2   2   2   2   2   2
#     4  11  26  40  64  98 124 170 222 258 324 387
#     4  12  22  41  67  94 127 171 213 264 325 379
#     4   9  21  46  58  96 134 158 217 264 316 387
#     4   9  22  42  64  93 130 166 211 264 321 384
#     4  11  23  44  65  88 134 168 207 280 317 374
#     4  10  22  42  64  94 128 167 213 260 323 386
#
# _framework density 22.042999999999999
#
# number of rings (size 3 to 8) (size 9 to 14) (size 15 to 20)
#    1.000    0.667    3.333    0.500    2.333    3.333 
#    3.000    0.000    0.000    0.000    0.000    0.000 
#    0.000    0.000    0.000    0.000    0.000    0.000 
#
# Total GULP energy -66887.778647 kJ/mol
# GULP energy per Si atom -5573.981554 kJ/mol
# Density = 2.199283 g / cm^3
# Si number density = 22.043000 Si / 1000 Ang^3
#
#
#
# Elastic Constant Matrix: (Units=GPa)
#
#
# Indices 1 2 3 4 5 6 
#
# 1 70.4050 27.1604 19.9065 11.7645 14.7776 11.6271
# 2 27.1604 82.4161 18.5505 3.3510 8.1733 14.9513
# 3 19.9065 18.5505 62.4223 17.9172 12.2033 19.3218
# 4 11.7645 3.3510 17.9172 36.6633 -0.3157 4.7117
# 5 14.7776 8.1733 12.2033 -0.3157 33.3308 14.0906
# 6 11.6271 14.9513 19.3218 4.7117 14.0906 18.8092
#
#
#
# Elastic Compliance Matrix: (Units=1/GPa)
#
#
# Indices 1 2 3 4 5 6 
#
# 1 0.018792 -0.004994 -0.002049 -0.004711 -0.006670 0.000635
# 2 -0.004994 0.015647 -0.000678 0.002070 0.003692 -0.011939
# 3 -0.002049 -0.000678 0.026838 -0.009216 0.001576 -0.024635
# 4 -0.004711 0.002070 -0.009216 0.033456 0.006260 -0.002336
# 5 -0.006670 0.003692 0.001576 0.006260 0.047389 -0.037500
# 6 0.000635 -0.011939 -0.024635 -0.002336 -0.037500 0.116248
#
#
# Mechanical properties :
#
#
# Convention : Reuss Voigt Hill
#
# Bulk Modulus (GPa) = 21.81712 38.49757 30.15734
# Shear Modulus (GPa) = 17.29571 27.73574 22.51572
#
# Velocity S-wave (km/s) = 2.80417 3.55104 3.19947
# Velocity P-wave (km/s) = 4.51703 5.85797 5.23065
#
# Compressibility (1/GPa) = 0.04583557
#
# Stress axis : x y z
#
# Youngs Moduli (GPa) = 53.21501 63.90822 37.26127
#
# Poissons Ratio (x) = 0.31914 0.07634
# Poissons Ratio (y) = 0.26575 0.02526
# Poissons Ratio (z) = 0.10903 0.04332
#
# Static dielectric constant tensor:
#      x y z
#    x 1.811640 -0.028020 -0.001380 
#    y -0.028020 1.829850 0.030570 
#    z -0.001380 0.030570 1.816530 
# 
# From -- ./inp_files/135586.got.cif
#   From: 2010.05.17/outbox.cif.g08.bks.cpg/sg2_68_cif.got.tgz:135586.got - 2010.06.03 11:33:40.
