data_PCOD9028548
_publ_section_title
;
Structure prediction by ZEFSAII (Michael W. Deem and Ramdas Pophale) SiO2 
 PCOD9028548
Probable space group: P -1
;
_chemical_formula_sum "Si O2"
_cell_formula_units_Z 14
_cell_length_a 21.412103
_cell_length_b 4.892795
_cell_length_c 5.986382
_cell_angle_alpha 97.243382
_cell_angle_beta 71.182435
_cell_angle_gamma 85.867107
_cell_volume 584.644304
_symmetry_space_group_name_H-M "P -1"
_symmetry_group_IT_number 2
_symmetry_cell_setting 'triclinic'
loop_
_space_group_symop_operation_xyz
x,y,z
-x,-y,-z
loop_
_atom_site_type_symbol
_atom_site_label
_atom_site_fract_x
_atom_site_fract_y
_atom_site_fract_z
Si Si1 0.365153 0.675776 0.668085
Si Si2 0.703565 0.802717 0.445658
Si Si3 0.514058 0.216410 0.697333
Si Si4 0.605349 0.896906 0.940268
Si Si5 0.958302 0.696539 0.388477
Si Si6 0.089714 0.890796 0.145562
Si Si7 0.855508 0.643090 0.161049
O O1 0.328874 0.404527 0.706750
O O2 0.436828 0.590678 0.456439
O O3 0.319562 0.885023 0.577274
O O4 0.375853 0.869834 0.885886
O O5 0.669837 0.760600 0.720166
O O6 0.781937 0.730315 0.340811
O O7 0.500000 0.000000 0.500000
O O8 0.559008 0.053385 0.818509
O O9 0.442636 0.302860 0.902820
O O10 0.015456 0.809862 0.186326
O O11 0.093569 0.451725 0.708290
O O12 0.000000 0.500000 0.500000
O O13 0.917328 0.948913 0.594803
O O14 0.139021 0.608035 0.047304
O O15 0.115143 0.099703 0.961311
#
# Coordination Sequence:
#
# PCOD9028548 Si02
#       7
#     2   2   2   2   2   2   2
#     4  10  22  42  63  92 129 169 221 269 317 381
#     4  11  25  42  61  92 130 176 219 254 318 396
#     4   8  16  36  66  97 124 164 219 271 326 370
#     4   9  19  39  65  93 130 170 212 275 320 372
#     4  11  25  44  72 103 126 164 222 273 329 390
#     4  11  25  44  68  98 130 165 212 274 327 386
#     4  12  26  42  67  95 136 176 212 268 332 389
#
# _framework density 23.946182
#
# number of rings (size 3 to 8) (size 9 to 14) (size 15 to 20)
#    0.000    1.714    1.429    1.714    4.000    5.143 
#    0.000   24.286    0.000    0.000    0.000    0.000 
#    0.000    0.000    0.000    0.000    0.000    0.000 
#
# Total GULP energy -78360.806334 kJ/mol
# GULP energy per Si atom -5597.200452 kJ/mol
# Density = 2.389168 g / cm^3
# Si number density = 23.946182 Si / 1000 Ang^3
#
#
#
# Elastic Constant Matrix: (Units=GPa)
#
#
# Indices 1 2 3 4 5 6 
#
# 1 93.3236 30.2983 80.8938 -4.7926 -25.8795 2.4574
# 2 30.2983 110.6342 30.3393 2.5975 -16.0434 -0.1254
# 3 80.8938 30.3393 149.5940 14.1543 -40.4210 -4.4601
# 4 -4.7926 2.5975 14.1543 36.7061 -0.9637 -3.8460
# 5 -25.8795 -16.0434 -40.4210 -0.9637 45.5217 4.6913
# 6 2.4574 -0.1254 -4.4601 -3.8460 4.6913 17.8873
#
#
#
# Elastic Compliance Matrix: (Units=1/GPa)
#
#
# Indices 1 2 3 4 5 6 
#
# 1 0.023576 -0.002927 -0.012497 0.007605 0.001978 -0.005259
# 2 -0.002927 0.010115 0.000193 -0.001146 0.002075 -0.000270
# 3 -0.012497 0.000193 0.016004 -0.007393 0.006776 0.002342
# 4 0.007605 -0.001146 -0.007393 0.031579 -0.002444 0.004534
# 5 0.001978 0.002075 0.006776 -0.002444 0.030520 -0.007097
# 6 -0.005259 -0.000270 0.002342 0.004534 -0.007097 0.060047
#
#
# Mechanical properties :
#
#
# Convention : Reuss Voigt Hill
#
# Bulk Modulus (GPa) = 51.99831 70.73495 61.36663
# Shear Modulus (GPa) = 23.95619 34.15772 29.05696
#
# Velocity S-wave (km/s) = 3.16637 3.78092 3.48721
# Velocity P-wave (km/s) = 5.92703 6.97594 6.47277
#
# Compressibility (1/GPa) = 0.01923139
#
# Stress axis : x y z
#
# Youngs Moduli (GPa) = 42.41629 98.86143 62.48494
#
# Poissons Ratio (x) = 0.28938 0.78088
# Poissons Ratio (y) = 0.12416 -0.01203
# Poissons Ratio (z) = 0.53008 -0.01904
#
# Static dielectric constant tensor:
#      x y z
#    x 1.892400 -0.016990 0.024830 
#    y -0.016990 1.917670 -0.035520 
#    z 0.024830 -0.035520 1.943450 
# 
# From -- ./inp_files/121716.got.cif
#   From: 2010.05.17/outbox.cif.g08.bks.cpg/sg2_61_cif.got.tgz:121716.got - 2010.06.03 11:33:40.
