data_PCOD9028603
_publ_section_title
;
Structure prediction by ZEFSAII (Michael W. Deem and Ramdas Pophale) SiO2 
 PCOD9028603
Probable space group: P -1
;
_chemical_formula_sum "Si O2"
_cell_formula_units_Z 14
_cell_length_a 13.426950
_cell_length_b 8.869515
_cell_length_c 20.538846
_cell_angle_alpha 48.234606
_cell_angle_beta 149.783575
_cell_angle_gamma 149.906053
_cell_volume 584.105123
_symmetry_space_group_name_H-M "P -1"
_symmetry_group_IT_number 2
_symmetry_cell_setting 'triclinic'
loop_
_space_group_symop_operation_xyz
x,y,z
-x,-y,-z
loop_
_atom_site_type_symbol
_atom_site_label
_atom_site_fract_x
_atom_site_fract_y
_atom_site_fract_z
Si Si1 0.753090 0.116942 0.666717
Si Si2 0.364881 0.412488 0.263612
Si Si3 0.651048 0.170489 0.874459
Si Si4 0.792991 0.363581 0.126881
Si Si5 0.165762 0.245736 0.347564
Si Si6 0.972483 0.779893 0.005482
Si Si7 0.885231 0.236793 0.560753
O O1 0.939996 0.305301 0.650437
O O2 0.002785 0.320349 0.806056
O O3 0.542331 0.749269 0.642436
O O4 0.491659 0.065055 0.559790
O O5 0.535779 0.765540 0.256461
O O6 0.212856 0.302293 0.280326
O O7 0.151233 0.252864 0.124967
O O8 0.706454 0.090168 0.862484
O O9 0.509418 0.918310 0.921556
O O10 0.000000 0.500000 0.000000
O O11 0.971854 0.291299 0.243630
O O12 0.748145 0.440036 0.011287
O O13 0.500000 0.500000 0.500000
O O14 0.007471 0.899030 0.365403
O O15 0.000000 0.000000 0.000000
O O16 0.000000 0.500000 0.500000
#
# Coordination Sequence:
#
# PCOD9028603 Si02
#       7
#     2   2   2   2   2   2   2
#     4  10  22  42  63  99 137 177 233 280 335 415
#     4  10  22  44  66  97 141 173 224 290 336 410
#     4  10  25  45  65 103 137 178 237 282 342 421
#     4  12  24  43  72 101 138 189 226 285 350 404
#     4  11  23  43  70 101 139 183 228 282 342 413
#     4  11  23  46  70  98 135 178 232 287 345 414
#     4  10  23  42  65  95 139 183 228 280 340 401
#
# _framework density 23.968288999999999
#
# number of rings (size 3 to 8) (size 9 to 14) (size 15 to 20)
#    0.000    1.429    4.286    0.000    2.000    5.143 
#    0.000    1.429    0.000    0.000    0.000    0.000 
#    0.000    0.000    0.000    0.000    0.000    0.000 
#
# Total GULP energy -77998.216505 kJ/mol
# GULP energy per Si atom -5571.301179 kJ/mol
# Density = 2.391374 g / cm^3
# Si number density = 23.968289 Si / 1000 Ang^3
#
#
#
# Elastic Constant Matrix: (Units=GPa)
#
#
# Indices 1 2 3 4 5 6 
#
# 1 144.9717 55.0687 26.0813 -22.6211 1.8675 -16.3641
# 2 55.0687 106.3250 36.0324 -42.7263 3.4291 3.7431
# 3 26.0813 36.0324 59.0141 -27.0142 -12.9228 1.5394
# 4 -22.6211 -42.7263 -27.0142 41.7503 -1.8911 2.0152
# 5 1.8675 3.4291 -12.9228 -1.8911 39.3716 -11.9359
# 6 -16.3641 3.7431 1.5394 2.0152 -11.9359 37.4084
#
#
#
# Elastic Compliance Matrix: (Units=1/GPa)
#
#
# Indices 1 2 3 4 5 6 
#
# 1 0.009485 -0.005117 -0.001606 -0.001340 0.000952 0.005103
# 2 -0.005117 0.019692 -0.003410 0.015299 -0.003698 -0.006073
# 3 -0.001606 -0.003410 0.028839 0.014739 0.010890 0.001133
# 4 -0.001340 0.015299 0.014739 0.048820 0.004750 -0.003838
# 5 0.000952 -0.003698 0.010890 0.004750 0.032663 0.010504
# 6 0.005103 -0.006073 0.001133 -0.003838 0.010504 0.033084
#
#
# Mechanical properties :
#
#
# Convention : Reuss Voigt Hill
#
# Bulk Modulus (GPa) = 26.48970 60.51948 43.50459
# Shear Modulus (GPa) = 24.33907 36.58130 30.46018
#
# Velocity S-wave (km/s) = 3.19010 3.91095 3.56877
# Velocity P-wave (km/s) = 4.96437 6.76008 5.93058
#
# Compressibility (1/GPa) = 0.03775052
#
# Stress axis : x y z
#
# Youngs Moduli (GPa) = 105.42590 50.78226 34.67564
#
# Poissons Ratio (x) = 0.25987 0.05567
# Poissons Ratio (y) = 0.53950 0.11824
# Poissons Ratio (z) = 0.16927 0.17316
#
# Static dielectric constant tensor:
#      x y z
#    x 2.002920 -0.080140 0.039790 
#    y -0.080140 1.949210 -0.065790 
#    z 0.039790 -0.065790 2.040270 
# 
# From -- ./inp_files/27259.got.cif
#   From: 2010.05.17/outbox.cif.g08.bks.cpg/sg2_14_cif.got.tgz:27259.got - 2010.06.03 11:33:40.
