data_PCOD9028609
_publ_section_title
;
Structure prediction by ZEFSAII (Michael W. Deem and Ramdas Pophale) SiO2 
 PCOD9028609
Probable space group: P -1
;
_chemical_formula_sum "Si O2"
_cell_formula_units_Z 16
_cell_length_a 11.356369
_cell_length_b 6.344074
_cell_length_c 23.156275
_cell_angle_alpha 118.881607
_cell_angle_beta 30.350497
_cell_angle_gamma 111.848504
_cell_volume 734.358504
_symmetry_space_group_name_H-M "P -1"
_symmetry_group_IT_number 2
_symmetry_cell_setting 'triclinic'
loop_
_space_group_symop_operation_xyz
x,y,z
-x,-y,-z
loop_
_atom_site_type_symbol
_atom_site_label
_atom_site_fract_x
_atom_site_fract_y
_atom_site_fract_z
Si Si1 0.147517 0.233578 0.182538
Si Si2 0.816820 0.223905 0.740154
Si Si3 0.452747 0.958626 0.920983
Si Si4 0.516243 0.361410 0.324286
Si Si5 0.375418 0.755172 0.609030
Si Si6 0.739003 0.471635 0.126313
Si Si7 0.751135 0.133801 0.501870
Si Si8 0.673987 0.131577 0.667352
O O1 0.134906 0.523293 0.219471
O O2 0.338236 0.155435 0.140765
O O3 0.881860 0.180420 0.299118
O O4 0.251266 0.093813 0.063663
O O5 0.810260 0.245810 0.676390
O O6 0.569682 0.148046 0.856160
O O7 0.014998 0.006355 0.640650
O O8 0.355923 0.749820 0.897014
O O9 0.644612 0.275022 0.317295
O O10 0.691268 0.426785 0.208378
O O11 0.336524 0.597002 0.444934
O O12 0.369387 0.143985 0.337442
O O13 0.500000 0.500000 0.500000
O O14 0.544229 0.964115 0.555351
O O15 0.576663 0.713936 0.210937
O O16 0.000000 0.500000 0.000000
O O17 0.783352 0.146915 0.559668
#
# Coordination Sequence:
#
# PCOD9028609 Si02
#       8
#     2   2   2   2   2   2   2   2
#     4  11  26  46  63  96 138 177 225 273 323 402
#     4  12  22  43  68  95 136 175 222 268 329 404
#     4  11  26  44  68  96 131 182 222 272 334 393
#     4  10  24  43  65 103 130 168 227 270 341 392
#     4  11  24  45  70  98 138 177 223 274 334 397
#     4  11  24  44  70  98 132 172 225 283 333 388
#     4  10  24  40  68 103 132 173 216 276 336 391
#     4  10  22  42  64 100 132 168 218 273 339 392
#
# _framework density 21.787721000000001
#
# number of rings (size 3 to 8) (size 9 to 14) (size 15 to 20)
#    0.000    1.250    3.750    0.750    7.000    3.500 
#    2.250    0.000    0.000    0.000    0.000    0.000 
#    0.000    0.000    0.000    0.000    0.000    0.000 
#
# Total GULP energy -89536.711517 kJ/mol
# GULP energy per Si atom -5596.044470 kJ/mol
# Density = 2.173813 g / cm^3
# Si number density = 21.787721 Si / 1000 Ang^3
#
#
#
# Elastic Constant Matrix: (Units=GPa)
#
#
# Indices 1 2 3 4 5 6 
#
# 1 61.8689 3.9176 27.8455 -0.9417 3.3132 6.6445
# 2 3.9176 68.2466 11.8487 15.0966 7.6092 10.7549
# 3 27.8455 11.8487 119.8646 12.8420 -6.7925 7.4027
# 4 -0.9417 15.0966 12.8420 35.1860 8.8268 0.4483
# 5 3.3132 7.6092 -6.7925 8.8268 21.7363 5.2195
# 6 6.6445 10.7549 7.4027 0.4483 5.2195 28.2303
#
#
#
# Elastic Compliance Matrix: (Units=1/GPa)
#
#
# Indices 1 2 3 4 5 6 
#
# 1 0.018991 -0.000110 -0.004975 0.003757 -0.005413 -0.002182
# 2 -0.000110 0.017421 -0.000756 -0.006566 -0.002236 -0.005895
# 3 -0.004975 -0.000756 0.010735 -0.005510 0.007241 -0.002607
# 4 0.003757 -0.006566 -0.005510 0.037423 -0.016519 0.005522
# 5 -0.005413 -0.002236 0.007241 -0.016519 0.059091 -0.010436
# 6 -0.002182 -0.005895 -0.002607 0.005522 -0.010436 0.040708
#
#
# Mechanical properties :
#
#
# Convention : Reuss Voigt Hill
#
# Bulk Modulus (GPa) = 28.19719 37.46710 32.83214
# Shear Modulus (GPa) = 24.05328 30.78841 27.42084
#
# Velocity S-wave (km/s) = 3.32623 3.76321 3.55145
# Velocity P-wave (km/s) = 5.26513 6.00967 5.64968
#
# Compressibility (1/GPa) = 0.03546453
#
# Stress axis : x y z
#
# Youngs Moduli (GPa) = 52.65700 57.40228 93.15327
#
# Poissons Ratio (x) = 0.00632 0.46347
# Poissons Ratio (y) = 0.00580 0.07040
# Poissons Ratio (z) = 0.26199 0.04338
#
# Static dielectric constant tensor:
#      x y z
#    x 1.819320 -0.022680 0.013980 
#    y -0.022680 1.752550 -0.003260 
#    z 0.013980 -0.003260 1.774800 
# 
# From -- ./inp_files/70650.got.cif
#   From: 2010.05.17/outbox.cif.g08.bks.cpg/sg2_36_cif.got.tgz:70650.got - 2010.06.03 11:33:40.
