data_PCOD9028619
_publ_section_title
;
Structure prediction by ZEFSAII (Michael W. Deem and Ramdas Pophale) SiO2 
 PCOD9028619
Probable space group: P -1
;
_chemical_formula_sum "Si O2"
_cell_formula_units_Z 14
_cell_length_a 13.959273
_cell_length_b 9.014270
_cell_length_c 7.224322
_cell_angle_alpha 79.995746
_cell_angle_beta 78.218930
_cell_angle_gamma 39.960397
_cell_volume 571.334850
_symmetry_space_group_name_H-M "P -1"
_symmetry_group_IT_number 2
_symmetry_cell_setting 'triclinic'
loop_
_space_group_symop_operation_xyz
x,y,z
-x,-y,-z
loop_
_atom_site_type_symbol
_atom_site_label
_atom_site_fract_x
_atom_site_fract_y
_atom_site_fract_z
Si Si1 0.868840 0.911604 0.514453
Si Si2 0.073074 0.589750 0.818386
Si Si3 0.293505 0.593130 0.580604
Si Si4 0.745935 0.922431 0.205629
Si Si5 0.853074 0.394119 0.809205
Si Si6 0.438478 0.198650 0.345868
Si Si7 0.335688 0.661533 0.951222
O O1 0.766350 0.928390 0.417539
O O2 0.923514 0.773156 0.713197
O O3 0.015547 0.769532 0.357390
O O4 0.790240 0.163890 0.521594
O O5 0.180335 0.590160 0.680258
O O6 0.145412 0.340731 0.828055
O O7 0.922291 0.371295 0.977631
O O8 0.407548 0.384667 0.438860
O O9 0.359548 0.571291 0.753469
O O10 0.577982 0.067186 0.187033
O O11 0.756414 0.075944 0.082867
O O12 0.717192 0.654145 0.726834
O O13 0.767383 0.338551 0.901713
O O14 0.500000 0.000000 0.500000
O O15 0.500000 0.500000 0.000000
#
# Coordination Sequence:
#
# PCOD9028619 Si02
#       7
#     2   2   2   2   2   2   2
#     4  11  24  47  67 102 139 177 228 281 330 407
#     4  11  23  43  72 101 134 183 222 281 336 399
#     4  10  23  41  69  99 133 180 225 272 343 396
#     4  11  24  42  68 100 144 173 227 286 333 398
#     4  11  25  44  74  97 136 183 228 269 344 406
#     4  12  23  44  72 102 132 179 227 281 343 395
#     4  10  22  42  64 102 139 175 225 286 329 400
#
# _framework density 24.504017999999999
#
# number of rings (size 3 to 8) (size 9 to 14) (size 15 to 20)
#    0.000    1.143    4.286    0.857    0.000    9.714 
#    0.000    0.000    0.000    0.000    0.000    0.000 
#    0.000    0.000    0.000    0.000    0.000    0.000 
#
# Total GULP energy -78420.246776 kJ/mol
# GULP energy per Si atom -5601.446198 kJ/mol
# Density = 2.444825 g / cm^3
# Si number density = 24.504018 Si / 1000 Ang^3
#
#
#
# Elastic Constant Matrix: (Units=GPa)
#
#
# Indices 1 2 3 4 5 6 
#
# 1 98.4674 56.2298 22.7051 -6.2372 18.1854 -2.3201
# 2 56.2298 166.8165 61.0230 -31.4750 17.2658 4.5838
# 3 22.7051 61.0230 92.6079 -12.8205 32.0163 7.2661
# 4 -6.2372 -31.4750 -12.8205 39.1267 0.6774 -1.3542
# 5 18.1854 17.2658 32.0163 0.6774 44.2806 -5.0779
# 6 -2.3201 4.5838 7.2661 -1.3542 -5.0779 45.9334
#
#
#
# Elastic Compliance Matrix: (Units=1/GPa)
#
#
# Indices 1 2 3 4 5 6 
#
# 1 0.013317 -0.004688 0.001149 -0.001181 -0.004403 0.000437
# 2 -0.004688 0.010548 -0.005595 0.005873 0.001764 -0.000036
# 3 0.001149 -0.005595 0.019128 0.002038 -0.012581 -0.003740
# 4 -0.001181 0.005873 0.002038 0.030811 -0.003805 -0.000480
# 5 -0.004403 0.001764 -0.012581 -0.003805 0.033452 0.005178
# 6 0.000437 -0.000036 -0.003740 -0.000480 0.005178 0.022946
#
#
# Mechanical properties :
#
#
# Convention : Reuss Voigt Hill
#
# Bulk Modulus (GPa) = 40.44552 70.86751 55.65651
# Shear Modulus (GPa) = 31.90554 40.39708 36.15131
#
# Velocity S-wave (km/s) = 3.61231 4.06469 3.84516
# Velocity P-wave (km/s) = 5.82580 7.14230 6.51738
#
# Compressibility (1/GPa) = 0.02472462
#
# Stress axis : x y z
#
# Youngs Moduli (GPa) = 75.09449 94.80420 52.27826
#
# Poissons Ratio (x) = 0.44444 -0.06006
# Poissons Ratio (y) = 0.35204 0.29250
# Poissons Ratio (z) = -0.08627 0.53044
#
# Static dielectric constant tensor:
#      x y z
#    x 1.960690 -0.035460 -0.019130 
#    y -0.035460 1.914660 -0.001490 
#    z -0.019130 -0.001490 1.963320 
# 
# From -- ./inp_files/297812.got.cif
#   From: 2010.05.17/outbox.cif.g08.bks.cpg/sg2_149_cif.got.tgz:297812.got - 2010.06.03 11:33:40.
