data_PCOD9028475
_publ_section_title
;
Structure prediction by ZEFSAII (Michael W. Deem and Ramdas Pophale) SiO2 
 PCOD9028475
Probable space group: P -1
;
_chemical_formula_sum "Si O2"
_cell_formula_units_Z 12
_cell_length_a 9.585118
_cell_length_b 10.304681
_cell_length_c 7.438385
_cell_angle_alpha 87.519297
_cell_angle_beta 46.912023
_cell_angle_gamma 110.441406
_cell_volume 458.140769
_symmetry_space_group_name_H-M "P -1"
_symmetry_group_IT_number 2
_symmetry_cell_setting 'triclinic'
loop_
_space_group_symop_operation_xyz
x,y,z
-x,-y,-z
loop_
_atom_site_type_symbol
_atom_site_label
_atom_site_fract_x
_atom_site_fract_y
_atom_site_fract_z
Si Si1 0.845478 0.826749 0.593715
Si Si2 0.612761 0.875952 0.299657
Si Si3 0.253882 0.472611 0.187314
Si Si4 0.057283 0.201198 0.902507
Si Si5 0.232796 0.693474 0.934950
Si Si6 0.379024 0.766292 0.163522
O O1 0.899095 0.707471 0.648686
O O2 0.858095 0.806157 0.371217
O O3 0.604454 0.791861 0.870094
O O4 0.000000 0.000000 0.500000
O O5 0.438453 0.791460 0.616696
O O6 0.463087 0.864666 0.261447
O O7 0.748265 0.789120 0.144554
O O8 0.819194 0.044035 0.153635
O O9 0.237558 0.584356 0.342073
O O10 0.500000 0.500000 0.000000
O O11 0.232995 0.547746 0.019601
O O12 0.991099 0.327974 0.952539
O O13 0.263557 0.787223 0.089507
#
# Coordination Sequence:
#
# PCOD9028475 Si02
#       6
#     2   2   2   2   2   2
#     4  11  19  40  66  95 125 168 215 263 323 388
#     4  11  21  41  63  96 133 172 209 266 326 380
#     4   8  18  39  65  89 126 172 209 264 321 380
#     4  11  23  37  65  97 135 166 213 276 317 373
#     4  10  22  42  62  94 133 168 217 267 313 390
#     4   9  20  40  65  90 126 175 213 254 328 377
#
# _framework density 26.192823000000001
#
# number of rings (size 3 to 8) (size 9 to 14) (size 15 to 20)
#    1.000    1.000    3.333    0.500    0.000    1.333 
#    3.000    7.500    0.000    5.000    0.000    0.000 
#    0.000    0.000    0.000    0.000    0.000    0.000 
#
# Total GULP energy -67009.957554 kJ/mol
# GULP energy per Si atom -5584.163130 kJ/mol
# Density = 2.613321 g / cm^3
# Si number density = 26.192823 Si / 1000 Ang^3
#
#
#
# Elastic Constant Matrix: (Units=GPa)
#
#
# Indices 1 2 3 4 5 6 
#
# 1 117.8783 33.7642 22.3469 5.2403 1.2815 -0.7808
# 2 33.7642 96.8177 24.6091 -24.4952 5.6536 -14.7430
# 3 22.3469 24.6091 138.2922 -1.5391 8.1734 1.5810
# 4 5.2403 -24.4952 -1.5391 28.5988 -7.2519 2.3821
# 5 1.2815 5.6536 8.1734 -7.2519 38.4723 4.5197
# 6 -0.7808 -14.7430 1.5810 2.3821 4.5197 47.1488
#
#
#
# Elastic Compliance Matrix: (Units=1/GPa)
#
#
# Indices 1 2 3 4 5 6 
#
# 1 0.010402 -0.005184 -0.000788 -0.006430 -0.000506 -0.001049
# 2 -0.005184 0.017223 -0.002135 0.015321 0.000448 0.004554
# 3 -0.000788 -0.002135 0.007820 -0.001594 -0.001538 -0.000715
# 4 -0.006430 0.015321 -0.001594 0.051030 0.007754 0.001416
# 5 -0.000506 0.000448 -0.001538 0.007754 0.028073 -0.002899
# 6 -0.001049 0.004554 -0.000715 0.001416 -0.002899 0.022846
#
#
# Mechanical properties :
#
#
# Convention : Reuss Voigt Hill
#
# Bulk Modulus (GPa) = 52.00249 57.15873 54.58061
# Shear Modulus (GPa) = 31.24649 40.99519 36.12084
#
# Velocity S-wave (km/s) = 3.45764 3.96046 3.71757
# Velocity P-wave (km/s) = 5.98642 6.54090 6.26979
#
# Compressibility (1/GPa) = 0.01922985
#
# Stress axis : x y z
#
# Youngs Moduli (GPa) = 96.13508 58.06219 127.88264
#
# Poissons Ratio (x) = 0.30101 0.10077
# Poissons Ratio (y) = 0.49839 0.27305
# Poissons Ratio (z) = 0.07576 0.12397
#
# Static dielectric constant tensor:
#      x y z
#    x 2.140340 0.037680 -0.069730 
#    y 0.037680 2.203490 -0.052690 
#    z -0.069730 -0.052690 2.090290 
# 
# From -- ./inp_files/257832.got.cif
#   From: 2010.05.17/outbox.cif.g08.bks.cpg/sg2_129_cif.got.tgz:257832.got - 2010.06.03 11:33:40.
