data_PCOD9028883
_publ_section_title
;
Structure prediction by ZEFSAII (Michael W. Deem and Ramdas Pophale) SiO2 
 PCOD9028883
Probable space group: P -1
;
_chemical_formula_sum "Si O2"
_cell_formula_units_Z 12
_cell_length_a 11.323133
_cell_length_b 7.708227
_cell_length_c 6.676035
_cell_angle_alpha 120.735804
_cell_angle_beta 75.477408
_cell_angle_gamma 77.458730
_cell_volume 441.120795
_symmetry_space_group_name_H-M "P -1"
_symmetry_group_IT_number 2
_symmetry_cell_setting 'triclinic'
loop_
_space_group_symop_operation_xyz
x,y,z
-x,-y,-z
loop_
_atom_site_type_symbol
_atom_site_label
_atom_site_fract_x
_atom_site_fract_y
_atom_site_fract_z
Si Si1 0.640138 0.044112 0.197626
Si Si2 0.751047 0.932809 0.659554
Si Si3 0.746176 0.550291 0.971502
Si Si4 0.601271 0.343428 0.696248
Si Si5 0.844594 0.180058 0.019334
Si Si6 0.030034 0.521597 0.729837
O O1 0.541729 0.272603 0.481747
O O2 0.770569 0.103702 0.177263
O O3 0.658583 0.814181 0.155660
O O4 0.646206 0.990684 0.924408
O O5 0.676100 0.101088 0.618915
O O6 0.826471 0.681899 0.414991
O O7 0.871649 0.992038 0.729400
O O8 0.740494 0.392922 0.062036
O O9 0.707607 0.455312 0.726571
O O10 0.901370 0.512674 0.884154
O O11 0.500000 0.500000 0.000000
O O12 0.955628 0.252821 0.094658
O O13 0.000000 0.500000 0.500000
#
# Coordination Sequence:
#
# PCOD9028883 Si02
#       6
#     2   2   2   2   2   2
#     4  10  22  42  65  93 132 165 214 264 321 385
#     4   9  23  41  62 100 128 164 216 255 323 389
#     4  11  23  41  65  97 134 169 214 263 321 390
#     4  11  25  46  68  91 127 174 223 273 317 370
#     4   9  22  38  59  95 133 170 206 257 319 386
#     4  12  20  36  67  97 135 171 204 258 329 393
#
# _framework density 27.203430999999998
#
# number of rings (size 3 to 8) (size 9 to 14) (size 15 to 20)
#    1.000    0.667    1.667    2.500    0.000    8.000 
#    0.000    0.833    0.000    0.000    0.000    0.000 
#    0.000    0.000    0.000    0.000    0.000    0.000 
#
# Total GULP energy -66920.498885 kJ/mol
# GULP energy per Si atom -5576.708240 kJ/mol
# Density = 2.714151 g / cm^3
# Si number density = 27.203431 Si / 1000 Ang^3
#
#
#
# Elastic Constant Matrix: (Units=GPa)
#
#
# Indices 1 2 3 4 5 6 
#
# 1 46.2570 3.1364 9.9445 3.0696 2.4817 14.4550
# 2 3.1364 126.4953 31.1947 15.8049 1.1805 3.7951
# 3 9.9445 31.1947 132.1398 12.6382 25.7466 8.3688
# 4 3.0696 15.8049 12.6382 39.6098 9.9570 7.0883
# 5 2.4817 1.1805 25.7466 9.9570 46.4485 2.2321
# 6 14.4550 3.7951 8.3688 7.0883 2.2321 30.6887
#
#
#
# Elastic Compliance Matrix: (Units=1/GPa)
#
#
# Indices 1 2 3 4 5 6 
#
# 1 0.025543 -0.000065 -0.001161 0.000604 -0.000281 -0.011825
# 2 -0.000065 0.008813 -0.002090 -0.003282 0.001634 0.000150
# 3 -0.001161 -0.002090 0.009219 -0.000590 -0.004810 -0.001223
# 4 0.000604 -0.003282 -0.000590 0.029185 -0.005587 -0.006052
# 5 -0.000281 0.001634 -0.004810 -0.005587 0.025333 0.000690
# 6 -0.011825 0.000150 -0.001223 -0.006052 0.000690 0.039818
#
#
# Mechanical properties :
#
#
# Convention : Reuss Voigt Hill
#
# Bulk Modulus (GPa) = 27.06819 43.71591 35.39205
# Shear Modulus (GPa) = 31.87618 40.72384 36.30001
#
# Velocity S-wave (km/s) = 3.42683 3.87332 3.65689
# Velocity P-wave (km/s) = 5.06255 6.00902 5.55598
#
# Compressibility (1/GPa) = 0.03694373
#
# Stress axis : x y z
#
# Youngs Moduli (GPa) = 39.15009 113.47268 108.46611
#
# Poissons Ratio (x) = 0.00738 0.12593
# Poissons Ratio (y) = 0.00255 0.22664
# Poissons Ratio (z) = 0.04546 0.23710
#
# Static dielectric constant tensor:
#      x y z
#    x 2.256500 -0.024520 0.037490 
#    y -0.024520 2.134380 -0.152760 
#    z 0.037490 -0.152760 2.300530 
# 
# From -- ./inp_files/166907.got.cif
#   From: 2010.05.17/outbox.cif.g08.bks.cpg/sg2_84_cif.got.tgz:166907.got - 2010.06.03 11:33:40.
