data_PCOD9028494
_publ_section_title
;
Structure prediction by ZEFSAII (Michael W. Deem and Ramdas Pophale) SiO2 
 PCOD9028494
Probable space group: P -1
;
_chemical_formula_sum "Si O2"
_cell_formula_units_Z 16
_cell_length_a 12.105677
_cell_length_b 12.430907
_cell_length_c 8.095559
_cell_angle_alpha 111.753778
_cell_angle_beta 140.364667
_cell_angle_gamma 88.919805
_cell_volume 644.598145
_symmetry_space_group_name_H-M "P -1"
_symmetry_group_IT_number 2
_symmetry_cell_setting 'triclinic'
loop_
_space_group_symop_operation_xyz
x,y,z
-x,-y,-z
loop_
_atom_site_type_symbol
_atom_site_label
_atom_site_fract_x
_atom_site_fract_y
_atom_site_fract_z
Si Si1 0.735082 0.410717 0.807625
Si Si2 0.159817 0.453109 0.353945
Si Si3 0.865174 0.676524 0.239316
Si Si4 0.854464 0.779616 0.643585
Si Si5 0.395702 0.199228 0.124226
Si Si6 0.723162 0.279206 0.272361
Si Si7 0.385714 0.980626 0.147729
Si Si8 0.242346 0.995285 0.350350
O O1 0.772846 0.481889 0.711120
O O2 0.535470 0.281304 0.483571
O O3 0.739231 0.521215 0.997818
O O4 0.924467 0.389118 0.050945
O O5 0.238098 0.350890 0.430905
O O6 0.236404 0.574867 0.637521
O O7 0.905410 0.731222 0.502935
O O8 0.070544 0.703735 0.409158
O O9 0.753006 0.744553 0.056609
O O10 0.754173 0.868728 0.523756
O O11 0.029508 0.880264 0.016368
O O12 0.546991 0.225140 0.165467
O O13 0.293757 0.046136 0.956294
O O14 0.678004 0.171386 0.021031
O O15 0.613650 0.041199 0.400620
O O16 0.333979 0.013915 0.284408
#
# Coordination Sequence:
#
# PCOD9028494 Si02
#       8
#     2   2   2   2   2   2   2   2
#     4   9  20  40  61  98 126 164 215 261 303 391
#     4   9  20  39  69  91 129 168 207 259 328 364
#     4  11  23  40  65  97 131 161 219 260 311 386
#     4  11  22  43  64  97 124 170 206 269 320 368
#     4  11  23  40  66  93 129 172 207 262 323 367
#     4  10  22  42  62  97 129 159 213 269 301 385
#     4  11  22  44  62  91 124 176 209 259 321 374
#     4  10  24  41  64  88 133 159 221 260 308 392
#
# _framework density 24.821666
#
# number of rings (size 3 to 8) (size 9 to 14) (size 15 to 20)
#    0.000    1.750    1.250    3.000    1.750    2.500 
#    6.750    3.125    0.000    0.000    0.000    0.000 
#    0.000    0.000    0.000    0.000    0.000    0.000 
#
# Total GULP energy -89399.087783 kJ/mol
# GULP energy per Si atom -5587.442986 kJ/mol
# Density = 2.476517 g / cm^3
# Si number density = 24.821666 Si / 1000 Ang^3
#
#
#
# Elastic Constant Matrix: (Units=GPa)
#
#
# Indices 1 2 3 4 5 6 
#
# 1 52.1427 30.2184 3.6724 4.6504 -0.5387 -27.6349
# 2 30.2184 133.9336 23.6538 9.4815 -6.5970 -23.8288
# 3 3.6724 23.6538 56.6068 15.0025 -5.8393 -8.5239
# 4 4.6504 9.4815 15.0025 32.4092 -12.8409 -7.3712
# 5 -0.5387 -6.5970 -5.8393 -12.8409 26.4925 8.3513
# 6 -27.6349 -23.8288 -8.5239 -7.3712 8.3513 29.4747
#
#
#
# Elastic Compliance Matrix: (Units=1/GPa)
#
#
# Indices 1 2 3 4 5 6 
#
# 1 0.043496 -0.003520 0.004425 -0.003126 -0.013888 0.042368
# 2 -0.003520 0.009424 -0.003214 0.000236 0.000653 0.003264
# 3 0.004425 -0.003214 0.021892 -0.009358 -0.002380 0.006216
# 4 -0.003126 0.000236 -0.009358 0.043005 0.018781 -0.000013
# 5 -0.013888 0.000653 -0.002380 0.018781 0.053674 -0.023693
# 6 0.042368 0.003264 0.006216 -0.000013 -0.023693 0.084797
#
#
# Mechanical properties :
#
#
# Convention : Reuss Voigt Hill
#
# Bulk Modulus (GPa) = 14.24597 39.75247 26.99922
# Shear Modulus (GPa) = 17.58676 30.01786 23.80231
#
# Velocity S-wave (km/s) = 2.66470 3.48133 3.10002
# Velocity P-wave (km/s) = 3.90119 5.67535 4.86975
#
# Compressibility (1/GPa) = 0.07019527
#
# Stress axis : x y z
#
# Youngs Moduli (GPa) = 22.99039 106.11035 45.67853
#
# Poissons Ratio (x) = 0.37351 -0.20212
# Poissons Ratio (y) = 0.08093 0.14679
# Poissons Ratio (z) = -0.10173 0.34099
#
# Static dielectric constant tensor:
#      x y z
#    x 1.945570 -0.004510 0.006110 
#    y -0.004510 1.944300 0.035860 
#    z 0.006110 0.035860 2.066290 
# 
# From -- ./inp_files/308240.got.cif
#   From: 2010.05.17/outbox.cif.g08.bks.cpg/sg2_155_cif.got.tgz:308240.got - 2010.06.03 11:33:40.
