data_PCOD9028778
_publ_section_title
;
Structure prediction by ZEFSAII (Michael W. Deem and Ramdas Pophale) SiO2 
 PCOD9028778
Probable space group: P -1
;
_chemical_formula_sum "Si O2"
_cell_formula_units_Z 13
_cell_length_a 11.917056
_cell_length_b 7.690157
_cell_length_c 17.647575
_cell_angle_alpha 130.992147
_cell_angle_beta 40.208370
_cell_angle_gamma 101.854482
_cell_volume 626.585785
_symmetry_space_group_name_H-M "P -1"
_symmetry_group_IT_number 2
_symmetry_cell_setting 'triclinic'
loop_
_space_group_symop_operation_xyz
x,y,z
-x,-y,-z
loop_
_atom_site_type_symbol
_atom_site_label
_atom_site_fract_x
_atom_site_fract_y
_atom_site_fract_z
Si Si1 0.819072 0.320760 0.217315
Si Si2 0.058224 0.335113 0.843105
Si Si3 0.500000 0.000000 0.000000
Si Si4 0.771159 0.644781 0.617269
Si Si5 0.685640 0.323552 0.455017
Si Si6 0.766032 0.133114 0.692732
Si Si7 0.310494 0.684587 0.043034
O O1 0.877717 0.522998 0.210643
O O2 0.801771 0.320897 0.317465
O O3 0.575626 0.445639 0.351817
O O4 0.000000 0.000000 0.000000
O O5 0.248585 0.994949 0.659525
O O6 0.000000 0.500000 0.000000
O O7 0.849728 0.355770 0.928843
O O8 0.418885 0.177984 0.172810
O O9 0.685791 0.055714 0.911109
O O10 0.763424 0.411318 0.510826
O O11 0.000000 0.500000 0.500000
O O12 0.740637 0.880253 0.641972
O O13 0.563254 0.400282 0.827838
O O14 0.751181 0.257704 0.819581
O O15 0.000000 0.000000 0.500000
#
# Coordination Sequence:
#
# PCOD9028778 Si02
#       7
#     2   2   1   2   2   2   2
#     4  11  26  48  72 104 145 192 246 295 360 426
#     4  12  26  47  73 105 148 191 243 298 363 423
#     4  10  22  44  64  96 136 176 224 286 354 416
#     4  11  24  41  69 100 136 177 235 287 361 424
#     4  11  26  47  73 106 141 195 242 297 359 431
#     4  10  22  42  64  99 133 175 226 292 348 419
#     4  10  24  42  68 100 135 179 235 283 356 427
#
# _framework density 20.74736
#
# number of rings (size 3 to 8) (size 9 to 14) (size 15 to 20)
#    0.000    1.231    1.538    3.231    6.462    1.231 
#    2.769    0.000    0.000    0.000    0.000    0.000 
#    0.000    0.000    0.000    0.000    0.000    0.000 
#
# Total GULP energy -72439.474011 kJ/mol
# GULP energy per Si atom -5572.267232 kJ/mol
# Density = 2.070014 g / cm^3
# Si number density = 20.747360 Si / 1000 Ang^3
#
#
#
# Elastic Constant Matrix: (Units=GPa)
#
#
# Indices 1 2 3 4 5 6 
#
# 1 92.7935 30.1881 38.5470 -9.4631 7.1672 26.8166
# 2 30.1881 124.5669 54.5973 -9.3226 17.2904 3.4067
# 3 38.5470 54.5973 158.7617 -12.0683 -0.5336 4.7109
# 4 -9.4631 -9.3226 -12.0683 40.1253 5.8542 4.4762
# 5 7.1672 17.2904 -0.5336 5.8542 30.0221 7.4103
# 6 26.8166 3.4067 4.7109 4.4762 7.4103 20.5601
#
#
#
# Elastic Compliance Matrix: (Units=1/GPa)
#
#
# Indices 1 2 3 4 5 6 
#
# 1 0.022185 -0.003151 -0.002898 0.006608 0.002616 -0.030131
# 2 -0.003151 0.011140 -0.003144 0.001371 -0.007299 0.005316
# 3 -0.002898 -0.003144 0.008085 0.000529 0.002159 0.001554
# 4 0.006608 0.001371 0.000529 0.029162 -0.004680 -0.013630
# 5 0.002616 -0.007299 0.002159 -0.004680 0.041988 -0.016811
# 6 -0.030131 0.005316 0.001554 -0.013630 -0.016811 0.095728
#
#
# Mechanical properties :
#
#
# Convention : Reuss Voigt Hill
#
# Bulk Modulus (GPa) = 43.43156 69.19855 56.31505
# Shear Modulus (GPa) = 21.33585 34.99415 28.16500
#
# Velocity S-wave (km/s) = 3.21029 4.11138 3.68845
# Velocity P-wave (km/s) = 5.89239 7.48086 6.73363
#
# Compressibility (1/GPa) = 0.02302473
#
# Stress axis : x y z
#
# Youngs Moduli (GPa) = 45.07542 89.76888 123.68796
#
# Poissons Ratio (x) = 0.28284 0.35841
# Poissons Ratio (y) = 0.14202 0.38887
# Poissons Ratio (z) = 0.13062 0.28223
#
# Static dielectric constant tensor:
#      x y z
#    x 1.715300 -0.016030 0.002160 
#    y -0.016030 1.644920 -0.027000 
#    z 0.002160 -0.027000 1.699860 
# 
# From -- ./inp_files/565562.got.cif
#   From: 2010.05.17/outbox.cif.g08.bks.cpg/sg2_283_cif.got.tgz:565562.got - 2010.06.03 11:33:40.
