data_PCOD9028162
_publ_section_title
;
Structure prediction by ZEFSAII (Michael W. Deem and Ramdas Pophale) SiO2 
 PCOD9028162
Probable space group: P -1
;
_chemical_formula_sum "Si O2"
_cell_formula_units_Z 12
_cell_length_a 7.457596
_cell_length_b 9.571976
_cell_length_c 10.164759
_cell_angle_alpha 67.691236
_cell_angle_beta 53.706444
_cell_angle_gamma 102.672496
_cell_volume 434.647122
_symmetry_space_group_name_H-M "P -1"
_symmetry_group_IT_number 2
_symmetry_cell_setting 'triclinic'
loop_
_space_group_symop_operation_xyz
x,y,z
-x,-y,-z
loop_
_atom_site_type_symbol
_atom_site_label
_atom_site_fract_x
_atom_site_fract_y
_atom_site_fract_z
Si Si1 0.797669 0.067219 0.475170
Si Si2 0.087125 0.408665 0.096904
Si Si3 0.570300 0.789299 0.877762
Si Si4 0.114827 0.677954 0.290896
Si Si5 0.217301 0.346347 0.806867
Si Si6 0.734160 0.777300 0.416162
O O1 0.846998 0.261047 0.351845
O O2 0.125403 0.152654 0.309233
O O3 0.584001 0.945686 0.726863
O O4 0.694395 0.914893 0.459433
O O5 0.362730 0.579145 0.984174
O O6 0.122970 0.287299 0.017766
O O7 0.000000 0.500000 0.000000
O O8 0.433931 0.775290 0.081973
O O9 0.000000 0.500000 0.500000
O O10 0.974089 0.634361 0.219973
O O11 0.010705 0.800713 0.340974
O O12 0.496893 0.556907 0.624414
O O13 0.255195 0.212618 0.750270
#
# Coordination Sequence:
#
# PCOD9028162 Si02
#       6
#     2   2   2   2   2   2
#     4  11  26  42  71  99 144 181 224 286 333 417
#     4  12  23  45  71 100 136 181 229 285 345 397
#     4  11  25  45  65 108 136 181 230 273 350 406
#     4  10  22  41  71  99 136 181 226 281 337 404
#     4   9  20  41  69  96 136 172 230 274 338 405
#     4   9  20  43  65 101 133 175 229 272 343 397
#
# _framework density 27.608604
#
# number of rings (size 3 to 8) (size 9 to 14) (size 15 to 20)
#    1.000    0.667    3.333    0.500    2.333    4.667 
#    0.000    0.000    3.667    0.000    0.000    0.000 
#    0.000    0.000    0.000    0.000    0.000    0.000 
#
# Total GULP energy -66995.074116 kJ/mol
# GULP energy per Si atom -5582.922843 kJ/mol
# Density = 2.754577 g / cm^3
# Si number density = 27.608604 Si / 1000 Ang^3
#
#
#
# Elastic Constant Matrix: (Units=GPa)
#
#
# Indices 1 2 3 4 5 6 
#
# 1 64.1280 -6.6071 33.5370 -11.8863 -21.5355 -9.9645
# 2 -6.6071 84.1040 20.0890 -3.2112 0.7472 18.5116
# 3 33.5370 20.0890 206.5033 -1.9024 23.7651 3.1984
# 4 -11.8863 -3.2112 -1.9024 42.9645 1.0604 -5.7909
# 5 -21.5355 0.7472 23.7651 1.0604 49.0402 -4.5590
# 6 -9.9645 18.5116 3.1984 -5.7909 -4.5590 32.5805
#
#
#
# Elastic Compliance Matrix: (Units=1/GPa)
#
#
# Indices 1 2 3 4 5 6 
#
# 1 0.028552 0.001286 -0.006808 0.008980 0.016796 0.012617
# 2 0.001286 0.013959 -0.001496 0.000342 0.000393 -0.007275
# 3 -0.006808 -0.001496 0.006879 -0.001956 -0.006553 -0.003172
# 4 0.008980 0.000342 -0.001956 0.026678 0.005071 0.008195
# 5 0.016796 0.000393 -0.006553 0.005071 0.031842 0.010914
# 6 0.012617 -0.007275 -0.003172 0.008195 0.010914 0.041981
#
#
# Mechanical properties :
#
#
# Convention : Reuss Voigt Hill
#
# Bulk Modulus (GPa) = 28.28545 49.86368 39.07457
# Shear Modulus (GPa) = 28.45571 45.43145 36.94358
#
# Velocity S-wave (km/s) = 3.21391 4.06094 3.66200
# Velocity P-wave (km/s) = 4.90303 6.33155 5.66252
#
# Compressibility (1/GPa) = 0.03535386
#
# Stress axis : x y z
#
# Youngs Moduli (GPa) = 35.02389 71.63655 145.37154
#
# Poissons Ratio (x) = -0.09211 0.98965
# Poissons Ratio (y) = -0.04503 0.21751
# Poissons Ratio (z) = 0.23843 0.10718
#
# Static dielectric constant tensor:
#      x y z
#    x 2.518630 -0.177690 0.021800 
#    y -0.177690 2.308750 0.092030 
#    z 0.021800 0.092030 2.175900 
# 
# From -- ./inp_files/389335.got.cif
#   From: 2010.05.17/outbox.cif.g08.bks.cpg/sg2_195_cif.got.tgz:389335.got - 2010.06.03 11:33:40.
