data_PCOD9028951
_publ_section_title
;
Structure prediction by ZEFSAII (Michael W. Deem and Ramdas Pophale) SiO2 
 PCOD9028951
Probable space group: P -1
;
_chemical_formula_sum "Si O2"
_cell_formula_units_Z 16
_cell_length_a 14.106198
_cell_length_b 22.146506
_cell_length_c 6.355228
_cell_angle_alpha 81.795643
_cell_angle_beta 99.777817
_cell_angle_gamma 158.527149
_cell_volume 715.568503
_symmetry_space_group_name_H-M "P -1"
_symmetry_group_IT_number 2
_symmetry_cell_setting 'triclinic'
loop_
_space_group_symop_operation_xyz
x,y,z
-x,-y,-z
loop_
_atom_site_type_symbol
_atom_site_label
_atom_site_fract_x
_atom_site_fract_y
_atom_site_fract_z
Si Si1 0.659847 0.305743 0.641639
Si Si2 0.441460 0.251939 0.950359
Si Si3 0.759261 0.966946 0.738899
Si Si4 0.661335 0.606046 0.796104
Si Si5 0.263194 0.946301 0.956957
Si Si6 0.101030 0.467613 0.694402
Si Si7 0.668115 0.692779 0.392853
Si Si8 0.363542 0.889441 0.303729
O O1 0.523267 0.244735 0.832926
O O2 0.461409 0.165319 0.457611
O O3 0.765276 0.430146 0.516430
O O4 0.906116 0.407346 0.720132
O O5 0.368618 0.263967 0.758664
O O6 0.243553 0.101706 0.114197
O O7 0.685805 0.417105 0.102906
O O8 0.688979 0.974972 0.885568
O O9 0.036001 0.147826 0.649861
O O10 0.642279 0.661831 0.648344
O O11 0.544292 0.480917 0.681562
O O12 0.500000 0.500000 0.000000
O O13 0.967138 0.778506 0.858041
O O14 0.299334 0.904057 0.108448
O O15 0.456726 0.054416 0.777362
O O16 0.912672 0.301897 0.649741
O O17 0.500000 0.000000 0.500000
#
# Coordination Sequence:
#
# PCOD9028951 Si02
#       8
#     2   2   2   2   2   2   2   2
#     4  10  23  40  67  99 133 185 224 284 349 411
#     4  11  24  43  68 100 139 177 234 287 342 407
#     4  11  24  43  68 101 141 180 233 286 342 417
#     4  11  25  46  70  97 135 186 230 288 347 411
#     4  11  25  43  66 101 135 181 228 285 348 414
#     4  10  22  42  65  96 136 178 226 280 349 414
#     4  11  26  43  69 101 131 184 234 285 350 406
#     4  11  25  41  70 101 138 176 226 287 348 416
#
# _framework density 22.359845
#
# number of rings (size 3 to 8) (size 9 to 14) (size 15 to 20)
#    0.000    1.250    1.250    3.000    5.250    8.500 
#    0.000    0.000    0.000    0.000    0.000    0.000 
#    0.000    0.000    0.000    0.000    0.000    0.000 
#
# Total GULP energy -89320.328268 kJ/mol
# GULP energy per Si atom -5582.520517 kJ/mol
# Density = 2.230895 g / cm^3
# Si number density = 22.359845 Si / 1000 Ang^3
#
#
#
# Elastic Constant Matrix: (Units=GPa)
#
#
# Indices 1 2 3 4 5 6 
#
# 1 46.3997 11.4458 24.2792 -4.8845 19.4844 -5.2791
# 2 11.4458 104.2781 43.1134 6.4956 -3.3722 -22.2855
# 3 24.2792 43.1134 96.0766 -19.9294 21.3025 -2.7693
# 4 -4.8845 6.4956 -19.9294 32.0102 -12.8946 5.6607
# 5 19.4844 -3.3722 21.3025 -12.8946 48.5915 -0.4331
# 6 -5.2791 -22.2855 -2.7693 5.6607 -0.4331 32.6007
#
#
#
# Elastic Compliance Matrix: (Units=1/GPa)
#
#
# Indices 1 2 3 4 5 6 
#
# 1 0.028941 0.000298 -0.005963 -0.004295 -0.010065 0.004996
# 2 0.000298 0.017487 -0.010500 -0.011213 0.002839 0.013095
# 3 -0.005963 -0.010500 0.020023 0.013841 -0.003522 -0.008893
# 4 -0.004295 -0.011213 0.013841 0.047092 0.007237 -0.015265
# 5 -0.010065 0.002839 -0.003522 0.007237 0.028270 -0.000870
# 6 0.004996 0.013095 -0.008893 -0.015265 -0.000870 0.042318
#
#
# Mechanical properties :
#
#
# Convention : Reuss Voigt Hill
#
# Bulk Modulus (GPa) = 29.30686 44.93682 37.12184
# Shear Modulus (GPa) = 21.94579 33.83490 27.89034
#
# Velocity S-wave (km/s) = 3.13626 3.89421 3.53560
# Velocity P-wave (km/s) = 5.12350 6.35299 5.77108
#
# Compressibility (1/GPa) = 0.03412171
#
# Stress axis : x y z
#
# Youngs Moduli (GPa) = 34.55271 57.18487 49.94330
#
# Poissons Ratio (x) = -0.01706 0.29779
# Poissons Ratio (y) = -0.01031 0.52442
# Poissons Ratio (z) = 0.20602 0.60046
#
# Static dielectric constant tensor:
#      x y z
#    x 1.856240 -0.014200 0.013330 
#    y -0.014200 1.811810 -0.030870 
#    z 0.013330 -0.030870 1.885010 
# 
# From -- ./inp_files/101104.got.cif
#   From: 2010.05.17/outbox.cif.g08.bks.cpg/sg2_51_cif.got.tgz:101104.got - 2010.06.03 11:33:40.
