data_PCOD9028337
_publ_section_title
;
Structure prediction by ZEFSAII (Michael W. Deem and Ramdas Pophale) SiO2 
 PCOD9028337
Probable space group: P -1
;
_chemical_formula_sum "Si O2"
_cell_formula_units_Z 12
_cell_length_a 4.781897
_cell_length_b 25.471611
_cell_length_c 4.865983
_cell_angle_alpha 123.428726
_cell_angle_beta 67.628430
_cell_angle_gamma 118.403861
_cell_volume 429.383548
_symmetry_space_group_name_H-M "P -1"
_symmetry_group_IT_number 2
_symmetry_cell_setting 'triclinic'
loop_
_space_group_symop_operation_xyz
x,y,z
-x,-y,-z
loop_
_atom_site_type_symbol
_atom_site_label
_atom_site_fract_x
_atom_site_fract_y
_atom_site_fract_z
Si Si1 0.359595 0.890719 0.786940
Si Si2 0.757746 0.682589 0.046577
Si Si3 0.226294 0.064885 0.762141
Si Si4 0.441872 0.433198 0.502050
Si Si5 0.378128 0.749279 0.376134
Si Si6 0.818632 0.388109 0.698016
O O1 0.381793 0.820107 0.670606
O O2 0.488758 0.899116 0.452954
O O3 0.606098 0.946291 0.052572
O O4 0.008927 0.894567 0.958224
O O5 0.445318 0.609689 0.946165
O O6 0.901819 0.641810 0.651514
O O7 0.692857 0.744866 0.087213
O O8 0.054368 0.711261 0.226667
O O9 0.000000 0.000000 0.500000
O O10 0.500000 0.500000 0.500000
O O11 0.688522 0.417335 0.571524
O O12 0.155023 0.438235 0.845233
O O13 0.436523 0.696692 0.421239
#
# Coordination Sequence:
#
# PCOD9028337 Si02
#       6
#     2   2   2   2   2   2
#     4  12  26  46  76 113 144 206 249 304 362 449
#     4  10  22  42  59  88 125 164 212 280 351 393
#     4  12  26  48  75 112 159 198 248 302 364 428
#     4  12  24  38  64  91 119 172 221 272 347 429
#     4  10  22  44  64  95 124 177 226 284 363 415
#     4  10  22  42  57  87 125 159 210 279 344 390
#
# _framework density 27.947037999999999
#
# number of rings (size 3 to 8) (size 9 to 14) (size 15 to 20)
#    1.000    0.000    1.667    5.000    0.000    5.333 
#    0.000    0.000    0.000    0.000    0.000    0.000 
#    0.000    0.000    0.000    0.000    0.000    0.000 
#
# Total GULP energy -66951.109631 kJ/mol
# GULP energy per Si atom -5579.259136 kJ/mol
# Density = 2.788343 g / cm^3
# Si number density = 27.947038 Si / 1000 Ang^3
#
#
#
# Elastic Constant Matrix: (Units=GPa)
#
#
# Indices 1 2 3 4 5 6 
#
# 1 206.5595 7.3949 62.3904 -6.6745 -29.2709 -6.2586
# 2 7.3949 64.6702 43.0866 -4.5579 -23.8655 -2.6927
# 3 62.3904 43.0866 155.4063 -21.2420 -34.7262 3.1988
# 4 -6.6745 -4.5579 -21.2420 53.0870 -3.3591 -6.6707
# 5 -29.2709 -23.8655 -34.7262 -3.3591 65.4820 -1.6313
# 6 -6.2586 -2.6927 3.1988 -6.6707 -1.6313 38.3635
#
#
#
# Elastic Compliance Matrix: (Units=1/GPa)
#
#
# Indices 1 2 3 4 5 6 
#
# 1 0.005831 0.001733 -0.002363 0.000241 0.002032 0.001398
# 2 0.001733 0.021007 -0.005197 0.000627 0.005770 0.002545
# 3 -0.002363 -0.005197 0.009820 0.003224 0.002400 -0.000906
# 4 0.000241 0.000627 0.003224 0.020864 0.003205 0.003579
# 5 0.002032 0.005770 0.002400 0.003205 0.019768 0.001934
# 6 0.001398 0.002545 -0.000906 0.003579 0.001934 0.027253
#
#
# Mechanical properties :
#
#
# Convention : Reuss Voigt Hill
#
# Bulk Modulus (GPa) = 39.99549 72.48664 56.24107
# Shear Modulus (GPa) = 40.15009 52.30411 46.22710
#
# Velocity S-wave (km/s) = 3.79443 4.33083 4.07147
# Velocity P-wave (km/s) = 5.79130 7.14154 6.50157
#
# Compressibility (1/GPa) = 0.02500282
#
# Stress axis : x y z
#
# Youngs Moduli (GPa) = 171.49506 47.60296 101.83222
#
# Poissons Ratio (x) = -0.08249 0.24065
# Poissons Ratio (y) = -0.29716 0.52925
# Poissons Ratio (z) = 0.40529 0.24740
#
# Static dielectric constant tensor:
#      x y z
#    x 2.040470 0.070010 -0.053860 
#    y 0.070010 2.216650 -0.063480 
#    z -0.053860 -0.063480 2.300640 
# 
# From -- ./inp_files/14920.got.cif
#   From: 2010.05.17/outbox.cif.g08.bks.cpg/sg2_8_cif.got.tgz:14920.got - 2010.06.03 11:33:40.
