data_PCOD9028530
_publ_section_title
;
Structure prediction by ZEFSAII (Michael W. Deem and Ramdas Pophale) SiO2 
 PCOD9028530
Probable space group: P -1
;
_chemical_formula_sum "Si O2"
_cell_formula_units_Z 16
_cell_length_a 5.829704
_cell_length_b 22.714764
_cell_length_c 5.162930
_cell_angle_alpha 70.199142
_cell_angle_beta 83.168949
_cell_angle_gamma 80.512885
_cell_volume 632.988395
_symmetry_space_group_name_H-M "P -1"
_symmetry_group_IT_number 2
_symmetry_cell_setting 'triclinic'
loop_
_space_group_symop_operation_xyz
x,y,z
-x,-y,-z
loop_
_atom_site_type_symbol
_atom_site_label
_atom_site_fract_x
_atom_site_fract_y
_atom_site_fract_z
Si Si1 0.481846 0.426489 0.109852
Si Si2 0.709317 0.631818 0.296784
Si Si3 0.982831 0.903518 0.540277
Si Si4 0.106223 0.670940 0.867525
Si Si5 0.701286 0.020938 0.261258
Si Si6 0.584023 0.866290 0.026806
Si Si7 0.940352 0.785653 0.426657
Si Si8 0.363152 0.751693 0.045619
O O1 0.308876 0.406692 0.381879
O O2 0.736765 0.387615 0.196530
O O3 0.500000 0.500000 0.000000
O O4 0.396284 0.404606 0.874234
O O5 0.546816 0.699351 0.239951
O O6 0.966932 0.644268 0.160972
O O7 0.160510 0.937194 0.632320
O O8 0.062877 0.837314 0.492925
O O9 0.790093 0.887425 0.795561
O O10 0.865753 0.956208 0.272358
O O11 0.917183 0.720355 0.670847
O O12 0.297326 0.716668 0.849114
O O13 0.588770 0.069681 0.986455
O O14 0.500000 0.000000 0.500000
O O15 0.464387 0.817194 0.941782
O O16 0.700102 0.825513 0.308859
O O17 0.113850 0.765397 0.199417
#
# Coordination Sequence:
#
# PCOD9028530 Si02
#       8
#     2   2   2   2   2   2   2   2
#     4  11  26  48  75 112 151 195 249 303 361 436
#     4  11  25  45  76 105 151 195 245 303 370 429
#     4  10  22  42  63  89 128 179 228 295 360 437
#     4  11  26  45  71 103 148 188 241 295 367 434
#     4   9  20  41  62  87 129 174 231 292 361 432
#     4  11  23  39  64  93 130 175 232 294 361 431
#     4  12  23  38  65  97 132 175 236 293 362 430
#     4  11  24  42  63  99 140 177 236 296 358 433
#
# _framework density 25.276921999999999
#
# number of rings (size 3 to 8) (size 9 to 14) (size 15 to 20)
#    0.000    1.250    1.250    4.125    3.500    4.500 
#    0.000    8.750    0.000    0.000    0.000    0.000 
#    0.000    0.000    0.000    0.000    0.000    0.000 
#
# Total GULP energy -89629.777815 kJ/mol
# GULP energy per Si atom -5601.861113 kJ/mol
# Density = 2.521939 g / cm^3
# Si number density = 25.276922 Si / 1000 Ang^3
#
#
#
# Elastic Constant Matrix: (Units=GPa)
#
#
# Indices 1 2 3 4 5 6 
#
# 1 81.2054 31.5145 28.9910 -20.8691 -10.7691 7.3935
# 2 31.5145 162.3377 49.8961 -35.7073 -1.4531 1.2678
# 3 28.9910 49.8961 108.0773 -26.5685 -9.3251 -7.9871
# 4 -20.8691 -35.7073 -26.5685 45.6603 1.8440 0.0593
# 5 -10.7691 -1.4531 -9.3251 1.8440 34.3038 -3.1995
# 6 7.3935 1.2678 -7.9871 0.0593 -3.1995 26.8715
#
#
#
# Elastic Compliance Matrix: (Units=1/GPa)
#
#
# Indices 1 2 3 4 5 6 
#
# 1 0.015779 -0.001178 -0.002586 0.004650 0.003518 -0.004646
# 2 -0.001178 0.008126 -0.002513 0.004397 -0.001033 -0.000939
# 3 -0.002586 -0.002513 0.012729 0.004141 0.002780 0.004935
# 4 0.004650 0.004397 0.004141 0.029828 0.001151 -0.000185
# 5 0.003518 -0.001033 0.002780 0.001151 0.031244 0.003625
# 6 -0.004646 -0.000939 0.004935 -0.000185 0.003625 0.040436
#
#
# Mechanical properties :
#
#
# Convention : Reuss Voigt Hill
#
# Bulk Modulus (GPa) = 41.52619 63.60261 52.56440
# Shear Modulus (GPa) = 31.50148 37.44838 34.47493
#
# Velocity S-wave (km/s) = 3.53406 3.85323 3.69709
# Velocity P-wave (km/s) = 5.75473 6.70921 6.25022
#
# Compressibility (1/GPa) = 0.02408119
#
# Stress axis : x y z
#
# Youngs Moduli (GPa) = 63.37453 123.05527 78.56063
#
# Poissons Ratio (x) = 0.14494 0.20312
# Poissons Ratio (y) = 0.07465 0.19745
# Poissons Ratio (z) = 0.16386 0.30928
#
# Static dielectric constant tensor:
#      x y z
#    x 2.057170 -0.006030 0.082710 
#    y -0.006030 1.939370 0.022300 
#    z 0.082710 0.022300 2.030830 
# 
# From -- ./inp_files/12718.got.cif
#   From: 2010.05.17/outbox.cif.g08.bks.cpg/sg2_7_cif.got.tgz:12718.got - 2010.06.03 11:33:40.
