data_PCOD9028253
_publ_section_title
;
Structure prediction by ZEFSAII (Michael W. Deem and Ramdas Pophale) SiO2 
 PCOD9028253
Probable space group: P -1
;
_chemical_formula_sum "Si O2"
_cell_formula_units_Z 16
_cell_length_a 8.861083
_cell_length_b 16.070569
_cell_length_c 7.698450
_cell_angle_alpha 122.336519
_cell_angle_beta 108.513975
_cell_angle_gamma 55.184239
_cell_volume 760.343677
_symmetry_space_group_name_H-M "P -1"
_symmetry_group_IT_number 2
_symmetry_cell_setting 'triclinic'
loop_
_space_group_symop_operation_xyz
x,y,z
-x,-y,-z
loop_
_atom_site_type_symbol
_atom_site_label
_atom_site_fract_x
_atom_site_fract_y
_atom_site_fract_z
Si Si1 0.095318 0.753777 0.309476
Si Si2 0.970975 0.514151 0.745182
Si Si3 0.023000 0.024306 0.312572
Si Si4 0.205569 0.307799 0.803891
Si Si5 0.291299 0.591491 0.499050
Si Si6 0.568635 0.076663 0.710837
Si Si7 0.050274 0.692486 0.837240
Si Si8 0.825897 0.931169 0.920356
O O1 0.058533 0.880311 0.463589
O O2 0.915384 0.754154 0.323735
O O3 0.111940 0.712414 0.071551
O O4 0.758322 0.059731 0.679934
O O5 0.821800 0.474824 0.633269
O O6 0.158524 0.397579 0.731999
O O7 0.013527 0.587041 0.706526
O O8 0.886542 0.606825 0.973694
O O9 0.743709 0.333951 0.603711
O O10 0.033750 0.085454 0.204701
O O11 0.892729 0.975054 0.156350
O O12 0.411341 0.207578 0.794804
O O13 0.500000 0.500000 0.500000
O O14 0.204214 0.668354 0.723824
O O15 0.500000 0.000000 0.500000
O O16 0.632293 0.021824 0.866346
O O17 0.863619 0.807363 0.845968
#
# Coordination Sequence:
#
# PCOD9028253 Si02
#       8
#     2   2   2   2   2   2   2   2
#     4  10  20  38  62  85 128 164 209 260 323 380
#     4   9  21  37  62  90 125 170 206 263 317 370
#     4   9  18  36  58  89 122 169 210 250 332 377
#     4   9  17  35  59  92 120 166 214 254 311 385
#     4  11  23  40  63  88 125 170 213 260 321 381
#     4  10  17  31  63  91 119 165 217 259 309 377
#     4  11  22  41  65  92 126 163 216 266 313 389
#     4   9  20  35  60  91 123 170 208 258 325 377
#
# _framework density 21.043116000000001
#
# number of rings (size 3 to 8) (size 9 to 14) (size 15 to 20)
#    0.750    1.500    2.500    1.125    1.750    3.000 
#    0.000    3.750    0.000    0.000    0.000    0.000 
#    0.000    0.000    0.000    0.000    0.000    0.000 
#
# Total GULP energy -89161.719759 kJ/mol
# GULP energy per Si atom -5572.607485 kJ/mol
# Density = 2.099522 g / cm^3
# Si number density = 21.043116 Si / 1000 Ang^3
#
#
#
# Elastic Constant Matrix: (Units=GPa)
#
#
# Indices 1 2 3 4 5 6 
#
# 1 31.1690 52.7828 16.5542 5.3254 8.6119 -9.9905
# 2 52.7828 201.0153 39.7671 13.7594 0.6988 -28.7869
# 3 16.5542 39.7671 89.6942 3.1577 13.3275 -10.4594
# 4 5.3254 13.7594 3.1577 32.0091 3.0360 0.9030
# 5 8.6119 0.6988 13.3275 3.0360 16.8593 -4.4228
# 6 -9.9905 -28.7869 -10.4594 0.9030 -4.4228 33.5927
#
#
#
# Elastic Compliance Matrix: (Units=1/GPa)
#
#
# Indices 1 2 3 4 5 6 
#
# 1 0.076411 -0.019872 0.000515 -0.000614 -0.038287 0.000832
# 2 -0.019872 0.011627 -0.002841 -0.002859 0.013756 0.005057
# 3 0.000515 -0.002841 0.014021 0.000800 -0.011220 0.000586
# 4 -0.000614 -0.002859 0.000800 0.033306 -0.007311 -0.004241
# 5 -0.038287 0.013756 -0.011220 -0.007311 0.090866 0.009068
# 6 0.000832 0.005057 0.000586 -0.004241 0.009068 0.035840
#
#
# Mechanical properties :
#
#
# Convention : Reuss Voigt Hill
#
# Bulk Modulus (GPa) = 17.34193 60.00964 38.67579
# Shear Modulus (GPa) = 15.35217 30.67716 23.01467
#
# Velocity S-wave (km/s) = 2.70396 3.82229 3.31069
# Velocity P-wave (km/s) = 4.24353 6.93248 5.74747
#
# Compressibility (1/GPa) = 0.05766370
#
# Stress axis : x y z
#
# Youngs Moduli (GPa) = 13.08710 86.00810 71.32333
#
# Poissons Ratio (x) = 1.70914 -0.03675
# Poissons Ratio (y) = 0.26006 0.20263
# Poissons Ratio (z) = -0.00674 0.24434
#
# Static dielectric constant tensor:
#      x y z
#    x 1.753640 0.065440 -0.010810 
#    y 0.065440 1.812920 -0.058230 
#    z -0.010810 -0.058230 1.833770 
# 
# From -- ./inp_files/213314.got.cif
#   From: 2010.05.17/outbox.cif.g08.bks.cpg/sg2_107_cif.got.tgz:213314.got - 2010.06.03 11:33:40.
