data_PCOD9028901
_publ_section_title
;
Structure prediction by ZEFSAII (Michael W. Deem and Ramdas Pophale) SiO2 
 PCOD9028901
Probable space group: P -1
;
_chemical_formula_sum "Si O2"
_cell_formula_units_Z 14
_cell_length_a 11.918922
_cell_length_b 14.076313
_cell_length_c 7.119198
_cell_angle_alpha 79.840827
_cell_angle_beta 115.085646
_cell_angle_gamma 141.518739
_cell_volume 646.998551
_symmetry_space_group_name_H-M "P -1"
_symmetry_group_IT_number 2
_symmetry_cell_setting 'triclinic'
loop_
_space_group_symop_operation_xyz
x,y,z
-x,-y,-z
loop_
_atom_site_type_symbol
_atom_site_label
_atom_site_fract_x
_atom_site_fract_y
_atom_site_fract_z
Si Si1 0.806939 0.250879 0.211835
Si Si2 0.627560 0.944673 0.020041
Si Si3 0.711358 0.627455 0.492764
Si Si4 0.624859 0.784239 0.380001
Si Si5 0.850690 0.558016 0.873910
Si Si6 0.925424 0.675808 0.300105
Si Si7 0.134528 0.995671 0.177910
O O1 0.616996 0.203088 0.130280
O O2 0.980693 0.395707 0.141552
O O3 0.912723 0.280044 0.468568
O O4 0.706420 0.097729 0.086627
O O5 0.740194 0.979414 0.903948
O O6 0.678387 0.901840 0.235334
O O7 0.500000 0.500000 0.500000
O O8 0.738452 0.755437 0.414782
O O9 0.858268 0.668006 0.734766
O O10 0.733446 0.577229 0.337766
O O11 0.379929 0.620237 0.259328
O O12 0.704898 0.860357 0.613776
O O13 0.885721 0.595262 0.106315
O O14 0.007132 0.832211 0.246531
O O15 0.000000 0.000000 0.000000
#
# Coordination Sequence:
#
# PCOD9028901 Si02
#       7
#     2   2   2   2   2   2   2
#     4  10  23  43  66  91 127 170 222 261 311 381
#     4  11  24  42  65  95 127 169 218 268 311 374
#     4   9  21  38  61  90 131 165 208 253 317 381
#     4  11  24  40  62  96 132 163 208 270 322 368
#     4  10  22  42  65  94 129 168 211 261 322 382
#     4  11  21  39  67  90 124 176 212 255 318 380
#     4  12  25  39  66  99 129 165 214 263 320 382
#
# _framework density 21.638379
#
# number of rings (size 3 to 8) (size 9 to 14) (size 15 to 20)
#    0.000    1.429    2.857    1.714    2.000    9.143 
#    0.000    1.429    0.000    0.000    0.000    0.000 
#    0.000    0.000    0.000    0.000    0.000    0.000 
#
# Total GULP energy -78218.378224 kJ/mol
# GULP energy per Si atom -5587.027016 kJ/mol
# Density = 2.158913 g / cm^3
# Si number density = 21.638379 Si / 1000 Ang^3
#
#
#
# Elastic Constant Matrix: (Units=GPa)
#
#
# Indices 1 2 3 4 5 6 
#
# 1 81.6295 27.9054 52.4312 -19.7135 -10.3772 31.0923
# 2 27.9054 49.9504 40.1472 5.9301 -6.7312 13.1979
# 3 52.4312 40.1472 160.5404 3.7600 -16.4797 19.6607
# 4 -19.7135 5.9301 3.7600 34.6471 -2.7038 2.1045
# 5 -10.3772 -6.7312 -16.4797 -2.7038 32.2689 -9.0653
# 6 31.0923 13.1979 19.6607 2.1045 -9.0653 33.5642
#
#
#
# Elastic Compliance Matrix: (Units=1/GPa)
#
#
# Indices 1 2 3 4 5 6 
#
# 1 0.036706 -0.011044 -0.006403 0.025181 0.000669 -0.027308
# 2 -0.011044 0.030277 -0.003843 -0.011111 0.000247 0.001340
# 3 -0.006403 -0.003843 0.009260 -0.003983 0.002350 0.002903
# 4 0.025181 -0.011111 -0.003983 0.046857 0.002355 -0.018926
# 5 0.000669 0.000247 0.002350 0.002355 0.034654 0.007119
# 6 -0.027308 0.001340 0.002903 -0.018926 0.007119 0.055973
#
#
# Mechanical properties :
#
#
# Convention : Reuss Voigt Hill
#
# Bulk Modulus (GPa) = 29.70614 59.23197 44.46905
# Shear Modulus (GPa) = 18.68958 31.53847 25.11403
#
# Velocity S-wave (km/s) = 2.94211 3.82190 3.41049
# Velocity P-wave (km/s) = 5.02987 6.84900 6.00868
#
# Compressibility (1/GPa) = 0.03366308
#
# Stress axis : x y z
#
# Youngs Moduli (GPa) = 27.24326 33.02831 107.98874
#
# Poissons Ratio (x) = 0.36477 0.69144
# Poissons Ratio (y) = 0.30088 0.41501
# Poissons Ratio (z) = 0.17444 0.12693
#
# Static dielectric constant tensor:
#      x y z
#    x 1.837520 -0.002580 0.013270 
#    y -0.002580 1.870260 -0.023590 
#    z 0.013270 -0.023590 1.762130 
# 
# From -- ./inp_files/27253.got.cif
#   From: 2010.05.17/outbox.cif.g08.bks.cpg/sg2_14_cif.got.tgz:27253.got - 2010.06.03 11:33:40.
