data_PCOD9028900
_publ_section_title
;
Structure prediction by ZEFSAII (Michael W. Deem and Ramdas Pophale) SiO2 
 PCOD9028900
Probable space group: P -1
;
_chemical_formula_sum "Si O2"
_cell_formula_units_Z 16
_cell_length_a 11.086663
_cell_length_b 13.978260
_cell_length_c 11.750945
_cell_angle_alpha 90.204066
_cell_angle_beta 110.569772
_cell_angle_gamma 33.306190
_cell_volume 772.955790
_symmetry_space_group_name_H-M "P -1"
_symmetry_group_IT_number 2
_symmetry_cell_setting 'triclinic'
loop_
_space_group_symop_operation_xyz
x,y,z
-x,-y,-z
loop_
_atom_site_type_symbol
_atom_site_label
_atom_site_fract_x
_atom_site_fract_y
_atom_site_fract_z
Si Si1 0.500288 0.250511 0.168133
Si Si2 0.099536 0.931673 0.403594
Si Si3 0.694163 0.963838 0.093731
Si Si4 0.251893 0.009450 0.309883
Si Si5 0.181396 0.534800 0.847363
Si Si6 0.278826 0.881180 0.084205
Si Si7 0.700984 0.526701 0.658748
Si Si8 0.149600 0.386332 0.428690
O O1 0.397861 0.353764 0.257370
O O2 0.543041 0.110486 0.155400
O O3 0.277650 0.436777 0.003048
O O4 0.822648 0.074381 0.249265
O O5 0.409641 0.676004 0.509059
O O6 0.151895 0.002453 0.373526
O O7 0.000000 0.000000 0.500000
O O8 0.022516 0.719537 0.225008
O O9 0.500000 0.000000 0.000000
O O10 0.701381 0.041744 0.997846
O O11 0.010482 0.245388 0.206247
O O12 0.318922 0.901784 0.220736
O O13 0.544350 0.862654 0.446874
O O14 0.470833 0.355896 0.871614
O O15 0.018870 0.562222 0.720472
O O16 0.000000 0.000000 0.000000
O O17 0.800189 0.542199 0.605053
O O18 0.000000 0.500000 0.500000
#
# Coordination Sequence:
#
# PCOD9028900 Si02
#       8
#     2   2   2   2   2   2   2   2
#     4  10  22  42  65  94 129 161 214 274 320 387
#     4   9  21  42  62  92 130 163 217 271 320 391
#     4  11  24  40  65  99 130 171 221 264 327 388
#     4  11  22  40  67  91 126 177 218 264 332 394
#     4  11  23  40  66  95 127 170 217 271 327 387
#     4  11  24  41  65  99 136 171 218 274 326 389
#     4  10  22  42  66  91 128 175 210 268 333 381
#     4  11  23  44  62  91 137 169 216 277 324 393
#
# _framework density 20.699757999999999
#
# number of rings (size 3 to 8) (size 9 to 14) (size 15 to 20)
#    0.000    1.500    1.250    4.125    0.000    7.500 
#    6.750    0.000    0.000    0.000    0.000    0.000 
#    0.000    0.000    0.000    0.000    0.000    0.000 
#
# Total GULP energy -89270.729337 kJ/mol
# GULP energy per Si atom -5579.420584 kJ/mol
# Density = 2.065264 g / cm^3
# Si number density = 20.699758 Si / 1000 Ang^3
#
#
#
# Elastic Constant Matrix: (Units=GPa)
#
#
# Indices 1 2 3 4 5 6 
#
# 1 65.7165 27.8690 33.8753 -0.8428 -1.8411 -15.5385
# 2 27.8690 100.0883 36.3001 -16.9084 -21.8344 -0.3667
# 3 33.8753 36.3001 132.6431 -13.7501 1.1510 -3.6903
# 4 -0.8428 -16.9084 -13.7501 42.2746 -4.0497 -7.2934
# 5 -1.8411 -21.8344 1.1510 -4.0497 30.0828 1.2363
# 6 -15.5385 -0.3667 -3.6903 -7.2934 1.2363 27.6531
#
#
#
# Elastic Compliance Matrix: (Units=1/GPa)
#
#
# Indices 1 2 3 4 5 6 
#
# 1 0.022323 -0.005703 -0.003931 -0.001409 -0.003294 0.011719
# 2 -0.005703 0.016297 -0.002509 0.006411 0.012529 -0.002193
# 3 -0.003931 -0.002509 0.009412 0.001695 -0.002175 -0.000442
# 4 -0.001409 0.006411 0.001695 0.028676 0.008086 0.006721
# 5 -0.003294 0.012529 -0.002175 0.008086 0.043378 -0.001782
# 6 0.011719 -0.002193 -0.000442 0.006721 -0.001782 0.044511
#
#
# Mechanical properties :
#
#
# Convention : Reuss Voigt Hill
#
# Bulk Modulus (GPa) = 42.11475 54.94853 48.53164
# Shear Modulus (GPa) = 25.40658 33.36235 29.38446
#
# Velocity S-wave (km/s) = 3.50721 4.01899 3.77179
# Velocity P-wave (km/s) = 6.06551 6.93826 6.51651
#
# Compressibility (1/GPa) = 0.02374465
#
# Stress axis : x y z
#
# Youngs Moduli (GPa) = 44.79757 61.36041 106.24882
#
# Poissons Ratio (x) = 0.34996 0.41771
# Poissons Ratio (y) = 0.25550 0.26654
# Poissons Ratio (z) = 0.17612 0.15393
#
# Static dielectric constant tensor:
#      x y z
#    x 1.739750 -0.006520 0.014950 
#    y -0.006520 1.742310 -0.007300 
#    z 0.014950 -0.007300 1.836110 
# 
# From -- ./inp_files/434142.got.cif
#   From: 2010.05.17/outbox.cif.g08.bks.cpg/sg2_218_cif.got.tgz:434142.got - 2010.06.03 11:33:40.
