data_PCOD9028073
_publ_section_title
;
Structure prediction by ZEFSAII (Michael W. Deem and Ramdas Pophale) SiO2 
 PCOD9028073
Probable space group: P -1
;
_chemical_formula_sum "Si O2"
_cell_formula_units_Z 14
_cell_length_a 10.632973
_cell_length_b 11.819360
_cell_length_c 9.149743
_cell_angle_alpha 141.446169
_cell_angle_beta 73.935817
_cell_angle_gamma 80.239994
_cell_volume 526.651253
_symmetry_space_group_name_H-M "P -1"
_symmetry_group_IT_number 2
_symmetry_cell_setting 'triclinic'
loop_
_space_group_symop_operation_xyz
x,y,z
-x,-y,-z
loop_
_atom_site_type_symbol
_atom_site_label
_atom_site_fract_x
_atom_site_fract_y
_atom_site_fract_z
Si Si1 0.123625 0.615402 0.269410
Si Si2 0.835604 0.520762 0.559694
Si Si3 0.260250 0.122593 0.281166
Si Si4 0.518456 0.512827 0.250625
Si Si5 0.732203 0.306110 0.231369
Si Si6 0.338611 0.146307 0.591187
Si Si7 0.270109 0.862147 0.451656
O O1 0.209020 0.484636 0.264565
O O2 0.131366 0.826508 0.469756
O O3 0.934890 0.703460 0.418918
O O4 0.245079 0.421218 0.913161
O O5 0.716865 0.747091 0.719532
O O6 0.886890 0.286954 0.224726
O O7 0.000000 0.500000 0.500000
O O8 0.370919 0.064448 0.330817
O O9 0.266647 0.911769 0.002533
O O10 0.673618 0.436367 0.226518
O O11 0.405126 0.521488 0.423687
O O12 0.384241 0.760892 0.459838
O O13 0.599252 0.315582 0.899948
O O14 0.500000 0.000000 0.500000
O O15 0.212205 0.109891 0.669188
#
# Coordination Sequence:
#
# PCOD9028073 Si02
#       7
#     2   2   2   2   2   2   2
#     4  11  26  47  71 103 144 183 239 289 346 425
#     4  10  25  45  69 100 140 183 234 285 346 419
#     4  11  27  47  71 106 141 188 235 286 357 415
#     4  10  22  41  71 101 137 184 229 290 340 419
#     4  11  23  45  72 100 143 179 236 287 355 411
#     4  12  27  44  73 106 142 186 235 286 354 416
#     4  11  23  45  70 100 144 184 230 287 356 408
#
# _framework density 26.583055999999999
#
# number of rings (size 3 to 8) (size 9 to 14) (size 15 to 20)
#    0.000    1.143    2.857    2.143    6.000    5.143 
#    0.000    3.571    0.000    0.000    0.000    0.000 
#    0.000    0.000    0.000    0.000    0.000    0.000 
#
# Total GULP energy -78302.941234 kJ/mol
# GULP energy per Si atom -5593.067231 kJ/mol
# Density = 2.652255 g / cm^3
# Si number density = 26.583056 Si / 1000 Ang^3
#
#
#
# Elastic Constant Matrix: (Units=GPa)
#
#
# Indices 1 2 3 4 5 6 
#
# 1 67.3186 29.1671 36.9583 -10.6259 31.4594 -3.4411
# 2 29.1671 176.5472 26.6363 -24.2573 26.8017 3.6737
# 3 36.9583 26.6363 97.9397 -9.8874 27.3995 -2.2560
# 4 -10.6259 -24.2573 -9.8874 39.6465 1.5306 12.5409
# 5 31.4594 26.8017 27.3995 1.5306 47.8093 -2.7549
# 6 -3.4411 3.6737 -2.2560 12.5409 -2.7549 48.0630
#
#
#
# Elastic Compliance Matrix: (Units=1/GPa)
#
#
# Indices 1 2 3 4 5 6 
#
# 1 0.025027 -0.000497 -0.004922 0.005931 -0.013601 -0.000728
# 2 -0.000497 0.007080 -0.000225 0.004952 -0.003792 -0.002097
# 3 -0.004922 -0.000225 0.013619 0.002290 -0.004545 -0.000554
# 4 0.005931 0.004952 0.002290 0.033690 -0.009599 -0.009187
# 5 -0.013601 -0.003792 -0.004545 -0.009599 0.035112 0.003620
# 6 -0.000728 -0.002097 -0.000554 -0.009187 0.003620 0.023493
#
#
# Mechanical properties :
#
#
# Convention : Reuss Voigt Hill
#
# Bulk Modulus (GPa) = 29.03864 58.59210 43.81537
# Shear Modulus (GPa) = 31.09638 43.70669 37.40154
#
# Velocity S-wave (km/s) = 3.42392 4.05922 3.75503
# Velocity P-wave (km/s) = 5.15543 6.63767 5.94294
#
# Compressibility (1/GPa) = 0.03443688
#
# Stress axis : x y z
#
# Youngs Moduli (GPa) = 39.95631 141.24161 73.42678
#
# Poissons Ratio (x) = 0.07023 0.36141
# Poissons Ratio (y) = 0.01987 0.01655
# Poissons Ratio (z) = 0.19667 0.03184
#
# Static dielectric constant tensor:
#      x y z
#    x 2.280730 0.019640 0.016940 
#    y 0.019640 2.053260 0.040600 
#    z 0.016940 0.040600 2.041700 
# 
# From -- ./inp_files/260933.got.cif
#   From: 2010.05.17/outbox.cif.g08.bks.cpg/sg2_131_cif.got.tgz:260933.got - 2010.06.03 11:33:40.
