data_PCOD9028094
_publ_section_title
;
Structure prediction by ZEFSAII (Michael W. Deem and Ramdas Pophale) SiO2 
 PCOD9028094
Probable space group: P -1
;
_chemical_formula_sum "Si O2"
_cell_formula_units_Z 16
_cell_length_a 9.268306
_cell_length_b 11.168019
_cell_length_c 9.025674
_cell_angle_alpha 101.726426
_cell_angle_beta 117.995721
_cell_angle_gamma 110.819054
_cell_volume 689.194312
_symmetry_space_group_name_H-M "P -1"
_symmetry_group_IT_number 2
_symmetry_cell_setting 'triclinic'
loop_
_space_group_symop_operation_xyz
x,y,z
-x,-y,-z
loop_
_atom_site_type_symbol
_atom_site_label
_atom_site_fract_x
_atom_site_fract_y
_atom_site_fract_z
Si Si1 0.434992 0.438002 0.294916
Si Si2 0.053112 0.156590 0.004439
Si Si3 0.501353 0.146559 0.519130
Si Si4 0.066201 0.025355 0.368440
Si Si5 0.402856 0.580264 0.894622
Si Si6 0.468515 0.829210 0.812741
Si Si7 0.780599 0.415266 0.909820
Si Si8 0.818583 0.140680 0.133677
O O1 0.500000 0.500000 0.500000
O O2 0.623318 0.479404 0.299312
O O3 0.322793 0.506140 0.187002
O O4 0.271701 0.270757 0.174566
O O5 0.009697 0.121934 0.800832
O O6 0.929894 0.208338 0.049477
O O7 0.000000 0.000000 0.000000
O O8 0.293920 0.114737 0.467661
O O9 0.542830 0.196743 0.377932
O O10 0.660600 0.261615 0.735537
O O11 0.500000 0.000000 0.500000
O O12 0.964906 0.106939 0.276944
O O13 0.000000 0.000000 0.500000
O O14 0.522136 0.747497 0.944234
O O15 0.500000 0.500000 0.000000
O O16 0.246561 0.574128 0.925408
O O17 0.265374 0.797749 0.771974
O O18 0.631305 0.994529 0.951112
O O19 0.000000 0.500000 0.000000
#
# Coordination Sequence:
#
# PCOD9028094 Si02
#       8
#     2   2   2   2   2   2   2   2
#     4  11  25  47  75 102 142 197 250 301 371 450
#     4  10  22  41  71 106 141 181 244 307 363 436
#     4  12  28  47  76 110 150 195 252 313 372 450
#     4  11  24  41  69 111 149 189 246 306 374 445
#     4  10  24  47  72 101 142 198 244 295 368 445
#     4  11  23  44  72 107 147 188 244 302 373 439
#     4  11  29  49  68 103 152 197 243 310 379 446
#     4  10  23  40  68 110 145 185 233 308 375 436
#
# _framework density 23.215513000000001
#
# number of rings (size 3 to 8) (size 9 to 14) (size 15 to 20)
#    0.000    1.250    1.250    3.000   15.750    0.000 
#    2.250    1.250    0.000    0.000    0.000    0.000 
#    0.000    0.000    0.000    0.000    0.000    0.000 
#
# Total GULP energy -89208.119133 kJ/mol
# GULP energy per Si atom -5575.507446 kJ/mol
# Density = 2.316267 g / cm^3
# Si number density = 23.215513 Si / 1000 Ang^3
#
#
#
# Elastic Constant Matrix: (Units=GPa)
#
#
# Indices 1 2 3 4 5 6 
#
# 1 229.8747 43.2250 98.9375 -6.2375 -31.3646 40.6643
# 2 43.2250 88.2701 33.8001 -7.4097 -11.8461 5.0940
# 3 98.9375 33.8001 143.2984 -5.2619 -28.7405 27.7104
# 4 -6.2375 -7.4097 -5.2619 36.1778 9.9537 -6.6285
# 5 -31.3646 -11.8461 -28.7405 9.9537 50.0777 -15.3643
# 6 40.6643 5.0940 27.7104 -6.6285 -15.3643 30.8828
#
#
#
# Elastic Compliance Matrix: (Units=1/GPa)
#
#
# Indices 1 2 3 4 5 6 
#
# 1 0.007285 -0.001957 -0.003295 -0.000901 0.000462 -0.006277
# 2 -0.001957 0.013261 -0.002091 0.002344 0.001292 0.003412
# 3 -0.003295 -0.002091 0.011044 -0.000880 0.002707 -0.004068
# 4 -0.000901 0.002344 -0.000880 0.030194 -0.004768 0.005698
# 5 0.000462 0.001292 0.002707 -0.004768 0.025673 0.008498
# 6 -0.006277 0.003412 -0.004068 0.005698 0.008498 0.049184
#
#
# Mechanical properties :
#
#
# Convention : Reuss Voigt Hill
#
# Bulk Modulus (GPa) = 59.15881 90.37427 74.76654
# Shear Modulus (GPa) = 31.85466 42.45970 37.15718
#
# Velocity S-wave (km/s) = 3.70824 4.28125 4.00501
# Velocity P-wave (km/s) = 6.62363 7.96566 7.32544
#
# Compressibility (1/GPa) = 0.01690365
#
# Stress axis : x y z
#
# Youngs Moduli (GPa) = 137.26134 75.40716 90.54784
#
# Poissons Ratio (x) = 0.14759 0.29835
# Poissons Ratio (y) = 0.26866 0.18936
# Poissons Ratio (z) = 0.45227 0.15770
#
# Static dielectric constant tensor:
#      x y z
#    x 1.941730 -0.081450 -0.103010 
#    y -0.081450 1.944530 -0.130070 
#    z -0.103010 -0.130070 1.718930 
# 
# From -- ./inp_files/189441.got.cif
#   From: 2010.05.17/outbox.cif.g08.bks.cpg/sg2_95_cif.got.tgz:189441.got - 2010.06.03 11:33:40.
