data_PCOD9028168
_publ_section_title
;
Structure prediction by ZEFSAII (Michael W. Deem and Ramdas Pophale) SiO2 
 PCOD9028168
Probable space group: P -1
;
_chemical_formula_sum "Si O2"
_cell_formula_units_Z 12
_cell_length_a 8.647368
_cell_length_b 9.260992
_cell_length_c 10.764506
_cell_angle_alpha 67.914795
_cell_angle_beta 41.527993
_cell_angle_gamma 62.473412
_cell_volume 506.171608
_symmetry_space_group_name_H-M "P -1"
_symmetry_group_IT_number 2
_symmetry_cell_setting 'triclinic'
loop_
_space_group_symop_operation_xyz
x,y,z
-x,-y,-z
loop_
_atom_site_type_symbol
_atom_site_label
_atom_site_fract_x
_atom_site_fract_y
_atom_site_fract_z
Si Si1 0.174500 0.399657 0.799019
Si Si2 0.445105 0.143227 0.886008
Si Si3 0.350059 0.408592 0.038653
Si Si4 0.187212 0.991978 0.502250
Si Si5 0.592446 0.311554 0.372497
Si Si6 0.207165 0.329387 0.402100
O O1 0.198591 0.261286 0.934440
O O2 0.348281 0.337740 0.595952
O O3 0.291049 0.541592 0.727255
O O4 0.895944 0.469626 0.906344
O O5 0.571719 0.063953 0.709090
O O6 0.512195 0.286667 0.878363
O O7 0.500000 0.000000 0.000000
O O8 0.243664 0.310610 0.237811
O O9 0.500000 0.500000 0.000000
O O10 0.220539 0.853423 0.631720
O O11 0.138585 0.168209 0.535612
O O12 0.000000 0.000000 0.500000
O O13 0.469024 0.316339 0.310889
O O14 0.000000 0.500000 0.500000
#
# Coordination Sequence:
#
# PCOD9028168 Si02
#       6
#     2   2   2   2   2   2
#     4  10  22  43  70  99 132 178 224 275 334 399
#     4  11  24  44  66  96 138 177 221 272 336 399
#     4  12  25  43  67 100 137 178 220 275 337 400
#     4  11  25  43  70  97 135 179 225 281 329 396
#     4  10  22  41  72 100 130 175 230 277 328 391
#     4  12  24  42  67  99 137 172 227 277 331 399
#
# _framework density 23.707374000000002
#
# number of rings (size 3 to 8) (size 9 to 14) (size 15 to 20)
#    0.000    1.000    3.333    3.000    7.000    0.000 
#    0.000    0.833    0.000    0.000    0.000    0.000 
#    0.000    0.000    0.000    0.000    0.000    0.000 
#
# Total GULP energy -66907.863300 kJ/mol
# GULP energy per Si atom -5575.655275 kJ/mol
# Density = 2.365342 g / cm^3
# Si number density = 23.707374 Si / 1000 Ang^3
#
#
#
# Elastic Constant Matrix: (Units=GPa)
#
#
# Indices 1 2 3 4 5 6 
#
# 1 161.5933 74.9277 7.8467 -21.0990 -10.1889 -35.5766
# 2 74.9277 170.6372 26.7827 -17.8709 -4.6612 -20.7919
# 3 7.8467 26.7827 66.5660 -6.1290 11.2773 -16.5911
# 4 -21.0990 -17.8709 -6.1290 34.5726 -5.7622 16.5827
# 5 -10.1889 -4.6612 11.2773 -5.7622 45.4314 -7.5113
# 6 -35.5766 -20.7919 -16.5911 16.5827 -7.5113 52.9545
#
#
#
# Elastic Compliance Matrix: (Units=1/GPa)
#
#
# Indices 1 2 3 4 5 6 
#
# 1 0.009206 -0.003345 0.001269 0.002158 0.002498 0.004948
# 2 -0.003345 0.007955 -0.002916 0.001960 0.000953 -0.000516
# 3 0.001269 -0.002916 0.017856 -0.000559 -0.003699 0.004953
# 4 0.002158 0.001960 -0.000559 0.035968 0.003954 -0.008658
# 5 0.002498 0.000953 -0.003699 0.003954 0.024609 0.003146
# 6 0.004948 -0.000516 0.004953 -0.008658 0.003146 0.026715
#
#
# Mechanical properties :
#
#
# Convention : Reuss Voigt Hill
#
# Bulk Modulus (GPa) = 39.94505 68.65676 54.30090
# Shear Modulus (GPa) = 35.55252 45.87431 40.71342
#
# Velocity S-wave (km/s) = 3.87672 4.40366 4.14857
# Velocity P-wave (km/s) = 6.07654 7.40805 6.77509
#
# Compressibility (1/GPa) = 0.02503439
#
# Stress axis : x y z
#
# Youngs Moduli (GPa) = 108.62269 125.70393 56.00388
#
# Poissons Ratio (x) = 0.42042 -0.07108
# Poissons Ratio (y) = 0.36330 0.16331
# Poissons Ratio (z) = -0.13786 0.36656
#
# Static dielectric constant tensor:
#      x y z
#    x 1.911040 -0.070740 -0.015680 
#    y -0.070740 1.868520 -0.111630 
#    z -0.015680 -0.111630 1.892060 
# 
# From -- ./inp_files/146980.got.cif
#   From: 2010.05.17/outbox.cif.g08.bks.cpg/sg2_74_cif.got.tgz:146980.got - 2010.06.03 11:33:40.
