data_PCOD9028714
_publ_section_title
;
Structure prediction by ZEFSAII (Michael W. Deem and Ramdas Pophale) SiO2 
 PCOD9028714
Probable space group: P -1
;
_chemical_formula_sum "Si O2"
_cell_formula_units_Z 16
_cell_length_a 15.251072
_cell_length_b 15.094869
_cell_length_c 10.418929
_cell_angle_alpha 145.732234
_cell_angle_beta 122.164448
_cell_angle_gamma 35.644087
_cell_volume 712.653278
_symmetry_space_group_name_H-M "P -1"
_symmetry_group_IT_number 2
_symmetry_cell_setting 'triclinic'
loop_
_space_group_symop_operation_xyz
x,y,z
-x,-y,-z
loop_
_atom_site_type_symbol
_atom_site_label
_atom_site_fract_x
_atom_site_fract_y
_atom_site_fract_z
Si Si1 0.307530 0.356172 0.039745
Si Si2 0.603349 0.572974 0.559000
Si Si3 0.097612 0.996622 0.892534
Si Si4 0.722463 0.952240 0.270714
Si Si5 0.167731 0.534439 0.599397
Si Si6 0.961017 0.606406 0.815290
Si Si7 0.968172 0.915846 0.493164
Si Si8 0.318534 0.288786 0.696383
O O1 0.406596 0.338221 0.201243
O O2 0.118681 0.614882 0.238980
O O3 0.344140 0.125824 0.803241
O O4 0.321651 0.397806 0.953905
O O5 0.710274 0.285242 0.294592
O O6 0.720062 0.539494 0.517512
O O7 0.423835 0.795010 0.622994
O O8 0.996652 0.979939 0.720976
O O9 0.078764 0.172540 0.001216
O O10 0.997395 0.166214 0.144478
O O11 0.806550 0.998383 0.464706
O O12 0.862017 0.715118 0.000254
O O13 0.107178 0.435360 0.390605
O O14 0.271922 0.409441 0.664030
O O15 0.160587 0.361469 0.688739
O O16 0.000000 0.000000 0.500000
O O17 0.500000 0.000000 0.500000
#
# Coordination Sequence:
#
# PCOD9028714 Si02
#       8
#     2   2   2   2   2   2   2   2
#     4  11  23  42  66  98 132 173 222 273 324 387
#     4  11  25  41  69  99 133 171 219 284 319 386
#     4  10  22  42  64  95 130 178 218 264 340 388
#     4  12  23  41  67 102 132 167 231 268 327 383
#     4  11  23  47  67  96 135 174 218 271 334 392
#     4  11  23  43  70  94 132 175 218 276 325 399
#     4  11  21  41  63  94 134 178 212 269 329 395
#     4  11  23  38  62  97 130 166 216 266 326 380
#
# _framework density 22.451312000000001
#
# number of rings (size 3 to 8) (size 9 to 14) (size 15 to 20)
#    0.000    1.000    3.750    4.125    1.750    0.500 
#    0.000    6.875    0.000    0.000    0.000    0.000 
#    0.000    0.000    0.000    0.000    0.000    0.000 
#
# Total GULP energy -89350.165741 kJ/mol
# GULP energy per Si atom -5584.385359 kJ/mol
# Density = 2.240021 g / cm^3
# Si number density = 22.451312 Si / 1000 Ang^3
#
#
#
# Elastic Constant Matrix: (Units=GPa)
#
#
# Indices 1 2 3 4 5 6 
#
# 1 44.9044 6.0369 25.6893 3.5970 -3.9801 7.9930
# 2 6.0369 107.5710 50.2667 10.9670 16.0126 5.3273
# 3 25.6893 50.2667 119.2519 -8.0582 11.0124 -4.1864
# 4 3.5970 10.9670 -8.0582 42.3170 11.4312 -12.3492
# 5 -3.9801 16.0126 11.0124 11.4312 27.9993 1.1164
# 6 7.9930 5.3273 -4.1864 -12.3492 1.1164 24.3242
#
#
#
# Elastic Compliance Matrix: (Units=1/GPa)
#
#
# Indices 1 2 3 4 5 6 
#
# 1 0.037425 0.005288 -0.014106 -0.019560 0.016890 -0.026589
# 2 0.005288 0.014225 -0.008079 -0.008728 -0.000217 -0.010665
# 3 -0.014106 -0.008079 0.017432 0.014611 -0.010897 0.017323
# 4 -0.019560 -0.008728 0.014611 0.047434 -0.024339 0.036053
# 5 0.016890 -0.000217 -0.010897 -0.024339 0.053347 -0.022183
# 6 -0.026589 -0.010665 0.017323 0.036053 -0.022183 0.074488
#
#
# Mechanical properties :
#
#
# Convention : Reuss Voigt Hill
#
# Bulk Modulus (GPa) = 28.33881 48.41256 38.37569
# Shear Modulus (GPa) = 17.24687 31.57705 24.41196
#
# Velocity S-wave (km/s) = 2.77463 3.75436 3.30104
# Velocity P-wave (km/s) = 4.78691 6.35640 5.62665
#
# Compressibility (1/GPa) = 0.03528730
#
# Stress axis : x y z
#
# Youngs Moduli (GPa) = 26.72000 70.29763 57.36696
#
# Poissons Ratio (x) = -0.37174 0.80921
# Poissons Ratio (y) = -0.14130 0.46350
# Poissons Ratio (z) = 0.37691 0.56797
#
# Static dielectric constant tensor:
#      x y z
#    x 1.916720 0.037500 -0.012590 
#    y 0.037500 1.866780 0.004400 
#    z -0.012590 0.004400 1.865610 
# 
# From -- ./inp_files/466655.got.cif
#   From: 2010.05.17/outbox.cif.g08.bks.cpg/sg2_234_cif.got.tgz:466655.got - 2010.06.03 11:33:40.
