data_PCOD9028477
_publ_section_title
;
Structure prediction by ZEFSAII (Michael W. Deem and Ramdas Pophale) SiO2 
 PCOD9028477
Probable space group: P -1
;
_chemical_formula_sum "Si O2"
_cell_formula_units_Z 16
_cell_length_a 8.553614
_cell_length_b 17.101505
_cell_length_c 20.225971
_cell_angle_alpha 20.138857
_cell_angle_beta 49.768332
_cell_angle_gamma 57.906077
_cell_volume 745.276604
_symmetry_space_group_name_H-M "P -1"
_symmetry_group_IT_number 2
_symmetry_cell_setting 'triclinic'
loop_
_space_group_symop_operation_xyz
x,y,z
-x,-y,-z
loop_
_atom_site_type_symbol
_atom_site_label
_atom_site_fract_x
_atom_site_fract_y
_atom_site_fract_z
Si Si1 0.413911 0.614470 0.369978
Si Si2 0.136599 0.002893 0.685605
Si Si3 0.890716 0.870054 0.198678
Si Si4 0.761888 0.945750 0.926320
Si Si5 0.247483 0.057013 0.399941
Si Si6 0.672662 0.585699 0.792271
Si Si7 0.766788 0.332897 0.179516
Si Si8 0.616693 0.057780 0.212841
O O1 0.500000 0.500000 0.500000
O O2 0.209249 0.410482 0.561358
O O3 0.352686 0.851778 0.218305
O O4 0.593848 0.710402 0.188032
O O5 0.208028 0.798449 0.790773
O O6 0.291259 0.073998 0.649929
O O7 0.174920 0.217986 0.452949
O O8 0.899636 0.912931 0.851590
O O9 0.068516 0.948247 0.145272
O O10 0.689818 0.965361 0.199047
O O11 0.000000 0.000000 0.000000
O O12 0.310383 0.303782 0.226774
O O13 0.374252 0.034944 0.316549
O O14 0.290993 0.870435 0.588027
O O15 0.000000 0.000000 0.500000
O O16 0.429058 0.556136 0.858994
O O17 0.726565 0.339173 0.967284
O O18 0.000000 0.500000 0.000000
#
# Coordination Sequence:
#
# PCOD9028477 Si02
#       8
#     2   2   2   2   2   2   2   2
#     4  11  23  46  68  97 136 164 220 287 328 398
#     4  10  22  42  62  95 126 167 220 259 325 395
#     4  11  24  45  68 100 133 175 226 275 337 398
#     4  10  24  44  72  96 127 183 217 266 349 392
#     4  11  22  40  62  95 128 168 219 266 328 394
#     4  11  22  42  64  88 135 170 208 275 320 391
#     4  11  22  39  62  91 132 168 209 270 321 384
#     4  11  23  41  66  93 127 175 220 263 333 389
#
# _framework density 21.468537999999999
#
# number of rings (size 3 to 8) (size 9 to 14) (size 15 to 20)
#    0.000    1.250    3.750    2.250    3.500    1.000 
#    9.000    0.000    0.000    0.000    0.000    0.000 
#    0.000    0.000    0.000    0.000    0.000    0.000 
#
# Total GULP energy -89403.959223 kJ/mol
# GULP energy per Si atom -5587.747451 kJ/mol
# Density = 2.141968 g / cm^3
# Si number density = 21.468538 Si / 1000 Ang^3
#
#
#
# Elastic Constant Matrix: (Units=GPa)
#
#
# Indices 1 2 3 4 5 6 
#
# 1 56.3869 4.9498 12.5853 11.1987 2.9994 -0.8700
# 2 4.9498 108.7204 35.9069 39.0474 15.1823 -10.3705
# 3 12.5853 35.9069 123.8791 24.8594 4.5031 0.7778
# 4 11.1987 39.0474 24.8594 41.8104 -3.8131 -6.1854
# 5 2.9994 15.1823 4.5031 -3.8131 39.3987 -2.5340
# 6 -0.8700 -10.3705 0.7778 -6.1854 -2.5340 24.4823
#
#
#
# Elastic Compliance Matrix: (Units=1/GPa)
#
#
# Indices 1 2 3 4 5 6 
#
# 1 0.019337 0.002426 -0.001133 -0.007096 -0.002987 -0.000351
# 2 0.002426 0.016463 -0.001670 -0.015370 -0.007669 0.002436
# 3 -0.001133 -0.001670 0.009569 -0.004238 -0.000917 -0.002217
# 4 -0.007096 -0.015370 -0.004238 0.044620 0.011642 0.005850
# 5 -0.002987 -0.007669 -0.000917 0.011642 0.029970 0.002718
# 6 -0.000351 0.002436 -0.002217 0.005850 0.002718 0.043695
#
#
# Mechanical properties :
#
#
# Convention : Reuss Voigt Hill
#
# Bulk Modulus (GPa) = 22.41438 43.98560 33.19999
# Shear Modulus (GPa) = 27.88926 36.84122 32.36524
#
# Velocity S-wave (km/s) = 3.60818 4.14703 3.88695
# Velocity P-wave (km/s) = 5.27464 6.59267 5.97014
#
# Compressibility (1/GPa) = 0.04461421
#
# Stress axis : x y z
#
# Youngs Moduli (GPa) = 51.71377 60.74348 104.50064
#
# Poissons Ratio (x) = -0.14735 0.11840
# Poissons Ratio (y) = -0.12545 0.17455
# Poissons Ratio (z) = 0.05859 0.10146
#
# Static dielectric constant tensor:
#      x y z
#    x 1.819700 -0.009000 -0.019100 
#    y -0.009000 1.778860 0.020480 
#    z -0.019100 0.020480 1.801700 
# 
# From -- ./inp_files/590865.got.cif
#   From: 2010.05.17/outbox.cif.g08.bks.cpg/sg2_296_cif.got.tgz:590865.got - 2010.06.03 11:33:40.
