data_PCOD9028502
_publ_section_title
;
Structure prediction by ZEFSAII (Michael W. Deem and Ramdas Pophale) SiO2 
 PCOD9028502
Probable space group: P -1
;
_chemical_formula_sum "Si O2"
_cell_formula_units_Z 16
_cell_length_a 16.563599
_cell_length_b 8.660505
_cell_length_c 15.174218
_cell_angle_alpha 84.878188
_cell_angle_beta 27.938047
_cell_angle_gamma 66.702902
_cell_volume 746.157140
_symmetry_space_group_name_H-M "P -1"
_symmetry_group_IT_number 2
_symmetry_cell_setting 'triclinic'
loop_
_space_group_symop_operation_xyz
x,y,z
-x,-y,-z
loop_
_atom_site_type_symbol
_atom_site_label
_atom_site_fract_x
_atom_site_fract_y
_atom_site_fract_z
Si Si1 0.111687 0.811078 0.970040
Si Si2 0.457108 0.630375 0.404167
Si Si3 0.586427 0.679356 0.088745
Si Si4 0.046966 0.517156 0.554748
Si Si5 0.470252 0.078061 0.251146
Si Si6 0.649151 0.963239 0.440710
Si Si7 0.127893 0.835102 0.463592
Si Si8 0.040798 0.060753 0.192469
O O1 0.364398 0.595137 0.711064
O O2 0.922097 0.790664 0.161326
O O3 0.000000 0.000000 0.000000
O O4 0.121796 0.887418 0.051171
O O5 0.582315 0.597226 0.191747
O O6 0.199814 0.719417 0.625598
O O7 0.413713 0.819484 0.485672
O O8 0.408307 0.691153 0.198441
O O9 0.464964 0.919205 0.212871
O O10 0.838839 0.564197 0.810205
O O11 0.000000 0.500000 0.500000
O O12 0.295529 0.301911 0.360624
O O13 0.058516 0.696626 0.540461
O O14 0.395848 0.101639 0.423096
O O15 0.740423 0.963858 0.999741
O O16 0.500000 0.000000 0.500000
O O17 0.039395 0.959147 0.635920
O O18 0.000000 0.000000 0.500000
#
# Coordination Sequence:
#
# PCOD9028502 Si02
#       8
#     2   2   2   2   2   2   2   2
#     4  11  23  41  65  99 136 176 227 283 338 416
#     4   9  22  42  66  96 134 181 224 279 346 395
#     4  10  23  45  66  94 137 175 226 283 337 403
#     4  12  27  43  68 103 133 183 228 283 351 407
#     4  11  23  44  69  96 137 177 228 285 340 412
#     4  10  22  42  63 100 133 179 227 282 340 407
#     4  11  25  45  68  98 136 182 226 283 343 408
#     4  10  23  41  67  94 132 174 229 279 337 405
#
# _framework density 21.443204999999999
#
# number of rings (size 3 to 8) (size 9 to 14) (size 15 to 20)
#    0.000    1.500    1.250    3.000    5.250    5.000 
#    2.250    0.000    0.000    0.000    0.000    0.000 
#    0.000    0.000    0.000    0.000    0.000    0.000 
#
# Total GULP energy -89440.130835 kJ/mol
# GULP energy per Si atom -5590.008177 kJ/mol
# Density = 2.139440 g / cm^3
# Si number density = 21.443205 Si / 1000 Ang^3
#
#
#
# Elastic Constant Matrix: (Units=GPa)
#
#
# Indices 1 2 3 4 5 6 
#
# 1 118.4551 33.8601 45.7991 7.2848 -14.6266 -1.2606
# 2 33.8601 84.6095 49.7858 11.4063 -14.0254 -15.0881
# 3 45.7991 49.7858 155.5218 -7.6128 -23.9527 -4.3155
# 4 7.2848 11.4063 -7.6128 36.8117 5.8237 -13.1417
# 5 -14.6266 -14.0254 -23.9527 5.8237 37.7961 -2.8416
# 6 -1.2606 -15.0881 -4.3155 -13.1417 -2.8416 27.2879
#
#
#
# Elastic Compliance Matrix: (Units=1/GPa)
#
#
# Indices 1 2 3 4 5 6 
#
# 1 0.010414 -0.002649 -0.002128 -0.002884 0.001954 -0.002506
# 2 -0.002649 0.017995 -0.004325 -0.003835 0.004083 0.007722
# 3 -0.002128 -0.004325 0.009079 0.003523 0.002853 0.000940
# 4 -0.002884 -0.003835 0.003523 0.035763 -0.004686 0.015039
# 5 0.001954 0.004083 0.002853 -0.004686 0.031547 0.003827
# 6 -0.002506 0.007722 0.000940 0.015039 0.003827 0.048590
#
#
# Mechanical properties :
#
#
# Convention : Reuss Voigt Hill
#
# Bulk Modulus (GPa) = 51.85993 68.60850 60.23421
# Shear Modulus (GPa) = 28.08647 35.65524 31.87085
#
# Velocity S-wave (km/s) = 3.62305 4.08214 3.85943
# Velocity P-wave (km/s) = 6.46060 7.36773 6.92902
#
# Compressibility (1/GPa) = 0.01928271
#
# Stress axis : x y z
#
# Youngs Moduli (GPa) = 96.02204 55.57097 110.14136
#
# Poissons Ratio (x) = 0.14723 0.23443
# Poissons Ratio (y) = 0.25441 0.47636
# Poissons Ratio (z) = 0.20438 0.24034
#
# Static dielectric constant tensor:
#      x y z
#    x 1.786110 0.010930 0.003540 
#    y 0.010930 1.783160 -0.013930 
#    z 0.003540 -0.013930 1.821190 
# 
# From -- ./inp_files/315289.got.cif
#   From: 2010.05.17/outbox.cif.g08.bks.cpg/sg2_158_cif.got.tgz:315289.got - 2010.06.03 11:33:40.
