data_PCOD9028095
_publ_section_title
;
Structure prediction by ZEFSAII (Michael W. Deem and Ramdas Pophale) SiO2 
 PCOD9028095
Probable space group: P -1
;
_chemical_formula_sum "Si O2"
_cell_formula_units_Z 16
_cell_length_a 14.743775
_cell_length_b 11.722010
_cell_length_c 9.063895
_cell_angle_alpha 68.535562
_cell_angle_beta 99.639830
_cell_angle_gamma 150.660374
_cell_volume 673.726180
_symmetry_space_group_name_H-M "P -1"
_symmetry_group_IT_number 2
_symmetry_cell_setting 'triclinic'
loop_
_space_group_symop_operation_xyz
x,y,z
-x,-y,-z
loop_
_atom_site_type_symbol
_atom_site_label
_atom_site_fract_x
_atom_site_fract_y
_atom_site_fract_z
Si Si1 0.051325 0.811686 0.013623
Si Si2 0.825845 0.314356 0.159081
Si Si3 0.255004 0.463399 0.496941
Si Si4 0.789531 0.298537 0.600561
Si Si5 0.339894 0.049833 0.472065
Si Si6 0.629004 0.005494 0.992544
Si Si7 0.851710 0.954932 0.763486
Si Si8 0.752552 0.580322 0.834710
O O1 0.248580 0.973624 0.945835
O O2 0.889779 0.516895 0.155188
O O3 0.107235 0.959276 0.098282
O O4 0.951602 0.764645 0.874344
O O5 0.796014 0.168222 0.332786
O O6 0.634383 0.088516 0.107201
O O7 0.000000 0.500000 0.000000
O O8 0.228957 0.578020 0.466800
O O9 0.458958 0.669077 0.532715
O O10 0.252961 0.434255 0.336334
O O11 0.064197 0.175502 0.648405
O O12 0.750919 0.213101 0.798388
O O13 0.000000 0.500000 0.500000
O O14 0.633958 0.037197 0.586384
O O15 0.239558 0.038347 0.354773
O O16 0.420801 0.712959 0.023190
O O17 0.722186 0.681911 0.836194
#
# Coordination Sequence:
#
# PCOD9028095 Si02
#       8
#     2   2   2   2   2   2   2   2
#     4  11  25  45  73 102 141 188 239 303 355 416
#     4  10  22  41  71 106 142 180 234 301 366 416
#     4  12  27  45  72 107 140 190 241 299 359 419
#     4  12  23  46  75 108 146 179 237 306 368 421
#     4  12  25  45  72 107 144 187 237 296 363 427
#     4  11  24  45  71 107 142 187 236 298 365 415
#     4  12  28  49  70 103 148 199 242 286 353 425
#     4  12  29  47  71 105 146 196 246 286 347 437
#
# _framework density 23.748521
#
# number of rings (size 3 to 8) (size 9 to 14) (size 15 to 20)
#    0.000    0.500    3.750    4.125    7.000    3.000 
#    0.000    0.000    0.000    0.000    0.000    0.000 
#    0.000    0.000    0.000    0.000    0.000    0.000 
#
# Total GULP energy -89594.465559 kJ/mol
# GULP energy per Si atom -5599.654097 kJ/mol
# Density = 2.369447 g / cm^3
# Si number density = 23.748521 Si / 1000 Ang^3
#
#
#
# Elastic Constant Matrix: (Units=GPa)
#
#
# Indices 1 2 3 4 5 6 
#
# 1 73.1572 51.8268 5.1050 5.1721 4.5220 -13.3400
# 2 51.8268 146.2463 38.1877 28.3176 3.5839 -10.1719
# 3 5.1050 38.1877 43.2200 26.3535 -10.2556 -8.8387
# 4 5.1721 28.3176 26.3535 38.7898 -4.2438 9.1945
# 5 4.5220 3.5839 -10.2556 -4.2438 29.6958 2.5466
# 6 -13.3400 -10.1719 -8.8387 9.1945 2.5466 38.9295
#
#
#
# Elastic Compliance Matrix: (Units=1/GPa)
#
#
# Indices 1 2 3 4 5 6 
#
# 1 0.020819 -0.008301 0.009913 -0.005502 -0.000263 0.008533
# 2 -0.008301 0.012841 -0.011253 -0.000693 -0.004133 -0.001610
# 3 0.009913 -0.011253 0.066139 -0.042256 0.014550 0.024501
# 4 -0.005502 -0.000693 -0.042256 0.061612 -0.002634 -0.026040
# 5 -0.000263 -0.004133 0.014550 -0.002634 0.038844 0.000215
# 6 0.008533 -0.001610 0.024501 -0.026040 0.000215 0.039890
#
#
# Mechanical properties :
#
#
# Convention : Reuss Voigt Hill
#
# Bulk Modulus (GPa) = 12.41986 50.31806 31.36896
# Shear Modulus (GPa) = 17.46620 32.64995 25.05808
#
# Velocity S-wave (km/s) = 2.71489 3.71188 3.25182
# Velocity P-wave (km/s) = 3.88183 6.29322 5.22844
#
# Compressibility (1/GPa) = 0.08051623
#
# Stress axis : x y z
#
# Youngs Moduli (GPa) = 48.03217 77.87294 15.11975
#
# Poissons Ratio (x) = 0.64644 -0.14988
# Poissons Ratio (y) = 0.39872 0.17015
# Poissons Ratio (z) = -0.47613 0.87633
#
# Static dielectric constant tensor:
#      x y z
#    x 1.927290 0.024910 -0.010760 
#    y 0.024910 1.972340 0.037340 
#    z -0.010760 0.037340 1.923340 
# 
# From -- ./inp_files/307071.got.cif
#   From: 2010.05.17/outbox.cif.g08.bks.cpg/sg2_154_cif.got.tgz:307071.got - 2010.06.03 11:33:40.
