data_PCOD9028906
_publ_section_title
;
Structure prediction by ZEFSAII (Michael W. Deem and Ramdas Pophale) SiO2 
 PCOD9028906
Probable space group: P -1
;
_chemical_formula_sum "Si O2"
_cell_formula_units_Z 16
_cell_length_a 20.585944
_cell_length_b 7.581339
_cell_length_c 11.798937
_cell_angle_alpha 95.771203
_cell_angle_beta 40.370700
_cell_angle_gamma 125.856320
_cell_volume 727.511542
_symmetry_space_group_name_H-M "P -1"
_symmetry_group_IT_number 2
_symmetry_cell_setting 'triclinic'
loop_
_space_group_symop_operation_xyz
x,y,z
-x,-y,-z
loop_
_atom_site_type_symbol
_atom_site_label
_atom_site_fract_x
_atom_site_fract_y
_atom_site_fract_z
Si Si1 0.436664 0.113714 0.111873
Si Si2 0.860550 0.706567 0.013018
Si Si3 0.774239 0.158410 0.404166
Si Si4 0.294346 0.948568 0.044970
Si Si5 0.467091 0.891876 0.662836
Si Si6 0.749272 0.743015 0.842062
Si Si7 0.041197 0.291500 0.339756
Si Si8 0.012680 0.765853 0.027074
O O1 0.289202 0.926857 0.387524
O O2 0.382342 0.094250 0.058134
O O3 0.584528 0.437702 0.985703
O O4 0.500000 0.000000 0.000000
O O5 0.969458 0.747089 0.783219
O O6 0.874062 0.636638 0.114089
O O7 0.681475 0.452103 0.181292
O O8 0.934079 0.001435 0.948963
O O9 0.834502 0.071974 0.246736
O O10 0.618728 0.019926 0.534351
O O11 0.933491 0.503801 0.192674
O O12 0.128663 0.602633 0.262023
O O13 0.277333 0.124492 0.032027
O O14 0.399952 0.965657 0.827346
O O15 0.500000 0.000000 0.500000
O O16 0.838682 0.696371 0.772232
O O17 0.872880 0.006100 0.604561
#
# Coordination Sequence:
#
# PCOD9028906 Si02
#       8
#     2   2   2   2   2   2   2   2
#     4  12  23  43  67  96 137 172 221 279 326 398
#     4  10  22  42  65  94 130 172 222 272 336 395
#     4  11  24  43  67  96 133 172 226 273 338 394
#     4  11  24  43  66  98 134 175 223 273 334 396
#     4  11  22  41  65  93 133 172 217 276 330 396
#     4  11  24  42  65 102 130 178 219 269 343 391
#     4  10  23  42  66  96 137 169 223 276 327 404
#     4  10  24  43  65  96 128 176 223 277 330 399
#
# _framework density 21.992778999999999
#
# number of rings (size 3 to 8) (size 9 to 14) (size 15 to 20)
#    0.000    1.250    3.750    1.500    3.500    2.500 
#    2.250    0.000    0.000    0.000    0.000    0.000 
#    0.000    0.000    0.000    0.000    0.000    0.000 
#
# Total GULP energy -89338.664458 kJ/mol
# GULP energy per Si atom -5583.666529 kJ/mol
# Density = 2.194272 g / cm^3
# Si number density = 21.992779 Si / 1000 Ang^3
#
#
#
# Elastic Constant Matrix: (Units=GPa)
#
#
# Indices 1 2 3 4 5 6 
#
# 1 30.0990 35.0991 18.7430 15.4360 10.3054 1.1499
# 2 35.0991 132.7151 30.0610 -12.0818 -17.4498 -11.3223
# 3 18.7430 30.0610 98.4962 -7.5383 -6.1541 12.4756
# 4 15.4360 -12.0818 -7.5383 7.4223 -17.0857 8.8667
# 5 10.3054 -17.4498 -6.1541 -17.0857 25.0166 8.4342
# 6 1.1499 -11.3223 12.4756 8.8667 8.4342 29.6724
#
#
#
# Elastic Compliance Matrix: (Units=1/GPa)
#
#
# Indices 1 2 3 4 5 6 
#
# 1 0.014478 -0.001067 0.002433 0.026046 0.016561 -0.014482
# 2 -0.001067 0.008195 -0.004385 -0.009117 -0.004157 0.008918
# 3 0.002433 -0.004385 0.010869 -0.005224 -0.003699 -0.003725
# 4 0.026046 -0.009117 -0.005224 -0.007125 -0.025643 0.007126
# 5 0.016561 -0.004157 -0.003699 -0.025643 0.010476 0.004012
# 6 -0.014482 0.008918 -0.003725 0.007126 0.004012 0.035962
#
#
# Mechanical properties :
#
#
# Convention : Reuss Voigt Hill
#
# Bulk Modulus (GPa) = 36.35862 47.67960 42.01911
# Shear Modulus (GPa) = 56.77889 24.24944 40.51416
#
# Velocity S-wave (km/s) = 5.08656 3.32416 4.29669
# Velocity P-wave (km/s) = 7.14601 6.03822 6.61534
#
# Compressibility (1/GPa) = 0.02750379
#
# Stress axis : x y z
#
# Youngs Moduli (GPa) = 69.06855 122.03144 92.00560
#
# Poissons Ratio (x) = 0.13021 -0.22385
# Poissons Ratio (y) = 0.07370 0.40345
# Poissons Ratio (z) = -0.16804 0.53511
#
# Static dielectric constant tensor:
#      x y z
#    x 1.859630 -0.033280 -0.010710 
#    y -0.033280 1.768350 0.016430 
#    z -0.010710 0.016430 1.859970 
# 
# From -- ./inp_files/474245.got.cif
#   From: 2010.05.17/outbox.cif.g08.bks.cpg/sg2_238_cif.got.tgz:474245.got - 2010.06.03 11:33:40.
