data_PCOD9028003
_publ_section_title
;
Structure prediction by ZEFSAII (Michael W. Deem and Ramdas Pophale) SiO2 
 PCOD9028003
Probable space group: P -1
;
_chemical_formula_sum "Si O2"
_cell_formula_units_Z 14
_cell_length_a 14.085264
_cell_length_b 8.346227
_cell_length_c 9.861714
_cell_angle_alpha 72.905065
_cell_angle_beta 81.315588
_cell_angle_gamma 35.973458
_cell_volume 643.071538
_symmetry_space_group_name_H-M "P -1"
_symmetry_group_IT_number 2
_symmetry_cell_setting 'triclinic'
loop_
_space_group_symop_operation_xyz
x,y,z
-x,-y,-z
loop_
_atom_site_type_symbol
_atom_site_label
_atom_site_fract_x
_atom_site_fract_y
_atom_site_fract_z
Si Si1 0.320033 0.344961 0.113852
Si Si2 0.770780 0.260471 0.776839
Si Si3 0.267004 0.980178 0.501616
Si Si4 0.658224 0.736339 0.166981
Si Si5 0.502353 0.606236 0.288934
Si Si6 0.686492 0.731753 0.573990
Si Si7 0.982313 0.192174 0.366236
O O1 0.241925 0.632660 0.101445
O O2 0.278692 0.289861 0.266533
O O3 0.518961 0.069454 0.145091
O O4 0.273381 0.338629 0.980631
O O5 0.633177 0.313434 0.778125
O O6 0.733534 0.468378 0.627230
O O7 0.941810 0.950745 0.763393
O O8 0.415452 0.772789 0.410130
O O9 0.336559 0.736915 0.644498
O O10 0.242123 0.197285 0.518542
O O11 0.102758 0.152508 0.421840
O O12 0.559420 0.699969 0.190530
O O13 0.798176 0.513944 0.302937
O O14 0.500000 0.000000 0.500000
O O15 0.000000 0.000000 0.500000
#
# Coordination Sequence:
#
# PCOD9028003 Si02
#       7
#     2   2   2   2   2   2   2
#     4   9  22  38  60  80 113 157 189 227 278 339
#     4   9  21  36  57  84 109 150 188 227 290 326
#     4  10  18  33  55  86 112 148 186 228 286 335
#     4  11  21  38  59  84 117 147 193 232 279 334
#     4  10  17  31  60  83 109 149 188 230 275 339
#     4  10  18  35  60  81 106 147 193 227 263 346
#     4  11  23  35  57  88 116 145 184 244 287 322
#
# _framework density 21.770517000000002
#
# number of rings (size 3 to 8) (size 9 to 14) (size 15 to 20)
#    0.857    1.143    4.286    0.000    2.000    1.143 
#    0.000    2.857    0.000    0.000    0.000    0.000 
#    0.000    0.000    0.000    0.000    0.000    0.000 
#
# Total GULP energy -77949.885878 kJ/mol
# GULP energy per Si atom -5567.848991 kJ/mol
# Density = 2.172097 g / cm^3
# Si number density = 21.770517 Si / 1000 Ang^3
#
#
#
# Elastic Constant Matrix: (Units=GPa)
#
#
# Indices 1 2 3 4 5 6 
#
# 1 90.5184 23.3128 2.0240 -8.5072 -5.0657 6.4331
# 2 23.3128 66.1223 2.8588 -2.2276 6.3287 -4.5560
# 3 2.0240 2.8588 47.6125 -7.0782 0.8804 -6.1300
# 4 -8.5072 -2.2276 -7.0782 28.5400 0.1781 12.7217
# 5 -5.0657 6.3287 0.8804 0.1781 17.6376 -4.6399
# 6 6.4331 -4.5560 -6.1300 12.7217 -4.6399 17.5456
#
#
#
# Elastic Compliance Matrix: (Units=1/GPa)
#
#
# Indices 1 2 3 4 5 6 
#
# 1 0.014628 -0.005994 -0.000599 0.009724 0.002744 -0.013454
# 2 -0.005994 0.018256 -0.000278 -0.004028 -0.006072 0.008156
# 3 -0.000599 -0.000278 0.022211 0.002559 0.000414 0.006161
# 4 0.009724 -0.004028 0.002559 0.060762 -0.009749 -0.050352
# 5 0.002744 -0.006072 0.000414 -0.009749 0.065518 0.021957
# 6 -0.013454 0.008156 0.006161 -0.050352 0.021957 0.108512
#
#
# Mechanical properties :
#
#
# Convention : Reuss Voigt Hill
#
# Bulk Modulus (GPa) = 24.18160 28.96050 26.57105
# Shear Modulus (GPa) = 15.75232 24.48183 20.11708
#
# Velocity S-wave (km/s) = 2.69283 3.35706 3.04312
# Velocity P-wave (km/s) = 4.56071 5.32522 4.95772
#
# Compressibility (1/GPa) = 0.04135376
#
# Stress axis : x y z
#
# Youngs Moduli (GPa) = 68.36164 54.77631 45.02250
#
# Poissons Ratio (x) = 0.32831 0.02698
# Poissons Ratio (y) = 0.40973 0.01251
# Poissons Ratio (z) = 0.04097 0.01522
#
# Static dielectric constant tensor:
#      x y z
#    x 1.771370 0.036170 -0.008640 
#    y 0.036170 1.882060 0.051360 
#    z -0.008640 0.051360 1.824720 
# 
# From -- ./inp_files/202146.got.cif
#   From: 2010.05.17/outbox.cif.g08.bks.cpg/sg2_102_cif.got.tgz:202146.got - 2010.06.03 11:33:40.
