data_PCOD9028230
_publ_section_title
;
Structure prediction by ZEFSAII (Michael W. Deem and Ramdas Pophale) SiO2 
 PCOD9028230
Probable space group: P -1
;
_chemical_formula_sum "Si O2"
_cell_formula_units_Z 14
_cell_length_a 8.897502
_cell_length_b 10.188502
_cell_length_c 8.339794
_cell_angle_alpha 87.258337
_cell_angle_beta 94.345413
_cell_angle_gamma 130.065991
_cell_volume 576.921808
_symmetry_space_group_name_H-M "P -1"
_symmetry_group_IT_number 2
_symmetry_cell_setting 'triclinic'
loop_
_space_group_symop_operation_xyz
x,y,z
-x,-y,-z
loop_
_atom_site_type_symbol
_atom_site_label
_atom_site_fract_x
_atom_site_fract_y
_atom_site_fract_z
Si Si1 0.823834 0.350914 0.666938
Si Si2 0.575333 0.201155 0.949543
Si Si3 0.111929 0.159394 0.381634
Si Si4 0.207934 0.443305 0.582088
Si Si5 0.916311 0.278395 0.155267
Si Si6 0.744587 0.562901 0.050434
Si Si7 0.775893 0.869644 0.931667
O O1 0.732719 0.393098 0.519184
O O2 0.970773 0.327111 0.601844
O O3 0.975817 0.537701 0.758942
O O4 0.656183 0.205046 0.782028
O O5 0.695576 0.194914 0.099921
O O6 0.649379 0.393315 0.952819
O O7 0.351407 0.091774 0.992387
O O8 0.968775 0.179356 0.269417
O O9 0.242430 0.333423 0.485313
O O10 0.222669 0.133849 0.259839
O O11 0.000000 0.000000 0.500000
O O12 0.293590 0.477408 0.763678
O O13 0.026092 0.323319 0.989931
O O14 0.695839 0.681279 0.985141
O O15 0.000000 0.000000 0.000000
#
# Coordination Sequence:
#
# PCOD9028230 Si02
#       7
#     2   2   2   2   2   2   2
#     4   9  17  31  60  99 123 144 184 253 312 343
#     4  11  19  38  63  94 118 151 211 256 289 354
#     4  10  22  40  60  80 120 169 197 236 303 367
#     4  10  17  31  62  92 126 148 186 243 312 355
#     4   9  17  34  63  91 118 152 199 250 293 353
#     4  10  18  35  63  93 121 156 193 247 304 357
#     4  11  25  42  60  80 120 172 209 244 298 359
#
# _framework density 24.266718999999998
#
# number of rings (size 3 to 8) (size 9 to 14) (size 15 to 20)
#    0.000    2.000    2.857    3.000    0.000    0.000 
#    0.000    7.857    0.000    0.000    0.000    0.000 
#    0.000    0.000    0.000    0.000    0.000    0.000 
#
# Total GULP energy -78247.046739 kJ/mol
# GULP energy per Si atom -5589.074767 kJ/mol
# Density = 2.421149 g / cm^3
# Si number density = 24.266719 Si / 1000 Ang^3
#
#
#
# Elastic Constant Matrix: (Units=GPa)
#
#
# Indices 1 2 3 4 5 6 
#
# 1 87.8826 21.9122 16.1432 -14.2321 -15.5126 18.6439
# 2 21.9122 55.7997 10.5006 -16.4951 -6.8694 -8.3918
# 3 16.1432 10.5006 143.6117 -18.0749 -11.7572 9.2399
# 4 -14.2321 -16.4951 -18.0749 34.4735 -13.6277 -2.1883
# 5 -15.5126 -6.8694 -11.7572 -13.6277 39.5058 -5.5111
# 6 18.6439 -8.3918 9.2399 -2.1883 -5.5111 37.3915
#
#
#
# Elastic Compliance Matrix: (Units=1/GPa)
#
#
# Indices 1 2 3 4 5 6 
#
# 1 0.016614 -0.004832 0.000485 0.007126 0.007168 -0.008015
# 2 -0.004832 0.027336 0.000713 0.016158 0.010150 0.010810
# 3 0.000485 0.000713 0.008167 0.006707 0.004922 -0.000982
# 4 0.007126 0.016158 0.006707 0.054266 0.027102 0.005586
# 5 0.007168 0.010150 0.004922 0.027102 0.041429 0.005180
# 6 -0.008015 0.010810 -0.000982 0.005586 0.005180 0.034499
#
#
# Mechanical properties :
#
#
# Convention : Reuss Voigt Hill
#
# Bulk Modulus (GPa) = 22.29637 42.71179 32.50408
# Shear Modulus (GPa) = 24.44664 38.19003 31.31834
#
# Velocity S-wave (km/s) = 3.17742 3.97137 3.59637
# Velocity P-wave (km/s) = 4.76123 6.21838 5.53794
#
# Compressibility (1/GPa) = 0.04485036
#
# Stress axis : x y z
#
# Youngs Moduli (GPa) = 60.18993 36.58177 122.44806
#
# Poissons Ratio (x) = 0.17676 -0.05940
# Poissons Ratio (y) = 0.29083 -0.08736
# Poissons Ratio (z) = -0.02920 -0.02610
#
# Static dielectric constant tensor:
#      x y z
#    x 2.276140 0.165790 -0.038420 
#    y 0.165790 2.038990 -0.009510 
#    z -0.038420 -0.009510 1.926080 
# 
# From -- ./inp_files/177896.got.cif
#   From: 2010.05.17/outbox.cif.g08.bks.cpg/sg2_89_cif.got.tgz:177896.got - 2010.06.03 11:33:40.
