data_PCOD9028208
_publ_section_title
;
Structure prediction by ZEFSAII (Michael W. Deem and Ramdas Pophale) SiO2 
 PCOD9028208
Probable space group: P -1
;
_chemical_formula_sum "Si O2"
_cell_formula_units_Z 12
_cell_length_a 12.416698
_cell_length_b 10.896592
_cell_length_c 5.497791
_cell_angle_alpha 120.407498
_cell_angle_beta 66.305158
_cell_angle_gamma 137.971625
_cell_volume 429.072036
_symmetry_space_group_name_H-M "P -1"
_symmetry_group_IT_number 2
_symmetry_cell_setting 'triclinic'
loop_
_space_group_symop_operation_xyz
x,y,z
-x,-y,-z
loop_
_atom_site_type_symbol
_atom_site_label
_atom_site_fract_x
_atom_site_fract_y
_atom_site_fract_z
Si Si1 0.910509 0.577237 0.226006
Si Si2 0.352215 0.986749 0.620847
Si Si3 0.759801 0.667145 0.800870
Si Si4 0.691542 0.162861 0.981137
Si Si5 0.591222 0.682105 0.355359
Si Si6 0.117144 0.989209 0.244925
O O1 0.879978 0.642211 0.571109
O O2 0.734470 0.363747 0.140322
O O3 0.999211 0.756959 0.145087
O O4 0.000000 0.500000 0.000000
O O5 0.248634 0.854126 0.346376
O O6 0.500000 0.000000 0.500000
O O7 0.418842 0.197446 0.714981
O O8 0.266120 0.885678 0.854016
O O9 0.594979 0.514953 0.634855
O O10 0.844573 0.891274 0.913164
O O11 0.684162 0.624137 0.093965
O O12 0.500000 0.000000 0.000000
O O13 0.709484 0.852373 0.615121
O O14 0.000000 0.000000 0.500000
#
# Coordination Sequence:
#
# PCOD9028208 Si02
#       6
#     2   2   2   2   2   2
#     4  11  24  44  71 106 145 196 247 305 388 448
#     4  10  22  41  72 110 148 187 247 321 375 439
#     4  10  24  46  71 107 143 191 259 304 384 444
#     4  10  22  45  70 108 147 191 254 313 371 445
#     4  11  23  44  76 106 143 198 253 316 371 452
#     4  10  24  47  69 104 150 195 244 306 385 457
#
# _framework density 27.967331000000001
#
# number of rings (size 3 to 8) (size 9 to 14) (size 15 to 20)
#    0.000    1.667    0.000    3.500    4.667    2.667 
#   33.000    1.667    0.000    0.000    0.000    0.000 
#    0.000    0.000    0.000    0.000    0.000    0.000 
#
# Total GULP energy -66849.790036 kJ/mol
# GULP energy per Si atom -5570.815836 kJ/mol
# Density = 2.790368 g / cm^3
# Si number density = 27.967331 Si / 1000 Ang^3
#
#
#
# Elastic Constant Matrix: (Units=GPa)
#
#
# Indices 1 2 3 4 5 6 
#
# 1 93.3517 49.3489 21.9086 3.3771 -5.9571 4.7946
# 2 49.3489 252.9058 61.1638 25.6002 -5.1423 -23.4693
# 3 21.9086 61.1638 152.4855 -1.9215 -1.0660 -8.1232
# 4 3.3771 25.6002 -1.9215 56.9236 3.4232 -13.3220
# 5 -5.9571 -5.1423 -1.0660 3.4232 61.1410 4.6009
# 6 4.7946 -23.4693 -8.1232 -13.3220 4.6009 36.5061
#
#
#
# Elastic Compliance Matrix: (Units=1/GPa)
#
#
# Indices 1 2 3 4 5 6 
#
# 1 0.012565 -0.002471 -0.001019 -0.000654 0.001327 -0.003872
# 2 -0.002471 0.005249 -0.001625 -0.001633 0.000058 0.002735
# 3 -0.001019 -0.001625 0.007439 0.001358 -0.000278 0.001275
# 4 -0.000654 -0.001633 0.001358 0.020113 -0.001823 0.006908
# 5 0.001327 0.000058 -0.000278 -0.001823 0.016811 -0.002983
# 6 -0.003872 0.002735 0.001275 0.006908 -0.002983 0.032840
#
#
# Mechanical properties :
#
#
# Convention : Reuss Voigt Hill
#
# Bulk Modulus (GPa) = 66.56652 84.84282 75.70467
# Shear Modulus (GPa) = 45.34875 55.33557 50.34216
#
# Velocity S-wave (km/s) = 4.03114 4.45295 4.24728
# Velocity P-wave (km/s) = 6.74685 7.53927 7.15404
#
# Compressibility (1/GPa) = 0.01502257
#
# Stress axis : x y z
#
# Youngs Moduli (GPa) = 79.58604 190.49441 134.42040
#
# Poissons Ratio (x) = 0.47078 0.13700
# Poissons Ratio (y) = 0.19669 0.21844
# Poissons Ratio (z) = 0.08112 0.30956
#
# Static dielectric constant tensor:
#      x y z
#    x -0.215550 2.153610 1.160970 
#    y 2.153610 0.798210 -1.005610 
#    z 1.160970 -1.005610 1.827480 
# 
# From -- ./inp_files/94029.got.cif
#   From: 2010.05.17/outbox.cif.g08.bks.cpg/sg2_48_cif.got.tgz:94029.got - 2010.06.03 11:33:40.
