data_PCOD9028959
_publ_section_title
;
Structure prediction by ZEFSAII (Michael W. Deem and Ramdas Pophale) SiO2 
 PCOD9028959
Probable space group: P -1
;
_chemical_formula_sum "Si O2"
_cell_formula_units_Z 16
_cell_length_a 8.929526
_cell_length_b 23.967894
_cell_length_c 8.294134
_cell_angle_alpha 117.186339
_cell_angle_beta 129.716388
_cell_angle_gamma 34.013696
_cell_volume 752.821268
_symmetry_space_group_name_H-M "P -1"
_symmetry_group_IT_number 2
_symmetry_cell_setting 'triclinic'
loop_
_space_group_symop_operation_xyz
x,y,z
-x,-y,-z
loop_
_atom_site_type_symbol
_atom_site_label
_atom_site_fract_x
_atom_site_fract_y
_atom_site_fract_z
Si Si1 0.836438 0.896313 0.520941
Si Si2 0.304510 0.489023 0.785458
Si Si3 0.199803 0.688044 0.637238
Si Si4 0.290440 0.293664 0.776626
Si Si5 0.752425 0.099925 0.075245
Si Si6 0.718834 0.285606 0.925966
Si Si7 0.344040 0.099919 0.950089
Si Si8 0.144459 0.492593 0.331593
O O1 0.803497 0.880197 0.297075
O O2 0.009418 0.799468 0.615043
O O3 0.050298 0.902644 0.686220
O O4 0.500000 0.000000 0.500000
O O5 0.168269 0.527073 0.560824
O O6 0.033274 0.527255 0.765356
O O7 0.500000 0.500000 0.000000
O O8 0.548869 0.369375 0.784600
O O9 0.313942 0.666268 0.869658
O O10 0.509351 0.603556 0.628537
O O11 0.950648 0.695946 0.446516
O O12 0.068385 0.411266 0.809624
O O13 0.491241 0.206096 0.935499
O O14 0.554114 0.259894 0.800859
O O15 0.586570 0.092429 0.065479
O O16 0.000000 0.000000 0.000000
O O17 0.078934 0.188853 0.006173
O O18 0.500000 0.000000 0.000000
#
# Coordination Sequence:
#
# PCOD9028959 Si02
#       8
#     2   2   2   2   2   2   2   2
#     4  12  24  44  71 101 131 174 225 277 338 407
#     4  10  22  42  65  96 143 180 224 281 340 391
#     4  12  23  42  70 100 136 181 231 278 333 402
#     4  11  23  43  69 100 136 177 231 280 330 404
#     4  12  24  45  73 102 131 176 223 281 340 404
#     4  11  25  42  65 101 137 177 226 280 337 395
#     4  12  26  44  70 100 137 169 219 284 342 402
#     4  10  24  41  66 102 136 183 231 281 330 404
#
# _framework density 21.253385999999999
#
# number of rings (size 3 to 8) (size 9 to 14) (size 15 to 20)
#    0.000    0.750    3.750    3.375    0.000    5.500 
#    0.000    0.000    0.000    0.000    0.000    0.000 
#    0.000    0.000    0.000    0.000    0.000    0.000 
#
# Total GULP energy -89397.542716 kJ/mol
# GULP energy per Si atom -5587.346420 kJ/mol
# Density = 2.120501 g / cm^3
# Si number density = 21.253386 Si / 1000 Ang^3
#
#
#
# Elastic Constant Matrix: (Units=GPa)
#
#
# Indices 1 2 3 4 5 6 
#
# 1 150.6295 61.8767 46.2394 -0.0102 49.3863 -4.5248
# 2 61.8767 94.2654 -4.7687 -21.7234 9.9126 -8.7354
# 3 46.2394 -4.7687 99.8702 3.4897 39.1948 -10.7629
# 4 -0.0102 -21.7234 3.4897 35.2257 7.2993 -6.2466
# 5 49.3863 9.9126 39.1948 7.2993 54.8764 -4.2238
# 6 -4.5248 -8.7354 -10.7629 -6.2466 -4.2238 42.5532
#
#
#
# Elastic Compliance Matrix: (Units=1/GPa)
#
#
# Indices 1 2 3 4 5 6 
#
# 1 0.014837 -0.010610 -0.004484 -0.005053 -0.007811 -0.003252
# 2 -0.010610 0.021819 0.006308 0.014117 -0.000237 0.006995
# 3 -0.004484 0.006308 0.016271 0.004992 -0.009022 0.004771
# 4 -0.005053 0.014117 0.004992 0.039430 -0.006136 0.008803
# 5 -0.007811 -0.000237 -0.009022 -0.006136 0.032491 -0.000837
# 6 -0.003252 0.006995 0.004771 0.008803 -0.000837 0.027006
#
#
# Mechanical properties :
#
#
# Convention : Reuss Voigt Hill
#
# Bulk Modulus (GPa) = 28.28624 61.27332 44.77978
# Shear Modulus (GPa) = 27.59208 42.62560 35.10884
#
# Velocity S-wave (km/s) = 3.60702 4.48324 4.06879
# Velocity P-wave (km/s) = 5.53944 7.46269 6.57180
#
# Compressibility (1/GPa) = 0.03535288
#
# Stress axis : x y z
#
# Youngs Moduli (GPa) = 67.39891 45.83252 61.45981
#
# Poissons Ratio (x) = 0.48630 0.27561
# Poissons Ratio (y) = 0.71513 -0.38769
# Poissons Ratio (z) = 0.30224 -0.28911
#
# Static dielectric constant tensor:
#      x y z
#    x 1.741390 0.006090 0.002360 
#    y 0.006090 1.752660 0.017410 
#    z 0.002360 0.017410 1.764660 
# 
# From -- ./inp_files/218781.got.cif
#   From: 2010.05.17/outbox.cif.g08.bks.cpg/sg2_110_cif.got.tgz:218781.got - 2010.06.03 11:33:40.
