data_PCOD9028690
_publ_section_title
;
Structure prediction by ZEFSAII (Michael W. Deem and Ramdas Pophale) SiO2 
 PCOD9028690
Probable space group: P -1
;
_chemical_formula_sum "Si O2"
_cell_formula_units_Z 16
_cell_length_a 13.309946
_cell_length_b 12.878419
_cell_length_c 11.658953
_cell_angle_alpha 70.702300
_cell_angle_beta 97.814471
_cell_angle_gamma 35.441838
_cell_volume 735.210040
_symmetry_space_group_name_H-M "P -1"
_symmetry_group_IT_number 2
_symmetry_cell_setting 'triclinic'
loop_
_space_group_symop_operation_xyz
x,y,z
-x,-y,-z
loop_
_atom_site_type_symbol
_atom_site_label
_atom_site_fract_x
_atom_site_fract_y
_atom_site_fract_z
Si Si1 0.044927 0.266344 0.035625
Si Si2 0.515010 0.038813 0.863576
Si Si3 0.902966 0.168771 0.647287
Si Si4 0.823394 0.998599 0.453188
Si Si5 0.468382 0.867384 0.813425
Si Si6 0.854095 0.036258 0.004934
Si Si7 0.374487 0.395369 0.824348
Si Si8 0.364992 0.794054 0.414215
O O1 0.190419 0.228807 0.025946
O O2 0.221635 0.042051 0.248164
O O3 0.755438 0.576933 0.912935
O O4 0.049078 0.166741 0.975625
O O5 0.396112 0.278115 0.774605
O O6 0.396142 0.066953 0.750582
O O7 0.500000 0.000000 0.000000
O O8 0.638803 0.500885 0.502521
O O9 0.814988 0.131590 0.667203
O O10 0.059779 0.026632 0.605755
O O11 0.083387 0.029103 0.827982
O O12 0.074595 0.717130 0.669263
O O13 0.719068 0.009438 0.346776
O O14 0.611998 0.230925 0.434301
O O15 0.503804 0.773345 0.977611
O O16 0.544328 0.332197 0.838532
O O17 0.000000 0.000000 0.000000
#
# Coordination Sequence:
#
# PCOD9028690 Si02
#       8
#     2   2   2   2   2   2   2   2
#     4  11  21  41  66  93 132 166 214 273 323 383
#     4   9  21  40  69  94 121 171 211 269 333 380
#     4  11  23  41  63  93 135 175 220 262 320 387
#     4  12  24  43  66  98 133 171 219 265 322 388
#     4  11  22  42  65  93 126 168 218 265 324 386
#     4  11  21  39  64  95 125 177 219 260 325 388
#     4  10  22  42  64  93 133 164 213 271 321 377
#     4  11  24  41  63  95 133 174 214 273 320 378
#
# _framework density 21.76249
#
# number of rings (size 3 to 8) (size 9 to 14) (size 15 to 20)
#    0.000    1.250    3.750    3.000    1.750    0.500 
#    2.250    2.500    0.000    0.000    0.000    0.000 
#    0.000    0.000    0.000    0.000    0.000    0.000 
#
# Total GULP energy -89315.030344 kJ/mol
# GULP energy per Si atom -5582.189396 kJ/mol
# Density = 2.171296 g / cm^3
# Si number density = 21.762490 Si / 1000 Ang^3
#
#
#
# Elastic Constant Matrix: (Units=GPa)
#
#
# Indices 1 2 3 4 5 6 
#
# 1 123.4739 23.8288 31.3599 4.9984 14.0566 -16.5653
# 2 23.8288 86.1153 20.8246 19.7374 1.1289 -11.7526
# 3 31.3599 20.8246 70.0140 14.6891 10.2488 -2.8102
# 4 4.9984 19.7374 14.6891 36.7896 -2.6638 7.1302
# 5 14.0566 1.1289 10.2488 -2.6638 24.3320 7.4187
# 6 -16.5653 -11.7526 -2.8102 7.1302 7.4187 32.4461
#
#
#
# Elastic Compliance Matrix: (Units=1/GPa)
#
#
# Indices 1 2 3 4 5 6 
#
# 1 0.010849 -0.000839 -0.002875 -0.001777 -0.007364 0.007060
# 2 -0.000839 0.015435 -0.001524 -0.009274 -0.002967 0.007747
# 3 -0.002875 -0.001524 0.018895 -0.007515 -0.007993 0.003096
# 4 -0.001777 -0.009274 -0.007515 0.039690 0.014110 -0.016866
# 5 -0.007364 -0.002967 -0.007993 0.014110 0.057006 -0.021662
# 6 0.007060 0.007747 0.003096 -0.016866 -0.021662 0.046158
#
#
# Mechanical properties :
#
#
# Convention : Reuss Voigt Hill
#
# Bulk Modulus (GPa) = 28.81724 47.95887 38.38805
# Shear Modulus (GPa) = 23.80085 32.28618 28.04351
#
# Velocity S-wave (km/s) = 3.31065 3.85589 3.59363
# Velocity P-wave (km/s) = 5.28056 6.47373 5.90734
#
# Compressibility (1/GPa) = 0.03470145
#
# Stress axis : x y z
#
# Youngs Moduli (GPa) = 92.17774 64.78819 52.92412
#
# Poissons Ratio (x) = 0.05437 0.15218
# Poissons Ratio (y) = 0.07735 0.08066
# Poissons Ratio (z) = 0.26504 0.09874
#
# Static dielectric constant tensor:
#      x y z
#    x 1.803850 -0.020110 -0.032730 
#    y -0.020110 1.869820 0.015340 
#    z -0.032730 0.015340 1.791150 
# 
# From -- ./inp_files/398837.got.cif
#   From: 2010.05.17/outbox.cif.g08.bks.cpg/sg2_200_cif.got.tgz:398837.got - 2010.06.03 11:33:40.
