data_PCOD9028323
_publ_section_title
;
Structure prediction by ZEFSAII (Michael W. Deem and Ramdas Pophale) SiO2 
 PCOD9028323
Probable space group: P -1
;
_chemical_formula_sum "Si O2"
_cell_formula_units_Z 12
_cell_length_a 6.712515
_cell_length_b 16.666210
_cell_length_c 10.307918
_cell_angle_alpha 31.463428
_cell_angle_beta 75.033340
_cell_angle_gamma 73.065663
_cell_volume 575.691584
_symmetry_space_group_name_H-M "P -1"
_symmetry_group_IT_number 2
_symmetry_cell_setting 'triclinic'
loop_
_space_group_symop_operation_xyz
x,y,z
-x,-y,-z
loop_
_atom_site_type_symbol
_atom_site_label
_atom_site_fract_x
_atom_site_fract_y
_atom_site_fract_z
Si Si1 0.163348 0.488436 0.870220
Si Si2 0.670233 0.929518 0.175648
Si Si3 0.573878 0.383317 0.029944
Si Si4 0.928710 0.415480 0.754695
Si Si5 0.711808 0.200478 0.484448
Si Si6 0.986019 0.095346 0.048529
O O1 0.354560 0.353044 0.052240
O O2 0.244670 0.655636 0.631533
O O3 0.067131 0.455410 0.796121
O O4 0.000000 0.500000 0.000000
O O5 0.528422 0.827824 0.420308
O O6 0.869652 0.853927 0.163415
O O7 0.775272 0.047495 0.087293
O O8 0.500000 0.000000 0.000000
O O9 0.696293 0.456576 0.794479
O O10 0.500000 0.500000 0.000000
O O11 0.724166 0.249474 0.264037
O O12 0.000000 0.500000 0.500000
O O13 0.947784 0.235206 0.961614
O O14 0.875805 0.053990 0.702805
#
# Coordination Sequence:
#
# PCOD9028323 Si02
#       6
#     2   2   2   2   2   2
#     4  11  24  45  73  99 137 187 234 277 352 421
#     4   9  21  40  65  97 138 186 227 271 351 417
#     4  10  23  44  68 100 132 184 232 275 348 416
#     4  12  28  43  69 108 145 174 232 299 349 402
#     4  10  22  41  76  94 130 187 237 274 337 421
#     4  10  24  41  66 101 144 177 231 288 352 401
#
# _framework density 20.844494999999998
#
# number of rings (size 3 to 8) (size 9 to 14) (size 15 to 20)
#    0.000    1.667    3.333    0.000   14.000    4.000 
#    0.000    1.667    0.000    0.000    0.000    0.000 
#    0.000    0.000    0.000    0.000    0.000    0.000 
#
# Total GULP energy -66896.874401 kJ/mol
# GULP energy per Si atom -5574.739533 kJ/mol
# Density = 2.079705 g / cm^3
# Si number density = 20.844495 Si / 1000 Ang^3
#
#
#
# Elastic Constant Matrix: (Units=GPa)
#
#
# Indices 1 2 3 4 5 6 
#
# 1 144.2995 67.6924 48.7250 7.3410 -10.8169 28.2153
# 2 67.6924 146.0132 52.2174 7.0700 -6.2741 19.2004
# 3 48.7250 52.2174 87.2463 15.1453 -4.3940 2.9483
# 4 7.3410 7.0700 15.1453 41.3104 -1.6034 -0.1589
# 5 -10.8169 -6.2741 -4.3940 -1.6034 42.3665 3.8481
# 6 28.2153 19.2004 2.9483 -0.1589 3.8481 32.7346
#
#
#
# Elastic Compliance Matrix: (Units=1/GPa)
#
#
# Indices 1 2 3 4 5 6 
#
# 1 0.011457 -0.002486 -0.004506 0.000120 0.002852 -0.008346
# 2 -0.002486 0.010103 -0.004576 0.000405 0.000716 -0.003453
# 3 -0.004506 -0.004576 0.017342 -0.004781 -0.000670 0.005061
# 4 0.000120 0.000405 -0.004781 0.025891 0.000561 0.000149
# 5 0.002852 0.000716 -0.000670 0.000561 0.024911 -0.005744
# 6 -0.008346 -0.003453 0.005061 0.000149 -0.005744 0.039988
#
#
# Mechanical properties :
#
#
# Convention : Reuss Voigt Hill
#
# Bulk Modulus (GPa) = 63.42436 79.42543 71.42489
# Shear Modulus (GPa) = 31.62868 37.21057 34.41962
#
# Velocity S-wave (km/s) = 3.89956 4.22969 4.06797
# Velocity P-wave (km/s) = 7.12523 7.87656 7.51030
#
# Compressibility (1/GPa) = 0.01576681
#
# Stress axis : x y z
#
# Youngs Moduli (GPa) = 87.27936 98.98205 57.66352
#
# Poissons Ratio (x) = 0.24607 0.25983
# Poissons Ratio (y) = 0.21698 0.26385
# Poissons Ratio (z) = 0.39328 0.45292
#
# Static dielectric constant tensor:
#      x y z
#    x 1.841970 -0.009630 0.004020 
#    y -0.009630 1.717920 0.008790 
#    z 0.004020 0.008790 1.873770 
# 
# From -- ./inp_files/32155.got.cif
#   From: 2010.05.17/outbox.cif.g08.bks.cpg/sg2_17_cif.got.tgz:32155.got - 2010.06.03 11:33:40.
