data_PCOD9028998
_publ_section_title
;
Structure prediction by ZEFSAII (Michael W. Deem and Ramdas Pophale) SiO2 
 PCOD9028998
Probable space group: P -1
;
_chemical_formula_sum "Si O2"
_cell_formula_units_Z 14
_cell_length_a 6.228272
_cell_length_b 11.562159
_cell_length_c 11.726052
_cell_angle_alpha 62.068375
_cell_angle_beta 72.000493
_cell_angle_gamma 108.548888
_cell_volume 592.185294
_symmetry_space_group_name_H-M "P -1"
_symmetry_group_IT_number 2
_symmetry_cell_setting 'triclinic'
loop_
_space_group_symop_operation_xyz
x,y,z
-x,-y,-z
loop_
_atom_site_type_symbol
_atom_site_label
_atom_site_fract_x
_atom_site_fract_y
_atom_site_fract_z
Si Si1 0.170189 0.211939 0.485335
Si Si2 0.775431 0.287583 0.812822
Si Si3 0.951414 0.355780 0.001321
Si Si4 0.897953 0.856507 0.214229
Si Si5 0.215143 0.182536 0.057722
Si Si6 0.641344 0.901543 0.697375
Si Si7 0.408957 0.547614 0.373899
O O1 0.216536 0.180978 0.621549
O O2 0.322623 0.165843 0.394394
O O3 0.295342 0.397325 0.380746
O O4 0.844470 0.092179 0.570838
O O5 0.789194 0.392633 0.656163
O O6 0.854638 0.167676 0.815919
O O7 0.944050 0.382392 0.854469
O O8 0.481176 0.201978 0.954971
O O9 0.672408 0.196531 0.166263
O O10 0.188711 0.328015 0.993878
O O11 0.000000 0.500000 0.000000
O O12 0.686224 0.716586 0.233788
O O13 0.971473 0.030476 0.103660
O O14 0.216100 0.139746 0.208976
O O15 0.500000 0.500000 0.500000
#
# Coordination Sequence:
#
# PCOD9028998 Si02
#       7
#     2   2   2   2   2   2   2
#     4   9  20  41  65  93 133 174 217 274 323 392
#     4  11  24  40  67  98 134 179 215 281 332 394
#     4  11  26  42  68 101 131 176 228 275 337 393
#     4  10  22  42  65  99 135 175 224 267 336 397
#     4  10  23  43  66  98 134 176 222 279 330 397
#     4   9  21  42  67  93 132 174 224 277 328 389
#     4  10  23  40  64  94 135 173 218 267 326 399
#
# _framework density 23.641245999999999
#
# number of rings (size 3 to 8) (size 9 to 14) (size 15 to 20)
#    0.000    2.000    0.000    1.286    6.000    9.143 
#    0.000   12.143    0.000    0.000    0.000    0.000 
#    0.000    0.000    0.000    0.000    0.000    0.000 
#
# Total GULP energy -77935.097107 kJ/mol
# GULP energy per Si atom -5566.792651 kJ/mol
# Density = 2.358744 g / cm^3
# Si number density = 23.641246 Si / 1000 Ang^3
#
#
#
# Elastic Constant Matrix: (Units=GPa)
#
#
# Indices 1 2 3 4 5 6 
#
# 1 59.6013 30.8541 33.8075 0.4583 15.7521 -9.4112
# 2 30.8541 145.8665 42.7972 -10.7348 2.2877 -7.2413
# 3 33.8075 42.7972 82.6796 4.7305 -7.1337 -11.5730
# 4 0.4583 -10.7348 4.7305 52.7433 0.0971 -2.3896
# 5 15.7521 2.2877 -7.1337 0.0971 27.8497 -9.0685
# 6 -9.4112 -7.2413 -11.5730 -2.3896 -9.0685 24.6443
#
#
#
# Elastic Compliance Matrix: (Units=1/GPa)
#
#
# Indices 1 2 3 4 5 6 
#
# 1 0.031219 -0.002290 -0.013999 0.000403 -0.022179 -0.003447
# 2 -0.002290 0.008570 -0.003649 0.002092 -0.000350 0.000004
# 3 -0.013999 -0.003649 0.022817 -0.002223 0.017495 0.010519
# 4 0.000403 0.002092 -0.002223 0.019647 -0.000576 0.001418
# 5 -0.022179 -0.000350 0.017495 -0.000576 0.060021 0.021674
# 6 -0.003447 0.000004 0.010519 0.001418 0.021674 0.052315
#
#
# Mechanical properties :
#
#
# Convention : Reuss Voigt Hill
#
# Bulk Modulus (GPa) = 43.99527 55.89610 49.94569
# Shear Modulus (GPa) = 20.65757 33.09338 26.87547
#
# Velocity S-wave (km/s) = 2.95921 3.74547 3.37531
# Velocity P-wave (km/s) = 5.50689 6.51149 6.03015
#
# Compressibility (1/GPa) = 0.02272971
#
# Stress axis : x y z
#
# Youngs Moduli (GPa) = 32.03222 116.68250 43.82658
#
# Poissons Ratio (x) = 0.26717 0.61354
# Poissons Ratio (y) = 0.07334 0.15993
# Poissons Ratio (z) = 0.44843 0.42580
#
# Static dielectric constant tensor:
#      x y z
#    x 1.995610 0.102420 -0.016060 
#    y 0.102420 1.864370 -0.019780 
#    z -0.016060 -0.019780 2.021040 
# 
# From -- ./inp_files/70187.got.cif
#   From: 2010.05.17/outbox.cif.g08.bks.cpg/sg2_36_cif.got.tgz:70187.got - 2010.06.03 11:33:40.
