data_PCOD9028838
_publ_section_title
;
Structure prediction by ZEFSAII (Michael W. Deem and Ramdas Pophale) SiO2 
 PCOD9028838
Probable space group: P -1
;
_chemical_formula_sum "Si O2"
_cell_formula_units_Z 12
_cell_length_a 10.318970
_cell_length_b 9.195401
_cell_length_c 7.693556
_cell_angle_alpha 68.724589
_cell_angle_beta 70.317063
_cell_angle_gamma 42.427206
_cell_volume 456.172334
_symmetry_space_group_name_H-M "P -1"
_symmetry_group_IT_number 2
_symmetry_cell_setting 'triclinic'
loop_
_space_group_symop_operation_xyz
x,y,z
-x,-y,-z
loop_
_atom_site_type_symbol
_atom_site_label
_atom_site_fract_x
_atom_site_fract_y
_atom_site_fract_z
Si Si1 0.728063 0.298566 0.944134
Si Si2 0.318620 0.332468 0.224061
Si Si3 0.096542 0.196376 0.300524
Si Si4 0.704337 0.649511 0.370218
Si Si5 0.757466 0.945614 0.098643
Si Si6 0.633956 0.260982 0.625340
O O1 0.796883 0.420236 0.892364
O O2 0.722458 0.259924 0.760795
O O3 0.500000 0.500000 0.000000
O O4 0.811873 0.075207 0.091822
O O5 0.195873 0.274922 0.287756
O O6 0.360856 0.320828 0.414825
O O7 0.522486 0.147867 0.116430
O O8 0.872440 0.396616 0.351483
O O9 0.190040 0.969371 0.445648
O O10 0.150246 0.146277 0.093761
O O11 0.783308 0.762458 0.265897
O O12 0.522695 0.755847 0.283961
O O13 0.500000 0.500000 0.500000
#
# Coordination Sequence:
#
# PCOD9028838 Si02
#       6
#     2   2   2   2   2   2
#     4   9  21  38  66  92 124 167 211 255 314 375
#     4  11  21  42  67  93 130 170 210 264 316 374
#     4  11  25  41  67  95 130 166 215 265 313 379
#     4  12  24  40  69  98 125 166 221 259 316 379
#     4  10  22  42  65  90 130 173 209 256 318 380
#     4  11  23  43  66  91 129 172 207 263 323 374
#
# _framework density 26.30585
#
# number of rings (size 3 to 8) (size 9 to 14) (size 15 to 20)
#    0.000    1.333    3.333    2.000    4.667    0.667 
#    0.000    0.833    0.000    0.000    0.000    0.000 
#    0.000    0.000    0.000    0.000    0.000    0.000 
#
# Total GULP energy -67107.968729 kJ/mol
# GULP energy per Si atom -5592.330727 kJ/mol
# Density = 2.624598 g / cm^3
# Si number density = 26.305850 Si / 1000 Ang^3
#
#
#
# Elastic Constant Matrix: (Units=GPa)
#
#
# Indices 1 2 3 4 5 6 
#
# 1 92.5695 28.6809 7.3577 2.7591 -5.6059 6.8970
# 2 28.6809 202.9877 42.1349 -21.9678 1.2728 17.3420
# 3 7.3577 42.1349 110.3018 8.2953 6.5344 3.4200
# 4 2.7591 -21.9678 8.2953 53.2822 10.9179 -18.5228
# 5 -5.6059 1.2728 6.5344 10.9179 26.4911 -6.6396
# 6 6.8970 17.3420 3.4200 -18.5228 -6.6396 49.2807
#
#
#
# Elastic Compliance Matrix: (Units=1/GPa)
#
#
# Indices 1 2 3 4 5 6 
#
# 1 0.011756 -0.001818 -0.000044 -0.002547 0.003254 -0.001521
# 2 -0.001818 0.006063 -0.002303 0.002989 -0.001541 -0.000804
# 3 -0.000044 -0.002303 0.010275 -0.002590 -0.001639 -0.001091
# 4 -0.002547 0.002989 -0.002590 0.024941 -0.008385 0.007729
# 5 0.003254 -0.001541 -0.001639 -0.008385 0.043087 0.002854
# 6 -0.001521 -0.000804 -0.001091 0.007729 0.002854 0.024153
#
#
# Mechanical properties :
#
#
# Convention : Reuss Voigt Hill
#
# Bulk Modulus (GPa) = 50.59917 62.46736 56.53327
# Shear Modulus (GPa) = 36.98446 47.65649 42.32048
#
# Velocity S-wave (km/s) = 3.75366 4.26094 4.01532
# Velocity P-wave (km/s) = 6.16954 6.92861 6.56007
#
# Compressibility (1/GPa) = 0.01976317
#
# Stress axis : x y z
#
# Youngs Moduli (GPa) = 85.06432 164.92913 97.32766
#
# Poissons Ratio (x) = 0.29985 0.00426
# Poissons Ratio (y) = 0.15465 0.22419
# Poissons Ratio (z) = 0.00372 0.37990
#
# Static dielectric constant tensor:
#      x y z
#    x 2.074860 0.030510 -0.056280 
#    y 0.030510 2.072580 -0.085070 
#    z -0.056280 -0.085070 2.086830 
# 
# From -- ./inp_files/173731.got.cif
#   From: 2010.05.17/outbox.cif.g08.bks.cpg/sg2_87_cif.got.tgz:173731.got - 2010.06.03 11:33:40.
