data_PCOD9028261
_publ_section_title
;
Structure prediction by ZEFSAII (Michael W. Deem and Ramdas Pophale) SiO2 
 PCOD9028261
Probable space group: P -1
;
_chemical_formula_sum "Si O2"
_cell_formula_units_Z 16
_cell_length_a 12.597678
_cell_length_b 13.858901
_cell_length_c 12.244294
_cell_angle_alpha 142.560092
_cell_angle_beta 117.512084
_cell_angle_gamma 36.762132
_cell_volume 682.910466
_symmetry_space_group_name_H-M "P -1"
_symmetry_group_IT_number 2
_symmetry_cell_setting 'triclinic'
loop_
_space_group_symop_operation_xyz
x,y,z
-x,-y,-z
loop_
_atom_site_type_symbol
_atom_site_label
_atom_site_fract_x
_atom_site_fract_y
_atom_site_fract_z
Si Si1 0.768037 0.345480 0.066590
Si Si2 0.032921 0.317922 0.269189
Si Si3 0.216902 0.163248 0.822814
Si Si4 0.579769 0.312308 0.087888
Si Si5 0.576975 0.546771 0.493264
Si Si6 0.032276 0.431788 0.760254
Si Si7 0.153783 0.679905 0.163005
Si Si8 0.997002 0.862846 0.605498
O O1 0.580148 0.440483 0.103348
O O2 0.857163 0.370802 0.221760
O O3 0.761781 0.438338 0.028459
O O4 0.924147 0.037066 0.833138
O O5 0.000000 0.500000 0.500000
O O6 0.024593 0.392827 0.208633
O O7 0.245511 0.006550 0.118715
O O8 0.201327 0.259993 0.783231
O O9 0.028833 0.239481 0.817640
O O10 0.414458 0.850292 0.654391
O O11 0.168044 0.342614 0.055476
O O12 0.634410 0.371351 0.264097
O O13 0.358347 0.474766 0.143976
O O14 0.500000 0.500000 0.500000
O O15 0.770258 0.422378 0.524816
O O16 0.100719 0.198486 0.523132
O O17 0.051671 0.962765 0.357695
#
# Coordination Sequence:
#
# PCOD9028261 Si02
#       8
#     2   2   2   2   2   2   2   2
#     4  10  22  47  69  99 132 174 228 290 332 400
#     4  12  25  46  70  99 142 179 225 285 348 406
#     4  11  24  46  70  97 148 180 224 285 337 412
#     4  12  24  41  74  99 130 183 233 277 340 403
#     4  12  23  41  69 104 131 179 233 281 336 398
#     4  11  24  45  64 102 139 188 216 283 350 400
#     4  10  22  45  70  99 132 177 229 284 333 395
#     4  10  22  41  73  93 140 170 230 281 335 400
#
# _framework density 23.429133
#
# number of rings (size 3 to 8) (size 9 to 14) (size 15 to 20)
#    0.750    0.250    3.750    3.000    3.500    1.500 
#    6.750    1.875    0.000    0.000    0.000    0.000 
#    0.000    0.000    0.000    0.000    0.000    0.000 
#
# Total GULP energy -89166.507151 kJ/mol
# GULP energy per Si atom -5572.906697 kJ/mol
# Density = 2.337581 g / cm^3
# Si number density = 23.429133 Si / 1000 Ang^3
#
#
#
# Elastic Constant Matrix: (Units=GPa)
#
#
# Indices 1 2 3 4 5 6 
#
# 1 70.7211 20.6403 0.1738 -4.3114 -4.4325 14.6112
# 2 20.6403 96.5211 32.4591 8.4962 0.2237 14.1829
# 3 0.1738 32.4591 110.5359 3.8492 22.0931 0.5909
# 4 -4.3114 8.4962 3.8492 49.7702 6.4569 1.1390
# 5 -4.4325 0.2237 22.0931 6.4569 26.3003 -1.7393
# 6 14.6112 14.1829 0.5909 1.1390 -1.7393 43.7363
#
#
#
# Elastic Compliance Matrix: (Units=1/GPa)
#
#
# Indices 1 2 3 4 5 6 
#
# 1 0.016172 -0.003164 0.000553 0.001796 0.001558 -0.004369
# 2 -0.003164 0.013193 -0.004473 -0.002573 0.003549 -0.002953
# 3 0.000553 -0.004473 0.012425 0.001206 -0.010559 0.000647
# 4 0.001796 -0.002573 0.001206 0.021382 -0.005976 -0.000576
# 5 0.001558 0.003549 -0.010559 -0.005976 0.048629 0.000561
# 6 -0.004369 -0.002953 0.000647 -0.000576 0.000561 0.025310
#
#
# Mechanical properties :
#
#
# Convention : Reuss Voigt Hill
#
# Bulk Modulus (GPa) = 36.20334 42.70272 39.45303
# Shear Modulus (GPa) = 31.15524 38.92837 35.04181
#
# Velocity S-wave (km/s) = 3.65055 4.08062 3.87156
# Velocity P-wave (km/s) = 5.76667 6.36143 6.07134
#
# Compressibility (1/GPa) = 0.02762176
#
# Stress axis : x y z
#
# Youngs Moduli (GPa) = 61.83577 75.79495 80.48578
#
# Poissons Ratio (x) = 0.23981 -0.04452
# Poissons Ratio (y) = 0.19565 0.36003
# Poissons Ratio (z) = -0.03420 0.33905
#
# Static dielectric constant tensor:
#      x y z
#    x 1.919940 0.050900 -0.044950 
#    y 0.050900 1.928640 -0.098930 
#    z -0.044950 -0.098930 1.949930 
# 
# From -- ./inp_files/455948.got.cif
#   From: 2010.05.17/outbox.cif.g08.bks.cpg/sg2_228_cif.got.tgz:455948.got - 2010.06.03 11:33:40.
