data_PCOD9028308
_publ_section_title
;
Structure prediction by ZEFSAII (Michael W. Deem and Ramdas Pophale) SiO2 
 PCOD9028308
Probable space group: P -1
;
_chemical_formula_sum "Si O2"
_cell_formula_units_Z 16
_cell_length_a 9.116649
_cell_length_b 10.520513
_cell_length_c 15.254465
_cell_angle_alpha 135.291068
_cell_angle_beta 38.644452
_cell_angle_gamma 135.489442
_cell_volume 599.741696
_symmetry_space_group_name_H-M "P -1"
_symmetry_group_IT_number 2
_symmetry_cell_setting 'triclinic'
loop_
_space_group_symop_operation_xyz
x,y,z
-x,-y,-z
loop_
_atom_site_type_symbol
_atom_site_label
_atom_site_fract_x
_atom_site_fract_y
_atom_site_fract_z
Si Si1 0.296566 0.550332 0.463261
Si Si2 0.721182 0.710059 0.223553
Si Si3 0.181299 0.362312 0.666591
Si Si4 0.415605 0.272859 0.953388
Si Si5 0.021152 0.147342 0.459099
Si Si6 0.435604 0.988665 0.647061
Si Si7 0.448862 0.986945 0.120177
Si Si8 0.029511 0.715469 0.907367
O O1 0.436503 0.567986 0.311981
O O2 0.068465 0.351727 0.486061
O O3 0.517026 0.540795 0.420638
O O4 0.285219 0.758284 0.596357
O O5 0.679187 0.910259 0.322572
O O6 0.864953 0.681484 0.056978
O O7 0.871714 0.696007 0.234278
O O8 0.086028 0.203906 0.558266
O O9 0.557045 0.220331 0.942598
O O10 0.445163 0.130260 0.794013
O O11 0.114774 0.218792 0.070049
O O12 0.500000 0.500000 0.000000
O O13 0.063116 0.518293 0.771529
O O14 0.223927 0.060505 0.285326
O O15 0.729876 0.017670 0.520907
O O16 0.699384 0.133074 0.121440
O O17 0.500000 0.000000 0.000000
#
# Coordination Sequence:
#
# PCOD9028308 Si02
#       8
#     2   2   2   2   2   2   2   2
#     4  10  23  43  73 101 150 190 248 302 377 438
#     4   9  23  42  69 109 147 195 241 299 377 444
#     4  10  22  41  75 106 143 192 248 303 375 443
#     4  11  27  50  75 110 152 199 256 307 387 461
#     4  12  26  47  75 113 145 196 257 314 373 454
#     4  11  25  46  74 109 151 196 247 310 376 451
#     4  12  29  50  74 111 154 199 257 315 379 455
#     4  11  23  46  76 106 150 198 246 307 378 451
#
# _framework density 26.678149000000001
#
# number of rings (size 3 to 8) (size 9 to 14) (size 15 to 20)
#    0.750    0.500    1.250    3.000    3.500    9.500 
#    4.500    1.250    0.000    0.000    0.000    0.000 
#    0.000    0.000    0.000    0.000    0.000    0.000 
#
# Total GULP energy -89536.590572 kJ/mol
# GULP energy per Si atom -5596.036911 kJ/mol
# Density = 2.661743 g / cm^3
# Si number density = 26.678149 Si / 1000 Ang^3
#
#
#
# Elastic Constant Matrix: (Units=GPa)
#
#
# Indices 1 2 3 4 5 6 
#
# 1 111.1158 21.4678 67.7371 9.6844 -18.3236 -19.1044
# 2 21.4678 119.1429 31.3422 24.5961 -8.0094 -10.5944
# 3 67.7371 31.3422 173.2379 10.1721 -20.1936 -6.4531
# 4 9.6844 24.5961 10.1721 32.0932 -8.9081 -7.7218
# 5 -18.3236 -8.0094 -20.1936 -8.9081 53.2998 1.2287
# 6 -19.1044 -10.5944 -6.4531 -7.7218 1.2287 46.4617
#
#
#
# Elastic Compliance Matrix: (Units=1/GPa)
#
#
# Indices 1 2 3 4 5 6 
#
# 1 0.013093 -0.000527 -0.004541 -0.000315 0.002545 0.004513
# 2 -0.000527 0.010371 -0.001252 -0.007300 -0.000335 0.000770
# 3 -0.004541 -0.001252 0.007884 -0.000089 0.001249 -0.001105
# 4 -0.000315 -0.007300 -0.000089 0.039443 0.005247 0.004610
# 5 0.002545 -0.000335 0.001249 0.005247 0.020903 0.001463
# 6 0.004513 0.000770 -0.001105 0.004610 0.001463 0.024128
#
#
# Mechanical properties :
#
#
# Convention : Reuss Voigt Hill
#
# Bulk Modulus (GPa) = 53.45398 71.62119 62.53758
# Shear Modulus (GPa) = 37.12078 45.23422 41.17750
#
# Velocity S-wave (km/s) = 3.73423 4.12218 3.93299
# Velocity P-wave (km/s) = 6.21874 7.03997 6.64206
#
# Compressibility (1/GPa) = 0.01870768
#
# Stress axis : x y z
#
# Youngs Moduli (GPa) = 76.37958 96.42734 126.84114
#
# Poissons Ratio (x) = 0.05083 0.57594
# Poissons Ratio (y) = 0.04026 0.15879
# Poissons Ratio (z) = 0.34681 0.12071
#
# Static dielectric constant tensor:
#      x y z
#    x 2.102490 -0.056070 0.056210 
#    y -0.056070 2.179360 -0.102870 
#    z 0.056210 -0.102870 2.011330 
# 
# From -- ./inp_files/610459.got.cif
#   From: 2010.05.17/outbox.cif.g08.bks.cpg/sg2_306_cif.got.tgz:610459.got - 2010.06.03 11:33:40.
