data_PCOD9028529
_publ_section_title
;
Structure prediction by ZEFSAII (Michael W. Deem and Ramdas Pophale) SiO2 
 PCOD9028529
Probable space group: P -1
;
_chemical_formula_sum "Si O2"
_cell_formula_units_Z 12
_cell_length_a 22.580286
_cell_length_b 8.254586
_cell_length_c 25.165825
_cell_angle_alpha 143.484443
_cell_angle_beta 10.491567
_cell_angle_gamma 142.195053
_cell_volume 508.241798
_symmetry_space_group_name_H-M "P -1"
_symmetry_group_IT_number 2
_symmetry_cell_setting 'triclinic'
loop_
_space_group_symop_operation_xyz
x,y,z
-x,-y,-z
loop_
_atom_site_type_symbol
_atom_site_label
_atom_site_fract_x
_atom_site_fract_y
_atom_site_fract_z
Si Si1 0.210920 0.182448 0.822345
Si Si2 0.434570 0.766854 0.794975
Si Si3 0.018374 0.096725 0.329137
Si Si4 0.614689 0.966537 0.829893
Si Si5 0.927280 0.012482 0.924986
Si Si6 0.363961 0.660180 0.364861
O O1 0.385228 0.447836 0.761369
O O2 0.500000 0.000000 0.500000
O O3 0.024625 0.217720 0.940161
O O4 0.000000 0.000000 0.000000
O O5 0.774211 0.935330 0.542053
O O6 0.154418 0.891235 0.111173
O O7 0.325617 0.832119 0.848325
O O8 0.827747 0.312830 0.516551
O O9 0.359488 0.163723 0.075584
O O10 0.592539 0.658374 0.745441
O O11 0.000000 0.000000 0.500000
O O12 0.500000 0.000000 0.000000
O O13 0.183869 0.854691 0.618359
O O14 0.722985 0.774341 0.070037
#
# Coordination Sequence:
#
# PCOD9028529 Si02
#       6
#     2   2   2   2   2   2
#     4  12  25  36  59 100 130 167 213 262 306 358
#     4  10  22  42  63  89 128 175 212 255 307 369
#     4  10  23  42  67  92 125 170 212 257 317 379
#     4  12  26  42  66  97 126 161 204 268 330 384
#     4  10  22  42  63  89 128 175 212 255 307 369
#     4  10  23  42  67  92 125 170 212 257 317 379
#
# _framework density 23.610807000000001
#
# number of rings (size 3 to 8) (size 9 to 14) (size 15 to 20)
#    0.000    1.333    0.000    4.500    7.000    1.333 
#    0.000    6.667    0.000    0.000    0.000    0.000 
#    0.000    0.000    0.000    0.000    0.000    0.000 
#
# Total GULP energy -66915.420997 kJ/mol
# GULP energy per Si atom -5576.285083 kJ/mol
# Density = 2.355707 g / cm^3
# Si number density = 23.610807 Si / 1000 Ang^3
#
#
#
# Elastic Constant Matrix: (Units=GPa)
#
#
# Indices 1 2 3 4 5 6 
#
# 1 78.9195 -6.7265 10.8345 3.2012 -9.7160 5.0674
# 2 -6.7265 48.4502 2.2865 -12.7717 10.5806 -6.4219
# 3 10.8345 2.2865 101.8426 -16.2503 25.7069 -9.5854
# 4 3.2012 -12.7717 -16.2503 25.2528 -4.6849 5.6522
# 5 -9.7160 10.5806 25.7069 -4.6849 61.7280 -1.3315
# 6 5.0674 -6.4219 -9.5854 5.6522 -1.3315 32.1456
#
#
#
# Elastic Compliance Matrix: (Units=1/GPa)
#
#
# Indices 1 2 3 4 5 6 
#
# 1 0.013714 0.000476 -0.002812 -0.002210 0.003029 -0.002391
# 2 0.000476 0.025436 0.002904 0.013093 -0.004428 0.003387
# 3 -0.002812 0.002904 0.013153 0.008512 -0.005703 0.003213
# 4 -0.002210 0.013093 0.008512 0.052415 -0.002241 -0.003807
# 5 0.003029 -0.004428 -0.005703 -0.002241 0.019601 -0.001856
# 6 -0.002391 0.003387 0.003213 -0.003807 -0.001856 0.033712
#
#
# Mechanical properties :
#
#
# Convention : Reuss Voigt Hill
#
# Bulk Modulus (GPa) = 18.71320 26.88904 22.80112
# Shear Modulus (GPa) = 28.61909 38.67981 33.64945
#
# Velocity S-wave (km/s) = 3.48533 4.05189 3.77924
# Velocity P-wave (km/s) = 4.91320 5.77093 5.35925
#
# Compressibility (1/GPa) = 0.05343821
#
# Stress axis : x y z
#
# Youngs Moduli (GPa) = 72.91946 39.31435 76.02796
#
# Poissons Ratio (x) = -0.01870 0.21378
# Poissons Ratio (y) = -0.03468 -0.22078
# Poissons Ratio (z) = 0.20504 -0.11417
#
# Static dielectric constant tensor:
#      x y z
#    x 1.893520 -0.052740 0.074610 
#    y -0.052740 1.916890 0.016000 
#    z 0.074610 0.016000 1.683040 
# 
# From -- ./inp_files/28640.got.cif
#   From: 2010.05.17/outbox.cif.g08.bks.cpg/sg2_15_cif.got.tgz:28640.got - 2010.06.03 11:33:40.
