data_PCOD9028017
_publ_section_title
;
Structure prediction by ZEFSAII (Michael W. Deem and Ramdas Pophale) SiO2 
 PCOD9028017
Probable space group: P -1
;
_chemical_formula_sum "Si O2"
_cell_formula_units_Z 14
_cell_length_a 13.606569
_cell_length_b 8.083016
_cell_length_c 6.455135
_cell_angle_alpha 119.991646
_cell_angle_beta 101.306870
_cell_angle_gamma 79.133306
_cell_volume 599.517380
_symmetry_space_group_name_H-M "P -1"
_symmetry_group_IT_number 2
_symmetry_cell_setting 'triclinic'
loop_
_space_group_symop_operation_xyz
x,y,z
-x,-y,-z
loop_
_atom_site_type_symbol
_atom_site_label
_atom_site_fract_x
_atom_site_fract_y
_atom_site_fract_z
Si Si1 0.360962 0.459329 0.535129
Si Si2 0.197508 0.296402 0.652001
Si Si3 0.010023 0.552008 0.790561
Si Si4 0.683291 0.142036 0.017619
Si Si5 0.893810 0.920437 0.856948
Si Si6 0.517481 0.215692 0.702461
Si Si7 0.640007 0.772359 0.994328
O O1 0.280716 0.340292 0.546296
O O2 0.336125 0.679323 0.724406
O O3 0.469454 0.363342 0.603140
O O4 0.347454 0.409535 0.262234
O O5 0.131644 0.496910 0.799932
O O6 0.129428 0.140922 0.427503
O O7 0.260922 0.212808 0.819503
O O8 0.000000 0.500000 0.500000
O O9 0.916737 0.718876 0.854718
O O10 0.000000 0.500000 0.000000
O O11 0.627368 0.964179 0.970153
O O12 0.631918 0.212503 0.822923
O O13 0.799338 0.060374 0.983225
O O14 0.000000 0.000000 0.000000
O O15 0.450323 0.255553 0.905482
O O16 0.500000 0.000000 0.500000
#
# Coordination Sequence:
#
# PCOD9028017 Si02
#       7
#     2   2   2   2   2   2   2
#     4  11  24  43  70 102 139 184 225 285 356 430
#     4  10  22  45  69  97 143 183 227 297 358 419
#     4  10  22  41  70  97 135 189 238 295 362 421
#     4  12  23  43  70 101 139 178 239 283 349 430
#     4  11  23  45  70 102 140 185 242 297 361 429
#     4  11  23  45  70  99 143 183 222 289 352 421
#     4  11  23  45  69 103 140 180 226 286 360 421
#
# _framework density 23.352114
#
# number of rings (size 3 to 8) (size 9 to 14) (size 15 to 20)
#    0.000    1.143    2.857    3.429    2.000    0.571 
#   12.857    3.571    0.000    0.000    0.000    0.000 
#    0.000    0.000    0.000    0.000    0.000    0.000 
#
# Total GULP energy -77952.120078 kJ/mol
# GULP energy per Si atom -5568.008577 kJ/mol
# Density = 2.329896 g / cm^3
# Si number density = 23.352114 Si / 1000 Ang^3
#
#
#
# Elastic Constant Matrix: (Units=GPa)
#
#
# Indices 1 2 3 4 5 6 
#
# 1 90.9131 21.1731 45.7811 -7.8419 13.6972 -32.0155
# 2 21.1731 93.2311 58.6651 -5.2104 4.7775 -40.5652
# 3 45.7811 58.6651 162.8988 3.3716 5.2607 -15.4551
# 4 -7.8419 -5.2104 3.3716 50.7422 -6.0833 2.2229
# 5 13.6972 4.7775 5.2607 -6.0833 37.8378 -3.4947
# 6 -32.0155 -40.5652 -15.4551 2.2229 -3.4947 47.6837
#
#
#
# Elastic Compliance Matrix: (Units=1/GPa)
#
#
# Indices 1 2 3 4 5 6 
#
# 1 0.019379 0.007262 -0.006380 0.002830 -0.005055 0.016619
# 2 0.007262 0.024845 -0.008818 0.003025 -0.001941 0.022870
# 3 -0.006380 -0.008818 0.010338 -0.002110 0.000882 -0.008272
# 4 0.002830 0.003025 -0.002110 0.020764 0.002503 0.003005
# 5 -0.005055 -0.001941 0.000882 0.002503 0.028526 -0.002785
# 6 0.016619 0.022870 -0.008272 0.003005 -0.002785 0.048560
#
#
# Mechanical properties :
#
#
# Convention : Reuss Voigt Hill
#
# Bulk Modulus (GPa) = 25.84732 66.47574 46.16153
# Shear Modulus (GPa) = 27.59635 42.01432 34.80534
#
# Velocity S-wave (km/s) = 3.44139 4.24626 3.86483
# Velocity P-wave (km/s) = 5.18492 7.25048 6.30289
#
# Compressibility (1/GPa) = 0.03868873
#
# Stress axis : x y z
#
# Youngs Moduli (GPa) = 51.60144 40.24902 96.73004
#
# Poissons Ratio (x) = -0.29227 0.61715
# Poissons Ratio (y) = -0.37471 0.85301
# Poissons Ratio (z) = 0.32922 0.35494
#
# Static dielectric constant tensor:
#      x y z
#    x 1.880150 0.034980 -0.036510 
#    y 0.034980 1.866160 0.034280 
#    z -0.036510 0.034280 1.869880 
# 
# From -- ./inp_files/91189.got.cif
#   From: 2010.05.17/outbox.cif.g08.bks.cpg/sg2_46_cif.got.tgz:91189.got - 2010.06.03 11:33:40.
