data_PCOD9028033
_publ_section_title
;
Structure prediction by ZEFSAII (Michael W. Deem and Ramdas Pophale) SiO2 
 PCOD9028033
Probable space group: P -1
;
_chemical_formula_sum "Si O2"
_cell_formula_units_Z 16
_cell_length_a 12.874691
_cell_length_b 19.105615
_cell_length_c 5.267730
_cell_angle_alpha 92.765671
_cell_angle_beta 107.570676
_cell_angle_gamma 34.108646
_cell_volume 641.515782
_symmetry_space_group_name_H-M "P -1"
_symmetry_group_IT_number 2
_symmetry_cell_setting 'triclinic'
loop_
_space_group_symop_operation_xyz
x,y,z
-x,-y,-z
loop_
_atom_site_type_symbol
_atom_site_label
_atom_site_fract_x
_atom_site_fract_y
_atom_site_fract_z
Si Si1 0.833031 0.624623 0.094780
Si Si2 0.147243 0.883968 0.311424
Si Si3 0.748105 0.793238 0.755010
Si Si4 0.737430 0.392115 0.209909
Si Si5 0.215421 0.983403 0.600366
Si Si6 0.658939 0.999570 0.804714
Si Si7 0.725669 0.338221 0.688253
Si Si8 0.861970 0.472119 0.294616
O O1 0.731342 0.611534 0.139014
O O2 0.976413 0.586793 0.392914
O O3 0.687512 0.761306 0.882772
O O4 0.000000 0.500000 0.000000
O O5 0.295801 0.864190 0.523825
O O6 0.272626 0.746032 0.284834
O O7 0.006545 0.926564 0.440633
O O8 0.000000 0.000000 0.000000
O O9 0.588307 0.873925 0.417550
O O10 0.984509 0.645075 0.825104
O O11 0.728741 0.880531 0.872341
O O12 0.838982 0.296673 0.502859
O O13 0.734975 0.475049 0.285865
O O14 0.500000 0.500000 0.000000
O O15 0.834000 0.315055 0.002213
O O16 0.239193 0.021976 0.380481
O O17 0.297729 0.976072 0.915561
O O18 0.500000 0.500000 0.500000
#
# Coordination Sequence:
#
# PCOD9028033 Si02
#       8
#     2   2   2   2   2   2   2   2
#     4   9  21  43  63  99 133 184 236 286 353 430
#     4  11  25  47  74 107 148 190 247 290 362 441
#     4  10  25  42  69  97 142 178 236 305 353 430
#     4  10  24  44  68 104 141 182 237 297 356 429
#     4  11  26  45  70 105 142 192 235 297 355 438
#     4  11  26  45  68 107 137 183 240 295 363 415
#     4  10  25  46  67 101 144 185 234 294 350 422
#     4  10  22  41  70  98 135 189 235 288 360 431
#
# _framework density 24.940932
#
# number of rings (size 3 to 8) (size 9 to 14) (size 15 to 20)
#    0.000    1.750    1.250    0.000   14.000    1.000 
#    4.500    2.500    0.000    0.000    0.000    0.000 
#    0.000    0.000    0.000    0.000    0.000    0.000 
#
# Total GULP energy -89275.781009 kJ/mol
# GULP energy per Si atom -5579.736313 kJ/mol
# Density = 2.488417 g / cm^3
# Si number density = 24.940932 Si / 1000 Ang^3
#
#
#
# Elastic Constant Matrix: (Units=GPa)
#
#
# Indices 1 2 3 4 5 6 
#
# 1 102.7075 70.1257 32.6902 1.2588 -1.4249 47.9146
# 2 70.1257 142.6545 69.5067 -1.8303 0.4810 62.1688
# 3 32.6902 69.5067 136.8098 26.0722 -15.9663 34.1359
# 4 1.2588 -1.8303 26.0722 44.5122 4.9502 6.4882
# 5 -1.4249 0.4810 -15.9663 4.9502 45.4211 8.4146
# 6 47.9146 62.1688 34.1359 6.4882 8.4146 68.2305
#
#
#
# Elastic Compliance Matrix: (Units=1/GPa)
#
#
# Indices 1 2 3 4 5 6 
#
# 1 0.016661 -0.005422 0.001014 -0.000457 0.002379 -0.007517
# 2 -0.005422 0.016511 -0.006312 0.005943 -0.001648 -0.008440
# 3 0.001014 -0.006312 0.012848 -0.008263 0.005759 -0.001314
# 4 -0.000457 0.005943 -0.008263 0.028616 -0.005545 -0.002997
# 5 0.002379 -0.001648 0.005759 -0.005545 0.025794 -0.005704
# 6 -0.007517 -0.008440 -0.001314 -0.002997 -0.005704 0.029271
#
#
# Mechanical properties :
#
#
# Convention : Reuss Voigt Hill
#
# Bulk Modulus (GPa) = 40.68267 80.75744 60.72006
# Shear Modulus (GPa) = 31.38046 45.62271 38.50159
#
# Velocity S-wave (km/s) = 3.55095 4.28159 3.93327
# Velocity P-wave (km/s) = 5.75841 7.54271 6.71013
#
# Compressibility (1/GPa) = 0.02458049
#
# Stress axis : x y z
#
# Youngs Moduli (GPa) = 60.01961 60.56657 77.83135
#
# Poissons Ratio (x) = 0.32841 -0.07892
# Poissons Ratio (y) = 0.32545 0.49123
# Poissons Ratio (z) = -0.06086 0.38227
#
# Static dielectric constant tensor:
#      x y z
#    x 2.124590 -0.092490 -0.028830 
#    y -0.092490 2.135800 -0.025520 
#    z -0.028830 -0.025520 2.041290 
# 
# From -- ./inp_files/77906.got.cif
#   From: 2010.05.17/outbox.cif.g08.bks.cpg/sg2_39_cif.got.tgz:77906.got - 2010.06.03 11:33:40.
