data_PCOD9028828
_publ_section_title
;
Structure prediction by ZEFSAII (Michael W. Deem and Ramdas Pophale) SiO2 
 PCOD9028828
Probable space group: P -1
;
_chemical_formula_sum "Si O2"
_cell_formula_units_Z 16
_cell_length_a 16.460574
_cell_length_b 7.875575
_cell_length_c 7.436497
_cell_angle_alpha 80.681711
_cell_angle_beta 39.004376
_cell_angle_gamma 80.338438
_cell_volume 597.370782
_symmetry_space_group_name_H-M "P -1"
_symmetry_group_IT_number 2
_symmetry_cell_setting 'triclinic'
loop_
_space_group_symop_operation_xyz
x,y,z
-x,-y,-z
loop_
_atom_site_type_symbol
_atom_site_label
_atom_site_fract_x
_atom_site_fract_y
_atom_site_fract_z
Si Si1 0.439336 0.330056 0.353111
Si Si2 0.145830 0.301225 0.787428
Si Si3 0.939555 0.061413 0.319110
Si Si4 0.119877 0.457143 0.169118
Si Si5 0.538148 0.270839 0.822587
Si Si6 0.238408 0.221641 0.284452
Si Si7 0.148539 0.805154 0.191747
Si Si8 0.594220 0.136373 0.386331
O O1 0.296975 0.255880 0.596717
O O2 0.422557 0.533273 0.302493
O O3 0.515866 0.306169 0.410996
O O4 0.532780 0.242165 0.051357
O O5 0.168798 0.348351 0.533382
O O6 0.101388 0.438910 0.992471
O O7 0.035822 0.160744 0.008263
O O8 0.808044 0.962726 0.537751
O O9 0.032723 0.905994 0.267792
O O10 0.898734 0.198595 0.522536
O O11 0.188110 0.284225 0.165919
O O12 0.195773 0.625180 0.050308
O O13 0.000000 0.500000 0.500000
O O14 0.613528 0.155158 0.562906
O O15 0.389031 0.245767 0.031446
O O16 0.272690 0.910088 0.935662
O O17 0.500000 0.000000 0.500000
#
# Coordination Sequence:
#
# PCOD9028828 Si02
#       8
#     2   2   2   2   2   2   2   2
#     4  10  22  42  65  90 120 159 205 250 297 357
#     4  11  23  40  65  91 122 162 200 245 304 362
#     4  11  21  42  60  87 127 162 201 245 298 371
#     4  12  21  40  60  90 124 155 198 254 293 346
#     4  10  22  42  65  90 120 159 205 250 297 357
#     4  11  23  40  65  91 122 162 200 245 304 362
#     4  11  23  39  64  89 122 163 203 247 304 356
#     4  12  23  38  63  94 121 160 199 250 307 355
#
# _framework density 26.784036
#
# number of rings (size 3 to 8) (size 9 to 14) (size 15 to 20)
#    0.000    1.000    2.500    5.250    0.000    1.000 
#    0.000    2.500    0.000    0.000    0.000    0.000 
#    0.000    0.000    0.000    0.000    0.000    0.000 
#
# Total GULP energy -89442.240756 kJ/mol
# GULP energy per Si atom -5590.140047 kJ/mol
# Density = 2.672307 g / cm^3
# Si number density = 26.784036 Si / 1000 Ang^3
#
#
#
# Elastic Constant Matrix: (Units=GPa)
#
#
# Indices 1 2 3 4 5 6 
#
# 1 89.0740 19.1600 29.3195 -2.6424 4.4413 7.8324
# 2 19.1600 83.0380 15.8904 -10.1110 -2.5993 14.1160
# 3 29.3195 15.8904 144.5749 -3.9067 4.1302 1.7215
# 4 -2.6424 -10.1110 -3.9067 40.2129 20.4968 -1.7902
# 5 4.4413 -2.5993 4.1302 20.4968 55.6445 -0.9281
# 6 7.8324 14.1160 1.7215 -1.7902 -0.9281 22.9853
#
#
#
# Elastic Compliance Matrix: (Units=1/GPa)
#
#
# Indices 1 2 3 4 5 6 
#
# 1 0.012739 -0.001962 -0.002281 0.000608 -0.001213 -0.002966
# 2 -0.001962 0.014407 -0.000991 0.003267 -0.000431 -0.007868
# 3 -0.002281 -0.000991 0.007517 0.000710 -0.000670 0.000851
# 4 0.000608 0.003267 0.000710 0.031717 -0.011636 -0.000266
# 5 -0.001213 -0.000431 -0.000670 -0.011636 0.022396 0.000726
# 6 -0.002966 -0.007868 0.000851 -0.000266 0.000726 0.049294
#
#
# Mechanical properties :
#
#
# Convention : Reuss Voigt Hill
#
# Bulk Modulus (GPa) = 41.33513 49.49184 45.41349
# Shear Modulus (GPa) = 31.92778 40.58968 36.25873
#
# Velocity S-wave (km/s) = 3.45635 3.89709 3.68332
# Velocity P-wave (km/s) = 5.60310 6.22640 5.92295
#
# Compressibility (1/GPa) = 0.02419250
#
# Stress axis : x y z
#
# Youngs Moduli (GPa) = 78.49904 69.41112 133.03860
#
# Poissons Ratio (x) = 0.13622 0.30351
# Poissons Ratio (y) = 0.15405 0.13187
# Poissons Ratio (z) = 0.17908 0.06880
#
# Static dielectric constant tensor:
#      x y z
#    x 2.160550 -0.004000 -0.076330 
#    y -0.004000 2.425490 -0.077040 
#    z -0.076330 -0.077040 2.156570 
# 
# From -- ./inp_files/343490.got.cif
#   From: 2010.05.17/outbox.cif.g08.bks.cpg/sg2_172_cif.got.tgz:343490.got - 2010.06.03 11:33:40.
