data_PCOD9028806
_publ_section_title
;
Structure prediction by ZEFSAII (Michael W. Deem and Ramdas Pophale) SiO2 
 PCOD9028806
Probable space group: P -1
;
_chemical_formula_sum "Si O2"
_cell_formula_units_Z 16
_cell_length_a 11.452207
_cell_length_b 8.985770
_cell_length_c 9.008031
_cell_angle_alpha 81.830346
_cell_angle_beta 128.198824
_cell_angle_gamma 96.044778
_cell_volume 720.918063
_symmetry_space_group_name_H-M "P -1"
_symmetry_group_IT_number 2
_symmetry_cell_setting 'triclinic'
loop_
_space_group_symop_operation_xyz
x,y,z
-x,-y,-z
loop_
_atom_site_type_symbol
_atom_site_label
_atom_site_fract_x
_atom_site_fract_y
_atom_site_fract_z
Si Si1 0.601867 0.510664 0.225865
Si Si2 0.413641 0.813245 0.575887
Si Si3 0.119945 0.852736 0.784289
Si Si4 0.103484 0.884497 0.420512
Si Si5 0.820300 0.675390 0.192879
Si Si6 0.446229 0.644949 0.348636
Si Si7 0.865817 0.449721 0.006087
Si Si8 0.608882 0.957570 0.957861
O O1 0.598154 0.349305 0.325780
O O2 0.765903 0.561158 0.294509
O O3 0.533535 0.635360 0.263713
O O4 0.500000 0.500000 0.000000
O O5 0.246849 0.872153 0.433694
O O6 0.473053 0.781627 0.462753
O O7 0.516682 0.917615 0.744633
O O8 0.153188 0.874910 0.632830
O O9 0.086137 0.682561 0.826594
O O10 0.983997 0.961812 0.694817
O O11 0.266664 0.911271 0.977387
O O12 0.982800 0.749939 0.323842
O O13 0.810282 0.587372 0.042442
O O14 0.704177 0.810182 0.089892
O O15 0.500000 0.500000 0.500000
O O16 0.272534 0.614902 0.186972
O O17 0.000000 0.500000 0.000000
O O18 0.500000 0.000000 0.000000
#
# Coordination Sequence:
#
# PCOD9028806 Si02
#       8
#     2   2   2   2   2   2   2   2
#     4  11  20  38  70 102 130 175 234 287 338 405
#     4  11  21  40  67  98 140 178 228 285 348 409
#     4  10  24  43  66 100 138 180 237 281 339 415
#     4  10  22  42  65 103 139 175 229 291 339 409
#     4  11  23  39  69 101 129 178 236 281 339 410
#     4  10  23  40  63 100 140 170 221 292 341 402
#     4  12  25  45  71  97 140 188 225 281 356 414
#     4  11  22  40  69  98 134 184 227 279 342 413
#
# _framework density 22.193921
#
# number of rings (size 3 to 8) (size 9 to 14) (size 15 to 20)
#    0.000    1.250    3.750    2.250    1.750    4.000 
#    0.000    7.500    0.000    0.000    0.000    0.000 
#    0.000    0.000    0.000    0.000    0.000    0.000 
#
# Total GULP energy -89547.534566 kJ/mol
# GULP energy per Si atom -5596.720910 kJ/mol
# Density = 2.214341 g / cm^3
# Si number density = 22.193921 Si / 1000 Ang^3
#
#
#
# Elastic Constant Matrix: (Units=GPa)
#
#
# Indices 1 2 3 4 5 6 
#
# 1 105.5004 34.5788 34.4235 8.0405 -9.3119 -25.7588
# 2 34.5788 94.6480 30.7907 3.4099 -7.6729 -9.7690
# 3 34.4235 30.7907 92.0241 27.5636 2.9200 -12.4258
# 4 8.0405 3.4099 27.5636 44.9054 -6.2669 -10.3824
# 5 -9.3119 -7.6729 2.9200 -6.2669 29.1333 11.4176
# 6 -25.7588 -9.7690 -12.4258 -10.3824 11.4176 36.3923
#
#
#
# Elastic Compliance Matrix: (Units=1/GPa)
#
#
# Indices 1 2 3 4 5 6 
#
# 1 0.013461 -0.002894 -0.003685 0.002028 0.001349 0.007649
# 2 -0.002894 0.013174 -0.004260 0.002555 0.003674 -0.000390
# 3 -0.003685 -0.004260 0.017097 -0.010148 -0.006703 0.001294
# 4 0.002028 0.002555 -0.010148 0.030070 0.006808 0.005099
# 5 0.001349 0.003674 -0.006703 0.006808 0.042455 -0.011725
# 6 0.007649 -0.000390 0.001294 0.005099 -0.011725 0.038363
#
#
# Mechanical properties :
#
#
# Convention : Reuss Voigt Hill
#
# Bulk Modulus (GPa) = 45.33934 54.63984 49.98959
# Shear Modulus (GPa) = 27.22578 34.91150 31.06864
#
# Velocity S-wave (km/s) = 3.50626 3.97044 3.74554
# Velocity P-wave (km/s) = 6.07165 6.75958 6.42482
#
# Compressibility (1/GPa) = 0.02205590
#
# Stress axis : x y z
#
# Youngs Moduli (GPa) = 74.28731 75.90675 58.48831
#
# Poissons Ratio (x) = 0.21964 0.21551
# Poissons Ratio (y) = 0.21495 0.24917
# Poissons Ratio (z) = 0.27372 0.32338
#
# Static dielectric constant tensor:
#      x y z
#    x 1.793500 -0.007520 -0.010800 
#    y -0.007520 1.853260 0.000170 
#    z -0.010800 0.000170 1.824920 
# 
# From -- ./inp_files/244238.got.cif
#   From: 2010.05.17/outbox.cif.g08.bks.cpg/sg2_123_cif.got.tgz:244238.got - 2010.06.03 11:33:40.
