data_PCOD9028832
_publ_section_title
;
Structure prediction by ZEFSAII (Michael W. Deem and Ramdas Pophale) SiO2 
 PCOD9028832
Probable space group: P -1
;
_chemical_formula_sum "Si O2"
_cell_formula_units_Z 12
_cell_length_a 25.383144
_cell_length_b 20.632413
_cell_length_c 5.263779
_cell_angle_alpha 53.152518
_cell_angle_beta 53.954846
_cell_angle_gamma 13.261799
_cell_volume 505.896121
_symmetry_space_group_name_H-M "P -1"
_symmetry_group_IT_number 2
_symmetry_cell_setting 'triclinic'
loop_
_space_group_symop_operation_xyz
x,y,z
-x,-y,-z
loop_
_atom_site_type_symbol
_atom_site_label
_atom_site_fract_x
_atom_site_fract_y
_atom_site_fract_z
Si Si1 0.451253 0.177896 0.212946
Si Si2 0.226139 0.750240 0.287942
Si Si3 0.274863 0.181311 0.228265
Si Si4 0.002291 0.635131 0.613375
Si Si5 0.544160 0.376184 0.866203
Si Si6 0.397654 0.819881 0.206029
O O1 0.196041 0.453613 0.345648
O O2 0.613665 0.942793 0.519816
O O3 0.486752 0.230841 0.036603
O O4 0.536912 0.056748 0.970291
O O5 0.287439 0.773192 0.077466
O O6 0.418991 0.460292 0.537322
O O7 0.289233 0.658301 0.030966
O O8 0.000000 0.000000 0.500000
O O9 0.121661 0.282651 0.409562
O O10 0.122864 0.436565 0.958096
O O11 0.816506 0.910993 0.635777
O O12 0.500000 0.500000 0.500000
O O13 0.661750 0.156153 0.940563
#
# Coordination Sequence:
#
# PCOD9028832 Si02
#       6
#     2   2   2   2   2   2
#     4  11  24  42  67  99 136 178 228 269 333 400
#     4  10  22  42  65  90 126 169 213 269 339 408
#     4  10  24  44  65  99 133 185 227 266 333 401
#     4  10  23  43  67  94 140 173 221 282 325 388
#     4   9  21  41  63  87 124 161 212 266 332 397
#     4  10  24  39  60  99 123 165 219 270 330 398
#
# _framework density 23.720282999999998
#
# number of rings (size 3 to 8) (size 9 to 14) (size 15 to 20)
#    0.000    2.000    0.000    1.000    4.667   16.667 
#    0.000    0.000    0.000    0.000    0.000    0.000 
#    0.000    0.000    0.000    0.000    0.000    0.000 
#
# Total GULP energy -67069.113456 kJ/mol
# GULP energy per Si atom -5589.092788 kJ/mol
# Density = 2.366629 g / cm^3
# Si number density = 23.720283 Si / 1000 Ang^3
#
#
#
# Elastic Constant Matrix: (Units=GPa)
#
#
# Indices 1 2 3 4 5 6 
#
# 1 66.0940 43.4601 25.1248 18.4088 -21.1086 17.8009
# 2 43.4601 173.3064 50.8088 49.1404 -21.8721 13.4414
# 3 25.1248 50.8088 94.2907 33.7515 -13.7384 0.4536
# 4 18.4088 49.1404 33.7515 50.9900 0.8516 -10.3014
# 5 -21.1086 -21.8721 -13.7384 0.8516 40.1821 -1.7873
# 6 17.8009 13.4414 0.4536 -10.3014 -1.7873 35.9225
#
#
#
# Elastic Compliance Matrix: (Units=1/GPa)
#
#
# Indices 1 2 3 4 5 6 
#
# 1 0.028272 0.000064 -0.000531 -0.013636 0.014228 -0.017229
# 2 0.000064 0.010236 -0.000899 -0.010727 0.005229 -0.006667
# 3 -0.000531 -0.000899 0.015349 -0.009607 0.004589 -0.002121
# 4 -0.013636 -0.010727 -0.009607 0.046218 -0.016228 0.023338
# 5 0.014228 0.005229 0.004589 -0.016228 0.036591 -0.011898
# 6 -0.017229 -0.006667 -0.002121 0.023338 -0.011898 0.044998
#
#
# Mechanical properties :
#
#
# Convention : Reuss Voigt Hill
#
# Bulk Modulus (GPa) = 19.55983 63.60872 41.58428
# Shear Modulus (GPa) = 24.82166 39.70543 32.26354
#
# Velocity S-wave (km/s) = 3.23837 4.09577 3.69205
# Velocity P-wave (km/s) = 4.71664 7.01723 5.97864
#
# Compressibility (1/GPa) = 0.05112518
#
# Stress axis : x y z
#
# Youngs Moduli (GPa) = 35.37082 97.69187 65.15049
#
# Poissons Ratio (x) = -0.00628 0.03460
# Poissons Ratio (y) = -0.00227 0.05858
# Poissons Ratio (z) = 0.01878 0.08785
#
# Static dielectric constant tensor:
#      x y z
#    x 2.069130 -0.053640 0.162100 
#    y -0.053640 1.905060 -0.006240 
#    z 0.162100 -0.006240 2.024470 
# 
# From -- ./inp_files/128818.got.cif
#   From: 2010.05.17/outbox.cif.g08.bks.cpg/sg2_65_cif.got.tgz:128818.got - 2010.06.03 11:33:40.
