data_PCOD9028040
_publ_section_title
;
Structure prediction by ZEFSAII (Michael W. Deem and Ramdas Pophale) SiO2 
 PCOD9028040
Probable space group: P -1
;
_chemical_formula_sum "Si O2"
_cell_formula_units_Z 16
_cell_length_a 6.310635
_cell_length_b 13.916932
_cell_length_c 8.960869
_cell_angle_alpha 90.865023
_cell_angle_beta 111.512643
_cell_angle_gamma 102.752520
_cell_volume 710.089424
_symmetry_space_group_name_H-M "P -1"
_symmetry_group_IT_number 2
_symmetry_cell_setting 'triclinic'
loop_
_space_group_symop_operation_xyz
x,y,z
-x,-y,-z
loop_
_atom_site_type_symbol
_atom_site_label
_atom_site_fract_x
_atom_site_fract_y
_atom_site_fract_z
Si Si1 0.046846 0.062709 0.167635
Si Si2 0.248800 0.486145 0.125833
Si Si3 0.233029 0.112479 0.725363
Si Si4 0.999647 0.517082 0.327211
Si Si5 0.295391 0.811277 0.011364
Si Si6 0.913675 0.253180 0.719256
Si Si7 0.459018 0.109567 0.470713
Si Si8 0.548553 0.373020 0.058814
O O1 0.316815 0.110860 0.280733
O O2 0.955646 0.985093 0.275462
O O3 0.890863 0.141767 0.118524
O O4 0.000000 0.000000 0.000000
O O5 0.214088 0.488680 0.292597
O O6 0.315978 0.388200 0.079611
O O7 0.434624 0.578099 0.101267
O O8 0.000000 0.500000 0.000000
O O9 0.471898 0.109129 0.873266
O O10 0.297354 0.124896 0.569159
O O11 0.133202 0.204322 0.756100
O O12 0.023583 0.632050 0.301113
O O13 0.000000 0.500000 0.500000
O O14 0.760212 0.445862 0.203588
O O15 0.180923 0.763661 0.136230
O O16 0.389042 0.731073 0.939916
O O17 0.704598 0.190288 0.558178
O O18 0.500000 0.000000 0.500000
#
# Coordination Sequence:
#
# PCOD9028040 Si02
#       8
#     2   2   2   2   2   2   2   2
#     4  12  23  46  70 106 142 179 232 295 347 418
#     4   9  20  40  69  92 129 175 230 281 344 405
#     4  11  24  43  72 100 141 186 227 287 358 423
#     4  11  25  44  67 101 144 179 238 291 349 419
#     4  11  24  41  71 108 138 182 241 288 351 417
#     4  11  24  45  72 102 138 191 233 286 358 424
#     4  11  24  46  72  98 141 187 235 283 354 426
#     4  10  22  41  70  99 131 185 228 290 345 409
#
# _framework density 22.532371000000001
#
# number of rings (size 3 to 8) (size 9 to 14) (size 15 to 20)
#    0.000    1.250    3.750    1.500    5.250    1.500 
#    2.250    0.000    0.000    0.000    0.000    0.000 
#    0.000    0.000    0.000    0.000    0.000    0.000 
#
# Total GULP energy -89496.720237 kJ/mol
# GULP energy per Si atom -5593.545015 kJ/mol
# Density = 2.248109 g / cm^3
# Si number density = 22.532371 Si / 1000 Ang^3
#
#
#
# Elastic Constant Matrix: (Units=GPa)
#
#
# Indices 1 2 3 4 5 6 
#
# 1 114.6499 32.0084 45.8231 1.2913 -10.4927 -32.2743
# 2 32.0084 81.6420 18.1619 12.0142 0.3525 -25.8166
# 3 45.8231 18.1619 97.6649 8.8154 7.2340 -5.1690
# 4 1.2913 12.0142 8.8154 27.9357 8.9932 2.2867
# 5 -10.4927 0.3525 7.2340 8.9932 48.0607 6.9797
# 6 -32.2743 -25.8166 -5.1690 2.2867 6.9797 52.1763
#
#
#
# Elastic Compliance Matrix: (Units=1/GPa)
#
#
# Indices 1 2 3 4 5 6 
#
# 1 0.013796 -0.002150 -0.006009 0.000735 0.002856 0.006460
# 2 -0.002150 0.016654 -0.001045 -0.007283 -0.000108 0.007141
# 3 -0.006009 -0.001045 0.013538 -0.002536 -0.002512 -0.002446
# 4 0.000735 -0.007283 -0.002536 0.042198 -0.006668 -0.004358
# 5 0.002856 -0.000108 -0.002512 -0.006668 0.023254 -0.001354
# 6 0.006460 0.007141 -0.002446 -0.004358 -0.001354 0.026825
#
#
# Mechanical properties :
#
#
# Convention : Reuss Voigt Hill
#
# Bulk Modulus (GPa) = 39.09183 53.99372 46.54278
# Shear Modulus (GPa) = 30.63728 38.83209 34.73468
#
# Velocity S-wave (km/s) = 3.69141 4.15588 3.93051
# Velocity P-wave (km/s) = 5.96285 6.85880 6.42646
#
# Compressibility (1/GPa) = 0.02558079
#
# Stress axis : x y z
#
# Youngs Moduli (GPa) = 72.48608 60.04521 73.86421
#
# Poissons Ratio (x) = 0.12907 0.44385
# Poissons Ratio (y) = 0.15581 0.07720
# Poissons Ratio (z) = 0.43557 0.06276
#
# Static dielectric constant tensor:
#      x y z
#    x 1.868530 0.006060 -0.001900 
#    y 0.006060 1.816690 0.025910 
#    z -0.001900 0.025910 1.886010 
# 
# From -- ./inp_files/135578.got.cif
#   From: 2010.05.17/outbox.cif.g08.bks.cpg/sg2_68_cif.got.tgz:135578.got - 2010.06.03 11:33:40.
