data_PCOD9028257
_publ_section_title
;
Structure prediction by ZEFSAII (Michael W. Deem and Ramdas Pophale) SiO2 
 PCOD9028257
Probable space group: P -1
;
_chemical_formula_sum "Si O2"
_cell_formula_units_Z 12
_cell_length_a 8.171052
_cell_length_b 12.004043
_cell_length_c 9.161841
_cell_angle_alpha 39.212418
_cell_angle_beta 93.974756
_cell_angle_gamma 110.342034
_cell_volume 501.445787
_symmetry_space_group_name_H-M "P -1"
_symmetry_group_IT_number 2
_symmetry_cell_setting 'triclinic'
loop_
_space_group_symop_operation_xyz
x,y,z
-x,-y,-z
loop_
_atom_site_type_symbol
_atom_site_label
_atom_site_fract_x
_atom_site_fract_y
_atom_site_fract_z
Si Si1 0.245367 0.751668 0.181780
Si Si2 0.886073 0.685296 0.396287
Si Si3 0.935417 0.937365 0.395920
Si Si4 0.495885 0.363920 0.274958
Si Si5 0.732673 0.760742 0.049091
Si Si6 0.454783 0.961575 0.275557
O O1 0.242486 0.545362 0.349798
O O2 0.367564 0.841933 0.242221
O O3 0.043865 0.704664 0.273518
O O4 0.331709 0.897612 0.902211
O O5 0.984289 0.795922 0.437228
O O6 0.774352 0.781259 0.204805
O O7 0.715791 0.786708 0.544154
O O8 0.000000 0.000000 0.500000
O O9 0.068028 0.145556 0.112943
O O10 0.611559 0.530550 0.233458
O O11 0.575436 0.203014 0.436586
O O12 0.500000 0.500000 0.000000
O O13 0.630187 0.886787 0.861467
#
# Coordination Sequence:
#
# PCOD9028257 Si02
#       6
#     2   2   2   2   2   2
#     4  10  22  41  73 114 144 177 244 308 357 426
#     4  11  23  44  76 110 144 191 240 301 363 429
#     4  12  26  46  71 105 146 197 238 290 365 435
#     4  12  27  49  71 100 150 195 241 298 363 437
#     4  12  25  47  76 110 143 192 244 300 364 428
#     4  11  24  43  71 112 143 181 245 306 361 425
#
# _framework density 23.930803999999998
#
# number of rings (size 3 to 8) (size 9 to 14) (size 15 to 20)
#    0.000    0.667    5.000    2.500    4.667    2.000 
#    0.000    0.833    0.000    0.000    0.000    0.000 
#    0.000    0.000    0.000    0.000    0.000    0.000 
#
# Total GULP energy -66916.436111 kJ/mol
# GULP energy per Si atom -5576.369676 kJ/mol
# Density = 2.387634 g / cm^3
# Si number density = 23.930804 Si / 1000 Ang^3
#
#
#
# Elastic Constant Matrix: (Units=GPa)
#
#
# Indices 1 2 3 4 5 6 
#
# 1 77.9005 4.0534 64.8753 -21.5154 -5.1522 -1.0488
# 2 4.0534 102.3936 45.4298 -16.7406 -1.5059 7.6466
# 3 64.8753 45.4298 193.3601 -8.9850 12.3280 6.2170
# 4 -21.5154 -16.7406 -8.9850 37.0055 6.8208 -14.3516
# 5 -5.1522 -1.5059 12.3280 6.8208 48.1293 -17.5157
# 6 -1.0488 7.6466 6.2170 -14.3516 -17.5157 19.2495
#
#
#
# Elastic Compliance Matrix: (Units=1/GPa)
#
#
# Indices 1 2 3 4 5 6 
#
# 1 0.039530 0.008585 -0.016663 0.039826 0.023072 0.054811
# 2 0.008585 0.013516 -0.006162 0.013197 0.005340 0.011787
# 3 -0.016663 -0.006162 0.013095 -0.017590 -0.012842 -0.027489
# 4 0.039826 0.013197 -0.017590 0.081751 0.030989 0.091756
# 5 0.023072 0.005340 -0.012842 0.030989 0.047717 0.069806
# 6 0.054811 0.011787 -0.027489 0.091756 0.069806 0.191060
#
#
# Mechanical properties :
#
#
# Convention : Reuss Voigt Hill
#
# Bulk Modulus (GPa) = 26.55166 66.93016 46.74091
# Shear Modulus (GPa) = 11.69035 38.16323 24.92679
#
# Velocity S-wave (km/s) = 2.21262 3.99774 3.23091
# Velocity P-wave (km/s) = 4.20081 7.02411 5.78727
#
# Compressibility (1/GPa) = 0.03766243
#
# Stress axis : x y z
#
# Youngs Moduli (GPa) = 25.29714 73.98424 76.36268
#
# Poissons Ratio (x) = -0.63518 1.27241
# Poissons Ratio (y) = -0.21719 0.47057
# Poissons Ratio (z) = 0.42152 0.45592
#
# Static dielectric constant tensor:
#      x y z
#    x 2.053230 0.005880 0.020110 
#    y 0.005880 1.888860 0.037360 
#    z 0.020110 0.037360 1.944520 
# 
# From -- ./inp_files/173290.got.cif
#   From: 2010.05.17/outbox.cif.g08.bks.cpg/sg2_87_cif.got.tgz:173290.got - 2010.06.03 11:33:40.
