data_PCOD9028950
_publ_section_title
;
Structure prediction by ZEFSAII (Michael W. Deem and Ramdas Pophale) SiO2 
 PCOD9028950
Probable space group: P -1
;
_chemical_formula_sum "Si O2"
_cell_formula_units_Z 16
_cell_length_a 5.748221
_cell_length_b 11.120170
_cell_length_c 10.970090
_cell_angle_alpha 85.599077
_cell_angle_beta 80.377400
_cell_angle_gamma 86.046601
_cell_volume 688.192604
_symmetry_space_group_name_H-M "P -1"
_symmetry_group_IT_number 2
_symmetry_cell_setting 'triclinic'
loop_
_space_group_symop_operation_xyz
x,y,z
-x,-y,-z
loop_
_atom_site_type_symbol
_atom_site_label
_atom_site_fract_x
_atom_site_fract_y
_atom_site_fract_z
Si Si1 0.885129 0.506797 0.641103
Si Si2 0.913899 0.139643 0.011102
Si Si3 0.286281 0.049161 0.345991
Si Si4 0.095492 0.278963 0.209383
Si Si5 0.550523 0.329423 0.026795
Si Si6 0.105385 0.289234 0.757030
Si Si7 0.791608 0.946910 0.359437
Si Si8 0.566853 0.508398 0.198468
O O1 0.001813 0.609809 0.705793
O O2 0.606805 0.540125 0.680851
O O3 0.000000 0.500000 0.500000
O O4 0.904403 0.368811 0.698520
O O5 0.642887 0.191029 0.009996
O O6 0.964964 0.189044 0.137790
O O7 0.040322 0.216681 0.889559
O O8 0.000000 0.000000 0.000000
O O9 0.233355 0.186142 0.297675
O O10 0.250538 0.032820 0.495095
O O11 0.564740 0.010942 0.303411
O O12 0.067246 0.978788 0.310823
O O13 0.284395 0.334132 0.097530
O O14 0.684700 0.397711 0.117962
O O15 0.571082 0.412702 0.901715
O O16 0.220557 0.192341 0.662639
O O17 0.271214 0.394166 0.769740
#
# Coordination Sequence:
#
# PCOD9028950 Si02
#       8
#     2   2   2   2   2   2   2   2
#     4  11  25  45  69 100 132 180 232 291 354 425
#     4  12  26  40  65 101 134 182 229 286 354 425
#     4  10  23  46  68  99 135 191 242 293 355 424
#     4  11  24  42  68  97 139 176 234 291 352 423
#     4  10  22  42  65  96 135 179 227 284 355 427
#     4  12  24  41  67 100 137 178 230 297 351 422
#     4  10  24  44  71  96 139 190 240 294 358 419
#     4  10  22  42  68  97 134 177 224 289 359 419
#
# _framework density 23.249305
#
# number of rings (size 3 to 8) (size 9 to 14) (size 15 to 20)
#    0.000    1.250    2.500    2.250    5.250    3.000 
#    2.250    0.000    0.000    0.000    0.000    0.000 
#    0.000    0.000    0.000    0.000    0.000    0.000 
#
# Total GULP energy -89169.384290 kJ/mol
# GULP energy per Si atom -5573.086518 kJ/mol
# Density = 2.319639 g / cm^3
# Si number density = 23.249305 Si / 1000 Ang^3
#
#
#
# Elastic Constant Matrix: (Units=GPa)
#
#
# Indices 1 2 3 4 5 6 
#
# 1 63.3813 33.6701 35.3198 7.9674 -5.5349 -1.4624
# 2 33.6701 176.8877 27.6759 15.0271 5.8825 -21.4146
# 3 35.3198 27.6759 66.9469 7.9816 -12.6089 -2.2236
# 4 7.9674 15.0271 7.9816 41.2556 1.2455 -3.0503
# 5 -5.5349 5.8825 -12.6089 1.2455 22.2576 -3.3321
# 6 -1.4624 -21.4146 -2.2236 -3.0503 -3.3321 31.7741
#
#
#
# Elastic Compliance Matrix: (Units=1/GPa)
#
#
# Indices 1 2 3 4 5 6 
#
# 1 0.023673 -0.002846 -0.011164 -0.001508 0.000138 -0.001740
# 2 -0.002846 0.007175 -0.001708 -0.001339 -0.002875 0.004155
# 3 -0.011164 -0.001708 0.023996 -0.002137 0.011541 0.001019
# 4 -0.001508 -0.001339 -0.002137 0.025586 -0.002503 0.001072
# 5 0.000138 -0.002875 0.011541 -0.002503 0.053029 0.004197
# 6 -0.001740 0.004155 0.001019 0.001072 0.004197 0.034807
#
#
# Mechanical properties :
#
#
# Convention : Reuss Voigt Hill
#
# Bulk Modulus (GPa) = 42.72570 55.61641 49.17106
# Shear Modulus (GPa) = 24.09583 33.09413 28.59498
#
# Velocity S-wave (km/s) = 3.22283 3.77695 3.51084
# Velocity P-wave (km/s) = 5.68031 6.55699 6.13433
#
# Compressibility (1/GPa) = 0.02340512
#
# Stress axis : x y z
#
# Youngs Moduli (GPa) = 42.24294 139.37784 41.67407
#
# Poissons Ratio (x) = 0.39673 0.46527
# Poissons Ratio (y) = 0.12024 0.07118
# Poissons Ratio (z) = 0.47162 0.23807
#
# Static dielectric constant tensor:
#      x y z
#    x 2.739810 -0.146480 -0.121630 
#    y -0.146480 1.892290 0.011600 
#    z -0.121630 0.011600 1.923880 
# 
# From -- ./inp_files/364490.got.cif
#   From: 2010.05.17/outbox.cif.g08.bks.cpg/sg2_183_cif.got.tgz:364490.got - 2010.06.03 11:33:40.
