data_PCOD9028827
_publ_section_title
;
Structure prediction by ZEFSAII (Michael W. Deem and Ramdas Pophale) SiO2 
 PCOD9028827
Probable space group: P -1
;
_chemical_formula_sum "Si O2"
_cell_formula_units_Z 16
_cell_length_a 11.830825
_cell_length_b 10.428599
_cell_length_c 15.153115
_cell_angle_alpha 64.243351
_cell_angle_beta 112.096881
_cell_angle_gamma 55.912867
_cell_volume 776.091782
_symmetry_space_group_name_H-M "P -1"
_symmetry_group_IT_number 2
_symmetry_cell_setting 'triclinic'
loop_
_space_group_symop_operation_xyz
x,y,z
-x,-y,-z
loop_
_atom_site_type_symbol
_atom_site_label
_atom_site_fract_x
_atom_site_fract_y
_atom_site_fract_z
Si Si1 0.412615 0.090932 0.221377
Si Si2 0.008764 0.757476 0.611229
Si Si3 0.445803 0.147664 0.853521
Si Si4 0.719812 0.240351 0.247367
Si Si5 0.143358 0.869644 0.870176
Si Si6 0.987450 0.749159 0.931922
Si Si7 0.739795 0.771106 0.579620
Si Si8 0.073411 0.165918 0.910151
O O1 0.225103 0.410604 0.085472
O O2 0.506576 0.990085 0.179231
O O3 0.637889 0.869672 0.420795
O O4 0.247995 0.115963 0.183003
O O5 0.178401 0.485465 0.681834
O O6 0.183014 0.698049 0.724837
O O7 0.874521 0.784998 0.629181
O O8 0.816677 0.039684 0.412084
O O9 0.500000 0.000000 0.000000
O O10 0.642739 0.075551 0.931552
O O11 0.840000 0.077580 0.237373
O O12 0.426767 0.538793 0.069746
O O13 0.048492 0.070848 0.857769
O O14 0.987953 0.882255 0.827153
O O15 0.002625 0.791534 0.024575
O O16 0.921780 0.459094 0.749403
O O17 0.500000 0.000000 0.500000
#
# Coordination Sequence:
#
# PCOD9028827 Si02
#       8
#     2   2   2   2   2   2   2   2
#     4  10  24  40  64  98 125 167 223 257 334 379
#     4  11  24  45  64  94 136 165 214 269 324 375
#     4  11  23  41  68  94 128 169 210 271 321 382
#     4  10  25  41  66  95 126 176 212 266 325 388
#     4  11  23  42  67  92 127 170 225 256 325 381
#     4  10  22  42  65  89 133 170 208 272 312 395
#     4  12  25  42  67  98 131 170 214 270 322 386
#     4  11  23  41  64  97 128 167 220 257 331 383
#
# _framework density 20.616116000000002
#
# number of rings (size 3 to 8) (size 9 to 14) (size 15 to 20)
#    0.000    1.250    3.750    1.125    5.250    1.500 
#    0.000    0.625    0.000    0.000    0.000    0.000 
#    0.000    0.000    0.000    0.000    0.000    0.000 
#
# Total GULP energy -89456.610105 kJ/mol
# GULP energy per Si atom -5591.038132 kJ/mol
# Density = 2.056919 g / cm^3
# Si number density = 20.616116 Si / 1000 Ang^3
#
#
#
# Elastic Constant Matrix: (Units=GPa)
#
#
# Indices 1 2 3 4 5 6 
#
# 1 92.2185 27.1863 -0.4750 -14.3325 1.1145 2.0153
# 2 27.1863 96.9396 -12.0289 -0.5526 2.6762 -9.8883
# 3 -0.4750 -12.0289 26.9303 -1.3358 6.7712 -0.3098
# 4 -14.3325 -0.5526 -1.3358 26.4332 -3.5392 -0.5904
# 5 1.1145 2.6762 6.7712 -3.5392 20.7509 -2.5037
# 6 2.0153 -9.8883 -0.3098 -0.5904 -2.5037 26.3760
#
#
#
# Elastic Compliance Matrix: (Units=1/GPa)
#
#
# Indices 1 2 3 4 5 6 
#
# 1 0.013191 -0.004128 -0.001608 0.007106 0.001284 -0.002293
# 2 -0.004128 0.012848 0.006452 -0.001976 -0.003292 0.004851
# 3 -0.001608 0.006452 0.043728 -0.000486 -0.014900 0.001630
# 4 0.007106 -0.001976 -0.000486 0.042609 0.007343 0.000361
# 5 0.001284 -0.003292 -0.014900 0.007343 0.055130 0.003890
# 6 -0.002293 0.004851 0.001630 0.000361 0.003890 0.040304
#
#
# Mechanical properties :
#
#
# Convention : Reuss Voigt Hill
#
# Bulk Modulus (GPa) = 14.04505 27.27257 20.65881
# Shear Modulus (GPa) = 21.72859 28.13909 24.93384
#
# Velocity S-wave (km/s) = 3.25000 3.69847 3.48147
# Velocity P-wave (km/s) = 4.57283 5.61211 5.11891
#
# Compressibility (1/GPa) = 0.07119948
#
# Stress axis : x y z
#
# Youngs Moduli (GPa) = 75.80693 77.83076 22.86890
#
# Poissons Ratio (x) = 0.32127 0.03677
# Poissons Ratio (y) = 0.31292 -0.14754
# Poissons Ratio (z) = 0.12188 -0.50214
#
# Static dielectric constant tensor:
#      x y z
#    x 1.738680 -0.000530 0.008260 
#    y -0.000530 1.737060 0.037550 
#    z 0.008260 0.037550 1.714590 
# 
# From -- ./inp_files/185142.got.cif
#   From: 2010.05.17/outbox.cif.g08.bks.cpg/sg2_93_cif.got.tgz:185142.got - 2010.06.03 11:33:40.
