data_PCOD9028557
_publ_section_title
;
Structure prediction by ZEFSAII (Michael W. Deem and Ramdas Pophale) SiO2 
 PCOD9028557
Probable space group: P -1
;
_chemical_formula_sum "Si O2"
_cell_formula_units_Z 12
_cell_length_a 14.724466
_cell_length_b 19.299751
_cell_length_c 5.277048
_cell_angle_alpha 82.299378
_cell_angle_beta 88.768846
_cell_angle_gamma 161.032858
_cell_volume 428.849106
_symmetry_space_group_name_H-M "P -1"
_symmetry_group_IT_number 2
_symmetry_cell_setting 'triclinic'
loop_
_space_group_symop_operation_xyz
x,y,z
-x,-y,-z
loop_
_atom_site_type_symbol
_atom_site_label
_atom_site_fract_x
_atom_site_fract_y
_atom_site_fract_z
Si Si1 0.668185 0.793108 0.183949
Si Si2 0.636513 0.852166 0.660473
Si Si3 0.565607 0.976547 0.051412
Si Si4 0.658262 0.584308 0.701567
Si Si5 0.938480 0.520400 0.416797
Si Si6 0.188389 0.821183 0.564813
O O1 0.629094 0.782949 0.486396
O O2 0.656670 0.846185 0.954573
O O3 0.022859 0.867331 0.557023
O O4 0.000000 0.000000 0.000000
O O5 0.324042 0.663458 0.691255
O O6 0.399138 0.540300 0.249443
O O7 0.803586 0.135962 0.188025
O O8 0.243160 0.685409 0.316271
O O9 0.702109 0.051123 0.740982
O O10 0.746821 0.200284 0.884941
O O11 0.500000 0.500000 0.500000
O O12 0.500000 0.500000 0.000000
O O13 0.939540 0.579369 0.612494
O O14 0.500000 0.000000 0.500000
#
# Coordination Sequence:
#
# PCOD9028557 Si02
#       6
#     2   2   2   2   2   2
#     4  12  24  46  77  99 144 184 220 301 369 409
#     4  12  26  45  68 111 139 186 240 277 357 435
#     4   8  16  35  58  77 109 165 212 257 314 370
#     4  12  23  44  76 104 142 176 229 296 356 425
#     4  10  22  42  63  93 139 178 224 285 329 393
#     4   8  16  35  58  77 109 165 212 257 314 370
#
# _framework density 27.981874000000001
#
# number of rings (size 3 to 8) (size 9 to 14) (size 15 to 20)
#    0.000    2.000    3.333    1.500    0.000    5.333 
#   18.000   20.833    0.000    0.000    0.000    0.000 
#    0.000    0.000    0.000    0.000    0.000    0.000 
#
# Total GULP energy -67084.741040 kJ/mol
# GULP energy per Si atom -5590.395087 kJ/mol
# Density = 2.791819 g / cm^3
# Si number density = 27.981874 Si / 1000 Ang^3
#
#
#
# Elastic Constant Matrix: (Units=GPa)
#
#
# Indices 1 2 3 4 5 6 
#
# 1 83.4874 28.8767 30.8616 -0.0881 0.6573 1.5215
# 2 28.8767 228.5862 54.6888 -16.3167 5.1431 -3.1512
# 3 30.8616 54.6888 173.9201 6.9020 -3.9176 11.0128
# 4 -0.0881 -16.3167 6.9020 68.6725 -2.3000 4.5438
# 5 0.6573 5.1431 -3.9176 -2.3000 56.4626 3.7544
# 6 1.5215 -3.1512 11.0128 4.5438 3.7544 59.9584
#
#
#
# Elastic Compliance Matrix: (Units=1/GPa)
#
#
# Indices 1 2 3 4 5 6 
#
# 1 0.013113 -0.001191 -0.001952 -0.000075 -0.000181 -0.000020
# 2 -0.001191 0.004982 -0.001449 0.001278 -0.000521 0.000494
# 3 -0.001952 -0.001449 0.006681 -0.000915 0.000662 -0.001226
# 4 -0.000075 0.001278 -0.000915 0.015036 0.000496 -0.000933
# 5 -0.000181 -0.000521 0.000662 0.000496 0.017913 -0.001304
# 6 -0.000020 0.000494 -0.001226 -0.000933 -0.001304 0.017082
#
#
# Mechanical properties :
#
#
# Convention : Reuss Voigt Hill
#
# Bulk Modulus (GPa) = 64.13881 79.42753 71.78317
# Shear Modulus (GPa) = 56.06157 61.78979 58.92568
#
# Velocity S-wave (km/s) = 4.48090 4.70426 4.59393
# Velocity P-wave (km/s) = 7.05284 7.61273 7.33813
#
# Compressibility (1/GPa) = 0.01559118
#
# Stress axis : x y z
#
# Youngs Moduli (GPa) = 76.25917 200.74158 149.68690
#
# Poissons Ratio (x) = 0.23908 0.29223
# Poissons Ratio (y) = 0.09083 0.21687
# Poissons Ratio (z) = 0.14888 0.29084
#
# Static dielectric constant tensor:
#      x y z
#    x 2.362260 -0.182410 0.284170 
#    y -0.182410 2.505880 -0.260240 
#    z 0.284170 -0.260240 2.495300 
# 
# From -- ./inp_files/112751.got.cif
#   From: 2010.05.17/outbox.cif.g08.bks.cpg/sg2_57_cif.got.tgz:112751.got - 2010.06.03 11:33:40.
