data_PCOD9028869
_publ_section_title
;
Structure prediction by ZEFSAII (Michael W. Deem and Ramdas Pophale) SiO2 
 PCOD9028869
Probable space group: P -1
;
_chemical_formula_sum "Si O2"
_cell_formula_units_Z 12
_cell_length_a 14.928579
_cell_length_b 11.679233
_cell_length_c 15.072073
_cell_angle_alpha 28.471005
_cell_angle_beta 39.022364
_cell_angle_gamma 26.830438
_cell_volume 565.083984
_symmetry_space_group_name_H-M "P -1"
_symmetry_group_IT_number 2
_symmetry_cell_setting 'triclinic'
loop_
_space_group_symop_operation_xyz
x,y,z
-x,-y,-z
loop_
_atom_site_type_symbol
_atom_site_label
_atom_site_fract_x
_atom_site_fract_y
_atom_site_fract_z
Si Si1 0.616519 0.939777 0.138616
Si Si2 0.305226 0.693398 0.277369
Si Si3 0.403327 0.766854 0.472499
Si Si4 0.077837 0.802913 0.666947
Si Si5 0.551721 0.171098 0.215322
Si Si6 0.218105 0.335079 0.467114
O O1 0.416034 0.020281 0.251313
O O2 0.773935 0.588583 0.204713
O O3 0.677082 0.917898 0.208901
O O4 0.593191 0.218233 0.918279
O O5 0.454177 0.430973 0.418018
O O6 0.233039 0.556418 0.366057
O O7 0.112286 0.036337 0.238443
O O8 0.500000 0.500000 0.500000
O O9 0.196123 0.881133 0.570022
O O10 0.000000 0.000000 0.500000
O O11 0.351358 0.254780 0.334401
O O12 0.672778 0.997823 0.331382
O O13 0.500000 0.500000 0.000000
O O14 0.000000 0.500000 0.500000
#
# Coordination Sequence:
#
# PCOD9028869 Si02
#       6
#     2   2   2   2   2   2
#     4  11  23  43  65  97 131 176 217 268 329 396
#     4  12  23  44  66  97 134 171 222 271 330 396
#     4  10  22  42  65  92 132 174 213 262 336 385
#     4  11  22  42  66  94 135 169 215 273 327 387
#     4  11  23  47  68  92 137 177 221 279 330 397
#     4  11  26  44  71 100 132 175 230 278 330 393
#
# _framework density 21.235780999999999
#
# number of rings (size 3 to 8) (size 9 to 14) (size 15 to 20)
#    0.000    1.000    6.667    0.500    2.333    3.333 
#    3.000    0.000    0.000    0.000    0.000    0.000 
#    0.000    0.000    0.000    0.000    0.000    0.000 
#
# Total GULP energy -66989.900669 kJ/mol
# GULP energy per Si atom -5582.491722 kJ/mol
# Density = 2.118745 g / cm^3
# Si number density = 21.235781 Si / 1000 Ang^3
#
#
#
# Elastic Constant Matrix: (Units=GPa)
#
#
# Indices 1 2 3 4 5 6 
#
# 1 107.4184 42.1500 59.8120 8.7118 -14.6445 -11.1732
# 2 42.1500 88.4816 43.2527 13.1547 -3.5593 -1.1547
# 3 59.8120 43.2527 190.1906 12.0951 -8.6094 -11.1546
# 4 8.7118 13.1547 12.0951 33.7864 6.4157 -2.9335
# 5 -14.6445 -3.5593 -8.6094 6.4157 19.0477 7.1619
# 6 -11.1732 -1.1547 -11.1546 -2.9335 7.1619 45.5167
#
#
#
# Elastic Compliance Matrix: (Units=1/GPa)
#
#
# Indices 1 2 3 4 5 6 
#
# 1 0.014279 -0.004677 -0.002781 -0.002536 0.009295 0.001079
# 2 -0.004677 0.015008 -0.001744 -0.004226 0.000420 -0.001533
# 3 -0.002781 -0.001744 0.006667 -0.001044 0.000622 0.000742
# 4 -0.002536 -0.004226 -0.001044 0.035796 -0.016757 0.003958
# 5 0.009295 0.000420 0.000622 -0.016757 0.069233 -0.009529
# 6 0.001079 -0.001533 0.000742 0.003958 -0.009529 0.024132
#
#
# Mechanical properties :
#
#
# Convention : Reuss Voigt Hill
#
# Bulk Modulus (GPa) = 56.98702 75.16886 66.07794
# Shear Modulus (GPa) = 26.40334 35.72854 31.06594
#
# Velocity S-wave (km/s) = 3.52993 4.10624 3.82894
# Velocity P-wave (km/s) = 6.59602 7.61287 7.12261
#
# Compressibility (1/GPa) = 0.01754786
#
# Stress axis : x y z
#
# Youngs Moduli (GPa) = 70.03513 66.63282 149.98497
#
# Poissons Ratio (x) = 0.31165 0.41716
# Poissons Ratio (y) = 0.32757 0.26162
# Poissons Ratio (z) = 0.19479 0.11623
#
# Static dielectric constant tensor:
#      x y z
#    x 1.808250 0.036050 -0.055950 
#    y 0.036050 1.807810 0.015900 
#    z -0.055950 0.015900 1.772110 
# 
# From -- ./inp_files/499583.got.cif
#   From: 2010.05.17/outbox.cif.g08.bks.cpg/sg2_250_cif.got.tgz:499583.got - 2010.06.03 11:33:40.
