data_PCOD9028226
_publ_section_title
;
Structure prediction by ZEFSAII (Michael W. Deem and Ramdas Pophale) SiO2 
 PCOD9028226
Probable space group: P -1
;
_chemical_formula_sum "Si O2"
_cell_formula_units_Z 14
_cell_length_a 9.701307
_cell_length_b 11.219453
_cell_length_c 7.518493
_cell_angle_alpha 128.515419
_cell_angle_beta 78.367238
_cell_angle_gamma 124.513413
_cell_volume 512.890341
_symmetry_space_group_name_H-M "P -1"
_symmetry_group_IT_number 2
_symmetry_cell_setting 'triclinic'
loop_
_space_group_symop_operation_xyz
x,y,z
-x,-y,-z
loop_
_atom_site_type_symbol
_atom_site_label
_atom_site_fract_x
_atom_site_fract_y
_atom_site_fract_z
Si Si1 0.735790 0.347807 0.447908
Si Si2 0.052640 0.355950 0.031150
Si Si3 0.405601 0.555085 0.715492
Si Si4 0.748698 0.073268 0.402071
Si Si5 0.630058 0.765793 0.423065
Si Si6 0.276947 0.712894 0.076311
Si Si7 0.971572 0.975473 0.770406
O O1 0.872131 0.511405 0.694842
O O2 0.747463 0.462406 0.376052
O O3 0.744511 0.170526 0.311862
O O4 0.539961 0.263495 0.478783
O O5 0.943274 0.128999 0.411137
O O6 0.849585 0.262554 0.984121
O O7 0.071368 0.187567 0.874612
O O8 0.500000 0.500000 0.500000
O O9 0.398015 0.432237 0.765183
O O10 0.446771 0.746069 0.972828
O O11 0.155177 0.499495 0.977910
O O12 0.662739 0.871322 0.328378
O O13 0.693583 0.165733 0.646897
O O14 0.785143 0.872028 0.628542
O O15 0.000000 0.000000 0.000000
#
# Coordination Sequence:
#
# PCOD9028226 Si02
#       7
#     2   2   2   2   2   2   2
#     4  10  24  44  67 105 135 178 227 284 341 400
#     4  10  22  42  67 102 131 183 228 272 336 412
#     4  10  23  43  67  99 139 181 222 279 346 400
#     4  11  24  44  72 101 136 181 234 280 340 403
#     4  11  23  45  69  99 142 181 222 284 344 404
#     4  10  22  41  72  98 131 182 232 275 331 411
#     4  12  26  43  70 102 136 179 232 285 340 402
#
# _framework density 27.296285999999998
#
# number of rings (size 3 to 8) (size 9 to 14) (size 15 to 20)
#    0.000    1.429    1.429    2.571    8.000    0.571 
#    0.000   32.857    0.000    0.000    0.000    0.000 
#    0.000    0.000    0.000    0.000    0.000    0.000 
#
# Total GULP energy -77999.789686 kJ/mol
# GULP energy per Si atom -5571.413549 kJ/mol
# Density = 2.723416 g / cm^3
# Si number density = 27.296286 Si / 1000 Ang^3
#
#
#
# Elastic Constant Matrix: (Units=GPa)
#
#
# Indices 1 2 3 4 5 6 
#
# 1 173.1103 54.9283 52.0825 1.4509 -24.2254 -41.0320
# 2 54.9283 134.4862 20.7019 10.9540 -2.5637 -43.7911
# 3 52.0825 20.7019 65.6758 -11.8693 -18.0709 -7.6988
# 4 1.4509 10.9540 -11.8693 49.4796 -15.0960 -6.3397
# 5 -24.2254 -2.5637 -18.0709 -15.0960 76.8140 -3.2954
# 6 -41.0320 -43.7911 -7.6988 -6.3397 -3.2954 55.6550
#
#
#
# Elastic Compliance Matrix: (Units=1/GPa)
#
#
# Indices 1 2 3 4 5 6 
#
# 1 0.009478 -0.001144 -0.006127 -0.000303 0.001678 0.005305
# 2 -0.001144 0.010675 -0.002213 -0.002167 -0.000652 0.006965
# 3 -0.006127 -0.002213 0.023247 0.007482 0.004852 -0.001903
# 4 -0.000303 -0.002167 0.007482 0.024794 0.006565 0.002320
# 5 0.001678 -0.000652 0.004852 0.006565 0.016090 0.003095
# 6 0.005305 0.006965 -0.001903 0.002320 0.003095 0.027543
#
#
# Mechanical properties :
#
#
# Convention : Reuss Voigt Hill
#
# Bulk Modulus (GPa) = 40.92769 69.85529 55.39149
# Shear Modulus (GPa) = 35.98737 52.76036 44.37387
#
# Velocity S-wave (km/s) = 3.63491 4.40122 4.03629
# Velocity P-wave (km/s) = 5.71342 7.17459 6.48529
#
# Compressibility (1/GPa) = 0.02443334
#
# Stress axis : x y z
#
# Youngs Moduli (GPa) = 105.51214 93.67262 43.01711
#
# Poissons Ratio (x) = 0.10715 0.26355
# Poissons Ratio (y) = 0.12069 0.09518
# Poissons Ratio (z) = 0.64644 0.20726
#
# Static dielectric constant tensor:
#      x y z
#    x 2.118870 0.100620 0.038990 
#    y 0.100620 2.312170 -0.074200 
#    z 0.038990 -0.074200 2.343270 
# 
# From -- ./inp_files/388404.got.cif
#   From: 2010.05.17/outbox.cif.g08.bks.cpg/sg2_195_cif.got.tgz:388404.got - 2010.06.03 11:33:40.
