data_PCOD9028782
_publ_section_title
;
Structure prediction by ZEFSAII (Michael W. Deem and Ramdas Pophale) SiO2 
 PCOD9028782
Probable space group: P -1
;
_chemical_formula_sum "Si O2"
_cell_formula_units_Z 16
_cell_length_a 5.414705
_cell_length_b 5.035540
_cell_length_c 21.333651
_cell_angle_alpha 85.930820
_cell_angle_beta 94.130374
_cell_angle_gamma 87.811350
_cell_volume 578.160835
_symmetry_space_group_name_H-M "P -1"
_symmetry_group_IT_number 2
_symmetry_cell_setting 'triclinic'
loop_
_space_group_symop_operation_xyz
x,y,z
-x,-y,-z
loop_
_atom_site_type_symbol
_atom_site_label
_atom_site_fract_x
_atom_site_fract_y
_atom_site_fract_z
Si Si1 0.570172 0.937610 0.409795
Si Si2 0.214055 0.377758 0.338198
Si Si3 0.919990 0.281179 0.551683
Si Si4 0.157267 0.804084 0.752750
Si Si5 0.834865 0.910872 0.866656
Si Si6 0.822772 0.308212 0.035785
Si Si7 0.552808 0.709667 0.276386
Si Si8 0.443755 0.616455 0.093196
O O1 0.443964 0.210962 0.376478
O O2 0.850487 0.937137 0.439929
O O3 0.586202 0.749293 0.351525
O O4 0.360300 0.823126 0.454114
O O5 0.024187 0.168688 0.311157
O O6 0.295626 0.559561 0.277951
O O7 0.090000 0.563009 0.385020
O O8 0.000000 0.500000 0.500000
O O9 0.385555 0.997901 0.750397
O O10 0.266440 0.502230 0.752718
O O11 0.988061 0.886948 0.806730
O O12 0.714013 0.632665 0.884720
O O13 0.032192 0.942984 0.926921
O O14 0.628812 0.147674 0.865170
O O15 0.710005 0.474919 0.089739
O O16 0.619087 0.264493 0.979637
O O17 0.000000 0.500000 0.000000
#
# Coordination Sequence:
#
# PCOD9028782 Si02
#       8
#     2   2   2   2   2   2   2   2
#     4  11  23  45  73 106 148 198 249 305 381 448
#     4  11  26  45  73 103 149 196 251 304 380 445
#     4  11  25  44  73 114 152 194 253 315 379 455
#     4  12  25  46  71 104 148 190 251 306 372 447
#     4  11  24  42  64 100 137 182 234 299 361 426
#     4   9  21  41  69  94 133 184 226 292 361 436
#     4  11  24  45  72 102 141 195 248 300 369 445
#     4  10  22  42  64  99 135 175 238 288 363 434
#
# _framework density 27.673960000000001
#
# number of rings (size 3 to 8) (size 9 to 14) (size 15 to 20)
#    0.000    1.250    2.500    2.250    1.750    8.500 
#    2.250    0.000    0.000    2.250    0.000    0.000 
#    0.000    0.000    0.000    0.000    0.000    0.000 
#
# Total GULP energy -89641.074218 kJ/mol
# GULP energy per Si atom -5602.567139 kJ/mol
# Density = 2.761097 g / cm^3
# Si number density = 27.673960 Si / 1000 Ang^3
#
#
#
# Elastic Constant Matrix: (Units=GPa)
#
#
# Indices 1 2 3 4 5 6 
#
# 1 136.5842 41.8652 44.9096 4.0531 -20.8333 -6.6569
# 2 41.8652 145.1251 22.9170 8.3805 -10.6971 -2.2238
# 3 44.9096 22.9170 81.1744 17.7273 -33.3864 -1.8609
# 4 4.0531 8.3805 17.7273 34.0981 -11.6903 -11.5127
# 5 -20.8333 -10.6971 -33.3864 -11.6903 59.7183 0.7900
# 6 -6.6569 -2.2238 -1.8609 -11.5127 0.7900 59.2936
#
#
#
# Elastic Compliance Matrix: (Units=1/GPa)
#
#
# Indices 1 2 3 4 5 6 
#
# 1 0.009717 -0.002088 -0.005055 0.002687 0.000698 0.001366
# 2 -0.002088 0.007681 -0.000735 -0.001343 -0.000023 -0.000230
# 3 -0.005055 -0.000735 0.020196 -0.007509 0.007946 -0.001525
# 4 0.002687 -0.001343 -0.007509 0.036893 0.003626 0.007130
# 5 0.000698 -0.000023 0.007946 0.003626 0.022127 0.000736
# 6 0.001366 -0.000230 -0.001525 0.007130 0.000736 0.018337
#
#
# Mechanical properties :
#
#
# Convention : Reuss Voigt Hill
#
# Bulk Modulus (GPa) = 45.78898 64.69638 55.24268
# Shear Modulus (GPa) = 36.23565 47.50144 41.86855
#
# Velocity S-wave (km/s) = 3.62246 4.14752 3.89385
# Velocity P-wave (km/s) = 5.83764 6.80917 6.34203
#
# Compressibility (1/GPa) = 0.02183932
#
# Stress axis : x y z
#
# Youngs Moduli (GPa) = 102.91552 130.18736 49.51378
#
# Poissons Ratio (x) = 0.27178 0.25028
# Poissons Ratio (y) = 0.21485 0.03640
# Poissons Ratio (z) = 0.52022 0.09570
#
# Static dielectric constant tensor:
#      x y z
#    x 2.187940 0.015190 0.075160 
#    y 0.015190 2.098490 -0.012400 
#    z 0.075160 -0.012400 2.228750 
# 
# From -- ./inp_files/11313.got.cif
#   From: 2010.05.17/outbox.cif.g08.bks.cpg/sg2_6_cif.got.tgz:11313.got - 2010.06.03 11:33:40.
