data_PCOD9028236
_publ_section_title
;
Structure prediction by ZEFSAII (Michael W. Deem and Ramdas Pophale) SiO2 
 PCOD9028236
Probable space group: P -1
;
_chemical_formula_sum "Si O2"
_cell_formula_units_Z 14
_cell_length_a 18.471876
_cell_length_b 5.085885
_cell_length_c 24.751316
_cell_angle_alpha 82.349052
_cell_angle_beta 20.084533
_cell_angle_gamma 92.965403
_cell_volume 676.287089
_symmetry_space_group_name_H-M "P -1"
_symmetry_group_IT_number 2
_symmetry_cell_setting 'triclinic'
loop_
_space_group_symop_operation_xyz
x,y,z
-x,-y,-z
loop_
_atom_site_type_symbol
_atom_site_label
_atom_site_fract_x
_atom_site_fract_y
_atom_site_fract_z
Si Si1 0.008272 0.803436 0.793161
Si Si2 0.441714 0.274186 0.213332
Si Si3 0.219004 0.298534 0.268896
Si Si4 0.168895 0.310900 0.588856
Si Si5 0.313841 0.078240 0.101796
Si Si6 0.755240 0.373915 0.586996
Si Si7 0.272772 0.459343 0.626714
O O1 0.172852 0.679283 0.706378
O O2 0.053786 0.097592 0.788487
O O3 0.118186 0.968806 0.652531
O O4 0.728285 0.525560 0.995585
O O5 0.261450 0.115776 0.292045
O O6 0.318817 0.449621 0.323240
O O7 0.419427 0.996044 0.272740
O O8 0.170174 0.126703 0.250329
O O9 0.023533 0.409734 0.406997
O O10 0.496707 0.594951 0.065734
O O11 0.262177 0.489392 0.462469
O O12 0.326226 0.515212 0.523306
O O13 0.876640 0.196233 0.795727
O O14 0.500000 0.000000 0.000000
O O15 0.500000 0.500000 0.500000
#
# Coordination Sequence:
#
# PCOD9028236 Si02
#       7
#     2   2   2   2   2   2   2
#     4  10  23  40  70  91 126 158 214 254 322 377
#     4  12  26  42  61  91 134 177 214 257 313 377
#     4  11  24  37  58  88 128 177 224 260 306 363
#     4  10  24  39  67  92 127 164 217 259 321 370
#     4  11  22  36  63  89 129 165 222 269 308 358
#     4  12  26  39  61  91 134 173 216 263 312 365
#     4  10  22  41  73 101 119 152 213 276 317 375
#
# _framework density 20.701269
#
# number of rings (size 3 to 8) (size 9 to 14) (size 15 to 20)
#    0.857    0.286    2.857    3.000    8.000    0.000 
#    0.000    0.000    0.000    5.143    0.000    0.000 
#    0.000    0.000    0.000    0.000    0.000    0.000 
#
# Total GULP energy -77958.801274 kJ/mol
# GULP energy per Si atom -5568.485805 kJ/mol
# Density = 2.065415 g / cm^3
# Si number density = 20.701269 Si / 1000 Ang^3
#
#
#
# Elastic Constant Matrix: (Units=GPa)
#
#
# Indices 1 2 3 4 5 6 
#
# 1 108.8881 21.6365 35.8653 -1.2844 -17.5615 -17.4356
# 2 21.6365 97.7659 30.0269 -3.6419 8.5320 -23.1432
# 3 35.8653 30.0269 57.6511 -5.1828 0.7493 -13.0333
# 4 -1.2844 -3.6419 -5.1828 37.6889 -5.5390 0.8494
# 5 -17.5615 8.5320 0.7493 -5.5390 24.5180 0.2702
# 6 -17.4356 -23.1432 -13.0333 0.8494 0.2702 28.4496
#
#
#
# Elastic Compliance Matrix: (Units=1/GPa)
#
#
# Indices 1 2 3 4 5 6 
#
# 1 0.014314 -0.000658 -0.007576 0.000874 0.010860 0.004637
# 2 -0.000658 0.014581 -0.005062 -0.000335 -0.005568 0.009201
# 3 -0.007576 -0.005062 0.025604 0.002119 -0.004001 0.002943
# 4 0.000874 -0.000335 0.002119 0.027838 0.006963 0.000336
# 5 0.010860 -0.005568 -0.004001 0.006963 0.052202 -0.000411
# 6 0.004637 0.009201 0.002943 0.000336 -0.000411 0.046819
#
#
# Mechanical properties :
#
#
# Convention : Reuss Voigt Hill
#
# Bulk Modulus (GPa) = 35.83672 48.81806 42.32739
# Shear Modulus (GPa) = 23.01466 29.91639 26.46553
#
# Velocity S-wave (km/s) = 3.33791 3.80563 3.57942
# Velocity P-wave (km/s) = 5.67490 6.55315 6.12978
#
# Compressibility (1/GPa) = 0.02790434
#
# Stress axis : x y z
#
# Youngs Moduli (GPa) = 69.85973 68.58464 39.05715
#
# Poissons Ratio (x) = 0.04516 0.29592
# Poissons Ratio (y) = 0.04600 0.19771
# Poissons Ratio (z) = 0.52929 0.34718
#
# Static dielectric constant tensor:
#      x y z
#    x 1.815580 -0.016520 0.089910 
#    y -0.016520 1.835770 -0.034130 
#    z 0.089910 -0.034130 1.783660 
# 
# From -- ./inp_files/612638.got.cif
#   From: 2010.05.17/outbox.cif.g08.bks.cpg/sg2_307_cif.got.tgz:612638.got - 2010.06.03 11:33:40.
