data_PCOD9028517
_publ_section_title
;
Structure prediction by ZEFSAII (Michael W. Deem and Ramdas Pophale) SiO2 
 PCOD9028517
Probable space group: P -1
;
_chemical_formula_sum "Si O2"
_cell_formula_units_Z 16
_cell_length_a 7.218561
_cell_length_b 12.936026
_cell_length_c 9.323009
_cell_angle_alpha 92.765055
_cell_angle_beta 112.239581
_cell_angle_gamma 123.627896
_cell_volume 632.300758
_symmetry_space_group_name_H-M "P -1"
_symmetry_group_IT_number 2
_symmetry_cell_setting 'triclinic'
loop_
_space_group_symop_operation_xyz
x,y,z
-x,-y,-z
loop_
_atom_site_type_symbol
_atom_site_label
_atom_site_fract_x
_atom_site_fract_y
_atom_site_fract_z
Si Si1 0.465449 0.327690 0.774019
Si Si2 0.228187 0.600769 0.379682
Si Si3 0.904174 0.753365 0.093619
Si Si4 0.919504 0.178965 0.281122
Si Si5 0.787841 0.572494 0.405947
Si Si6 0.092663 0.651733 0.938998
Si Si7 0.537494 0.984333 0.675423
Si Si8 0.782947 0.866840 0.840888
O O1 0.529067 0.290983 0.638687
O O2 0.447780 0.444228 0.735435
O O3 0.205739 0.245914 0.784975
O O4 0.674086 0.342374 0.937829
O O5 0.294781 0.554289 0.536294
O O6 0.019376 0.616266 0.371198
O O7 0.077673 0.475491 0.219948
O O8 0.196393 0.882976 0.189101
O O9 0.940491 0.650081 0.031456
O O10 0.724843 0.756840 0.927966
O O11 0.825540 0.224923 0.128294
O O12 0.696408 0.055882 0.298711
O O13 0.090022 0.305455 0.441424
O O14 0.082502 0.142944 0.253496
O O15 0.564082 0.871118 0.717820
O O16 0.500000 0.000000 0.500000
O O17 0.000000 0.000000 0.000000
#
# Coordination Sequence:
#
# PCOD9028517 Si02
#       8
#     2   2   2   2   2   2   2   2
#     4  12  22  38  63  89 121 157 196 249 298 345
#     4  10  23  42  61  86 123 158 196 244 300 354
#     4  10  23  39  59  91 122 154 202 242 293 359
#     4  10  22  42  63  84 122 161 195 243 298 349
#     4  10  23  41  61  90 119 157 203 241 292 360
#     4  10  23  40  62  90 117 155 201 248 296 351
#     4  11  23  39  61  90 122 158 198 245 292 349
#     4   9  21  40  60  85 116 155 200 241 291 351
#
# _framework density 25.304411999999999
#
# number of rings (size 3 to 8) (size 9 to 14) (size 15 to 20)
#    0.000    1.750    0.000    3.000    0.000   11.000 
#    0.000    7.500    0.000    0.000    0.000    0.000 
#    0.000    0.000    0.000    0.000    0.000    0.000 
#
# Total GULP energy -89461.552503 kJ/mol
# GULP energy per Si atom -5591.347031 kJ/mol
# Density = 2.524682 g / cm^3
# Si number density = 25.304412 Si / 1000 Ang^3
#
#
#
# Elastic Constant Matrix: (Units=GPa)
#
#
# Indices 1 2 3 4 5 6 
#
# 1 160.2748 19.9132 49.1587 -4.5163 -28.7220 -0.1845
# 2 19.9132 28.6913 29.9465 3.7347 -5.6373 7.9678
# 3 49.1587 29.9465 108.2909 -8.7433 -4.9763 4.4299
# 4 -4.5163 3.7347 -8.7433 33.1533 -3.2862 -9.2999
# 5 -28.7220 -5.6373 -4.9763 -3.2862 65.6255 -15.5987
# 6 -0.1845 7.9678 4.4299 -9.2999 -15.5987 42.1012
#
#
#
# Elastic Compliance Matrix: (Units=1/GPa)
#
#
# Indices 1 2 3 4 5 6 
#
# 1 0.008192 -0.003241 -0.002600 0.001962 0.003871 0.002791
# 2 -0.003241 0.058626 -0.015476 -0.015018 -0.001480 -0.013347
# 3 -0.002600 -0.015476 0.015058 0.006020 -0.000429 0.002504
# 4 0.001962 -0.015018 0.006020 0.037647 0.004840 0.012327
# 5 0.003871 -0.001480 -0.000429 0.004840 0.019026 0.008461
# 6 0.002791 -0.013347 0.002504 0.012327 0.008461 0.031885
#
#
# Mechanical properties :
#
#
# Convention : Reuss Voigt Hill
#
# Bulk Modulus (GPa) = 25.48265 55.03264 40.25764
# Shear Modulus (GPa) = 22.10934 41.39192 31.75063
#
# Velocity S-wave (km/s) = 2.95911 4.04884 3.54608
# Velocity P-wave (km/s) = 4.66555 6.60704 5.71928
#
# Compressibility (1/GPa) = 0.03924239
#
# Stress axis : x y z
#
# Youngs Moduli (GPa) = 122.07441 17.05715 66.40890
#
# Poissons Ratio (x) = 0.05529 0.17267
# Poissons Ratio (y) = 0.39567 1.02772
# Poissons Ratio (z) = 0.31741 0.26397
#
# Static dielectric constant tensor:
#      x y z
#    x 1.987520 0.005930 -0.016040 
#    y 0.005930 2.091470 -0.041980 
#    z -0.016040 -0.041980 2.029290 
# 
# From -- ./inp_files/135552.got.cif
#   From: 2010.05.17/outbox.cif.g08.bks.cpg/sg2_68_cif.got.tgz:135552.got - 2010.06.03 11:33:40.
