data_PCOD9028752
_publ_section_title
;
Structure prediction by ZEFSAII (Michael W. Deem and Ramdas Pophale) SiO2 
 PCOD9028752
Probable space group: P -1
;
_chemical_formula_sum "Si O2"
_cell_formula_units_Z 16
_cell_length_a 29.506783
_cell_length_b 11.634598
_cell_length_c 14.988638
_cell_angle_alpha 147.929998
_cell_angle_beta 17.921250
_cell_angle_gamma 149.115453
_cell_volume 797.108974
_symmetry_space_group_name_H-M "P -1"
_symmetry_group_IT_number 2
_symmetry_cell_setting 'triclinic'
loop_
_space_group_symop_operation_xyz
x,y,z
-x,-y,-z
loop_
_atom_site_type_symbol
_atom_site_label
_atom_site_fract_x
_atom_site_fract_y
_atom_site_fract_z
Si Si1 0.501300 0.763190 0.800597
Si Si2 0.763252 0.539529 0.201842
Si Si3 0.737015 0.973561 0.186832
Si Si4 0.430275 0.365714 0.132070
Si Si5 0.566717 0.151077 0.215058
Si Si6 0.295726 0.467614 0.132230
Si Si7 0.921413 0.308048 0.203226
Si Si8 0.804912 0.415227 0.229792
O O1 0.650504 0.690597 0.500393
O O2 0.492743 0.786934 0.726828
O O3 0.352358 0.585694 0.008955
O O4 0.500000 0.000000 0.000000
O O5 0.724283 0.353362 0.074525
O O6 0.729524 0.382688 0.251014
O O7 0.939766 0.694692 0.991795
O O8 0.836338 0.076024 0.157185
O O9 0.750204 0.193663 0.246520
O O10 0.562838 0.856851 0.472773
O O11 0.783282 0.795174 0.919724
O O12 0.261951 0.393621 0.479174
O O13 0.500000 0.500000 0.000000
O O14 0.550402 0.488105 0.065905
O O15 0.419286 0.101421 0.978851
O O16 0.193100 0.589463 0.460618
O O17 0.013356 0.484909 0.069701
#
# Coordination Sequence:
#
# PCOD9028752 Si02
#       8
#     2   2   2   2   2   2   2   2
#     4  12  22  44  69  91 129 174 228 274 327 384
#     4  10  24  42  66  95 129 170 220 275 329 388
#     4  12  23  41  72  97 136 177 217 273 339 387
#     4  12  22  38  69 103 131 166 224 273 325 394
#     4  12  23  40  71  97 129 173 221 280 325 385
#     4  12  24  42  67 100 130 181 222 268 328 403
#     4  10  24  46  61 100 141 170 219 267 340 393
#     4  10  22  42  64  97 138 169 216 272 334 390
#
# _framework density 20.072535999999999
#
# number of rings (size 3 to 8) (size 9 to 14) (size 15 to 20)
#    0.750    0.000    6.250    0.750    1.750    2.500 
#    0.000    3.125    0.000    0.000    0.000    0.000 
#    0.000    0.000    0.000    0.000    0.000    0.000 
#
# Total GULP energy -89215.585603 kJ/mol
# GULP energy per Si atom -5575.974100 kJ/mol
# Density = 2.002685 g / cm^3
# Si number density = 20.072536 Si / 1000 Ang^3
#
#
#
# Elastic Constant Matrix: (Units=GPa)
#
#
# Indices 1 2 3 4 5 6 
#
# 1 62.5501 35.7148 8.1217 19.0302 -15.5830 3.8229
# 2 35.7148 80.4475 33.7390 23.0074 -10.6267 17.7589
# 3 8.1217 33.7390 91.0939 11.2514 -3.8352 5.6939
# 4 19.0302 23.0074 11.2514 27.1528 0.4868 11.8775
# 5 -15.5830 -10.6267 -3.8352 0.4868 23.8449 -3.1613
# 6 3.8229 17.7589 5.6939 11.8775 -3.1613 45.8409
#
#
#
# Elastic Compliance Matrix: (Units=1/GPa)
#
#
# Indices 1 2 3 4 5 6 
#
# 1 0.029898 -0.008450 0.003044 -0.018126 0.017468 0.006303
# 2 -0.008450 0.022754 -0.006158 -0.008735 0.003161 -0.004864
# 3 0.003044 -0.006158 0.013350 -0.003083 0.001639 0.001385
# 4 -0.018126 -0.008735 -0.003083 0.064091 -0.019220 -0.012653
# 5 0.017468 0.003161 0.001639 -0.019220 0.056210 0.005971
# 6 0.006303 -0.004864 0.001385 -0.012653 0.005971 0.026691
#
#
# Mechanical properties :
#
#
# Convention : Reuss Voigt Hill
#
# Bulk Modulus (GPa) = 23.32380 43.24919 33.28650
# Shear Modulus (GPa) = 19.96690 29.80209 24.88450
#
# Velocity S-wave (km/s) = 3.15737 3.85739 3.52480
# Velocity P-wave (km/s) = 4.99369 6.43681 5.76062
#
# Compressibility (1/GPa) = 0.04287465
#
# Stress axis : x y z
#
# Youngs Moduli (GPa) = 33.44702 43.94802 74.90467
#
# Poissons Ratio (x) = 0.37137 -0.22804
# Poissons Ratio (y) = 0.28263 0.46128
# Poissons Ratio (z) = -0.10182 0.27064
#
# Static dielectric constant tensor:
#      x y z
#    x 1.765530 -0.003430 0.036470 
#    y -0.003430 1.772190 -0.029760 
#    z 0.036470 -0.029760 1.743630 
# 
# From -- ./inp_files/455058.got.cif
#   From: 2010.05.17/outbox.cif.g08.bks.cpg/sg2_228_cif.got.tgz:455058.got - 2010.06.03 11:33:40.
