data_PCOD9028862
_publ_section_title
;
Structure prediction by ZEFSAII (Michael W. Deem and Ramdas Pophale) SiO2 
 PCOD9028862
Probable space group: P -1
;
_chemical_formula_sum "Si O2"
_cell_formula_units_Z 14
_cell_length_a 9.594124
_cell_length_b 14.959240
_cell_length_c 11.067206
_cell_angle_alpha 129.222790
_cell_angle_beta 120.390589
_cell_angle_gamma 30.769837
_cell_volume 626.699658
_symmetry_space_group_name_H-M "P -1"
_symmetry_group_IT_number 2
_symmetry_cell_setting 'triclinic'
loop_
_space_group_symop_operation_xyz
x,y,z
-x,-y,-z
loop_
_atom_site_type_symbol
_atom_site_label
_atom_site_fract_x
_atom_site_fract_y
_atom_site_fract_z
Si Si1 0.043126 0.815398 0.085049
Si Si2 0.511540 0.884386 0.817349
Si Si3 0.332038 0.570578 0.663391
Si Si4 0.701488 0.536678 0.690532
Si Si5 0.675450 0.805340 0.336065
Si Si6 0.604659 0.594069 0.195974
Si Si7 0.760097 0.924866 0.809876
O O1 0.293033 0.759383 0.155755
O O2 0.192266 0.604024 0.963627
O O3 0.809203 0.961322 0.208984
O O4 0.880973 0.919306 0.975664
O O5 0.654701 0.698759 0.791754
O O6 0.681893 0.838178 0.741115
O O7 0.500000 0.000000 0.000000
O O8 0.513392 0.580831 0.742940
O O9 0.389723 0.461263 0.477854
O O10 0.386997 0.468262 0.721564
O O11 0.009971 0.783082 0.705325
O O12 0.019821 0.328025 0.671580
O O13 0.692291 0.675409 0.304012
O O14 0.500000 0.000000 0.500000
O O15 0.511250 0.872495 0.198280
#
# Coordination Sequence:
#
# PCOD9028862 Si02
#       7
#     2   2   2   2   2   2   2
#     4   9  21  45  65  94 124 173 217 258 315 382
#     4  10  22  42  65  92 126 170 212 258 316 377
#     4  10  23  43  65  95 124 176 207 264 324 371
#     4  11  24  42  66  94 134 161 218 262 316 385
#     4  12  25  40  64 102 128 165 214 265 319 385
#     4  10  23  43  69  90 134 166 217 262 322 371
#     4  10  22  42  66  93 130 168 213 256 326 371
#
# _framework density 22.33925
#
# number of rings (size 3 to 8) (size 9 to 14) (size 15 to 20)
#    0.000    1.714    1.429    2.571    6.000    1.714 
#   12.857    5.000    0.000    0.000    0.000    0.000 
#    0.000    0.000    0.000    0.000    0.000    0.000 
#
# Total GULP energy -78209.272305 kJ/mol
# GULP energy per Si atom -5586.376593 kJ/mol
# Density = 2.228841 g / cm^3
# Si number density = 22.339250 Si / 1000 Ang^3
#
#
#
# Elastic Constant Matrix: (Units=GPa)
#
#
# Indices 1 2 3 4 5 6 
#
# 1 132.6647 48.3816 10.0395 14.6780 -0.8902 -12.6160
# 2 48.3816 119.4235 10.4207 -2.8295 -6.6195 -20.7056
# 3 10.0395 10.4207 31.1511 6.6674 7.8552 -2.9546
# 4 14.6780 -2.8295 6.6674 36.1135 1.6801 -4.7969
# 5 -0.8902 -6.6195 7.8552 1.6801 21.6652 5.8636
# 6 -12.6160 -20.7056 -2.9546 -4.7969 5.8636 42.5012
#
#
#
# Elastic Compliance Matrix: (Units=1/GPa)
#
#
# Indices 1 2 3 4 5 6 
#
# 1 0.009457 -0.003781 -0.000822 -0.003907 -0.000303 0.000509
# 2 -0.003781 0.011187 -0.003708 0.003480 0.003251 0.004014
# 3 -0.000822 -0.003708 0.039007 -0.006164 -0.015397 0.002090
# 4 -0.003907 0.003480 -0.006164 0.031188 -0.000273 0.003665
# 5 -0.000303 0.003251 -0.015397 -0.000273 0.054677 -0.007151
# 6 0.000509 0.004014 0.002090 0.003665 -0.007151 0.027181
#
#
# Mechanical properties :
#
#
# Convention : Reuss Voigt Hill
#
# Bulk Modulus (GPa) = 23.23941 46.76923 35.00432
# Shear Modulus (GPa) = 24.55028 34.34914 29.44971
#
# Velocity S-wave (km/s) = 3.31868 3.92550 3.63477
# Velocity P-wave (km/s) = 5.01102 6.44417 5.77225
#
# Compressibility (1/GPa) = 0.04303035
#
# Stress axis : x y z
#
# Youngs Moduli (GPa) = 105.73663 89.38592 25.63638
#
# Poissons Ratio (x) = 0.33795 0.02108
# Poissons Ratio (y) = 0.39977 0.09505
# Poissons Ratio (z) = 0.08695 0.33141
#
# Static dielectric constant tensor:
#      x y z
#    x 1.879850 -0.024130 -0.039020 
#    y -0.024130 1.846840 -0.003270 
#    z -0.039020 -0.003270 1.870070 
# 
# From -- ./inp_files/331634.got.cif
#   From: 2010.05.17/outbox.cif.g08.bks.cpg/sg2_166_cif.got.tgz:331634.got - 2010.06.03 11:33:40.
