data_PCOD9028695
_publ_section_title
;
Structure prediction by ZEFSAII (Michael W. Deem and Ramdas Pophale) SiO2 
 PCOD9028695
Probable space group: P -1
;
_chemical_formula_sum "Si O2"
_cell_formula_units_Z 12
_cell_length_a 7.391207
_cell_length_b 12.786717
_cell_length_c 11.440505
_cell_angle_alpha 46.219909
_cell_angle_beta 139.983477
_cell_angle_gamma 134.871795
_cell_volume 464.659243
_symmetry_space_group_name_H-M "P -1"
_symmetry_group_IT_number 2
_symmetry_cell_setting 'triclinic'
loop_
_space_group_symop_operation_xyz
x,y,z
-x,-y,-z
loop_
_atom_site_type_symbol
_atom_site_label
_atom_site_fract_x
_atom_site_fract_y
_atom_site_fract_z
Si Si1 0.430722 0.861703 0.929865
Si Si2 0.320325 0.966150 0.558771
Si Si3 0.950461 0.439318 0.714284
Si Si4 0.614047 0.833367 0.348865
Si Si5 0.227591 0.365227 0.692595
Si Si6 0.164381 0.400102 0.094838
O O1 0.638131 0.769628 0.144589
O O2 0.424517 0.862861 0.783136
O O3 0.083372 0.772666 0.870708
O O4 0.043058 0.116918 0.562974
O O5 0.628659 0.877806 0.459598
O O6 0.500000 0.000000 0.500000
O O7 0.527508 0.044462 0.864559
O O8 0.604006 0.339909 0.656785
O O9 0.950326 0.596382 0.532715
O O10 0.019509 0.337844 0.725009
O O11 0.162694 0.444836 0.923881
O O12 0.504654 0.529344 0.738155
O O13 0.000000 0.500000 0.000000
#
# Coordination Sequence:
#
# PCOD9028695 Si02
#       6
#     2   2   2   2   2   2
#     4   9  20  40  62  97 131 173 227 277 333 407
#     4   9  19  41  67 100 138 178 216 284 346 405
#     4  11  23  43  67  98 138 179 228 287 330 414
#     4   9  21  41  66 104 133 173 231 277 347 398
#     4  10  23  42  65  98 133 182 231 272 340 405
#     4  10  22  42  64  93 136 179 225 277 343 399
#
# _framework density 25.825379000000002
#
# number of rings (size 3 to 8) (size 9 to 14) (size 15 to 20)
#    1.000    1.333    0.000    1.500    0.000    5.333 
#   18.000    0.000    0.000    0.000    0.000    1.167 
#    0.000    0.000    0.000    0.000    0.000    0.000 
#
# Total GULP energy -67055.107062 kJ/mol
# GULP energy per Si atom -5587.925588 kJ/mol
# Density = 2.576660 g / cm^3
# Si number density = 25.825379 Si / 1000 Ang^3
#
#
#
# Elastic Constant Matrix: (Units=GPa)
#
#
# Indices 1 2 3 4 5 6 
#
# 1 141.8195 4.9250 45.7600 -4.6463 -16.4965 13.5752
# 2 4.9250 62.5431 6.1741 -1.8902 1.4749 -5.0774
# 3 45.7600 6.1741 123.9837 -29.5176 -31.0312 -11.6678
# 4 -4.6463 -1.8902 -29.5176 43.5246 -2.1049 8.5735
# 5 -16.4965 1.4749 -31.0312 -2.1049 53.1489 -4.5575
# 6 13.5752 -5.0774 -11.6678 8.5735 -4.5575 30.3983
#
#
#
# Elastic Compliance Matrix: (Units=1/GPa)
#
#
# Indices 1 2 3 4 5 6 
#
# 1 0.008823 -0.000768 -0.003880 -0.000665 0.000008 -0.005369
# 2 -0.000768 0.016341 -0.000536 -0.000333 -0.000774 0.002845
# 3 -0.003880 -0.000536 0.014004 0.008285 0.007817 0.005854
# 4 -0.000665 -0.000333 0.008285 0.029581 0.005460 -0.004103
# 5 0.000008 -0.000774 0.007817 0.005460 0.024042 0.004932
# 6 -0.005369 0.002845 0.005854 -0.004103 0.004932 0.039913
#
#
# Mechanical properties :
#
#
# Convention : Reuss Voigt Hill
#
# Bulk Modulus (GPa) = 34.72006 49.11829 41.91917
# Shear Modulus (GPa) = 32.75021 43.51350 38.13185
#
# Velocity S-wave (km/s) = 3.56496 4.10922 3.84673
# Velocity P-wave (km/s) = 5.51531 6.44786 5.99973
#
# Compressibility (1/GPa) = 0.02880180
#
# Stress axis : x y z
#
# Youngs Moduli (GPa) = 113.34363 61.19412 71.40891
#
# Poissons Ratio (x) = 0.04699 0.27703
# Poissons Ratio (y) = 0.08704 0.03825
# Poissons Ratio (z) = 0.43972 0.03278
#
# Static dielectric constant tensor:
#      x y z
#    x 2.082520 0.037080 -0.081410 
#    y 0.037080 1.813290 -0.059810 
#    z -0.081410 -0.059810 2.043990 
# 
# From -- ./inp_files/393953.got.cif
#   From: 2010.05.17/outbox.cif.g08.bks.cpg/sg2_197_cif.got.tgz:393953.got - 2010.06.03 11:33:40.
