data_PCOD9028547
_publ_section_title
;
Structure prediction by ZEFSAII (Michael W. Deem and Ramdas Pophale) SiO2 
 PCOD9028547
Probable space group: P -1
;
_chemical_formula_sum "Si O2"
_cell_formula_units_Z 14
_cell_length_a 11.470963
_cell_length_b 11.827970
_cell_length_c 11.937138
_cell_angle_alpha 122.341812
_cell_angle_beta 126.717833
_cell_angle_gamma 24.329323
_cell_volume 534.622955
_symmetry_space_group_name_H-M "P -1"
_symmetry_group_IT_number 2
_symmetry_cell_setting 'triclinic'
loop_
_space_group_symop_operation_xyz
x,y,z
-x,-y,-z
loop_
_atom_site_type_symbol
_atom_site_label
_atom_site_fract_x
_atom_site_fract_y
_atom_site_fract_z
Si Si1 0.775247 0.466559 0.804515
Si Si2 0.393183 0.952688 0.978300
Si Si3 0.436877 0.670138 0.140497
Si Si4 0.109866 0.190083 0.253699
Si Si5 0.820356 0.912386 0.510403
Si Si6 0.497307 0.574594 0.379703
Si Si7 0.934842 0.576778 0.236200
O O1 0.478484 0.759004 0.847202
O O2 0.682502 0.403768 0.658556
O O3 0.902113 0.475466 0.797864
O O4 0.037160 0.243011 0.929970
O O5 0.626375 0.760628 0.111543
O O6 0.500000 0.000000 0.000000
O O7 0.370997 0.674914 0.231502
O O8 0.759498 0.479664 0.233337
O O9 0.196925 0.977768 0.135518
O O10 0.500000 0.500000 0.000000
O O11 0.255671 0.067366 0.394863
O O12 0.151165 0.289298 0.257332
O O13 0.845574 0.759590 0.371628
O O14 0.147318 0.718971 0.585030
O O15 0.587787 0.214369 0.504471
#
# Coordination Sequence:
#
# PCOD9028547 Si02
#       7
#     2   2   2   2   2   2   2
#     4  11  24  43  66  95 135 169 219 278 321 387
#     4  10  23  42  61  93 133 169 217 266 328 383
#     4  10  22  42  63  92 128 174 215 265 327 388
#     4  10  23  41  64  98 130 165 221 268 324 384
#     4  10  23  43  67  94 134 173 220 268 319 391
#     4  10  23  43  65  93 131 174 218 273 321 378
#     4  11  24  42  68  99 133 175 218 266 334 390
#
# _framework density 26.186679000000002
#
# number of rings (size 3 to 8) (size 9 to 14) (size 15 to 20)
#    0.000    1.714    0.000    3.429    2.000    9.143 
#    0.000    4.286    0.000    0.000    0.000    0.000 
#    0.000    0.000    0.000    0.000    0.000    0.000 
#
# Total GULP energy -78426.626595 kJ/mol
# GULP energy per Si atom -5601.901900 kJ/mol
# Density = 2.612708 g / cm^3
# Si number density = 26.186679 Si / 1000 Ang^3
#
#
#
# Elastic Constant Matrix: (Units=GPa)
#
#
# Indices 1 2 3 4 5 6 
#
# 1 99.8863 42.9857 11.9508 -6.8039 6.6418 7.4885
# 2 42.9857 140.0790 18.6244 24.3110 2.5848 0.8471
# 3 11.9508 18.6244 102.2826 27.1261 2.4370 9.4668
# 4 -6.8039 24.3110 27.1261 47.4959 -2.6761 4.3948
# 5 6.6418 2.5848 2.4370 -2.6761 29.7962 -3.7186
# 6 7.4885 0.8471 9.4668 4.3948 -3.7186 31.9798
#
#
#
# Elastic Compliance Matrix: (Units=1/GPa)
#
#
# Indices 1 2 3 4 5 6 
#
# 1 0.012989 -0.004631 -0.001739 0.005411 -0.002292 -0.003414
# 2 -0.004631 0.009535 0.000206 -0.005813 -0.000140 0.001553
# 3 -0.001739 0.000206 0.012090 -0.007127 -0.001556 -0.002379
# 4 0.005411 -0.005813 -0.007127 0.029254 0.002162 -0.002772
# 5 -0.002292 -0.000140 -0.001556 0.002162 0.035002 0.004774
# 6 -0.003414 0.001553 -0.002379 -0.002772 0.004774 0.033668
#
#
# Mechanical properties :
#
#
# Convention : Reuss Voigt Hill
#
# Bulk Modulus (GPa) = 44.87045 54.37440 49.62243
# Shear Modulus (GPa) = 32.83139 39.76686 36.29913
#
# Velocity S-wave (km/s) = 3.54467 3.90114 3.72717
# Velocity P-wave (km/s) = 5.82451 6.41101 6.12478
#
# Compressibility (1/GPa) = 0.02228638
#
# Stress axis : x y z
#
# Youngs Moduli (GPa) = 76.98664 104.88165 82.71415
#
# Poissons Ratio (x) = 0.48570 0.14383
# Poissons Ratio (y) = 0.35652 -0.01705
# Poissons Ratio (z) = 0.13387 -0.02163
#
# Static dielectric constant tensor:
#      x y z
#    x 2.092330 0.051590 -0.022620 
#    y 0.051590 2.005470 -0.023940 
#    z -0.022620 -0.023940 2.062800 
# 
# From -- ./inp_files/100851.got.cif
#   From: 2010.05.17/outbox.cif.g08.bks.cpg/sg2_51_cif.got.tgz:100851.got - 2010.06.03 11:33:40.
