data_PCOD9028201
_publ_section_title
;
Structure prediction by ZEFSAII (Michael W. Deem and Ramdas Pophale) SiO2 
 PCOD9028201
Probable space group: P -1
;
_chemical_formula_sum "Si O2"
_cell_formula_units_Z 12
_cell_length_a 8.552811
_cell_length_b 8.750769
_cell_length_c 8.942408
_cell_angle_alpha 62.425340
_cell_angle_beta 113.788958
_cell_angle_gamma 123.696830
_cell_volume 483.737778
_symmetry_space_group_name_H-M "P -1"
_symmetry_group_IT_number 2
_symmetry_cell_setting 'triclinic'
loop_
_space_group_symop_operation_xyz
x,y,z
-x,-y,-z
loop_
_atom_site_type_symbol
_atom_site_label
_atom_site_fract_x
_atom_site_fract_y
_atom_site_fract_z
Si Si1 0.667952 0.557701 0.659118
Si Si2 0.597311 0.458567 0.196109
Si Si3 0.069992 0.886484 0.721000
Si Si4 0.253818 0.801785 0.128116
Si Si5 0.411807 0.927146 0.664246
Si Si6 0.968781 0.844883 0.192347
O O1 0.500000 0.500000 0.500000
O O2 0.580992 0.636993 0.718345
O O3 0.674731 0.359032 0.793835
O O4 0.889077 0.709838 0.656700
O O5 0.675773 0.304602 0.267269
O O6 0.760784 0.666057 0.212876
O O7 0.500000 0.500000 0.000000
O O8 0.248424 0.981179 0.634658
O O9 0.999112 0.031428 0.702630
O O10 0.156667 0.822458 0.928066
O O11 0.102354 0.750735 0.229489
O O12 0.427424 0.992927 0.178617
O O13 0.500000 0.000000 0.500000
O O14 0.000000 0.000000 0.000000
#
# Coordination Sequence:
#
# PCOD9028201 Si02
#       6
#     2   2   2   2   2   2
#     4  12  26  44  69 105 143 187 238 297 363 422
#     4  12  23  43  70 103 142 189 238 290 349 431
#     4  11  23  46  72 102 141 191 241 294 352 431
#     4  11  22  44  72 104 140 188 241 290 351 432
#     4  12  26  44  71 109 148 187 235 299 364 422
#     4  10  22  41  72 107 136 176 236 296 348 412
#
# _framework density 24.806825
#
# number of rings (size 3 to 8) (size 9 to 14) (size 15 to 20)
#    0.000    0.667    0.000   10.000    0.000    1.333 
#    0.000    8.333    0.000    0.000    0.000    0.000 
#    0.000    0.000    0.000    0.000    0.000    0.000 
#
# Total GULP energy -67115.537700 kJ/mol
# GULP energy per Si atom -5592.961475 kJ/mol
# Density = 2.475036 g / cm^3
# Si number density = 24.806825 Si / 1000 Ang^3
#
#
#
# Elastic Constant Matrix: (Units=GPa)
#
#
# Indices 1 2 3 4 5 6 
#
# 1 127.6002 12.3984 35.6079 11.0798 -19.3285 9.5858
# 2 12.3984 129.0276 40.1407 9.7436 8.7018 15.6123
# 3 35.6079 40.1407 138.1025 21.2830 16.1661 8.6686
# 4 11.0798 9.7436 21.2830 29.8476 5.8354 7.6593
# 5 -19.3285 8.7018 16.1661 5.8354 41.1025 -0.1104
# 6 9.5858 15.6123 8.6686 7.6593 -0.1104 55.6509
#
#
#
# Elastic Compliance Matrix: (Units=1/GPa)
#
#
# Indices 1 2 3 4 5 6 
#
# 1 0.009837 -0.000208 -0.002736 -0.002613 0.006115 -0.000838
# 2 -0.000208 0.008801 -0.002176 -0.000523 -0.001036 -0.002025
# 3 -0.002736 -0.002176 0.009727 -0.004469 -0.004017 0.000174
# 4 -0.002613 -0.000523 -0.004469 0.039895 -0.005036 -0.004208
# 5 0.006115 -0.001036 -0.004017 -0.005036 0.029721 0.000615
# 6 -0.000838 -0.002025 0.000174 -0.004208 0.000615 0.019235
#
#
# Mechanical properties :
#
#
# Convention : Reuss Voigt Hill
#
# Bulk Modulus (GPa) = 55.17017 63.44715 59.30866
# Shear Modulus (GPa) = 37.45385 45.75907 41.60646
#
# Velocity S-wave (km/s) = 3.88986 4.29956 4.09983
# Velocity P-wave (km/s) = 6.51635 7.09086 6.80967
#
# Compressibility (1/GPa) = 0.01812574
#
# Stress axis : x y z
#
# Youngs Moduli (GPa) = 101.65824 113.61766 102.80652
#
# Poissons Ratio (x) = 0.02358 0.28133
# Poissons Ratio (y) = 0.02110 0.22368
# Poissons Ratio (z) = 0.27818 0.24720
#
# Static dielectric constant tensor:
#      x y z
#    x 1.957350 0.012240 -0.006720 
#    y 0.012240 1.540060 -0.084040 
#    z -0.006720 -0.084040 1.951090 
# 
# From -- ./inp_files/155126.got.cif
#   From: 2010.05.17/outbox.cif.g08.bks.cpg/sg2_78_cif.got.tgz:155126.got - 2010.06.03 11:33:40.
