data_PCOD9028234
_publ_section_title
;
Structure prediction by ZEFSAII (Michael W. Deem and Ramdas Pophale) SiO2 
 PCOD9028234
Probable space group: P -1
;
_chemical_formula_sum "Si O2"
_cell_formula_units_Z 14
_cell_length_a 9.551083
_cell_length_b 9.236152
_cell_length_c 10.029249
_cell_angle_alpha 72.065490
_cell_angle_beta 65.702340
_cell_angle_gamma 46.107018
_cell_volume 580.748840
_symmetry_space_group_name_H-M "P -1"
_symmetry_group_IT_number 2
_symmetry_cell_setting 'triclinic'
loop_
_space_group_symop_operation_xyz
x,y,z
-x,-y,-z
loop_
_atom_site_type_symbol
_atom_site_label
_atom_site_fract_x
_atom_site_fract_y
_atom_site_fract_z
Si Si1 0.373065 0.311272 0.704798
Si Si2 0.969055 0.346032 0.093082
Si Si3 0.960515 0.832915 0.410081
Si Si4 0.191787 0.996157 0.283915
Si Si5 0.659256 0.008085 0.232041
Si Si6 0.364087 0.380003 0.379605
Si Si7 0.663253 0.331655 0.087616
O O1 0.195212 0.535704 0.756748
O O2 0.402291 0.314255 0.535557
O O3 0.579195 0.206432 0.732043
O O4 0.321298 0.167430 0.791428
O O5 0.851945 0.321704 0.035177
O O6 0.160117 0.141219 0.141688
O O7 0.000000 0.500000 0.000000
O O8 0.876334 0.895388 0.575647
O O9 0.140576 0.592974 0.391841
O O10 0.790872 0.916624 0.341545
O O11 0.054568 0.939416 0.319106
O O12 0.426519 0.196163 0.314416
O O13 0.724074 0.117118 0.094700
O O14 0.534142 0.388435 0.258337
O O15 0.500000 0.500000 0.000000
#
# Coordination Sequence:
#
# PCOD9028234 Si02
#       7
#     2   2   2   2   2   2   2
#     4  12  25  44  72 105 137 174 226 289 344 390
#     4  12  28  48  67 101 140 181 229 280 338 410
#     4  11  21  39  70 102 134 177 225 282 338 399
#     4  11  23  40  68 101 138 174 225 284 341 398
#     4  10  24  43  67 104 137 176 227 276 338 407
#     4  10  22  41  73 100 136 173 227 280 337 396
#     4  10  24  48  70  93 141 182 224 276 334 409
#
# _framework density 24.106807
#
# number of rings (size 3 to 8) (size 9 to 14) (size 15 to 20)
#    0.857    0.286    4.286    1.286    4.000    4.571 
#    2.571    1.429    0.000    0.000    0.000    0.000 
#    0.000    0.000    0.000    0.000    0.000    0.000 
#
# Total GULP energy -78335.489797 kJ/mol
# GULP energy per Si atom -5595.392128 kJ/mol
# Density = 2.405194 g / cm^3
# Si number density = 24.106807 Si / 1000 Ang^3
#
#
#
# Elastic Constant Matrix: (Units=GPa)
#
#
# Indices 1 2 3 4 5 6 
#
# 1 55.5658 4.3883 16.4132 -9.2711 -15.9625 14.9208
# 2 4.3883 124.9108 14.2966 -3.9215 12.6056 -7.3546
# 3 16.4132 14.2966 77.2723 -33.9032 -7.1460 6.0260
# 4 -9.2711 -3.9215 -33.9032 47.2003 4.2646 3.1154
# 5 -15.9625 12.6056 -7.1460 4.2646 16.2085 -4.9973
# 6 14.9208 -7.3546 6.0260 3.1154 -4.9973 32.8625
#
#
#
# Elastic Compliance Matrix: (Units=1/GPa)
#
#
# Indices 1 2 3 4 5 6 
#
# 1 0.030146 -0.004390 -0.000755 0.003109 0.028727 -0.010458
# 2 -0.004390 0.009815 -0.002706 -0.001108 -0.011941 0.002975
# 3 -0.000755 -0.002706 0.020754 0.014360 0.005308 -0.004623
# 4 0.003109 -0.001108 0.014360 0.032569 -0.000619 -0.007474
# 5 0.028727 -0.011941 0.005308 -0.000619 0.101403 -0.001210
# 6 -0.010458 0.002975 -0.004623 -0.007474 -0.001210 0.037216
#
#
# Mechanical properties :
#
#
# Convention : Reuss Voigt Hill
#
# Bulk Modulus (GPa) = 22.21546 36.43834 29.32690
# Shear Modulus (GPa) = 19.03981 34.09765 26.56873
#
# Velocity S-wave (km/s) = 2.81341 3.76499 3.32343
# Velocity P-wave (km/s) = 4.44849 5.83510 5.18833
#
# Compressibility (1/GPa) = 0.04501370
#
# Stress axis : x y z
#
# Youngs Moduli (GPa) = 33.17230 101.88454 48.18398
#
# Poissons Ratio (x) = 0.44726 0.03636
# Poissons Ratio (y) = 0.14562 0.13038
# Poissons Ratio (z) = 0.02503 0.27568
#
# Static dielectric constant tensor:
#      x y z
#    x 1.893010 0.040550 -0.059870 
#    y 0.040550 1.914730 0.033510 
#    z -0.059870 0.033510 1.926880 
# 
# From -- ./inp_files/378210.got.cif
#   From: 2010.05.17/outbox.cif.g08.bks.cpg/sg2_190_cif.got.tgz:378210.got - 2010.06.03 11:33:40.
