data_PCOD9028776
_publ_section_title
;
Structure prediction by ZEFSAII (Michael W. Deem and Ramdas Pophale) SiO2 
 PCOD9028776
Probable space group: P -1
;
_chemical_formula_sum "Si O2"
_cell_formula_units_Z 14
_cell_length_a 13.677890
_cell_length_b 7.685330
_cell_length_c 12.886548
_cell_angle_alpha 84.262356
_cell_angle_beta 22.004899
_cell_angle_gamma 82.772658
_cell_volume 503.018664
_symmetry_space_group_name_H-M "P -1"
_symmetry_group_IT_number 2
_symmetry_cell_setting 'triclinic'
loop_
_space_group_symop_operation_xyz
x,y,z
-x,-y,-z
loop_
_atom_site_type_symbol
_atom_site_label
_atom_site_fract_x
_atom_site_fract_y
_atom_site_fract_z
Si Si1 0.221268 0.418017 0.045669
Si Si2 0.060883 0.058352 0.555866
Si Si3 0.793088 0.662217 0.356990
Si Si4 0.269119 0.876092 0.828669
Si Si5 0.405974 0.266244 0.660592
Si Si6 0.448454 0.723526 0.929435
Si Si7 0.478603 0.828427 0.104620
O O1 0.933974 0.502940 0.293053
O O2 0.376333 0.371042 0.789402
O O3 0.374902 0.557134 0.949189
O O4 0.260340 0.249523 0.091262
O O5 0.253234 0.218475 0.369598
O O6 0.263599 0.893374 0.398094
O O7 0.000000 0.000000 0.500000
O O8 0.785655 0.122524 0.874362
O O9 0.735707 0.612644 0.297337
O O10 0.010196 0.800453 0.126828
O O11 0.328318 0.810159 0.655102
O O12 0.523870 0.779102 0.642197
O O13 0.271198 0.084083 0.819767
O O14 0.394367 0.695668 0.108023
O O15 0.500000 0.000000 0.000000
#
# Coordination Sequence:
#
# PCOD9028776 Si02
#       7
#     2   2   2   2   2   2   2
#     4  12  24  40  66 104 138 179 221 290 349 402
#     4   9  19  44  72  87 126 179 219 271 331 398
#     4  10  22  43  66  98 135 175 224 283 337 399
#     4   9  21  44  70  90 137 179 227 276 330 405
#     4   9  22  42  69  97 135 179 229 271 339 407
#     4  10  22  42  64  99 131 168 221 280 340 391
#     4   9  21  44  70  92 133 179 231 277 334 407
#
# _framework density 27.831966999999999
#
# number of rings (size 3 to 8) (size 9 to 14) (size 15 to 20)
#    0.857    1.429    0.000    2.571    0.000    5.143 
#    2.571   22.857    0.000    0.000    0.000    0.000 
#    0.000    0.000    0.000    0.000    0.000    0.000 
#
# Total GULP energy -78203.433232 kJ/mol
# GULP energy per Si atom -5585.959517 kJ/mol
# Density = 2.776862 g / cm^3
# Si number density = 27.831967 Si / 1000 Ang^3
#
#
#
# Elastic Constant Matrix: (Units=GPa)
#
#
# Indices 1 2 3 4 5 6 
#
# 1 180.2234 70.5430 54.6619 28.0646 -5.8462 -10.6055
# 2 70.5430 129.8296 56.4516 28.3186 -2.3088 -11.9018
# 3 54.6619 56.4516 151.3853 13.4034 -29.7098 9.3750
# 4 28.0646 28.3186 13.4034 42.7230 15.9956 6.4743
# 5 -5.8462 -2.3088 -29.7098 15.9956 62.8634 12.9998
# 6 -10.6055 -11.9018 9.3750 6.4743 12.9998 63.2443
#
#
#
# Elastic Compliance Matrix: (Units=1/GPa)
#
#
# Indices 1 2 3 4 5 6 
#
# 1 0.007620 -0.002714 -0.001447 -0.003110 0.000468 0.001204
# 2 -0.002714 0.012074 -0.003359 -0.005378 -0.000648 0.002999
# 3 -0.001447 -0.003359 0.009768 -0.001410 0.005397 -0.003288
# 4 -0.003110 -0.005378 -0.001410 0.033272 -0.009025 -0.002876
# 5 0.000468 -0.000648 0.005397 -0.009025 0.021679 -0.004376
# 6 0.001204 0.002999 -0.003288 -0.002876 -0.004376 0.018259
#
#
# Mechanical properties :
#
#
# Convention : Reuss Voigt Hill
#
# Bulk Modulus (GPa) = 69.33587 91.63903 80.48745
# Shear Modulus (GPa) = 40.80926 52.41823 46.61374
#
# Velocity S-wave (km/s) = 3.83335 4.34450 4.09691
# Velocity P-wave (km/s) = 6.67526 7.62650 7.16668
#
# Compressibility (1/GPa) = 0.01442255
#
# Stress axis : x y z
#
# Youngs Moduli (GPa) = 131.22950 82.82013 102.37069
#
# Poissons Ratio (x) = 0.22480 0.14810
# Poissons Ratio (y) = 0.35620 0.34388
# Poissons Ratio (z) = 0.18985 0.27821
#
# Static dielectric constant tensor:
#      x y z
#    x 2.299520 -0.005040 0.060470 
#    y -0.005040 2.236930 -0.030120 
#    z 0.060470 -0.030120 2.387430 
# 
# From -- ./inp_files/447440.got.cif
#   From: 2010.05.17/outbox.cif.g08.bks.cpg/sg2_224_cif.got.tgz:447440.got - 2010.06.03 11:33:40.
