data_PCOD9028918
_publ_section_title
;
Structure prediction by ZEFSAII (Michael W. Deem and Ramdas Pophale) SiO2 
 PCOD9028918
Probable space group: P -1
;
_chemical_formula_sum "Si O2"
_cell_formula_units_Z 14
_cell_length_a 16.078628
_cell_length_b 5.136152
_cell_length_c 7.114433
_cell_angle_alpha 72.968639
_cell_angle_beta 98.138883
_cell_angle_gamma 108.860963
_cell_volume 530.882385
_symmetry_space_group_name_H-M "P -1"
_symmetry_group_IT_number 2
_symmetry_cell_setting 'triclinic'
loop_
_space_group_symop_operation_xyz
x,y,z
-x,-y,-z
loop_
_atom_site_type_symbol
_atom_site_label
_atom_site_fract_x
_atom_site_fract_y
_atom_site_fract_z
Si Si1 0.946960 0.687603 0.116823
Si Si2 0.540333 0.665445 0.204615
Si Si3 0.367902 0.821405 0.140056
Si Si4 0.069578 0.882414 0.432679
Si Si5 0.390506 0.856976 0.586792
Si Si6 0.192100 0.582618 0.632637
Si Si7 0.170560 0.470990 0.204069
O O1 0.093071 0.509452 0.034940
O O2 0.856996 0.685132 0.200141
O O3 0.011839 0.654867 0.312403
O O4 0.000000 0.000000 0.000000
O O5 0.439958 0.661896 0.139559
O O6 0.556429 0.361765 0.291241
O O7 0.569356 0.836002 0.373177
O O8 0.601835 0.882014 0.027217
O O9 0.379979 0.871416 0.357316
O O10 0.266883 0.632414 0.120636
O O11 0.139686 0.127585 0.282270
O O12 0.133102 0.788591 0.616519
O O13 0.000000 0.000000 0.500000
O O14 0.293597 0.717478 0.668387
O O15 0.176977 0.543492 0.412516
#
# Coordination Sequence:
#
# PCOD9028918 Si02
#       7
#     2   2   2   2   2   2   2
#     4  10  22  42  65  95 127 180 227 288 355 425
#     4  11  25  48  72 111 149 195 242 302 365 442
#     4  10  24  46  74 106 147 192 240 305 363 441
#     4  11  23  43  70  93 138 181 231 296 361 425
#     4  11  26  45  76 107 148 195 246 297 370 435
#     4  11  24  44  65  98 138 183 231 302 353 429
#     4  10  23  45  64 102 132 179 236 287 357 424
#
# _framework density 26.371186000000002
#
# number of rings (size 3 to 8) (size 9 to 14) (size 15 to 20)
#    0.000    1.429    1.429    2.143    4.000    4.000 
#   20.571    0.000    0.000    0.000    0.000    0.000 
#    0.000    0.000    0.000    0.000    0.000    0.000 
#
# Total GULP energy -78312.325499 kJ/mol
# GULP energy per Si atom -5593.737536 kJ/mol
# Density = 2.631116 g / cm^3
# Si number density = 26.371186 Si / 1000 Ang^3
#
#
#
# Elastic Constant Matrix: (Units=GPa)
#
#
# Indices 1 2 3 4 5 6 
#
# 1 134.3751 51.4800 29.7961 -9.4768 -28.6439 40.6322
# 2 51.4800 101.1728 22.5556 28.5318 -3.1551 18.0272
# 3 29.7961 22.5556 150.5789 13.4596 -24.3058 11.3269
# 4 -9.4768 28.5318 13.4596 43.8817 11.5267 -5.5119
# 5 -28.6439 -3.1551 -24.3058 11.5267 50.0276 -10.8590
# 6 40.6322 18.0272 11.3269 -5.5119 -10.8590 44.9414
#
#
#
# Elastic Compliance Matrix: (Units=1/GPa)
#
#
# Indices 1 2 3 4 5 6 
#
# 1 0.014020 -0.007024 -0.000998 0.005847 0.004034 -0.007914
# 2 -0.007024 0.017579 0.000055 -0.013169 -0.000378 -0.002421
# 3 -0.000998 0.000055 0.007858 -0.003785 0.003992 -0.000600
# 4 0.005847 -0.013169 -0.003785 0.036032 -0.006816 0.003722
# 5 0.004034 -0.000378 0.003992 -0.006816 0.025989 0.000942
# 6 -0.007914 -0.002421 -0.000600 0.003722 0.000942 0.031213
#
#
# Mechanical properties :
#
#
# Convention : Reuss Voigt Hill
#
# Bulk Modulus (GPa) = 42.51280 65.97668 54.24474
# Shear Modulus (GPa) = 31.95564 46.58982 39.27273
#
# Velocity S-wave (km/s) = 3.48482 4.20777 3.86324
# Velocity P-wave (km/s) = 5.68752 6.97709 6.36505
#
# Compressibility (1/GPa) = 0.02352233
#
# Stress axis : x y z
#
# Youngs Moduli (GPa) = 71.32919 56.88546 127.25637
#
# Poissons Ratio (x) = 0.39956 0.12702
# Poissons Ratio (y) = 0.50102 -0.00698
# Poissons Ratio (z) = 0.07120 -0.00312
#
# Static dielectric constant tensor:
#      x y z
#    x 2.054260 -0.040740 -0.034700 
#    y -0.040740 2.092200 -0.018610 
#    z -0.034700 -0.018610 2.241050 
# 
# From -- ./inp_files/288374.got.cif
#   From: 2010.05.17/outbox.cif.g08.bks.cpg/sg2_145_cif.got.tgz:288374.got - 2010.06.03 11:33:40.
