data_PCOD9028777
_publ_section_title
;
Structure prediction by ZEFSAII (Michael W. Deem and Ramdas Pophale) SiO2 
 PCOD9028777
Probable space group: P -1
;
_chemical_formula_sum "Si O2"
_cell_formula_units_Z 16
_cell_length_a 12.666310
_cell_length_b 8.678182
_cell_length_c 8.976410
_cell_angle_alpha 112.729159
_cell_angle_beta 61.174918
_cell_angle_gamma 104.294920
_cell_volume 795.058461
_symmetry_space_group_name_H-M "P -1"
_symmetry_group_IT_number 2
_symmetry_cell_setting 'triclinic'
loop_
_space_group_symop_operation_xyz
x,y,z
-x,-y,-z
loop_
_atom_site_type_symbol
_atom_site_label
_atom_site_fract_x
_atom_site_fract_y
_atom_site_fract_z
Si Si1 0.123964 0.475731 0.492822
Si Si2 0.235250 0.175916 0.770184
Si Si3 0.468397 0.306567 0.484746
Si Si4 0.232416 0.827178 0.029511
Si Si5 0.276264 0.791902 0.635800
Si Si6 0.508427 0.197867 0.087885
Si Si7 0.725287 0.775529 0.891729
Si Si8 0.022487 0.340300 0.822727
O O1 0.202536 0.649717 0.537545
O O2 0.199489 0.349221 0.300164
O O3 0.088883 0.398192 0.648293
O O4 0.000000 0.500000 0.500000
O O5 0.344409 0.274230 0.644424
O O6 0.108094 0.222067 0.809159
O O7 0.252980 0.978608 0.670766
O O8 0.244876 0.226749 0.955464
O O9 0.500000 0.500000 0.500000
O O10 0.581033 0.235726 0.468827
O O11 0.460531 0.225080 0.296728
O O12 0.107409 0.754366 0.155041
O O13 0.246272 0.029724 0.104518
O O14 0.236144 0.781387 0.833611
O O15 0.349169 0.749201 0.993000
O O16 0.416907 0.269241 0.060371
O O17 0.500000 0.000000 0.000000
O O18 0.000000 0.500000 0.000000
#
# Coordination Sequence:
#
# PCOD9028777 Si02
#       8
#     2   2   2   2   2   2   2   2
#     4  12  26  45  63  95 137 166 219 282 327 378
#     4  11  25  42  71  95 130 178 220 263 326 405
#     4  11  22  42  70  97 128 177 222 264 323 395
#     4   9  21  39  70  92 127 177 215 261 323 394
#     4  10  22  43  66  96 131 174 220 268 323 392
#     4   9  19  40  64  94 132 159 207 273 321 372
#     4  10  22  42  64  99 133 165 214 277 328 373
#     4  12  24  43  68  94 127 176 230 258 327 406
#
# _framework density 20.124306000000001
#
# number of rings (size 3 to 8) (size 9 to 14) (size 15 to 20)
#    0.000    1.500    1.250    4.125    3.500    1.500 
#    6.750    1.250    0.000    0.000    0.000    0.000 
#    0.000    0.000    0.000    0.000    0.000    0.000 
#
# Total GULP energy -89451.641134 kJ/mol
# GULP energy per Si atom -5590.727571 kJ/mol
# Density = 2.007850 g / cm^3
# Si number density = 20.124306 Si / 1000 Ang^3
#
#
#
# Elastic Constant Matrix: (Units=GPa)
#
#
# Indices 1 2 3 4 5 6 
#
# 1 137.2017 26.6578 32.4671 5.7287 -7.2323 -4.5478
# 2 26.6578 71.0631 47.7099 6.3775 -3.3509 11.3263
# 3 32.4671 47.7099 117.4617 22.5583 -4.1501 7.3048
# 4 5.7287 6.3775 22.5583 35.1510 4.6414 -3.6317
# 5 -7.2323 -3.3509 -4.1501 4.6414 34.7941 3.4058
# 6 -4.5478 11.3263 7.3048 -3.6317 3.4058 33.8136
#
#
#
# Elastic Compliance Matrix: (Units=1/GPa)
#
#
# Indices 1 2 3 4 5 6 
#
# 1 0.008216 -0.002446 -0.001384 0.000068 0.001091 0.002121
# 2 -0.002446 0.020989 -0.007594 0.000728 0.001073 -0.005749
# 3 -0.001384 -0.007594 0.013581 -0.007505 0.001755 -0.001559
# 4 0.000068 0.000728 -0.007505 0.034498 -0.005970 0.005693
# 5 0.001091 0.001073 0.001755 -0.005970 0.030497 -0.004305
# 6 0.002121 -0.005749 -0.001559 0.005693 -0.004305 0.033167
#
#
# Mechanical properties :
#
#
# Convention : Reuss Voigt Hill
#
# Bulk Modulus (GPa) = 50.15243 59.93291 55.04267
# Shear Modulus (GPa) = 29.33561 35.34454 32.34007
#
# Velocity S-wave (km/s) = 3.82215 4.19538 4.01311
# Velocity P-wave (km/s) = 6.66737 7.30167 6.99172
#
# Compressibility (1/GPa) = 0.01993922
#
# Stress axis : x y z
#
# Youngs Moduli (GPa) = 121.71120 47.64375 73.63452
#
# Poissons Ratio (x) = 0.11652 0.10192
# Poissons Ratio (y) = 0.29765 0.55916
# Poissons Ratio (z) = 0.16846 0.36179
#
# Static dielectric constant tensor:
#      x y z
#    x 1.730700 0.000770 0.007000 
#    y 0.000770 1.695080 -0.001060 
#    z 0.007000 -0.001060 1.693270 
# 
# From -- ./inp_files/189786.got.cif
#   From: 2010.05.17/outbox.cif.g08.bks.cpg/sg2_95_cif.got.tgz:189786.got - 2010.06.03 11:33:40.
