data_PCOD9028873
_publ_section_title
;
Structure prediction by ZEFSAII (Michael W. Deem and Ramdas Pophale) SiO2 
 PCOD9028873
Probable space group: P -1
;
_chemical_formula_sum "Si O2"
_cell_formula_units_Z 16
_cell_length_a 16.834589
_cell_length_b 12.188276
_cell_length_c 14.551805
_cell_angle_alpha 149.801788
_cell_angle_beta 31.988295
_cell_angle_gamma 130.992538
_cell_volume 761.567130
_symmetry_space_group_name_H-M "P -1"
_symmetry_group_IT_number 2
_symmetry_cell_setting 'triclinic'
loop_
_space_group_symop_operation_xyz
x,y,z
-x,-y,-z
loop_
_atom_site_type_symbol
_atom_site_label
_atom_site_fract_x
_atom_site_fract_y
_atom_site_fract_z
Si Si1 0.489711 0.344726 0.706491
Si Si2 0.060336 0.216502 0.078479
Si Si3 0.798179 0.598732 0.081913
Si Si4 0.321239 0.550115 0.735726
Si Si5 0.359425 0.166754 0.873998
Si Si6 0.737556 0.616486 0.677015
Si Si7 0.101343 0.392415 0.734696
Si Si8 0.320314 0.016654 0.162033
O O1 0.322851 0.474149 0.918507
O O2 0.458799 0.292696 0.804975
O O3 0.618638 0.473698 0.664058
O O4 0.551203 0.101066 0.418452
O O5 0.910670 0.440228 0.390788
O O6 0.152065 0.207044 0.883878
O O7 0.191332 0.216836 0.025373
O O8 0.000000 0.000000 0.000000
O O9 0.710929 0.629278 0.288320
O O10 0.968690 0.429636 0.814731
O O11 0.500000 0.500000 0.500000
O O12 0.227730 0.535804 0.723115
O O13 0.283995 0.789813 0.998485
O O14 0.327532 0.253597 0.070977
O O15 0.727800 0.799890 0.739848
O O16 0.206054 0.133245 0.441648
O O17 0.000000 0.500000 0.000000
O O18 0.500000 0.000000 0.000000
#
# Coordination Sequence:
#
# PCOD9028873 Si02
#       8
#     2   2   2   2   2   2   2   2
#     4  10  22  42  65  92 136 173 220 280 330 408
#     4  11  22  44  69  96 137 178 216 284 338 405
#     4  10  23  42  66  96 136 177 223 274 345 398
#     4  11  24  43  71  97 136 181 229 285 337 407
#     4  10  23  41  66  97 130 175 224 275 340 399
#     4  12  24  40  69  98 133 175 226 274 344 403
#     4  10  23  44  66  97 139 174 229 280 339 406
#     4  12  25  42  69 103 135 178 231 282 335 410
#
# _framework density 21.009311
#
# number of rings (size 3 to 8) (size 9 to 14) (size 15 to 20)
#    0.000    1.250    3.750    1.500    1.750    3.000 
#    0.000    1.250    2.750    0.000    0.000    0.000 
#    0.000    0.000    0.000    0.000    0.000    0.000 
#
# Total GULP energy -89196.206581 kJ/mol
# GULP energy per Si atom -5574.762911 kJ/mol
# Density = 2.096149 g / cm^3
# Si number density = 21.009311 Si / 1000 Ang^3
#
#
#
# Elastic Constant Matrix: (Units=GPa)
#
#
# Indices 1 2 3 4 5 6 
#
# 1 79.5911 21.9086 47.1281 0.4747 -14.8615 7.7807
# 2 21.9086 98.1097 24.2416 -11.9233 5.4725 -5.7736
# 3 47.1281 24.2416 118.4391 -8.6243 3.3964 -0.0168
# 4 0.4747 -11.9233 -8.6243 31.8951 3.7495 -0.1113
# 5 -14.8615 5.4725 3.3964 3.7495 43.3354 -11.3565
# 6 7.7807 -5.7736 -0.0168 -0.1113 -11.3565 35.4400
#
#
#
# Elastic Compliance Matrix: (Units=1/GPa)
#
#
# Indices 1 2 3 4 5 6 
#
# 1 0.019824 -0.003663 -0.007695 -0.004648 0.007603 -0.002531
# 2 -0.003663 0.011984 -0.000578 0.004693 -0.002625 0.001930
# 3 -0.007695 -0.000578 0.011990 0.003578 -0.003704 0.000425
# 4 -0.004648 0.004693 0.003578 0.034784 -0.005436 0.000154
# 5 0.007603 -0.002625 -0.003704 -0.005436 0.028625 0.007057
# 6 -0.002531 0.001930 0.000425 0.000154 0.007057 0.031349
#
#
# Mechanical properties :
#
#
# Convention : Reuss Voigt Hill
#
# Bulk Modulus (GPa) = 50.18739 53.63293 51.91016
# Shear Modulus (GPa) = 29.57361 35.65819 32.61590
#
# Velocity S-wave (km/s) = 3.75593 4.12425 3.94439
# Velocity P-wave (km/s) = 6.53830 6.94714 6.74582
#
# Compressibility (1/GPa) = 0.01992532
#
# Stress axis : x y z
#
# Youngs Moduli (GPa) = 50.44400 83.44540 83.40150
#
# Poissons Ratio (x) = 0.30569 0.64179
# Poissons Ratio (y) = 0.18479 0.04819
# Poissons Ratio (z) = 0.38818 0.04822
#
# Static dielectric constant tensor:
#      x y z
#    x 1.760560 -0.051820 0.045840 
#    y -0.051820 1.771050 -0.013010 
#    z 0.045840 -0.013010 1.780060 
# 
# From -- ./inp_files/501171.got.cif
#   From: 2010.05.17/outbox.cif.g08.bks.cpg/sg2_251_cif.got.tgz:501171.got - 2010.06.03 11:33:40.
