data_PCOD9028172
_publ_section_title
;
Structure prediction by ZEFSAII (Michael W. Deem and Ramdas Pophale) SiO2 
 PCOD9028172
Probable space group: P -1
;
_chemical_formula_sum "Si O2"
_cell_formula_units_Z 16
_cell_length_a 10.187961
_cell_length_b 11.630353
_cell_length_c 11.816025
_cell_angle_alpha 59.908104
_cell_angle_beta 92.590928
_cell_angle_gamma 43.000990
_cell_volume 591.609939
_symmetry_space_group_name_H-M "P -1"
_symmetry_group_IT_number 2
_symmetry_cell_setting 'triclinic'
loop_
_space_group_symop_operation_xyz
x,y,z
-x,-y,-z
loop_
_atom_site_type_symbol
_atom_site_label
_atom_site_fract_x
_atom_site_fract_y
_atom_site_fract_z
Si Si1 0.209620 0.818022 0.203137
Si Si2 0.166308 0.973134 0.734657
Si Si3 0.558999 0.319485 0.337504
Si Si4 0.665836 0.592123 0.078427
Si Si5 0.025379 0.706102 0.992522
Si Si6 0.458514 0.133760 0.536372
Si Si7 0.436563 0.034332 0.136492
Si Si8 0.952413 0.421817 0.394219
O O1 0.483539 0.514815 0.313163
O O2 0.089038 0.843229 0.291464
O O3 0.192234 0.983251 0.164580
O O4 0.000000 0.000000 0.000000
O O5 0.115566 0.170444 0.599305
O O6 0.229819 0.848985 0.675217
O O7 0.419292 0.721171 0.954350
O O8 0.574457 0.176581 0.490237
O O9 0.286027 0.520406 0.162065
O O10 0.504630 0.872215 0.951172
O O11 0.859927 0.419978 0.279571
O O12 0.862696 0.422843 0.062733
O O13 0.862389 0.733582 0.032597
O O14 0.602488 0.939685 0.743691
O O15 0.141854 0.385896 0.419087
O O16 0.500000 0.000000 0.500000
O O17 0.670562 0.724840 0.277065
#
# Coordination Sequence:
#
# PCOD9028172 Si02
#       8
#     2   2   2   2   2   2   2   2
#     4  10  24  44  75  98 135 189 237 286 342 408
#     4  11  24  47  70 107 137 181 237 281 348 412
#     4  10  22  41  72 100 136 187 229 287 343 413
#     4  11  24  42  71 100 140 180 221 294 346 415
#     4  10  23  44  64 100 133 181 238 280 341 412
#     4  12  21  40  68  98 141 182 222 275 357 414
#     4  12  24  40  67 104 142 177 228 290 343 422
#     4  12  25  41  68 107 141 180 223 286 354 414
#
# _framework density 27.044847000000001
#
# number of rings (size 3 to 8) (size 9 to 14) (size 15 to 20)
#    0.000    1.000    2.500    4.125    5.250    4.500 
#    0.000    3.125    0.000    0.000    0.000    0.000 
#    0.000    0.000    0.000    0.000    0.000    0.000 
#
# Total GULP energy -89422.837650 kJ/mol
# GULP energy per Si atom -5588.927353 kJ/mol
# Density = 2.698329 g / cm^3
# Si number density = 27.044847 Si / 1000 Ang^3
#
#
#
# Elastic Constant Matrix: (Units=GPa)
#
#
# Indices 1 2 3 4 5 6 
#
# 1 20.9724 14.4898 16.7362 12.3905 -2.9197 -6.2525
# 2 14.4898 133.1167 20.9937 -7.7218 5.6827 -11.2312
# 3 16.7362 20.9937 120.5370 25.4722 -1.6137 3.1077
# 4 12.3905 -7.7218 25.4722 39.0799 1.8825 -6.5994
# 5 -2.9197 5.6827 -1.6137 1.8825 38.7473 -4.3642
# 6 -6.2525 -11.2312 3.1077 -6.5994 -4.3642 32.3781
#
#
#
# Elastic Compliance Matrix: (Units=1/GPa)
#
#
# Indices 1 2 3 4 5 6 
#
# 1 0.072776 -0.008062 -0.004427 -0.020738 0.008458 0.008595
# 2 -0.008062 0.009390 -0.001941 0.006263 -0.002045 0.002888
# 3 -0.004427 -0.001941 0.010761 -0.006663 0.000286 -0.003881
# 4 -0.020738 0.006263 -0.006663 0.038985 -0.003952 0.006221
# 5 0.008458 -0.002045 0.000286 -0.003952 0.027375 0.003781
# 6 0.008595 0.002888 -0.003881 0.006221 0.003781 0.035697
#
#
# Mechanical properties :
#
#
# Convention : Reuss Voigt Hill
#
# Bulk Modulus (GPa) = 15.60877 42.11839 28.86358
# Shear Modulus (GPa) = 20.39148 36.86815 28.62982
#
# Velocity S-wave (km/s) = 2.74886 3.69619 3.25715
# Velocity P-wave (km/s) = 3.98233 5.81576 4.98408
#
# Compressibility (1/GPa) = 0.06406653
#
# Stress axis : x y z
#
# Youngs Moduli (GPa) = 13.74076 106.49394 92.92898
#
# Poissons Ratio (x) = 0.85860 0.41135
# Poissons Ratio (y) = 0.11078 0.18041
# Poissons Ratio (z) = 0.06082 0.20675
#
# Static dielectric constant tensor:
#      x y z
#    x 2.257490 -0.037360 0.018420 
#    y -0.037360 2.222320 0.018220 
#    z 0.018420 0.018220 2.105820 
# 
# From -- ./inp_files/428011.got.cif
#   From: 2010.05.17/outbox.cif.g08.bks.cpg/sg2_215_cif.got.tgz:428011.got - 2010.06.03 11:33:40.
