data_PCOD9028124
_publ_section_title
;
Structure prediction by ZEFSAII (Michael W. Deem and Ramdas Pophale) SiO2 
 PCOD9028124
Probable space group: P -1
;
_chemical_formula_sum "Si O2"
_cell_formula_units_Z 16
_cell_length_a 8.268235
_cell_length_b 10.536187
_cell_length_c 13.434563
_cell_angle_alpha 44.727835
_cell_angle_beta 84.966087
_cell_angle_gamma 60.111880
_cell_volume 642.493217
_symmetry_space_group_name_H-M "P -1"
_symmetry_group_IT_number 2
_symmetry_cell_setting 'triclinic'
loop_
_space_group_symop_operation_xyz
x,y,z
-x,-y,-z
loop_
_atom_site_type_symbol
_atom_site_label
_atom_site_fract_x
_atom_site_fract_y
_atom_site_fract_z
Si Si1 0.033078 0.033620 0.271829
Si Si2 0.907749 0.541329 0.589672
Si Si3 0.692680 0.490202 0.958431
Si Si4 0.243269 0.674409 0.181073
Si Si5 0.249555 0.390157 0.802863
Si Si6 0.343382 0.963131 0.674130
Si Si7 0.682896 0.038087 0.878160
Si Si8 0.687425 0.255423 0.396571
O O1 0.854552 0.001838 0.281964
O O2 0.895506 0.309338 0.111645
O O3 0.217187 0.933438 0.238031
O O4 0.143118 0.916130 0.435893
O O5 0.911666 0.334557 0.740528
O O6 0.695282 0.799199 0.457556
O O7 0.000000 0.500000 0.500000
O O8 0.043274 0.545356 0.663757
O O9 0.751805 0.390639 0.897669
O O10 0.573804 0.762201 0.814095
O O11 0.500000 0.500000 0.000000
O O12 0.231031 0.895594 0.073231
O O13 0.460363 0.455468 0.339589
O O14 0.436198 0.222478 0.806903
O O15 0.273386 0.571112 0.747625
O O16 0.254055 0.213829 0.972306
O O17 0.334000 0.877531 0.613727
#
# Coordination Sequence:
#
# PCOD9028124 Si02
#       8
#     2   2   2   2   2   2   2   2
#     4  11  20  37  70  97 122 175 226 268 325 397
#     4  12  25  39  68 101 133 170 226 270 330 398
#     4   9  21  39  63  93 128 170 223 267 330 393
#     4  10  23  41  66  96 134 182 219 272 337 395
#     4  10  23  42  63  97 134 173 220 272 335 393
#     4  10  22  43  67  95 138 172 216 277 333 390
#     4  10  23  42  67  93 139 174 218 276 334 391
#     4  10  22  41  71  94 131 177 224 272 330 391
#
# _framework density 24.902987
#
# number of rings (size 3 to 8) (size 9 to 14) (size 15 to 20)
#    0.000    1.750    1.250    1.875    1.750    7.000 
#    0.000    1.875   13.750    0.000    0.000    0.000 
#    0.000    0.000    0.000    0.000    0.000    0.000 
#
# Total GULP energy -89381.756356 kJ/mol
# GULP energy per Si atom -5586.359772 kJ/mol
# Density = 2.484631 g / cm^3
# Si number density = 24.902987 Si / 1000 Ang^3
#
#
#
# Elastic Constant Matrix: (Units=GPa)
#
#
# Indices 1 2 3 4 5 6 
#
# 1 39.4675 5.7386 28.8082 2.9179 -13.8307 -4.5063
# 2 5.7386 82.5311 53.2378 0.6275 -9.3056 -8.8950
# 3 28.8082 53.2378 157.3972 -28.9336 2.7341 -1.5408
# 4 2.9179 0.6275 -28.9336 41.2175 -8.5766 -16.9516
# 5 -13.8307 -9.3056 2.7341 -8.5766 39.3883 -1.2164
# 6 -4.5063 -8.8950 -1.5408 -16.9516 -1.2164 25.8738
#
#
#
# Elastic Compliance Matrix: (Units=1/GPa)
#
#
# Indices 1 2 3 4 5 6 
#
# 1 0.037899 0.006154 -0.009997 -0.004254 0.014715 0.006026
# 2 0.006154 0.018041 -0.007757 -0.002544 0.006576 0.005455
# 3 -0.009997 -0.007757 0.012762 0.010112 -0.003941 0.002792
# 4 -0.004254 -0.002544 0.010112 0.045301 0.007964 0.029041
# 5 0.014715 0.006576 -0.003941 0.007964 0.034470 0.011427
# 6 0.006026 0.005455 0.002792 0.029041 0.011427 0.061304
#
#
# Mechanical properties :
#
#
# Convention : Reuss Voigt Hill
#
# Bulk Modulus (GPa) = 21.97688 50.55167 36.26427
# Shear Modulus (GPa) = 20.14967 34.06999 27.10983
#
# Velocity S-wave (km/s) = 2.84760 3.70281 3.30300
# Velocity P-wave (km/s) = 4.43350 6.21487 5.39817
#
# Compressibility (1/GPa) = 0.04550237
#
# Stress axis : x y z
#
# Youngs Moduli (GPa) = 26.38615 55.42819 78.36033
#
# Poissons Ratio (x) = -0.34113 0.78335
# Poissons Ratio (y) = -0.16239 0.60786
# Poissons Ratio (z) = 0.26378 0.42997
#
# Static dielectric constant tensor:
#      x y z
#    x 2.050330 -0.028130 -0.010220 
#    y -0.028130 1.983820 -0.038540 
#    z -0.010220 -0.038540 2.045780 
# 
# From -- ./inp_files/499885.got.cif
#   From: 2010.05.17/outbox.cif.g08.bks.cpg/sg2_250_cif.got.tgz:499885.got - 2010.06.03 11:33:40.
