data_PCOD9028973
_publ_section_title
;
Structure prediction by ZEFSAII (Michael W. Deem and Ramdas Pophale) SiO2 
 PCOD9028973
Probable space group: P -1
;
_chemical_formula_sum "Si O2"
_cell_formula_units_Z 16
_cell_length_a 8.658149
_cell_length_b 23.384869
_cell_length_c 8.610549
_cell_angle_alpha 127.612087
_cell_angle_beta 129.579828
_cell_angle_gamma 31.519764
_cell_volume 692.640586
_symmetry_space_group_name_H-M "P -1"
_symmetry_group_IT_number 2
_symmetry_cell_setting 'triclinic'
loop_
_space_group_symop_operation_xyz
x,y,z
-x,-y,-z
loop_
_atom_site_type_symbol
_atom_site_label
_atom_site_fract_x
_atom_site_fract_y
_atom_site_fract_z
Si Si1 0.282167 0.564704 0.115493
Si Si2 0.141440 0.256306 0.104358
Si Si3 0.757143 0.714686 0.446055
Si Si4 0.519125 0.352458 0.009243
Si Si5 0.281948 0.662195 0.550335
Si Si6 0.173740 0.951099 0.370127
Si Si7 0.307599 0.004038 0.998818
Si Si8 0.850462 0.908013 0.618902
O O1 0.285605 0.483469 0.050394
O O2 0.427007 0.580014 0.360688
O O3 0.500000 0.500000 0.000000
O O4 0.970009 0.677217 0.018734
O O5 0.219617 0.286802 0.353346
O O6 0.452394 0.127648 0.049219
O O7 0.852864 0.285476 0.033674
O O8 0.528117 0.841873 0.452779
O O9 0.081159 0.652272 0.481579
O O10 0.624500 0.677814 0.222098
O O11 0.562783 0.340716 0.206349
O O12 0.071235 0.780341 0.527666
O O13 0.056808 0.047297 0.345815
O O14 0.000000 0.000000 0.500000
O O15 0.028813 0.920049 0.154769
O O16 0.500000 0.000000 0.000000
O O17 0.205343 0.066338 0.194631
O O18 0.500000 0.000000 0.500000
#
# Coordination Sequence:
#
# PCOD9028973 Si02
#       8
#     2   2   2   2   2   2   2   2
#     4  10  23  45  69  95 128 174 230 291 352 407
#     4  10  22  42  65  97 140 179 224 283 338 408
#     4  11  22  42  66 100 136 180 228 276 342 414
#     4  10  23  43  71  96 130 179 230 284 350 405
#     4  11  23  45  69  96 137 174 227 287 344 412
#     4  12  24  41  64  98 139 182 231 269 333 414
#     4  12  23  41  67  99 144 186 224 279 341 410
#     4  12  24  41  66  98 140 184 224 276 342 414
#
# _framework density 23.100003999999998
#
# number of rings (size 3 to 8) (size 9 to 14) (size 15 to 20)
#    0.000    1.000    2.500    5.250    0.000    3.000 
#    0.000    0.000    0.000    0.000    0.000    0.000 
#    0.000    0.000    0.000    0.000    0.000    0.000 
#
# Total GULP energy -89209.013325 kJ/mol
# GULP energy per Si atom -5575.563333 kJ/mol
# Density = 2.304743 g / cm^3
# Si number density = 23.100004 Si / 1000 Ang^3
#
#
#
# Elastic Constant Matrix: (Units=GPa)
#
#
# Indices 1 2 3 4 5 6 
#
# 1 -174.4211 308.8072 -582.1172 234.9194 598.5910 106.6570
# 2 308.8072 -289.0648 762.0155 -285.1504 -747.7082 -91.9998
# 3 -582.1172 762.0155-1354.0837 577.6702 1497.6987 241.1418
# 4 234.9194 -285.1504 577.6702 -178.2699 -575.6236 -92.7253
# 5 598.5910 -747.7082 1497.6987 -575.6236-1451.6253 -229.5034
# 6 106.6570 -91.9998 241.1418 -92.7253 -229.5034 1.7527
#
#
#
# Elastic Compliance Matrix: (Units=1/GPa)
#
#
# Indices 1 2 3 4 5 6 
#
# 1 0.016117 0.001256 -0.002852 -0.000617 0.004196 -0.005660
# 2 0.001256 0.013525 0.000386 -0.003223 -0.003206 -0.009908
# 3 -0.002852 0.000386 0.005923 0.001696 0.004058 0.000034
# 4 -0.000617 -0.003223 0.001696 0.021367 -0.005821 0.003188
# 5 0.004196 -0.003206 0.004058 -0.005821 0.009820 -0.004000
# 6 -0.005660 -0.009908 0.000034 0.003188 -0.004000 0.035046
#
#
# Mechanical properties :
#
#
# Convention : Reuss Voigt Hill
#
# Bulk Modulus (GPa) = 30.17068 -93.35094 -31.59013
# Shear Modulus (GPa) = 43.37758 -479.38016 -218.00129
#
# Velocity S-wave (km/s) = 4.33808 -14.42132 -9.72511
# Velocity P-wave (km/s) = 6.17909 17.82690 11.82407
#
# Compressibility (1/GPa) = 0.03314476
#
# Stress axis : x y z
#
# Youngs Moduli (GPa) = 62.04579 73.93733 168.83229
#
# Poissons Ratio (x) = -0.09290 0.48159
# Poissons Ratio (y) = -0.07796 -0.06513
# Poissons Ratio (z) = 0.17698 -0.02852
#
# Static dielectric constant tensor:
#      x y z
#    x 2.023370 0.071930 0.091500 
#    y 0.071930 1.898490 -0.018280 
#    z 0.091500 -0.018280 1.853890 
# 
# From -- ./inp_files/226559.got.cif
#   From: 2010.05.17/outbox.cif.g08.bks.cpg/sg2_114_cif.got.tgz:226559.got - 2010.06.03 11:33:40.
