data_PCOD9028405
_publ_section_title
;
Structure prediction by ZEFSAII (Michael W. Deem and Ramdas Pophale) SiO2 
 PCOD9028405
Probable space group: P -1
;
_chemical_formula_sum "Si O2"
_cell_formula_units_Z 16
_cell_length_a 10.505979
_cell_length_b 14.358098
_cell_length_c 7.484731
_cell_angle_alpha 92.242904
_cell_angle_beta 111.715556
_cell_angle_gamma 136.878829
_cell_volume 626.248538
_symmetry_space_group_name_H-M "P -1"
_symmetry_group_IT_number 2
_symmetry_cell_setting 'triclinic'
loop_
_space_group_symop_operation_xyz
x,y,z
-x,-y,-z
loop_
_atom_site_type_symbol
_atom_site_label
_atom_site_fract_x
_atom_site_fract_y
_atom_site_fract_z
Si Si1 0.002244 0.248860 0.681146
Si Si2 0.185901 0.648031 0.872841
Si Si3 0.366895 0.828912 0.318123
Si Si4 0.900613 0.892682 0.199955
Si Si5 0.394558 0.575257 0.886020
Si Si6 0.181204 0.414387 0.427176
Si Si7 0.038487 0.154889 0.165265
Si Si8 0.522389 0.927864 0.784165
O O1 0.267607 0.415554 0.890362
O O2 0.839921 0.217214 0.724636
O O3 0.006716 0.289375 0.486800
O O4 0.964000 0.118493 0.643466
O O5 0.203661 0.552133 0.811820
O O6 0.941551 0.566091 0.729342
O O7 0.357273 0.795887 0.837858
O O8 0.276682 0.704520 0.125341
O O9 0.480748 0.856806 0.563052
O O10 0.509004 0.980692 0.281968
O O11 0.632027 0.741062 0.100908
O O12 0.897586 0.857943 0.989030
O O13 0.015161 0.055980 0.283542
O O14 0.397514 0.560594 0.671691
O O15 0.193030 0.327269 0.311553
O O16 0.780076 0.052990 0.995053
#
# Coordination Sequence:
#
# PCOD9028405 Si02
#       8
#     2   2   2   2   2   2   2   2
#     4  10  22  42  61  91 132 169 215 267 313 383
#     4  12  21  41  68  97 131 172 212 264 329 384
#     4  11  23  37  68  99 132 169 208 271 329 384
#     4  11  22  43  64  89 127 172 224 264 314 383
#     4  10  24  40  66  90 131 176 211 268 316 389
#     4  10  23  40  64  95 129 167 209 268 330 373
#     4  11  23  40  68  93 125 171 213 275 322 376
#     4  11  21  39  62 101 130 163 212 271 323 380
#
# _framework density 25.548960000000001
#
# number of rings (size 3 to 8) (size 9 to 14) (size 15 to 20)
#    0.750    0.500    5.000    1.125    0.000    1.500 
#    0.000    3.750    0.000    0.000    0.000    0.000 
#    0.000    0.000    0.000    0.000    0.000    0.000 
#
# Total GULP energy -89395.997964 kJ/mol
# GULP energy per Si atom -5587.249873 kJ/mol
# Density = 2.549081 g / cm^3
# Si number density = 25.548960 Si / 1000 Ang^3
#
#
#
# Elastic Constant Matrix: (Units=GPa)
#
#
# Indices 1 2 3 4 5 6 
#
# 1 82.8509 15.8586 20.2191 6.0527 -11.7628 -14.8178
# 2 15.8586 57.5079 8.2669 -18.6502 -0.3686 -9.8070
# 3 20.2191 8.2669 92.0442 1.3276 -21.6740 -10.0028
# 4 6.0527 -18.6502 1.3276 22.0413 4.7497 -0.9445
# 5 -11.7628 -0.3686 -21.6740 4.7497 38.4704 6.6602
# 6 -14.8178 -9.8070 -10.0028 -0.9445 6.6602 30.2411
#
#
#
# Elastic Compliance Matrix: (Units=1/GPa)
#
#
# Indices 1 2 3 4 5 6 
#
# 1 0.015912 -0.007257 -0.001123 -0.011350 0.004936 0.003630
# 2 -0.007257 0.031176 -0.002789 0.030795 -0.008769 0.008525
# 3 -0.001123 -0.002789 0.013311 -0.004413 0.007473 0.001165
# 4 -0.011350 0.030795 -0.004413 0.078862 -0.016986 0.009169
# 5 0.004936 -0.008769 0.007473 -0.016986 0.034791 -0.006146
# 6 0.003630 0.008525 0.001165 0.009169 -0.006146 0.039636
#
#
# Mechanical properties :
#
#
# Convention : Reuss Voigt Hill
#
# Bulk Modulus (GPa) = 26.27285 35.67693 30.97489
# Shear Modulus (GPa) = 20.10350 30.68777 25.39563
#
# Velocity S-wave (km/s) = 2.80815 3.46950 3.15619
# Velocity P-wave (km/s) = 4.56289 5.48127 5.04303
#
# Compressibility (1/GPa) = 0.03806210
#
# Stress axis : x y z
#
# Youngs Moduli (GPa) = 62.84439 32.07644 75.12377
#
# Poissons Ratio (x) = 0.23278 0.08437
# Poissons Ratio (y) = 0.45605 0.20949
# Poissons Ratio (z) = 0.07058 0.08945
#
# Static dielectric constant tensor:
#      x y z
#    x 1.988710 0.011720 0.014100 
#    y 0.011720 2.065930 0.030530 
#    z 0.014100 0.030530 2.068300 
# 
# From -- ./inp_files/268128.got.cif
#   From: 2010.05.17/outbox.cif.g08.bks.cpg/sg2_135_cif.got.tgz:268128.got - 2010.06.03 11:33:40.
