data_PCOD9028051
_publ_section_title
;
Structure prediction by ZEFSAII (Michael W. Deem and Ramdas Pophale) SiO2 
 PCOD9028051
Probable space group: P -1
;
_chemical_formula_sum "Si O2"
_cell_formula_units_Z 16
_cell_length_a 10.077400
_cell_length_b 7.998822
_cell_length_c 10.971698
_cell_angle_alpha 93.633343
_cell_angle_beta 106.410336
_cell_angle_gamma 133.094896
_cell_volume 576.511701
_symmetry_space_group_name_H-M "P -1"
_symmetry_group_IT_number 2
_symmetry_cell_setting 'triclinic'
loop_
_space_group_symop_operation_xyz
x,y,z
-x,-y,-z
loop_
_atom_site_type_symbol
_atom_site_label
_atom_site_fract_x
_atom_site_fract_y
_atom_site_fract_z
Si Si1 0.703731 0.913528 0.232352
Si Si2 0.353436 0.485049 0.257845
Si Si3 0.287702 0.720509 0.405981
Si Si4 0.604881 0.373364 0.274744
Si Si5 0.726882 0.251921 0.103053
Si Si6 0.010074 0.069670 0.808555
Si Si7 0.811035 0.207266 0.864452
Si Si8 0.045641 0.797396 0.456595
O O1 0.464712 0.699739 0.193780
O O2 0.774956 0.831939 0.153980
O O3 0.781544 0.159002 0.211661
O O4 0.828648 0.005392 0.394212
O O5 0.355246 0.589681 0.389329
O O6 0.499956 0.455693 0.276187
O O7 0.133228 0.204847 0.187893
O O8 0.182221 0.669122 0.245761
O O9 0.142334 0.701667 0.452848
O O10 0.500000 0.000000 0.500000
O O11 0.706140 0.411160 0.172386
O O12 0.809175 0.558678 0.416143
O O13 0.418089 0.078040 0.223979
O O14 0.831441 0.311180 0.004985
O O15 0.500000 0.000000 0.000000
O O16 0.937019 0.074676 0.656382
O O17 0.965747 0.188953 0.888111
#
# Coordination Sequence:
#
# PCOD9028051 Si02
#       8
#     2   2   2   2   2   2   2   2
#     4  12  24  43  72 101 139 183 232 285 341 417
#     4  11  23  43  70 103 140 186 224 279 353 404
#     4  11  23  42  67 102 138 178 228 283 342 414
#     4  10  22  41  70  99 137 183 225 287 346 400
#     4  10  23  45  71  95 135 190 236 278 343 415
#     4  10  24  43  68 107 141 177 231 289 344 408
#     4   9  22  47  69  96 143 184 226 285 348 409
#     4  11  24  43  67 104 145 175 229 287 350 411
#
# _framework density 27.753119999999999
#
# number of rings (size 3 to 8) (size 9 to 14) (size 15 to 20)
#    0.000    1.500    2.500    1.875    1.750    2.500 
#    0.000   12.500   11.000    0.000    0.000    0.000 
#    0.000    0.000    0.000    0.000    0.000    0.000 
#
# Total GULP energy -89494.167481 kJ/mol
# GULP energy per Si atom -5593.385468 kJ/mol
# Density = 2.768995 g / cm^3
# Si number density = 27.753120 Si / 1000 Ang^3
#
#
#
# Elastic Constant Matrix: (Units=GPa)
#
#
# Indices 1 2 3 4 5 6 
#
# 1 221.2617 52.7880 16.0778 -1.3592 -46.7944 12.5584
# 2 52.7880 128.6404 24.7877 2.8838 -7.8953 21.8784
# 3 16.0778 24.7877 93.4254 -1.0944 -16.9604 -6.5435
# 4 -1.3592 2.8838 -1.0944 33.8983 1.7954 -6.5452
# 5 -46.7944 -7.8953 -16.9604 1.7954 44.6463 7.0490
# 6 12.5584 21.8784 -6.5435 -6.5452 7.0490 60.8398
#
#
#
# Elastic Compliance Matrix: (Units=1/GPa)
#
#
# Indices 1 2 3 4 5 6 
#
# 1 0.006520 -0.002139 0.000603 -0.000159 0.006901 -0.001328
# 2 -0.002139 0.009717 -0.002635 -0.001605 -0.000922 -0.003402
# 3 0.000603 -0.002635 0.012247 0.000731 0.004522 0.001695
# 4 -0.000159 -0.001605 0.000731 0.030578 -0.002068 0.004218
# 5 0.006901 -0.000922 0.004522 -0.002068 0.031985 -0.004535
# 6 -0.001328 -0.003402 0.001695 0.004218 -0.004535 0.019096
#
#
# Mechanical properties :
#
#
# Convention : Reuss Voigt Hill
#
# Bulk Modulus (GPa) = 49.64312 70.07051 59.85682
# Shear Modulus (GPa) = 39.93732 51.18849 45.56290
#
# Velocity S-wave (km/s) = 3.79756 4.29933 4.05621
# Velocity P-wave (km/s) = 6.09548 7.06741 6.59936
#
# Compressibility (1/GPa) = 0.02014378
#
# Stress axis : x y z
#
# Youngs Moduli (GPa) = 153.38043 102.91437 81.65217
#
# Poissons Ratio (x) = 0.22009 -0.04925
# Poissons Ratio (y) = 0.32802 0.21512
# Poissons Ratio (z) = -0.09252 0.27113
#
# Static dielectric constant tensor:
#      x y z
#    x 2.218910 0.001310 0.027970 
#    y 0.001310 2.518100 -0.112670 
#    z 0.027970 -0.112670 2.112550 
# 
# From -- ./inp_files/515679.got.cif
#   From: 2010.05.17/outbox.cif.g08.bks.cpg/sg2_258_cif.got.tgz:515679.got - 2010.06.03 11:33:40.
