data_PCOD9028990
_publ_section_title
;
Structure prediction by ZEFSAII (Michael W. Deem and Ramdas Pophale) SiO2 
 PCOD9028990
Probable space group: P -1
;
_chemical_formula_sum "Si O2"
_cell_formula_units_Z 15
_cell_length_a 16.285966
_cell_length_b 5.678586
_cell_length_c 24.888166
_cell_angle_alpha 123.550021
_cell_angle_beta 161.245094
_cell_angle_gamma 58.096995
_cell_volume 616.637760
_symmetry_space_group_name_H-M "P -1"
_symmetry_group_IT_number 2
_symmetry_cell_setting 'triclinic'
loop_
_space_group_symop_operation_xyz
x,y,z
-x,-y,-z
loop_
_atom_site_type_symbol
_atom_site_label
_atom_site_fract_x
_atom_site_fract_y
_atom_site_fract_z
Si Si1 0.489965 0.744510 0.611724
Si Si2 0.758748 0.708056 0.882192
Si Si3 0.660205 0.880754 0.134662
Si Si4 0.995942 0.627776 0.736055
Si Si5 0.985080 0.271159 0.124915
Si Si6 0.138705 0.238298 0.451127
Si Si7 0.562106 0.677712 0.876211
Si Si8 0.000000 0.500000 0.500000
O O1 0.563717 0.659695 0.707159
O O2 0.241061 0.571996 0.420015
O O3 0.733218 0.683762 0.717684
O O4 0.408578 0.075022 0.602354
O O5 0.637295 0.673899 0.860594
O O6 0.000000 0.500000 0.000000
O O7 0.859892 0.026502 0.981472
O O8 0.748684 0.560698 0.139306
O O9 0.511625 0.006260 0.109515
O O10 0.934481 0.034029 0.327879
O O11 0.500000 0.000000 0.000000
O O12 0.931735 0.750067 0.653400
O O13 0.009513 0.822742 0.821296
O O14 0.800713 0.544859 0.040073
O O15 0.087513 0.512193 0.490557
O O16 0.306728 0.497932 0.705553
#
# Coordination Sequence:
#
# PCOD9028990 Si02
#       8
#     2   2   2   2   2   2   2   1
#     4  11  25  45  68 100 142 183 233 292 344 418
#     4  12  27  44  73 103 135 186 240 287 348 417
#     4  10  22  42  65  98 138 173 223 288 338 410
#     4  11  25  44  72 103 140 189 228 286 354 420
#     4  12  26  43  71 104 142 186 230 290 355 411
#     4  10  24  41  68  96 139 179 233 282 346 411
#     4  11  24  44  72 102 141 178 233 287 352 416
#     4  10  22  44  68  96 136 184 222 290 334 410
#
# _framework density 24.325462000000002
#
# number of rings (size 3 to 8) (size 9 to 14) (size 15 to 20)
#    0.000    1.067    2.667    2.400    5.600    4.267 
#    0.000    6.000    0.000    0.000    0.000    0.000 
#    0.000    0.000    0.000    0.000    0.000    0.000 
#
# Total GULP energy -83658.463598 kJ/mol
# GULP energy per Si atom -5577.230907 kJ/mol
# Density = 2.427010 g / cm^3
# Si number density = 24.325462 Si / 1000 Ang^3
#
#
#
# Elastic Constant Matrix: (Units=GPa)
#
#
# Indices 1 2 3 4 5 6 
#
# 1 178.8141 15.7090 39.9751 -30.6885 8.0600 -21.8768
# 2 15.7090 62.2449 23.3760 -22.4200 8.7461 -13.0530
# 3 39.9751 23.3760 118.9806 -28.7728 30.0527 -13.7351
# 4 -30.6885 -22.4200 -28.7728 44.0119 4.8757 -0.2056
# 5 8.0600 8.7461 30.0527 4.8757 53.6139 -6.3434
# 6 -21.8768 -13.0530 -13.7351 -0.2056 -6.3434 30.9315
#
#
#
# Elastic Compliance Matrix: (Units=1/GPa)
#
#
# Indices 1 2 3 4 5 6 
#
# 1 0.007250 0.001701 -0.000518 0.005714 -0.000951 0.005459
# 2 0.001701 0.023254 0.000538 0.013918 -0.004380 0.010450
# 3 -0.000518 0.000538 0.013197 0.009421 -0.007768 0.004190
# 4 0.005714 0.013918 0.009421 0.041198 -0.010716 0.012174
# 5 -0.000951 -0.004380 -0.007768 -0.010716 0.024723 -0.000972
# 6 0.005459 0.010450 0.004190 0.012174 -0.000972 0.042342
#
#
# Mechanical properties :
#
#
# Convention : Reuss Voigt Hill
#
# Bulk Modulus (GPa) = 21.21152 57.57330 39.39241
# Shear Modulus (GPa) = 30.44379 44.44344 37.44362
#
# Velocity S-wave (km/s) = 3.54152 4.27902 3.92762
# Velocity P-wave (km/s) = 5.04599 6.93777 6.06608
#
# Compressibility (1/GPa) = 0.04714418
#
# Stress axis : x y z
#
# Youngs Moduli (GPa) = 137.92871 43.00341 75.77394
#
# Poissons Ratio (x) = -0.07316 0.03925
# Poissons Ratio (y) = -0.23466 -0.04077
# Poissons Ratio (z) = 0.07144 -0.02314
#
# Static dielectric constant tensor:
#      x y z
#    x 1.916270 -0.022960 -0.004120 
#    y -0.022960 2.134800 0.145270 
#    z -0.004120 0.145270 1.970490 
# 
# From -- ./inp_files/101748.got.cif
#   From: 2010.05.17/outbox.cif.g08.bks.cpg/sg2_51_cif.got.tgz:101748.got - 2010.06.03 11:33:40.
