data_PCOD9028343
_publ_section_title
;
Structure prediction by ZEFSAII (Michael W. Deem and Ramdas Pophale) SiO2 
 PCOD9028343
Probable space group: P -1
;
_chemical_formula_sum "Si O2"
_cell_formula_units_Z 14
_cell_length_a 20.741091
_cell_length_b 13.477665
_cell_length_c 10.348424
_cell_angle_alpha 44.678443
_cell_angle_beta 144.088757
_cell_angle_gamma 157.768435
_cell_volume 632.143816
_symmetry_space_group_name_H-M "P -1"
_symmetry_group_IT_number 2
_symmetry_cell_setting 'triclinic'
loop_
_space_group_symop_operation_xyz
x,y,z
-x,-y,-z
loop_
_atom_site_type_symbol
_atom_site_label
_atom_site_fract_x
_atom_site_fract_y
_atom_site_fract_z
Si Si1 0.736193 0.842551 0.759662
Si Si2 0.793923 0.577756 0.077459
Si Si3 0.458978 0.607173 0.772701
Si Si4 0.194617 0.687705 0.545484
Si Si5 0.468179 0.755119 0.281273
Si Si6 0.756304 0.158993 0.810619
Si Si7 0.164665 0.459264 0.290561
O O1 0.733274 0.671557 0.922623
O O2 0.606687 0.762823 0.742011
O O3 0.611643 0.771395 0.502274
O O4 0.972646 0.153339 0.849900
O O5 0.631164 0.336497 0.934773
O O6 0.794963 0.470311 0.296147
O O7 0.228693 0.402571 0.543876
O O8 0.553142 0.842481 0.782776
O O9 0.500000 0.500000 0.000000
O O10 0.181633 0.735215 0.335322
O O11 0.000000 0.500000 0.500000
O O12 0.385290 0.967170 0.673427
O O13 0.270604 0.530223 0.262919
O O14 0.735142 0.285114 0.731800
O O15 0.931675 0.252988 0.075432
#
# Coordination Sequence:
#
# PCOD9028343 Si02
#       7
#     2   2   2   2   2   2   2
#     4  10  22  42  58  92 123 164 201 255 308 364
#     4  11  23  38  65  90 126 162 204 252 308 366
#     4  11  23  40  65  89 125 161 207 253 313 363
#     4  12  22  39  64  91 126 162 202 257 305 360
#     4  11  21  40  64  90 123 163 208 251 312 363
#     4  11  23  43  63  92 128 156 214 254 306 368
#     4  10  23  41  68  89 119 169 202 264 307 357
#
# _framework density 22.146858000000002
#
# number of rings (size 3 to 8) (size 9 to 14) (size 15 to 20)
#    0.000    1.143    4.286    3.000    2.000    0.571 
#    0.000    1.429    3.143    0.000    0.000    0.000 
#    0.000    0.000    0.000    0.000    0.000    0.000 
#
# Total GULP energy -78145.454859 kJ/mol
# GULP energy per Si atom -5581.818204 kJ/mol
# Density = 2.209645 g / cm^3
# Si number density = 22.146858 Si / 1000 Ang^3
#
#
#
# Elastic Constant Matrix: (Units=GPa)
#
#
# Indices 1 2 3 4 5 6 
#
# 1 57.7207 6.4695 21.1363 2.3213 7.8613 1.3421
# 2 6.4695 56.9759 45.8326 -11.5896 -7.1255 -2.6785
# 3 21.1363 45.8326 175.1382 -20.5585 15.3001 -4.3508
# 4 2.3213 -11.5896 -20.5585 42.3001 -1.2323 1.3616
# 5 7.8613 -7.1255 15.3001 -1.2323 32.0344 4.0832
# 6 1.3421 -2.6785 -4.3508 1.3616 4.0832 16.7101
#
#
#
# Elastic Compliance Matrix: (Units=1/GPa)
#
#
# Indices 1 2 3 4 5 6 
#
# 1 0.018859 -0.001797 -0.001759 -0.002469 -0.004149 -0.001046
# 2 -0.001797 0.025146 -0.006722 0.004002 0.009425 -0.000204
# 3 -0.001759 -0.006722 0.008456 0.002132 -0.005325 0.002393
# 4 -0.002469 0.004002 0.002132 0.025992 0.001620 -0.001119
# 5 -0.004149 0.009425 -0.005325 0.001620 0.038082 -0.008980
# 6 -0.001046 -0.000204 0.002393 -0.001119 -0.008980 0.062804
#
#
# Mechanical properties :
#
#
# Convention : Reuss Voigt Hill
#
# Bulk Modulus (GPa) = 31.34307 48.52353 39.93330
# Shear Modulus (GPa) = 23.74951 32.63534 28.19243
#
# Velocity S-wave (km/s) = 3.27825 3.84290 3.57175
# Velocity P-wave (km/s) = 5.33969 6.45352 5.92285
#
# Compressibility (1/GPa) = 0.03190498
#
# Stress axis : x y z
#
# Youngs Moduli (GPa) = 53.02484 39.76760 118.25530
#
# Poissons Ratio (x) = 0.07145 0.20803
# Poissons Ratio (y) = 0.09527 0.79496
# Poissons Ratio (z) = 0.09328 0.26733
#
# Static dielectric constant tensor:
#      x y z
#    x 1.820710 -0.028050 -0.005180 
#    y -0.028050 1.815820 -0.009950 
#    z -0.005180 -0.009950 1.883030 
# 
# From -- ./inp_files/352811.got.cif
#   From: 2010.05.17/outbox.cif.g08.bks.cpg/sg2_177_cif.got.tgz:352811.got - 2010.06.03 11:33:40.
