data_PCOD9028091
_publ_section_title
;
Structure prediction by ZEFSAII (Michael W. Deem and Ramdas Pophale) SiO2 
 PCOD9028091
Probable space group: P -1
;
_chemical_formula_sum "Si O2"
_cell_formula_units_Z 16
_cell_length_a 8.821160
_cell_length_b 11.440802
_cell_length_c 21.283243
_cell_angle_alpha 30.469600
_cell_angle_beta 48.797644
_cell_angle_gamma 40.908871
_cell_volume 713.080165
_symmetry_space_group_name_H-M "P -1"
_symmetry_group_IT_number 2
_symmetry_cell_setting 'triclinic'
loop_
_space_group_symop_operation_xyz
x,y,z
-x,-y,-z
loop_
_atom_site_type_symbol
_atom_site_label
_atom_site_fract_x
_atom_site_fract_y
_atom_site_fract_z
Si Si1 0.245796 0.709937 0.657638
Si Si2 0.023496 0.718969 0.930467
Si Si3 0.910385 0.704838 0.524925
Si Si4 0.027381 0.740827 0.189721
Si Si5 0.639168 0.665278 0.497887
Si Si6 0.091114 0.506489 0.150188
Si Si7 0.617139 0.139589 0.204696
Si Si8 0.389958 0.814221 0.129936
O O1 0.401443 0.664812 0.574211
O O2 0.413341 0.466259 0.769489
O O3 0.019277 0.683409 0.722278
O O4 0.184370 0.992641 0.571553
O O5 0.259633 0.724924 0.853235
O O6 0.019050 0.643808 0.039071
O O7 0.810420 0.016460 0.842083
O O8 0.000000 0.500000 0.000000
O O9 0.927508 0.527595 0.662454
O O10 0.747550 0.670618 0.533766
O O11 0.162728 0.577283 0.482747
O O12 0.002718 0.710999 0.137004
O O13 0.247805 0.773919 0.131595
O O14 0.798901 0.975180 0.175948
O O15 0.596140 0.928379 0.351944
O O16 0.367609 0.345603 0.152346
O O17 0.500000 0.000000 0.000000
#
# Coordination Sequence:
#
# PCOD9028091 Si02
#       8
#     2   2   2   2   2   2   2   2
#     4  12  25  42  69 108 139 182 239 284 351 416
#     4  11  27  48  72 100 137 186 244 294 345 420
#     4  10  22  41  71 105 138 186 228 295 347 409
#     4  10  24  46  71 101 144 182 235 289 352 418
#     4  10  22  41  72 105 140 179 236 290 347 417
#     4  12  27  44  70 104 143 193 224 293 360 421
#     4  10  25  45  70 105 140 186 231 284 359 417
#     4  11  24  45  68 105 133 181 241 292 340 409
#
# _framework density 22.437868000000002
#
# number of rings (size 3 to 8) (size 9 to 14) (size 15 to 20)
#    0.000    1.250    2.500    1.500    7.000    6.000 
#    0.000    2.500    0.000    0.000    0.000    0.000 
#    0.000    0.000    0.000    0.000    0.000    0.000 
#
# Total GULP energy -89595.696848 kJ/mol
# GULP energy per Si atom -5599.731053 kJ/mol
# Density = 2.238680 g / cm^3
# Si number density = 22.437868 Si / 1000 Ang^3
#
#
#
# Elastic Constant Matrix: (Units=GPa)
#
#
# Indices 1 2 3 4 5 6 
#
# 1 81.3529 49.4949 42.2085 -5.2089 -12.8120 -6.7646
# 2 49.4949 89.4142 55.1491 -19.3571 -9.0848 -10.0790
# 3 42.2085 55.1491 109.5743 -1.5639 -17.9836 2.8172
# 4 -5.2089 -19.3571 -1.5639 42.6985 -0.7424 -3.4038
# 5 -12.8120 -9.0848 -17.9836 -0.7424 37.3623 12.9774
# 6 -6.7646 -10.0790 2.8172 -3.4038 12.9774 43.4183
#
#
#
# Elastic Compliance Matrix: (Units=1/GPa)
#
#
# Indices 1 2 3 4 5 6 
#
# 1 0.019697 -0.009669 -0.002190 -0.002018 0.003379 -0.000202
# 2 -0.009669 0.025046 -0.009576 0.010308 -0.004042 0.006945
# 3 -0.002190 -0.009576 0.015956 -0.004381 0.006565 -0.005905
# 4 -0.002018 0.010308 -0.004381 0.028060 -0.001474 0.005003
# 5 0.003379 -0.004042 0.006565 -0.001474 0.033924 -0.011093
# 6 -0.000202 0.006945 -0.005905 0.005003 -0.011093 0.028704
#
#
# Mechanical properties :
#
#
# Convention : Reuss Voigt Hill
#
# Bulk Modulus (GPa) = 56.08715 63.78294 59.93505
# Shear Modulus (GPa) = 24.97500 33.59508 29.28504
#
# Velocity S-wave (km/s) = 3.33990 3.87363 3.61662
# Velocity P-wave (km/s) = 6.31855 6.96382 6.64902
#
# Compressibility (1/GPa) = 0.01782939
#
# Stress axis : x y z
#
# Youngs Moduli (GPa) = 50.76918 39.92643 62.67083
#
# Poissons Ratio (x) = 0.38603 0.13726
# Poissons Ratio (y) = 0.49087 0.60015
# Poissons Ratio (z) = 0.11119 0.38235
#
# Static dielectric constant tensor:
#      x y z
#    x 1.809060 -0.022860 -0.002600 
#    y -0.022860 1.843820 0.007900 
#    z -0.002600 0.007900 1.847880 
# 
# From -- ./inp_files/589350.got.cif
#   From: 2010.05.17/outbox.cif.g08.bks.cpg/sg2_295_cif.got.tgz:589350.got - 2010.06.03 11:33:40.
