data_PCOD9028889
_publ_section_title
;
Structure prediction by ZEFSAII (Michael W. Deem and Ramdas Pophale) SiO2 
 PCOD9028889
Probable space group: P -1
;
_chemical_formula_sum "Si O2"
_cell_formula_units_Z 15
_cell_length_a 9.341906
_cell_length_b 29.068698
_cell_length_c 4.956124
_cell_angle_alpha 70.973984
_cell_angle_beta 73.811551
_cell_angle_gamma 28.051527
_cell_volume 598.220496
_symmetry_space_group_name_H-M "P -1"
_symmetry_group_IT_number 2
_symmetry_cell_setting 'triclinic'
loop_
_space_group_symop_operation_xyz
x,y,z
-x,-y,-z
loop_
_atom_site_type_symbol
_atom_site_label
_atom_site_fract_x
_atom_site_fract_y
_atom_site_fract_z
Si Si1 0.495715 0.308821 0.570758
Si Si2 0.842379 0.993907 0.027663
Si Si3 0.239581 0.139755 0.859757
Si Si4 0.846306 0.172104 0.171178
Si Si5 0.500000 0.000000 0.500000
Si Si6 0.723678 0.343433 0.503398
Si Si7 0.865312 0.390386 0.014633
Si Si8 0.918905 0.431850 0.415707
O O1 0.621395 0.260382 0.894815
O O2 0.601345 0.333441 0.410465
O O3 0.144829 0.405235 0.487369
O O4 0.660815 0.224954 0.440693
O O5 0.732905 0.983101 0.318140
O O6 0.514568 0.095887 0.871215
O O7 0.049673 0.907097 0.865033
O O8 0.000000 0.000000 0.000000
O O9 0.320701 0.086162 0.654698
O O10 0.155753 0.118500 0.151684
O O11 0.944987 0.256262 0.767281
O O12 0.916030 0.324781 0.252082
O O13 0.429379 0.452178 0.584922
O O14 0.981594 0.399236 0.139255
O O15 0.500000 0.500000 0.000000
O O16 0.966135 0.370937 0.696396
#
# Coordination Sequence:
#
# PCOD9028889 Si02
#       8
#     2   2   2   2   1   2   2   2
#     4  11  24  43  69 103 139 185 236 297 356 419
#     4  11  26  46  75 107 143 192 248 304 379 448
#     4  10  24  42  73  99 139 189 240 299 367 439
#     4  10  24  44  71 100 144 190 232 301 371 430
#     4  10  22  48  72 100 148 184 234 308 376 420
#     4  10  23  42  70 102 133 190 244 280 362 441
#     4  10  22  42  65  93 139 188 231 295 359 416
#     4  11  23  44  67 100 145 188 232 304 353 422
#
# _framework density 25.074368
#
# number of rings (size 3 to 8) (size 9 to 14) (size 15 to 20)
#    0.000    1.600    0.000    4.400   11.200    8.000 
#    4.800    6.667    0.000    0.000    0.000    0.000 
#    0.000    0.000    0.000    0.000    0.000    0.000 
#
# Total GULP energy -83711.986493 kJ/mol
# GULP energy per Si atom -5580.799100 kJ/mol
# Density = 2.501730 g / cm^3
# Si number density = 25.074368 Si / 1000 Ang^3
#
#
#
# Elastic Constant Matrix: (Units=GPa)
#
#
# Indices 1 2 3 4 5 6 
#
# 1 195.1109 48.1510 32.8484 -13.5671 8.6845 -4.9086
# 2 48.1510 77.2689 16.2710 -7.6571 -6.4977 -8.0140
# 3 32.8484 16.2710 82.5065 14.0520 6.6029 -4.5196
# 4 -13.5671 -7.6571 14.0520 27.6888 -2.5558 -2.3292
# 5 8.6845 -6.4977 6.6029 -2.5558 27.5683 -12.9644
# 6 -4.9086 -8.0140 -4.5196 -2.3292 -12.9644 21.3337
#
#
#
# Elastic Compliance Matrix: (Units=1/GPa)
#
#
# Indices 1 2 3 4 5 6 
#
# 1 0.006773 -0.003931 -0.002273 0.002920 -0.003196 -0.002024
# 2 -0.003931 0.020047 -0.004181 0.008486 0.015243 0.015930
# 3 -0.002273 -0.004181 0.016151 -0.011499 -0.007238 -0.004326
# 4 0.002920 0.008486 -0.011499 0.048605 0.016109 0.016520
# 5 -0.003196 0.015243 -0.007238 0.016109 0.065180 0.044825
# 6 -0.002024 0.015930 -0.004326 0.016520 0.044825 0.080520
#
#
# Mechanical properties :
#
#
# Convention : Reuss Voigt Hill
#
# Bulk Modulus (GPa) = 45.04701 61.04747 53.04724
# Shear Modulus (GPa) = 18.83630 32.49256 25.66443
#
# Velocity S-wave (km/s) = 2.74381 3.60369 3.20274
# Velocity P-wave (km/s) = 5.29550 6.45871 5.90581
#
# Compressibility (1/GPa) = 0.02219903
#
# Stress axis : x y z
#
# Youngs Moduli (GPa) = 147.65437 49.88325 61.91737
#
# Poissons Ratio (x) = 0.19609 0.14077
# Poissons Ratio (y) = 0.58043 0.25887
# Poissons Ratio (z) = 0.33569 0.20856
#
# Static dielectric constant tensor:
#      x y z
#    x 2.029580 -0.055710 -0.018430 
#    y -0.055710 2.003140 -0.056370 
#    z -0.018430 -0.056370 2.051190 
# 
# From -- ./inp_files/56170.got.cif
#   From: 2010.05.17/outbox.cif.g08.bks.cpg/sg2_29_cif.got.tgz:56170.got - 2010.06.03 11:33:40.
