data_PCOD9028012
_publ_section_title
;
Structure prediction by ZEFSAII (Michael W. Deem and Ramdas Pophale) SiO2 
 PCOD9028012
Probable space group: P -1
;
_chemical_formula_sum "Si O2"
_cell_formula_units_Z 16
_cell_length_a 14.592426
_cell_length_b 9.405929
_cell_length_c 16.449315
_cell_angle_alpha 141.646570
_cell_angle_beta 33.153670
_cell_angle_gamma 147.193666
_cell_volume 643.806500
_symmetry_space_group_name_H-M "P -1"
_symmetry_group_IT_number 2
_symmetry_cell_setting 'triclinic'
loop_
_space_group_symop_operation_xyz
x,y,z
-x,-y,-z
loop_
_atom_site_type_symbol
_atom_site_label
_atom_site_fract_x
_atom_site_fract_y
_atom_site_fract_z
Si Si1 0.054712 0.587335 0.687070
Si Si2 0.193829 0.735158 0.414528
Si Si3 0.982056 0.449137 0.106273
Si Si4 0.733429 0.692155 0.409876
Si Si5 0.764437 0.785319 0.182645
Si Si6 0.500451 0.433851 0.875348
Si Si7 0.321657 0.018280 0.105938
Si Si8 0.681223 0.636959 0.608447
O O1 0.220179 0.525378 0.510645
O O2 0.855339 0.369923 0.689604
O O3 0.021703 0.559147 0.795731
O O4 0.149514 0.898369 0.730115
O O5 0.388669 0.729758 0.290245
O O6 0.000000 0.500000 0.500000
O O7 0.207820 0.020090 0.543467
O O8 0.806692 0.497615 0.237455
O O9 0.164408 0.727689 0.058626
O O10 0.050366 0.242288 0.944094
O O11 0.500000 0.500000 0.500000
O O12 0.769229 0.741018 0.501091
O O13 0.692278 0.711195 0.107289
O O14 0.559369 0.568858 0.287868
O O15 0.622051 0.737625 0.885532
O O16 0.500000 0.500000 0.000000
O O17 0.238193 0.094440 0.278325
O O18 0.500000 0.000000 0.000000
#
# Coordination Sequence:
#
# PCOD9028012 Si02
#       8
#     2   2   2   2   2   2   2   2
#     4  11  24  41  69 101 138 185 239 285 344 430
#     4  12  26  44  68 101 143 179 232 293 361 414
#     4  11  22  43  71  97 134 182 241 286 343 427
#     4  11  27  45  69 101 142 185 234 298 358 412
#     4  11  23  43  71 101 137 186 236 287 350 429
#     4  11  25  41  71 106 141 178 228 297 360 411
#     4  11  21  43  71 101 137 180 238 287 345 426
#     4  10  22  41  70  97 132 190 238 282 341 428
#
# _framework density 24.852187000000001
#
# number of rings (size 3 to 8) (size 9 to 14) (size 15 to 20)
#    0.000    1.000    2.500    5.250    7.000    2.000 
#    0.000    0.625    0.000    0.000    0.000    0.000 
#    0.000    0.000    0.000    0.000    0.000    0.000 
#
# Total GULP energy -89382.743944 kJ/mol
# GULP energy per Si atom -5586.421496 kJ/mol
# Density = 2.479562 g / cm^3
# Si number density = 24.852187 Si / 1000 Ang^3
#
#
#
# Elastic Constant Matrix: (Units=GPa)
#
#
# Indices 1 2 3 4 5 6 
#
# 1 50.3677 13.3425 47.2671 -5.7858 -18.6900 -8.3418
# 2 13.3425 107.2631 37.0764 29.0190 -25.8448 -8.5447
# 3 47.2671 37.0764 165.3561 32.1934 -44.3508 -17.3111
# 4 -5.7858 29.0190 32.1934 45.7210 -9.7912 -2.6567
# 5 -18.6900 -25.8448 -44.3508 -9.7912 50.8502 4.9304
# 6 -8.3418 -8.5447 -17.3111 -2.6567 4.9304 22.5239
#
#
#
# Elastic Compliance Matrix: (Units=1/GPa)
#
#
# Indices 1 2 3 4 5 6 
#
# 1 0.034624 -0.003371 -0.010445 0.015067 0.004383 0.004334
# 2 -0.003371 0.012869 0.001163 -0.008307 0.004467 0.002569
# 3 -0.010445 0.001163 0.012476 -0.009456 0.005438 0.003855
# 4 0.015067 -0.008307 -0.009456 0.035672 -0.000002 -0.000631
# 5 0.004383 0.004467 0.005438 -0.000002 0.028161 0.001333
# 6 0.004334 0.002569 0.003855 -0.000631 0.001333 0.049574
#
#
# Mechanical properties :
#
#
# Convention : Reuss Voigt Hill
#
# Bulk Modulus (GPa) = 28.85089 57.59542 43.22315
# Shear Modulus (GPa) = 23.78265 38.83908 31.31087
#
# Velocity S-wave (km/s) = 3.09684 3.95752 3.55333
# Velocity P-wave (km/s) = 4.94180 6.64139 5.85361
#
# Compressibility (1/GPa) = 0.03466098
#
# Stress axis : x y z
#
# Youngs Moduli (GPa) = 28.88132 77.70803 80.15416
#
# Poissons Ratio (x) = 0.26196 0.83725
# Poissons Ratio (y) = 0.09736 -0.09318
# Poissons Ratio (z) = 0.30168 -0.09034
#
# Static dielectric constant tensor:
#      x y z
#    x 1.885010 -0.057680 0.091980 
#    y -0.057680 1.878120 -0.066390 
#    z 0.091980 -0.066390 2.079070 
# 
# From -- ./inp_files/572925.got.cif
#   From: 2010.05.17/outbox.cif.g08.bks.cpg/sg2_287_cif.got.tgz:572925.got - 2010.06.03 11:33:40.
