data_PCOD9028203
_publ_section_title
;
Structure prediction by ZEFSAII (Michael W. Deem and Ramdas Pophale) SiO2 
 PCOD9028203
Probable space group: P -1
;
_chemical_formula_sum "Si O2"
_cell_formula_units_Z 16
_cell_length_a 17.351742
_cell_length_b 11.338122
_cell_length_c 9.361213
_cell_angle_alpha 52.472422
_cell_angle_beta 28.950241
_cell_angle_gamma 47.762216
_cell_volume 658.882665
_symmetry_space_group_name_H-M "P -1"
_symmetry_group_IT_number 2
_symmetry_cell_setting 'triclinic'
loop_
_space_group_symop_operation_xyz
x,y,z
-x,-y,-z
loop_
_atom_site_type_symbol
_atom_site_label
_atom_site_fract_x
_atom_site_fract_y
_atom_site_fract_z
Si Si1 0.941300 0.822494 0.016149
Si Si2 0.320164 0.830753 0.385188
Si Si3 0.359314 0.583581 0.287423
Si Si4 0.781105 0.819177 0.761640
Si Si5 0.272811 0.294923 0.770963
Si Si6 0.645356 0.149350 0.348369
Si Si7 0.175240 0.689115 0.254427
Si Si8 0.133123 0.382127 0.479173
O O1 0.860272 0.761024 0.059074
O O2 0.958493 0.694871 0.206357
O O3 0.796020 0.985281 0.185662
O O4 0.122505 0.840695 0.693364
O O5 0.417529 0.672602 0.253813
O O6 0.371812 0.827716 0.470126
O O7 0.323556 0.993980 0.190514
O O8 0.282827 0.459481 0.573694
O O9 0.222794 0.724070 0.310472
O O10 0.500000 0.500000 0.000000
O O11 0.741312 0.755990 0.721635
O O12 0.981915 0.793232 0.451548
O O13 0.769967 0.706625 0.991575
O O14 0.467420 0.168419 0.546907
O O15 0.703830 0.283598 0.081845
O O16 0.200915 0.503151 0.359044
O O17 0.000000 0.500000 0.500000
#
# Coordination Sequence:
#
# PCOD9028203 Si02
#       8
#     2   2   2   2   2   2   2   2
#     4  12  24  48  76 110 145 190 244 299 357 438
#     4  12  27  45  78 106 145 191 247 299 360 433
#     4  12  28  48  68 104 146 196 240 301 366 433
#     4  11  25  46  70 112 143 190 245 301 357 434
#     4  12  29  45  71 105 149 195 240 298 364 428
#     4  12  26  48  74 111 147 192 236 300 369 433
#     4  11  23  45  76 101 150 190 243 294 365 427
#     4  10  22  41  72 107 147 182 236 304 355 417
#
# _framework density 24.283535000000001
#
# number of rings (size 3 to 8) (size 9 to 14) (size 15 to 20)
#    0.000    0.500    5.000    3.000    7.000    5.000 
#    0.000    0.000    0.000    0.000    0.000    0.000 
#    0.000    0.000    0.000    0.000    0.000    0.000 
#
# Total GULP energy -89538.668199 kJ/mol
# GULP energy per Si atom -5596.166762 kJ/mol
# Density = 2.422826 g / cm^3
# Si number density = 24.283535 Si / 1000 Ang^3
#
#
#
# Elastic Constant Matrix: (Units=GPa)
#
#
# Indices 1 2 3 4 5 6 
#
# 1 101.9805 13.0019 21.0411 -3.4753 -0.6607 -7.1548
# 2 13.0019 99.4172 21.0734 -11.1715 9.4955 7.1534
# 3 21.0411 21.0734 89.9053 -14.8132 14.3430 -4.3184
# 4 -3.4753 -11.1715 -14.8132 41.4250 -9.6933 1.2980
# 5 -0.6607 9.4955 14.3430 -9.6933 48.9682 6.4130
# 6 -7.1548 7.1534 -4.3184 1.2980 6.4130 33.8437
#
#
#
# Elastic Compliance Matrix: (Units=1/GPa)
#
#
# Indices 1 2 3 4 5 6 
#
# 1 0.010558 -0.001136 -0.002241 -0.000116 0.000727 0.002053
# 2 -0.001136 0.011145 -0.002006 0.002090 -0.000811 -0.002778
# 3 -0.002241 -0.002006 0.013252 0.003203 -0.003166 0.002118
# 4 -0.000116 0.002090 0.003203 0.026887 0.004225 -0.001889
# 5 0.000727 -0.000811 -0.003166 0.004225 0.022953 -0.004590
# 6 0.002053 -0.002778 0.002118 -0.001889 -0.004590 0.031781
#
#
# Mechanical properties :
#
#
# Convention : Reuss Voigt Hill
#
# Bulk Modulus (GPa) = 41.34259 44.61511 42.97885
# Shear Modulus (GPa) = 36.92618 40.59316 38.75967
#
# Velocity S-wave (km/s) = 3.90375 4.09300 3.99949
# Velocity P-wave (km/s) = 6.11400 6.38352 6.25021
#
# Compressibility (1/GPa) = 0.02418813
#
# Stress axis : x y z
#
# Youngs Moduli (GPa) = 94.71662 89.72919 75.45966
#
# Poissons Ratio (x) = 0.10193 0.16912
# Poissons Ratio (y) = 0.10759 0.15138
# Poissons Ratio (z) = 0.21228 0.18000
#
# Static dielectric constant tensor:
#      x y z
#    x 2.032310 0.061080 -0.080960 
#    y 0.061080 1.974240 0.033070 
#    z -0.080960 0.033070 1.954790 
# 
# From -- ./inp_files/278641.got.cif
#   From: 2010.05.17/outbox.cif.g08.bks.cpg/sg2_140_cif.got.tgz:278641.got - 2010.06.03 11:33:40.
