data_PCOD9028037
_publ_section_title
;
Structure prediction by ZEFSAII (Michael W. Deem and Ramdas Pophale) SiO2 
 PCOD9028037
Probable space group: P -1
;
_chemical_formula_sum "Si O2"
_cell_formula_units_Z 16
_cell_length_a 8.952060
_cell_length_b 11.111932
_cell_length_c 11.314944
_cell_angle_alpha 40.121722
_cell_angle_beta 79.473549
_cell_angle_gamma 82.073873
_cell_volume 713.110467
_symmetry_space_group_name_H-M "P -1"
_symmetry_group_IT_number 2
_symmetry_cell_setting 'triclinic'
loop_
_space_group_symop_operation_xyz
x,y,z
-x,-y,-z
loop_
_atom_site_type_symbol
_atom_site_label
_atom_site_fract_x
_atom_site_fract_y
_atom_site_fract_z
Si Si1 0.090940 0.789529 0.726107
Si Si2 0.229263 0.199823 0.101736
Si Si3 0.619816 0.426807 0.133846
Si Si4 0.913328 0.075112 0.842977
Si Si5 0.504872 0.975793 0.213232
Si Si6 0.377876 0.317104 0.424796
Si Si7 0.929655 0.796119 0.518135
Si Si8 0.622579 0.276795 0.788101
O O1 0.229237 0.680676 0.847645
O O2 0.927457 0.769529 0.828622
O O3 0.060239 0.729077 0.640029
O O4 0.125753 0.009116 0.562763
O O5 0.183962 0.101411 0.059648
O O6 0.353643 0.051722 0.244050
O O7 0.314233 0.395443 0.939011
O O8 0.518283 0.300280 0.328521
O O9 0.500000 0.500000 0.000000
O O10 0.800224 0.238374 0.773890
O O11 0.007884 0.151013 0.660046
O O12 0.000000 0.000000 0.000000
O O13 0.622730 0.871092 0.357665
O O14 0.457069 0.820571 0.239623
O O15 0.571952 0.152880 0.001111
O O16 0.215946 0.336023 0.369958
O O17 0.405894 0.505718 0.352953
#
# Coordination Sequence:
#
# PCOD9028037 Si02
#       8
#     2   2   2   2   2   2   2   2
#     4  10  24  45  68  92 140 184 228 288 345 404
#     4  10  22  45  70  96 137 181 230 283 348 403
#     4  12  27  42  68 105 136 178 234 287 347 413
#     4  10  22  41  70  98 137 186 227 280 350 410
#     4  10  22  42  67  98 140 178 220 279 344 408
#     4  12  25  40  69 102 136 178 230 281 342 413
#     4  10  24  43  65 103 134 181 235 283 342 409
#     4  10  22  42  65  98 140 175 226 277 339 408
#
# _framework density 22.436916
#
# number of rings (size 3 to 8) (size 9 to 14) (size 15 to 20)
#    0.000    1.500    1.250    2.250    8.750    4.000 
#    2.250    0.000    0.000    0.000    0.000    0.000 
#    0.000    0.000    0.000    0.000    0.000    0.000 
#
# Total GULP energy -89384.722615 kJ/mol
# GULP energy per Si atom -5586.545163 kJ/mol
# Density = 2.238585 g / cm^3
# Si number density = 22.436916 Si / 1000 Ang^3
#
#
#
# Elastic Constant Matrix: (Units=GPa)
#
#
# Indices 1 2 3 4 5 6 
#
# 1 109.7172 36.2458 37.3876 6.1731 6.8436 -14.6251
# 2 36.2458 52.9527 19.1408 1.2027 0.0279 -16.2638
# 3 37.3876 19.1408 60.2101 1.8287 11.7528 -8.7697
# 4 6.1731 1.2027 1.8287 28.7540 2.2165 -6.6208
# 5 6.8436 0.0279 11.7528 2.2165 41.2614 -6.2275
# 6 -14.6251 -16.2638 -8.7697 -6.6208 -6.2275 36.6469
#
#
#
# Elastic Compliance Matrix: (Units=1/GPa)
#
#
# Indices 1 2 3 4 5 6 
#
# 1 0.013699 -0.006986 -0.006085 -0.002127 -0.000349 0.000467
# 2 -0.006986 0.028032 -0.003928 0.002553 0.003598 0.009785
# 3 -0.006085 -0.003928 0.022744 0.000546 -0.005428 0.000447
# 4 -0.002127 0.002553 0.000546 0.036745 -0.000732 0.006928
# 5 -0.000349 0.003598 -0.005428 -0.000732 0.026562 0.004540
# 6 0.000467 0.009785 0.000447 0.006928 0.004540 0.033947
#
#
# Mechanical properties :
#
#
# Convention : Reuss Voigt Hill
#
# Bulk Modulus (GPa) = 32.81131 45.38094 39.09613
# Shear Modulus (GPa) = 24.28530 30.00619 27.14574
#
# Velocity S-wave (km/s) = 3.29353 3.66096 3.48209
# Velocity P-wave (km/s) = 5.39617 6.17576 5.79908
#
# Compressibility (1/GPa) = 0.03047729
#
# Stress axis : x y z
#
# Youngs Moduli (GPa) = 72.99576 35.67358 43.96765
#
# Poissons Ratio (x) = 0.24920 0.26755
# Poissons Ratio (y) = 0.50992 0.17272
# Poissons Ratio (z) = 0.44419 0.14014
#
# Static dielectric constant tensor:
#      x y z
#    x 1.854190 -0.004300 0.002910 
#    y -0.004300 1.833640 0.027310 
#    z 0.002910 0.027310 1.839790 
# 
# From -- ./inp_files/388781.got.cif
#   From: 2010.05.17/outbox.cif.g08.bks.cpg/sg2_195_cif.got.tgz:388781.got - 2010.06.03 11:33:40.
