data_PCOD9028975
_publ_section_title
;
Structure prediction by ZEFSAII (Michael W. Deem and Ramdas Pophale) SiO2 
 PCOD9028975
Probable space group: P -1
;
_chemical_formula_sum "Si O2"
_cell_formula_units_Z 14
_cell_length_a 21.761038
_cell_length_b 5.101903
_cell_length_c 5.470146
_cell_angle_alpha 85.013373
_cell_angle_beta 109.561959
_cell_angle_gamma 118.736659
_cell_volume 499.756948
_symmetry_space_group_name_H-M "P -1"
_symmetry_group_IT_number 2
_symmetry_cell_setting 'triclinic'
loop_
_space_group_symop_operation_xyz
x,y,z
-x,-y,-z
loop_
_atom_site_type_symbol
_atom_site_label
_atom_site_fract_x
_atom_site_fract_y
_atom_site_fract_z
Si Si1 0.064892 0.701936 0.885423
Si Si2 0.894572 0.699284 0.347532
Si Si3 0.182037 0.134657 0.386033
Si Si4 0.473522 0.731576 0.682170
Si Si5 0.384192 0.897848 0.939005
Si Si6 0.244422 0.848079 0.859180
Si Si7 0.330546 0.361427 0.303660
O O1 0.137716 0.887147 0.139639
O O2 0.068774 0.491657 0.695655
O O3 0.000000 0.500000 0.000000
O O4 0.058770 0.973296 0.729698
O O5 0.870198 0.729537 0.590332
O O6 0.811256 0.499428 0.135442
O O7 0.266555 0.350641 0.397324
O O8 0.194969 0.972527 0.651329
O O9 0.425468 0.800506 0.807176
O O10 0.410455 0.422615 0.511615
O O11 0.500000 0.000000 0.500000
O O12 0.550567 0.784876 0.898359
O O13 0.310224 0.900187 0.756353
O O14 0.353396 0.638932 0.125781
O O15 0.289342 0.052765 0.126698
#
# Coordination Sequence:
#
# PCOD9028975 Si02
#       7
#     2   2   2   2   2   2   2
#     4  12  29  53  81 113 154 199 248 306 377 452
#     4  12  26  52  74 118 151 195 256 305 368 463
#     4  12  26  46  76 107 151 197 248 313 383 438
#     4   9  20  40  65  96 140 199 251 317 379 437
#     4  10  22  42  65  97 144 191 260 312 374 452
#     4  12  24  42  70 107 144 192 256 309 367 455
#     4  11  22  43  67 101 142 197 251 312 382 441
#
# _framework density 28.013621000000001
#
# number of rings (size 3 to 8) (size 9 to 14) (size 15 to 20)
#    0.000    0.857    2.857    3.857    2.000    5.143 
#    2.571   10.000    0.000    0.000    0.000    0.000 
#    0.000    0.000    0.000    0.000    0.000    0.000 
#
# Total GULP energy -78459.753330 kJ/mol
# GULP energy per Si atom -5604.268095 kJ/mol
# Density = 2.794986 g / cm^3
# Si number density = 28.013621 Si / 1000 Ang^3
#
#
#
# Elastic Constant Matrix: (Units=GPa)
#
#
# Indices 1 2 3 4 5 6 
#
# 1 153.9381 68.6202 35.7378 0.6314 -28.5011 11.7098
# 2 68.6202 192.2189 55.3392 10.6683 -22.0445 26.7188
# 3 35.7378 55.3392 96.5596 30.1399 -8.5959 -0.6321
# 4 0.6314 10.6683 30.1399 61.4274 12.6513 -7.0669
# 5 -28.5011 -22.0445 -8.5959 12.6513 64.0386 -0.9575
# 6 11.7098 26.7188 -0.6321 -7.0669 -0.9575 65.4358
#
#
#
# Elastic Compliance Matrix: (Units=1/GPa)
#
#
# Indices 1 2 3 4 5 6 
#
# 1 0.008397 -0.002120 -0.001842 0.000579 0.002637 -0.000554
# 2 -0.002120 0.007437 -0.003334 -0.000184 0.001165 -0.002692
# 3 -0.001842 -0.003334 0.015305 -0.007095 0.001505 0.001095
# 4 0.000579 -0.000184 -0.007095 0.021034 -0.004882 0.002103
# 5 0.002637 0.001165 0.001505 -0.004882 0.018339 -0.001192
# 6 -0.000554 -0.002692 0.001095 0.002103 -0.001192 0.016701
#
#
# Mechanical properties :
#
#
# Convention : Reuss Voigt Hill
#
# Bulk Modulus (GPa) = 60.43822 84.67901 72.55862
# Shear Modulus (GPa) = 46.58891 57.04832 51.81861
#
# Velocity S-wave (km/s) = 4.08251 4.51760 4.30556
# Velocity P-wave (km/s) = 6.62148 7.58321 7.11860
#
# Compressibility (1/GPa) = 0.01654582
#
# Stress axis : x y z
#
# Youngs Moduli (GPa) = 119.09210 134.45968 65.33800
#
# Poissons Ratio (x) = 0.28504 0.12038
# Poissons Ratio (y) = 0.25246 0.21786
# Poissons Ratio (z) = 0.21942 0.44833
#
# Static dielectric constant tensor:
#      x y z
#    x 2.239090 -0.044140 0.055740 
#    y -0.044140 2.138030 -0.005610 
#    z 0.055740 -0.005610 2.278070 
# 
# From -- ./inp_files/13724.got.cif
#   From: 2010.05.17/outbox.cif.g08.bks.cpg/sg2_7_cif.got.tgz:13724.got - 2010.06.03 11:33:40.
