data_PCOD9028237
_publ_section_title
;
Structure prediction by ZEFSAII (Michael W. Deem and Ramdas Pophale) SiO2 
 PCOD9028237
Probable space group: P -1
;
_chemical_formula_sum "Si O2"
_cell_formula_units_Z 16
_cell_length_a 9.736945
_cell_length_b 18.659114
_cell_length_c 24.478281
_cell_angle_alpha 20.736078
_cell_angle_beta 153.729228
_cell_angle_gamma 144.474380
_cell_volume 688.189284
_symmetry_space_group_name_H-M "P -1"
_symmetry_group_IT_number 2
_symmetry_cell_setting 'triclinic'
loop_
_space_group_symop_operation_xyz
x,y,z
-x,-y,-z
loop_
_atom_site_type_symbol
_atom_site_label
_atom_site_fract_x
_atom_site_fract_y
_atom_site_fract_z
Si Si1 0.656584 0.707665 0.161239
Si Si2 0.732501 0.886439 0.459169
Si Si3 0.232305 0.107985 0.731032
Si Si4 0.270713 0.065319 0.256905
Si Si5 0.946296 0.530106 0.288379
Si Si6 0.625627 0.321646 0.801531
Si Si7 0.709243 0.380866 0.204698
Si Si8 0.689411 0.250095 0.667399
O O1 0.725815 0.545726 0.252316
O O2 0.525358 0.637320 0.221209
O O3 0.999075 0.773679 0.242659
O O4 0.416172 0.903376 0.916098
O O5 0.510982 0.922679 0.299834
O O6 0.967082 0.691260 0.660071
O O7 0.474978 0.910804 0.397785
O O8 0.000000 0.000000 0.500000
O O9 0.448825 0.160371 0.821067
O O10 0.158429 0.305938 0.525420
O O11 0.912663 0.052436 0.681426
O O12 0.519957 0.192631 0.283947
O O13 0.987943 0.218474 0.015499
O O14 0.755414 0.524990 0.169086
O O15 0.153980 0.710916 0.245576
O O16 0.504870 0.526589 0.576999
O O17 0.500000 0.500000 0.000000
#
# Coordination Sequence:
#
# PCOD9028237 Si02
#       8
#     2   2   2   2   2   2   2   2
#     4   9  18  33  56  98 125 158 192 245 311 370
#     4  10  21  37  59  86 116 163 211 248 285 358
#     4  10  19  36  63  95 134 147 193 256 307 384
#     4  10  21  36  61  92 116 165 202 243 313 359
#     4   9  23  38  61  94 122 158 201 257 319 355
#     4  10  17  31  62  93 126 158 189 243 309 380
#     4  11  24  46  60  78 120 164 220 256 297 365
#     4   9  18  33  60  89 125 154 204 243 305 357
#
# _framework density 23.249417999999999
#
# number of rings (size 3 to 8) (size 9 to 14) (size 15 to 20)
#    0.750    1.500    0.000    4.125    1.750    1.000 
#    6.750    2.500    0.000    5.250    0.000    0.000 
#    0.000    0.000    0.000    0.000    0.000    0.000 
#
# Total GULP energy -89099.344911 kJ/mol
# GULP energy per Si atom -5568.709057 kJ/mol
# Density = 2.319650 g / cm^3
# Si number density = 23.249418 Si / 1000 Ang^3
#
#
#
# Elastic Constant Matrix: (Units=GPa)
#
#
# Indices 1 2 3 4 5 6 
#
# 1 65.3896 35.5567 38.6814 6.6082 2.6996 -17.0631
# 2 35.5567 135.1528 24.0821 24.9283 -0.6234 -24.0923
# 3 38.6814 24.0821 60.2460 18.4419 22.5369 6.9626
# 4 6.6082 24.9283 18.4419 32.6963 0.2846 -1.7703
# 5 2.6996 -0.6234 22.5369 0.2846 42.2781 9.1513
# 6 -17.0631 -24.0923 6.9626 -1.7703 9.1513 36.1894
#
#
#
# Elastic Compliance Matrix: (Units=1/GPa)
#
#
# Indices 1 2 3 4 5 6 
#
# 1 0.045793 -0.003528 -0.041482 0.018047 0.013680 0.024646
# 2 -0.003528 0.010576 -0.000225 -0.006935 -0.000584 0.005229
# 3 -0.041482 -0.000225 0.065225 -0.029475 -0.026057 -0.027110
# 4 0.018047 -0.006935 -0.029475 0.049224 0.012203 0.008885
# 5 0.013680 -0.000584 -0.026057 0.012203 0.036024 0.002562
# 6 0.024646 0.005229 -0.027110 0.008885 0.002562 0.047737
#
#
# Mechanical properties :
#
#
# Convention : Reuss Voigt Hill
#
# Bulk Modulus (GPa) = 32.12928 50.82542 41.47735
# Shear Modulus (GPa) = 14.06771 33.06398 23.56585
#
# Velocity S-wave (km/s) = 2.46250 3.77522 3.18718
# Velocity P-wave (km/s) = 4.68344 6.39621 5.60563
#
# Compressibility (1/GPa) = 0.03112426
#
# Stress axis : x y z
#
# Youngs Moduli (GPa) = 21.83751 94.55452 15.33144
#
# Poissons Ratio (x) = 0.33361 0.63597
# Poissons Ratio (y) = 0.07705 0.00345
# Poissons Ratio (z) = 0.90585 0.02129
#
# Static dielectric constant tensor:
#      x y z
#    x 1.838030 -0.023140 0.160290 
#    y -0.023140 1.967550 0.130750 
#    z 0.160290 0.130750 1.471650 
# 
# From -- ./inp_files/623173.got.cif
#   From: 2010.05.17/outbox.cif.g08.bks.cpg/sg2_312_cif.got.tgz:623173.got - 2010.06.03 11:33:40.
