data_PCOD9028507
_publ_section_title
;
Structure prediction by ZEFSAII (Michael W. Deem and Ramdas Pophale) SiO2 
 PCOD9028507
Probable space group: P -1
;
_chemical_formula_sum "Si O2"
_cell_formula_units_Z 15
_cell_length_a 28.090416
_cell_length_b 15.880149
_cell_length_c 6.518495
_cell_angle_alpha 123.194999
_cell_angle_beta 55.373981
_cell_angle_gamma 165.343823
_cell_volume 605.371758
_symmetry_space_group_name_H-M "P -1"
_symmetry_group_IT_number 2
_symmetry_cell_setting 'triclinic'
loop_
_space_group_symop_operation_xyz
x,y,z
-x,-y,-z
loop_
_atom_site_type_symbol
_atom_site_label
_atom_site_fract_x
_atom_site_fract_y
_atom_site_fract_z
Si Si1 0.213332 0.384953 0.569077
Si Si2 0.240821 0.601952 0.487244
Si Si3 0.026046 0.157039 0.079860
Si Si4 0.691911 0.734444 0.209333
Si Si5 0.317380 0.062319 0.494862
Si Si6 0.483928 0.661416 0.226832
Si Si7 0.671405 0.104531 0.003655
Si Si8 0.500000 0.000000 0.000000
O O1 0.287482 0.576070 0.457575
O O2 0.322625 0.464539 0.460893
O O3 0.000000 0.000000 0.500000
O O4 0.210339 0.453450 0.871933
O O5 0.204495 0.621122 0.780684
O O6 0.399787 0.884988 0.303711
O O7 0.059467 0.279590 0.358562
O O8 0.852336 0.915057 0.061131
O O9 0.000000 0.000000 0.000000
O O10 0.530751 0.439732 0.379712
O O11 0.778412 0.988226 0.369515
O O12 0.598433 0.572740 0.997601
O O13 0.353502 0.094232 0.684043
O O14 0.233647 0.826649 0.270916
O O15 0.550179 0.839755 0.112240
O O16 0.553410 0.982981 0.982980
#
# Coordination Sequence:
#
# PCOD9028507 Si02
#       8
#     2   2   2   2   2   2   2   1
#     4  12  23  39  61 102 139 166 216 271 344 408
#     4  12  26  41  62  97 135 180 217 270 338 402
#     4  12  24  40  66  97 141 174 211 274 339 401
#     4  10  22  42  63 102 133 178 226 270 336 397
#     4  10  23  40  68  93 137 178 226 281 322 391
#     4  11  21  40  67  98 134 172 220 276 335 396
#     4  11  25  41  63  97 132 172 229 271 330 395
#     4  12  24  44  66  92 138 174 218 284 330 396
#
# _framework density 24.778165000000001
#
# number of rings (size 3 to 8) (size 9 to 14) (size 15 to 20)
#    0.000    0.800    4.000    3.200    7.467    0.000 
#    0.000    0.667    0.000    5.600    0.000    0.000 
#    0.000    0.000    0.000    0.000    0.000    0.000 
#
# Total GULP energy -83702.300567 kJ/mol
# GULP energy per Si atom -5580.153371 kJ/mol
# Density = 2.472177 g / cm^3
# Si number density = 24.778165 Si / 1000 Ang^3
#
#
#
# Elastic Constant Matrix: (Units=GPa)
#
#
# Indices 1 2 3 4 5 6 
#
# 1 118.7840 20.8908 43.4615 -5.7106 7.3143 -23.4372
# 2 20.8908 39.9050 17.4687 2.7657 7.4092 -18.0738
# 3 43.4615 17.4687 140.6128 28.6248 15.8476 -19.2387
# 4 -5.7106 2.7657 28.6248 42.5904 -3.1644 4.7698
# 5 7.3143 7.4092 15.8476 -3.1644 47.0308 4.5850
# 6 -23.4372 -18.0738 -19.2387 4.7698 4.5850 26.2029
#
#
#
# Elastic Compliance Matrix: (Units=1/GPa)
#
#
# Indices 1 2 3 4 5 6 
#
# 1 0.011214 -0.001724 -0.002811 0.002710 -0.000972 0.006454
# 2 -0.001724 0.042881 0.003192 -0.009850 -0.011559 0.034195
# 3 -0.002811 0.003192 0.011883 -0.010273 -0.005864 0.011309
# 4 0.002710 -0.009850 -0.010273 0.034247 0.008816 -0.019690
# 5 -0.000972 -0.011559 -0.005864 0.008816 0.027715 -0.019602
# 6 0.006454 0.034195 0.011309 -0.019690 -0.019602 0.082840
#
#
# Mechanical properties :
#
#
# Convention : Reuss Voigt Hill
#
# Bulk Modulus (GPa) = 15.79963 51.43819 33.61891
# Shear Modulus (GPa) = 21.31610 37.66355 29.48983
#
# Velocity S-wave (km/s) = 2.93623 3.90299 3.45360
# Velocity P-wave (km/s) = 4.22913 6.41215 5.43144
#
# Compressibility (1/GPa) = 0.06329264
#
# Stress axis : x y z
#
# Youngs Moduli (GPa) = 89.17490 23.32016 84.15084
#
# Poissons Ratio (x) = 0.04021 0.23654
# Poissons Ratio (y) = 0.15377 -0.26863
# Poissons Ratio (z) = 0.25066 -0.07444
#
# Static dielectric constant tensor:
#      x y z
#    x 1.869140 -0.025100 -0.038230 
#    y -0.025100 2.037470 0.036370 
#    z -0.038230 0.036370 2.063730 
# 
# From -- ./inp_files/127212.got.cif
#   From: 2010.05.17/outbox.cif.g08.bks.cpg/sg2_64_cif.got.tgz:127212.got - 2010.06.03 11:33:40.
