data_PCOD9028039
_publ_section_title
;
Structure prediction by ZEFSAII (Michael W. Deem and Ramdas Pophale) SiO2 
 PCOD9028039
Probable space group: P -1
;
_chemical_formula_sum "Si O2"
_cell_formula_units_Z 12
_cell_length_a 8.961899
_cell_length_b 12.675277
_cell_length_c 4.910795
_cell_angle_alpha 60.431699
_cell_angle_beta 108.093803
_cell_angle_gamma 90.334557
_cell_volume 453.807256
_symmetry_space_group_name_H-M "P -1"
_symmetry_group_IT_number 2
_symmetry_cell_setting 'triclinic'
loop_
_space_group_symop_operation_xyz
x,y,z
-x,-y,-z
loop_
_atom_site_type_symbol
_atom_site_label
_atom_site_fract_x
_atom_site_fract_y
_atom_site_fract_z
Si Si1 0.084102 0.079305 0.656992
Si Si2 0.611305 0.519558 0.788842
Si Si3 0.497812 0.868743 0.810911
Si Si4 0.110583 0.692585 0.938435
Si Si5 0.708827 0.150713 0.761564
Si Si6 0.761211 0.738126 0.799432
O O1 0.220451 0.136545 0.505610
O O2 0.956199 0.204431 0.462428
O O3 0.169074 0.979712 0.045284
O O4 0.000000 0.000000 0.500000
O O5 0.500000 0.500000 0.500000
O O6 0.663174 0.650956 0.693409
O O7 0.500000 0.500000 0.000000
O O8 0.774955 0.422786 0.973049
O O9 0.423450 0.876022 0.057780
O O10 0.669315 0.782671 0.968445
O O11 0.500000 0.000000 0.500000
O O12 0.378243 0.810092 0.618991
O O13 0.204821 0.754769 0.143504
O O14 0.945001 0.669926 0.009893
#
# Coordination Sequence:
#
# PCOD9028039 Si02
#       6
#     2   2   2   2   2   2
#     4   8  18  39  67  97 135 169 216 265 327 386
#     4  12  26  49  70  96 130 173 223 275 326 386
#     4  12  23  38  63  96 135 171 218 260 323 385
#     4   9  21  44  69  93 134 168 221 267 327 384
#     4  11  22  43  62  97 133 177 209 267 321 392
#     4  10  22  41  70  99 131 175 220 268 328 386
#
# _framework density 26.442944000000001
#
# number of rings (size 3 to 8) (size 9 to 14) (size 15 to 20)
#    1.000    0.667    1.667    3.000    0.000    0.000 
#    0.000   25.000    0.000    0.000    0.000    0.000 
#    0.000    0.000    0.000    0.000    0.000    0.000 
#
# Total GULP energy -67220.989507 kJ/mol
# GULP energy per Si atom -5601.749126 kJ/mol
# Density = 2.638276 g / cm^3
# Si number density = 26.442944 Si / 1000 Ang^3
#
#
#
# Elastic Constant Matrix: (Units=GPa)
#
#
# Indices 1 2 3 4 5 6 
#
# 1 183.8850 63.5858 47.4565 3.8223 22.7413 -19.5885
# 2 63.5858 141.6907 28.1389 3.2567 6.2094 8.3235
# 3 47.4565 28.1389 86.7521 11.3098 -2.9767 -15.3158
# 4 3.8223 3.2567 11.3098 44.4316 -14.0269 19.7748
# 5 22.7413 6.2094 -2.9767 -14.0269 44.8516 -5.8505
# 6 -19.5885 8.3235 -15.3158 19.7748 -5.8505 74.8013
#
#
#
# Elastic Compliance Matrix: (Units=1/GPa)
#
#
# Indices 1 2 3 4 5 6 
#
# 1 0.007966 -0.002874 -0.002969 -0.001919 -0.004180 0.001978
# 2 -0.002874 0.008826 -0.001870 0.001210 0.000173 -0.002424
# 3 -0.002969 -0.001870 0.015107 -0.004602 0.001834 0.003884
# 4 -0.001919 0.001210 -0.004602 0.030547 0.008885 -0.008960
# 5 -0.004180 0.000173 0.001834 0.008885 0.027166 -0.000962
# 6 0.001978 -0.002424 0.003884 -0.008960 -0.000962 0.017245
#
#
# Mechanical properties :
#
#
# Convention : Reuss Voigt Hill
#
# Bulk Modulus (GPa) = 60.71297 76.74335 68.72816
# Shear Modulus (GPa) = 39.13144 51.02667 45.07906
#
# Velocity S-wave (km/s) = 3.85105 4.39759 4.13336
# Velocity P-wave (km/s) = 6.54094 7.40745 6.98764
#
# Compressibility (1/GPa) = 0.01647095
#
# Stress axis : x y z
#
# Youngs Moduli (GPa) = 125.53457 113.30428 66.19559
#
# Poissons Ratio (x) = 0.32564 0.19657
# Poissons Ratio (y) = 0.36079 0.12380
# Poissons Ratio (z) = 0.37277 0.21191
#
# Static dielectric constant tensor:
#      x y z
#    x 2.179790 0.051430 0.024050 
#    y 0.051430 2.022970 -0.056970 
#    z 0.024050 -0.056970 2.063130 
# 
# From -- ./inp_files/31860.got.cif
#   From: 2010.05.17/outbox.cif.g08.bks.cpg/sg2_16_cif.got.tgz:31860.got - 2010.06.03 11:33:40.
