data_PCOD9028266
_publ_section_title
;
Structure prediction by ZEFSAII (Michael W. Deem and Ramdas Pophale) SiO2 
 PCOD9028266
Probable space group: P -1
;
_chemical_formula_sum "Si O2"
_cell_formula_units_Z 14
_cell_length_a 9.300722
_cell_length_b 14.089040
_cell_length_c 7.662893
_cell_angle_alpha 75.377166
_cell_angle_beta 103.352095
_cell_angle_gamma 146.434767
_cell_volume 536.790430
_symmetry_space_group_name_H-M "P -1"
_symmetry_group_IT_number 2
_symmetry_cell_setting 'triclinic'
loop_
_space_group_symop_operation_xyz
x,y,z
-x,-y,-z
loop_
_atom_site_type_symbol
_atom_site_label
_atom_site_fract_x
_atom_site_fract_y
_atom_site_fract_z
Si Si1 0.446972 0.084966 0.809547
Si Si2 0.945754 0.291747 0.284396
Si Si3 0.968196 0.283500 0.709326
Si Si4 0.645411 0.608630 0.807678
Si Si5 0.688085 0.817349 0.515443
Si Si6 0.211219 0.603850 0.675620
Si Si7 0.941125 0.079017 0.975132
O O1 0.724102 0.192468 0.789970
O O2 0.419657 0.179730 0.679871
O O3 0.256492 0.897979 0.760146
O O4 0.350513 0.050017 0.994700
O O5 0.932993 0.272331 0.498946
O O6 0.873341 0.366570 0.214923
O O7 0.225762 0.418448 0.225430
O O8 0.185809 0.474279 0.761608
O O9 0.026585 0.202054 0.795803
O O10 0.600123 0.656706 0.602143
O O11 0.883305 0.801041 0.864899
O O12 0.500000 0.500000 0.000000
O O13 0.516117 0.783249 0.629221
O O14 0.000000 0.000000 0.500000
O O15 0.000000 0.500000 0.500000
O O16 0.000000 0.000000 0.000000
#
# Coordination Sequence:
#
# PCOD9028266 Si02
#       7
#     2   2   2   2   2   2   2
#     4  11  23  42  69 101 135 181 241 281 343 421
#     4  10  22  41  73  96 132 187 239 279 342 430
#     4  11  23  44  69 101 142 176 234 294 348 406
#     4  11  26  46  64 101 143 182 232 290 353 416
#     4  12  22  42  75  96 141 184 237 279 346 420
#     4  10  22  42  67 104 137 175 231 293 342 407
#     4  11  26  42  64 102 142 179 226 291 354 406
#
# _framework density 26.080943999999999
#
# number of rings (size 3 to 8) (size 9 to 14) (size 15 to 20)
#    0.000    1.143    5.714    1.714    4.000    1.143 
#    0.000   10.000    0.000    0.000    0.000    0.000 
#    0.000    0.000    0.000    0.000    0.000    0.000 
#
# Total GULP energy -78023.876883 kJ/mol
# GULP energy per Si atom -5573.134063 kJ/mol
# Density = 2.602158 g / cm^3
# Si number density = 26.080944 Si / 1000 Ang^3
#
#
#
# Elastic Constant Matrix: (Units=GPa)
#
#
# Indices 1 2 3 4 5 6 
#
# 1 156.4067 60.0090 44.6328 -28.6847 -10.0753 -14.0007
# 2 60.0090 85.8660 25.6847 -18.1873 -8.5241 -3.6804
# 3 44.6328 25.6847 77.7333 -32.1836 14.8663 -9.4077
# 4 -28.6847 -18.1873 -32.1836 40.9677 0.2871 -2.2278
# 5 -10.0753 -8.5241 14.8663 0.2871 56.4298 -8.1330
# 6 -14.0007 -3.6804 -9.4077 -2.2278 -8.1330 47.1365
#
#
#
# Elastic Compliance Matrix: (Units=1/GPa)
#
#
# Indices 1 2 3 4 5 6 
#
# 1 0.010136 -0.005302 -0.003232 0.002321 0.002200 0.002441
# 2 -0.005302 0.016577 -0.002005 0.002045 0.002042 -0.000232
# 3 -0.003232 -0.002005 0.023455 0.015491 -0.006685 0.003143
# 4 0.002321 0.002045 0.015491 0.039421 -0.002791 0.005322
# 5 0.002200 0.002042 -0.006685 -0.002791 0.020616 0.002904
# 6 0.002441 -0.000232 0.003143 0.005322 0.002904 0.023302
#
#
# Mechanical properties :
#
#
# Convention : Reuss Voigt Hill
#
# Bulk Modulus (GPa) = 34.37636 64.51767 49.44701
# Shear Modulus (GPa) = 30.43511 41.55210 35.99360
#
# Velocity S-wave (km/s) = 3.41977 3.99582 3.71896
# Velocity P-wave (km/s) = 5.36678 6.78822 6.11892
#
# Compressibility (1/GPa) = 0.02908976
#
# Stress axis : x y z
#
# Youngs Moduli (GPa) = 98.65507 60.32352 42.63406
#
# Poissons Ratio (x) = 0.31986 0.13781
# Poissons Ratio (y) = 0.52310 0.08548
# Poissons Ratio (z) = 0.31889 0.12094
#
# Static dielectric constant tensor:
#      x y z
#    x 2.226220 0.098880 0.107070 
#    y 0.098880 2.135880 -0.049730 
#    z 0.107070 -0.049730 2.169390 
# 
# From -- ./inp_files/200916.got.cif
#   From: 2010.05.17/outbox.cif.g08.bks.cpg/sg2_101_cif.got.tgz:200916.got - 2010.06.03 11:33:40.
