data_PCOD9028142
_publ_section_title
;
Structure prediction by ZEFSAII (Michael W. Deem and Ramdas Pophale) SiO2 
 PCOD9028142
Probable space group: P -1
;
_chemical_formula_sum "Si O2"
_cell_formula_units_Z 14
_cell_length_a 14.967401
_cell_length_b 8.400563
_cell_length_c 8.939907
_cell_angle_alpha 82.579512
_cell_angle_beta 58.458660
_cell_angle_gamma 41.020502
_cell_volume 553.402085
_symmetry_space_group_name_H-M "P -1"
_symmetry_group_IT_number 2
_symmetry_cell_setting 'triclinic'
loop_
_space_group_symop_operation_xyz
x,y,z
-x,-y,-z
loop_
_atom_site_type_symbol
_atom_site_label
_atom_site_fract_x
_atom_site_fract_y
_atom_site_fract_z
Si Si1 0.702664 0.293545 0.316628
Si Si2 0.839739 0.671464 0.738006
Si Si3 0.902356 0.721998 0.190761
Si Si4 0.327803 0.598843 0.971563
Si Si5 0.453911 0.785299 0.899956
Si Si6 0.946914 0.136511 0.370524
Si Si7 0.311604 0.254151 0.427786
O O1 0.500000 0.500000 0.500000
O O2 0.687402 0.444764 0.179171
O O3 0.800713 0.225538 0.389048
O O4 0.814541 0.000932 0.193228
O O5 0.688973 0.808166 0.734178
O O6 0.000000 0.500000 0.500000
O O7 0.942264 0.438561 0.800805
O O8 0.737984 0.931585 0.893934
O O9 0.740305 0.821577 0.401381
O O10 0.000000 0.500000 0.000000
O O11 0.448896 0.610129 0.864914
O O12 0.406076 0.395002 0.061388
O O13 0.129476 0.899242 0.150329
O O14 0.518056 0.836354 0.715024
O O15 0.860458 0.416213 0.439495
O O16 0.000000 0.000000 0.500000
#
# Coordination Sequence:
#
# PCOD9028142 Si02
#       7
#     2   2   2   2   2   2   2
#     4  12  28  47  74 111 148 196 247 309 376 444
#     4  10  22  41  71  96 143 186 249 292 371 434
#     4  11  25  47  73 103 152 195 239 308 382 447
#     4  11  25  44  73 102 153 186 249 300 377 436
#     4  11  23  43  74 110 139 195 247 315 359 442
#     4  12  24  47  75 107 148 194 249 296 378 450
#     4  11  23  44  70 107 140 190 249 302 361 445
#
# _framework density 25.298061000000001
#
# number of rings (size 3 to 8) (size 9 to 14) (size 15 to 20)
#    0.000    0.857    1.429    6.000    6.000    0.000 
#    0.000    5.000    0.000    0.000    0.000    0.000 
#    0.000    0.000    0.000    0.000    0.000    0.000 
#
# Total GULP energy -78229.830149 kJ/mol
# GULP energy per Si atom -5587.845011 kJ/mol
# Density = 2.524048 g / cm^3
# Si number density = 25.298061 Si / 1000 Ang^3
#
#
#
# Elastic Constant Matrix: (Units=GPa)
#
#
# Indices 1 2 3 4 5 6 
#
# 1 86.8218 19.3107 36.2929 -17.3071 6.4223 -20.8242
# 2 19.3107 92.3441 18.7758 -6.1225 15.7652 -25.1556
# 3 36.2929 18.7758 133.4464 -4.9448 0.7019 -13.0426
# 4 -17.3071 -6.1225 -4.9448 57.1342 -0.7373 8.0686
# 5 6.4223 15.7652 0.7019 -0.7373 38.3648 -7.8340
# 6 -20.8242 -25.1556 -13.0426 8.0686 -7.8340 42.4237
#
#
#
# Elastic Compliance Matrix: (Units=1/GPa)
#
#
# Indices 1 2 3 4 5 6 
#
# 1 0.015071 -0.000659 -0.003372 0.003467 -0.001080 0.005111
# 2 -0.000659 0.013725 -0.001070 0.000181 -0.004141 0.006687
# 3 -0.003372 -0.001070 0.008600 -0.000467 0.000965 0.000621
# 4 0.003467 0.000181 -0.000467 0.018811 -0.000702 -0.002042
# 5 -0.001080 -0.004141 0.000965 -0.000702 0.028469 0.002701
# 6 0.005111 0.006687 0.000621 -0.002042 0.002701 0.031124
#
#
# Mechanical properties :
#
#
# Convention : Reuss Voigt Hill
#
# Bulk Modulus (GPa) = 36.77438 51.26347 44.01892
# Shear Modulus (GPa) = 37.01881 43.46672 40.24277
#
# Velocity S-wave (km/s) = 3.82947 4.14959 3.99274
# Velocity P-wave (km/s) = 5.84133 6.57774 6.22044
#
# Compressibility (1/GPa) = 0.02719285
#
# Stress axis : x y z
#
# Youngs Moduli (GPa) = 66.35197 72.85995 116.28375
#
# Poissons Ratio (x) = 0.04804 0.39215
# Poissons Ratio (y) = 0.04375 0.12440
# Poissons Ratio (z) = 0.22376 0.07794
#
# Static dielectric constant tensor:
#      x y z
#    x 2.197870 -0.025940 0.012490 
#    y -0.025940 2.013020 -0.139980 
#    z 0.012490 -0.139980 2.149990 
# 
# From -- ./inp_files/245244.got.cif
#   From: 2010.05.17/outbox.cif.g08.bks.cpg/sg2_123_cif.got.tgz:245244.got - 2010.06.03 11:33:40.
