data_PCOD9028279
_publ_section_title
;
Structure prediction by ZEFSAII (Michael W. Deem and Ramdas Pophale) SiO2 
 PCOD9028279
Probable space group: P -1
;
_chemical_formula_sum "Si O2"
_cell_formula_units_Z 13
_cell_length_a 7.934637
_cell_length_b 7.702653
_cell_length_c 11.989899
_cell_angle_alpha 116.394729
_cell_angle_beta 119.423231
_cell_angle_gamma 99.222060
_cell_volume 499.891828
_symmetry_space_group_name_H-M "P -1"
_symmetry_group_IT_number 2
_symmetry_cell_setting 'triclinic'
loop_
_space_group_symop_operation_xyz
x,y,z
-x,-y,-z
loop_
_atom_site_type_symbol
_atom_site_label
_atom_site_fract_x
_atom_site_fract_y
_atom_site_fract_z
Si Si1 0.926854 0.925614 0.145866
Si Si2 0.066593 0.568975 0.414728
Si Si3 0.279907 0.824927 0.943673
Si Si4 0.435106 0.270503 0.848898
Si Si5 0.326501 0.503773 0.208043
Si Si6 0.500000 0.500000 0.500000
Si Si7 0.240030 0.866665 0.371150
O O1 0.782809 0.898302 0.203482
O O2 0.162111 0.993128 0.295608
O O3 0.893950 0.085624 0.096205
O O4 0.821884 0.694889 0.980213
O O5 0.282513 0.538620 0.459716
O O6 0.136408 0.804149 0.443509
O O7 0.000000 0.500000 0.500000
O O8 0.845011 0.403051 0.227945
O O9 0.373060 0.793614 0.080800
O O10 0.500000 0.000000 0.000000
O O11 0.455759 0.324318 0.741775
O O12 0.500000 0.500000 0.000000
O O13 0.418039 0.435017 0.324115
O O14 0.192054 0.631044 0.235623
O O15 0.500000 0.000000 0.500000
#
# Coordination Sequence:
#
# PCOD9028279 Si02
#       7
#     2   2   2   2   2   1   2
#     4  10  22  41  74 101 145 195 247 313 377 456
#     4  11  26  46  74 102 160 199 250 319 391 459
#     4  10  23  42  71 116 140 187 264 308 378 465
#     4   9  19  39  72 100 133 186 246 299 368 450
#     4  10  22  45  68  97 146 190 250 309 379 448
#     4  10  26  42  70 108 144 198 256 304 388 454
#     4  11  26  47  69 109 151 198 258 311 390 464
#
# _framework density 26.005628000000002
#
# number of rings (size 3 to 8) (size 9 to 14) (size 15 to 20)
#    0.000    1.846    0.000    2.308   12.923    3.692 
#    2.769    5.385    0.000    0.000    0.000    0.000 
#    0.000    0.000    0.000    0.000    0.000    0.000 
#
# Total GULP energy -72456.366177 kJ/mol
# GULP energy per Si atom -5573.566629 kJ/mol
# Density = 2.594644 g / cm^3
# Si number density = 26.005628 Si / 1000 Ang^3
#
#
#
# Elastic Constant Matrix: (Units=GPa)
#
#
# Indices 1 2 3 4 5 6 
#
# 1 82.7316 23.5185 34.9361 -26.1571 5.5499 14.2554
# 2 23.5185 89.4099 27.1364 -24.5867 10.5907 0.9252
# 3 34.9361 27.1364 110.9608 -32.8864 31.3655 7.7238
# 4 -26.1571 -24.5867 -32.8864 48.6657 -5.1653 12.4070
# 5 5.5499 10.5907 31.3655 -5.1653 49.3298 -16.0261
# 6 14.2554 0.9252 7.7238 12.4070 -16.0261 47.1729
#
#
#
# Elastic Compliance Matrix: (Units=1/GPa)
#
#
# Indices 1 2 3 4 5 6 
#
# 1 0.017800 -0.001109 -0.000678 0.010530 -0.003186 -0.009098
# 2 -0.001109 0.013702 0.000039 0.006729 -0.003026 -0.002738
# 3 -0.000678 0.000039 0.017379 0.012668 -0.013035 -0.010402
# 4 0.010530 0.006729 0.012668 0.042110 -0.013065 -0.020902
# 5 -0.003186 -0.003026 -0.013035 -0.013065 0.034106 0.018180
# 6 -0.009098 -0.002738 -0.010402 -0.020902 0.018180 0.037379
#
#
# Mechanical properties :
#
#
# Convention : Reuss Voigt Hill
#
# Bulk Modulus (GPa) = 22.03432 50.47600 36.25516
# Shear Modulus (GPa) = 27.60899 42.20110 34.90505
#
# Velocity S-wave (km/s) = 3.26184 4.03273 3.66759
# Velocity P-wave (km/s) = 4.76208 6.41371 5.64859
#
# Compressibility (1/GPa) = 0.04538375
#
# Stress axis : x y z
#
# Youngs Moduli (GPa) = 56.18126 72.98380 57.53934
#
# Poissons Ratio (x) = 0.08094 0.03902
# Poissons Ratio (y) = 0.06231 -0.00223
# Poissons Ratio (z) = 0.03810 -0.00283
#
# Static dielectric constant tensor:
#      x y z
#    x 2.090440 -0.003300 -0.001390 
#    y -0.003300 2.147740 0.105080 
#    z -0.001390 0.105080 2.047690 
# 
# From -- ./inp_files/380173.got.cif
#   From: 2010.05.17/outbox.cif.g08.bks.cpg/sg2_191_cif.got.tgz:380173.got - 2010.06.03 11:33:40.
