data_PCOD9028601
_publ_section_title
;
Structure prediction by ZEFSAII (Michael W. Deem and Ramdas Pophale) SiO2 
 PCOD9028601
Probable space group: P -1
;
_chemical_formula_sum "Si O2"
_cell_formula_units_Z 16
_cell_length_a 8.552381
_cell_length_b 14.919494
_cell_length_c 14.706427
_cell_angle_alpha 27.416742
_cell_angle_beta 104.061336
_cell_angle_gamma 85.305320
_cell_volume 625.159885
_symmetry_space_group_name_H-M "P -1"
_symmetry_group_IT_number 2
_symmetry_cell_setting 'triclinic'
loop_
_space_group_symop_operation_xyz
x,y,z
-x,-y,-z
loop_
_atom_site_type_symbol
_atom_site_label
_atom_site_fract_x
_atom_site_fract_y
_atom_site_fract_z
Si Si1 0.472718 0.484297 0.629484
Si Si2 0.533241 0.314008 0.366602
Si Si3 0.258617 0.161223 0.038035
Si Si4 0.188795 0.282016 0.288897
Si Si5 0.810588 0.106999 0.449744
Si Si6 0.014226 0.742058 0.539222
Si Si7 0.336467 0.057928 0.832835
Si Si8 0.163617 0.590702 0.360431
O O1 0.476209 0.519129 0.705735
O O2 0.229609 0.668745 0.387066
O O3 0.645426 0.496054 0.603308
O O4 0.570734 0.198884 0.869934
O O5 0.324727 0.357099 0.271459
O O6 0.591056 0.372037 0.225154
O O7 0.677312 0.027840 0.696922
O O8 0.186377 0.435486 0.812909
O O9 0.061614 0.230539 0.887296
O O10 0.469268 0.018900 0.133160
O O11 0.097144 0.262249 0.384813
O O12 0.282648 0.026638 0.473535
O O13 0.000000 0.500000 0.000000
O O14 0.933131 0.078789 0.585144
O O15 0.000000 0.000000 0.500000
O O16 0.845381 0.885474 0.306913
O O17 0.213140 0.324967 0.628856
#
# Coordination Sequence:
#
# PCOD9028601 Si02
#       8
#     2   2   2   2   2   2   2   2
#     4  11  24  43  72 100 143 184 231 285 339 420
#     4  12  23  43  69 103 129 188 234 272 362 412
#     4  11  22  42  71  96 144 179 226 292 331 422
#     4  11  23  43  66  93 137 174 222 297 352 407
#     4  10  24  42  62  96 134 169 231 288 337 413
#     4  10  22  42  63  99 133 176 230 281 350 404
#     4  11  22  43  68  99 142 183 229 286 339 412
#     4  10  24  46  64 107 143 182 231 282 345 401
#
# _framework density 25.593451000000002
#
# number of rings (size 3 to 8) (size 9 to 14) (size 15 to 20)
#    0.000    1.250    2.500    3.000    3.500    1.000 
#    0.000    1.875    0.000    0.000    0.000    0.000 
#    0.000    0.000    0.000    0.000    0.000    0.000 
#
# Total GULP energy -89087.593611 kJ/mol
# GULP energy per Si atom -5567.974601 kJ/mol
# Density = 2.553520 g / cm^3
# Si number density = 25.593451 Si / 1000 Ang^3
#
#
#
# Elastic Constant Matrix: (Units=GPa)
#
#
# Indices 1 2 3 4 5 6 
#
# 1 98.4993 27.5142 -4.5979 7.3908 2.7699 13.1542
# 2 27.5142 127.9492 14.3298 -3.1674 11.8550 24.6152
# 3 -4.5979 14.3298 68.9528 5.6737 -0.9987 13.4351
# 4 7.3908 -3.1674 5.6737 41.5005 5.0809 12.2019
# 5 2.7699 11.8550 -0.9987 5.0809 19.5907 14.4612
# 6 13.1542 24.6152 13.4351 12.2019 14.4612 57.9765
#
#
#
# Elastic Compliance Matrix: (Units=1/GPa)
#
#
# Indices 1 2 3 4 5 6 
#
# 1 0.011306 -0.002497 0.001866 -0.002120 0.002032 -0.001998
# 2 -0.002497 0.009524 -0.001943 0.002709 -0.004359 -0.002510
# 3 0.001866 -0.001943 0.016107 -0.002098 0.005405 -0.004238
# 4 -0.002120 0.002709 -0.002098 0.026935 -0.005041 -0.004594
# 5 0.002032 -0.004359 0.005405 -0.005041 0.066301 -0.015340
# 6 -0.001998 -0.002510 -0.004238 -0.004594 -0.015340 0.024542
#
#
# Mechanical properties :
#
#
# Convention : Reuss Voigt Hill
#
# Bulk Modulus (GPa) = 31.45609 41.09930 36.27769
# Shear Modulus (GPa) = 29.33255 41.02388 35.17821
#
# Velocity S-wave (km/s) = 3.38908 4.00797 3.71145
# Velocity P-wave (km/s) = 5.25660 6.12469 5.70717
#
# Compressibility (1/GPa) = 0.03179035
#
# Stress axis : x y z
#
# Youngs Moduli (GPa) = 88.45156 105.00016 62.08289
#
# Poissons Ratio (x) = 0.26213 -0.11584
# Poissons Ratio (y) = 0.22082 0.12061
# Poissons Ratio (z) = -0.16505 0.20399
#
# Static dielectric constant tensor:
#      x y z
#    x 2.263180 -0.005920 0.057200 
#    y -0.005920 1.986140 -0.006180 
#    z 0.057200 -0.006180 1.958630 
# 
# From -- ./inp_files/505090.got.cif
#   From: 2010.05.17/outbox.cif.g08.bks.cpg/sg2_253_cif.got.tgz:505090.got - 2010.06.03 11:33:40.
