data_PCOD9028407
_publ_section_title
;
Structure prediction by ZEFSAII (Michael W. Deem and Ramdas Pophale) SiO2 
 PCOD9028407
Probable space group: P -1
;
_chemical_formula_sum "Si O2"
_cell_formula_units_Z 16
_cell_length_a 15.048693
_cell_length_b 11.575607
_cell_length_c 14.144414
_cell_angle_alpha 50.666673
_cell_angle_beta 149.062553
_cell_angle_gamma 108.389339
_cell_volume 802.395831
_symmetry_space_group_name_H-M "P -1"
_symmetry_group_IT_number 2
_symmetry_cell_setting 'triclinic'
loop_
_space_group_symop_operation_xyz
x,y,z
-x,-y,-z
loop_
_atom_site_type_symbol
_atom_site_label
_atom_site_fract_x
_atom_site_fract_y
_atom_site_fract_z
Si Si1 0.417606 0.211743 0.817781
Si Si2 0.340857 0.784252 0.458673
Si Si3 0.808537 0.076118 0.359771
Si Si4 0.931762 0.459830 0.553599
Si Si5 0.690087 0.310129 0.315857
Si Si6 0.942800 0.787335 0.044885
Si Si7 0.230154 0.355841 0.181898
Si Si8 0.203787 0.262259 0.410280
O O1 0.217784 0.347862 0.629834
O O2 0.335307 0.283362 0.600404
O O3 0.603868 0.211489 0.037622
O O4 0.500000 0.000000 0.000000
O O5 0.367361 0.766426 0.606901
O O6 0.569055 0.680561 0.672282
O O7 0.184146 0.728875 0.306540
O O8 0.211936 0.996093 0.202151
O O9 0.803829 0.176684 0.399070
O O10 0.789013 0.915869 0.463422
O O11 0.000000 0.000000 0.500000
O O12 0.827634 0.362219 0.469090
O O13 0.000000 0.500000 0.500000
O O14 0.094401 0.316637 0.853002
O O15 0.500000 0.500000 0.000000
O O16 0.882880 0.729752 0.925935
O O17 0.294942 0.265958 0.391000
O O18 0.042029 0.569582 0.903322
#
# Coordination Sequence:
#
# PCOD9028407 Si02
#       8
#     2   2   2   2   2   2   2   2
#     4  10  22  42  61  91 138 166 216 273 314 402
#     4  10  24  42  66  96 134 173 219 284 335 386
#     4  11  25  42  67  96 136 176 211 275 340 396
#     4  11  24  39  68  97 129 175 218 276 333 391
#     4  11  24  41  66  99 131 165 229 274 327 404
#     4  10  22  42  63  96 133 165 226 273 327 406
#     4  11  22  42  72  89 133 178 218 280 327 396
#     4  10  24  43  62 100 127 172 233 257 329 415
#
# _framework density 19.940283999999998
#
# number of rings (size 3 to 8) (size 9 to 14) (size 15 to 20)
#    0.000    1.500    2.500    1.125    7.000    2.000 
#    6.750    1.250    0.000    0.000    0.000    0.000 
#    0.000    0.000    0.000    0.000    0.000    0.000 
#
# Total GULP energy -89147.973117 kJ/mol
# GULP energy per Si atom -5571.748320 kJ/mol
# Density = 1.989490 g / cm^3
# Si number density = 19.940284 Si / 1000 Ang^3
#
#
#
# Elastic Constant Matrix: (Units=GPa)
#
#
# Indices 1 2 3 4 5 6 
#
# 1 172.0800 36.4639 63.3358 -2.4342 -17.4144 -21.6427
# 2 36.4639 70.7250 10.6849 -4.5795 -3.2536 -22.5679
# 3 63.3358 10.6849 75.1240 0.1933 -19.3991 -3.1867
# 4 -2.4342 -4.5795 0.1933 28.6886 -4.0465 -8.5605
# 5 -17.4144 -3.2536 -19.3991 -4.0465 21.9307 5.4118
# 6 -21.6427 -22.5679 -3.1867 -8.5605 5.4118 34.5985
#
#
#
# Elastic Compliance Matrix: (Units=1/GPa)
#
#
# Indices 1 2 3 4 5 6 
#
# 1 0.009692 -0.002365 -0.007712 0.001742 -0.000210 0.004274
# 2 -0.002365 0.020161 -0.000734 0.006837 -0.001618 0.013548
# 3 -0.007712 -0.000734 0.023866 -0.000354 0.016227 -0.005731
# 4 0.001742 0.006837 -0.000354 0.041372 0.006066 0.014805
# 5 -0.000210 -0.001618 0.016227 0.006066 0.062636 -0.007989
# 6 0.004274 0.013548 -0.005731 0.014805 -0.007989 0.044798
#
#
# Mechanical properties :
#
#
# Convention : Reuss Voigt Hill
#
# Bulk Modulus (GPa) = 31.15676 59.87757 45.51716
# Shear Modulus (GPa) = 21.29058 30.87319 26.08188
#
# Velocity S-wave (km/s) = 3.27114 3.93909 3.62055
# Velocity P-wave (km/s) = 5.47047 7.12616 6.35249
#
# Compressibility (1/GPa) = 0.03209577
#
# Stress axis : x y z
#
# Youngs Moduli (GPa) = 103.18041 49.60089 41.90110
#
# Poissons Ratio (x) = 0.11730 0.32314
# Poissons Ratio (y) = 0.24401 0.03078
# Poissons Ratio (z) = 0.79573 0.03643
#
# Static dielectric constant tensor:
#      x y z
#    x 1.918440 0.186890 0.000650 
#    y 0.186890 1.916840 0.026280 
#    z 0.000650 0.026280 1.752040 
# 
# From -- ./inp_files/282339.got.cif
#   From: 2010.05.17/outbox.cif.g08.bks.cpg/sg2_142_cif.got.tgz:282339.got - 2010.06.03 11:33:40.
