data_PCOD9028786
_publ_section_title
;
Structure prediction by ZEFSAII (Michael W. Deem and Ramdas Pophale) SiO2 
 PCOD9028786
Probable space group: P -1
;
_chemical_formula_sum "Si O2"
_cell_formula_units_Z 14
_cell_length_a 15.437403
_cell_length_b 10.766363
_cell_length_c 7.792153
_cell_angle_alpha 128.214155
_cell_angle_beta 111.129231
_cell_angle_gamma 34.189822
_cell_volume 537.217861
_symmetry_space_group_name_H-M "P -1"
_symmetry_group_IT_number 2
_symmetry_cell_setting 'triclinic'
loop_
_space_group_symop_operation_xyz
x,y,z
-x,-y,-z
loop_
_atom_site_type_symbol
_atom_site_label
_atom_site_fract_x
_atom_site_fract_y
_atom_site_fract_z
Si Si1 0.045671 0.104802 0.333995
Si Si2 0.050438 0.610336 0.142029
Si Si3 0.724393 0.088285 0.176609
Si Si4 0.807200 0.814088 0.654691
Si Si5 0.705515 0.511029 0.917333
Si Si6 0.700696 0.618564 0.366989
Si Si7 0.471210 0.326627 0.422397
O O1 0.957293 0.319331 0.610341
O O2 0.187176 0.021792 0.289192
O O3 0.890569 0.293838 0.258157
O O4 0.142492 0.821947 0.238264
O O5 0.220708 0.422253 0.022567
O O6 0.905046 0.899396 0.180708
O O7 0.000000 0.500000 0.000000
O O8 0.658577 0.101230 0.316841
O O9 0.608028 0.400875 0.327047
O O10 0.744882 0.937620 0.907513
O O11 0.716273 0.785571 0.499759
O O12 0.000000 0.500000 0.500000
O O13 0.634291 0.628698 0.156801
O O14 0.598880 0.604872 0.761257
O O15 0.590298 0.723191 0.538936
#
# Coordination Sequence:
#
# PCOD9028786 Si02
#       7
#     2   2   2   2   2   2   2
#     4  11  20  38  66  97 132 171 232 282 322 395
#     4  12  22  39  67 101 133 174 229 281 334 394
#     4  11  24  45  67  96 143 179 223 283 334 405
#     4  10  22  42  65 100 132 176 225 278 341 388
#     4  12  23  42  69 100 132 179 232 277 334 400
#     4  11  22  41  66  97 139 174 224 284 335 400
#     4  11  25  46  67 103 137 182 227 268 345 413
#
# _framework density 26.060189000000001
#
# number of rings (size 3 to 8) (size 9 to 14) (size 15 to 20)
#    0.000    0.857    2.857    6.857    0.000    0.571 
#    2.571    2.857    0.000    0.000    0.000    0.000 
#    0.000    0.000    0.000    0.000    0.000    0.000 
#
# Total GULP energy -78408.298533 kJ/mol
# GULP energy per Si atom -5600.592752 kJ/mol
# Density = 2.600088 g / cm^3
# Si number density = 26.060189 Si / 1000 Ang^3
#
#
#
# Elastic Constant Matrix: (Units=GPa)
#
#
# Indices 1 2 3 4 5 6 
#
# 1 117.3173 6.2923 15.1172 0.7107 -2.6009 17.3906
# 2 6.2923 61.4242 28.5653 -6.8904 6.3924 -10.1316
# 3 15.1172 28.5653 144.6291 -23.3722 -1.1809 -9.3255
# 4 0.7107 -6.8904 -23.3722 44.5970 3.6074 0.4133
# 5 -2.6009 6.3924 -1.1809 3.6074 36.4483 -3.5547
# 6 17.3906 -10.1316 -9.3255 0.4133 -3.5547 32.0463
#
#
#
# Elastic Compliance Matrix: (Units=1/GPa)
#
#
# Indices 1 2 3 4 5 6 
#
# 1 0.009683 -0.001568 -0.001256 -0.001034 0.000437 -0.006054
# 2 -0.001568 0.019312 -0.003048 0.001618 -0.003202 0.005693
# 3 -0.001256 -0.003048 0.008423 0.003899 0.000544 0.002179
# 4 -0.001034 0.001618 0.003899 0.024924 -0.002541 0.001604
# 5 0.000437 -0.003202 0.000544 -0.002541 0.028503 0.002103
# 6 -0.006054 0.005693 0.002179 0.001604 0.002103 0.037137
#
#
# Mechanical properties :
#
#
# Convention : Reuss Voigt Hill
#
# Bulk Modulus (GPa) = 38.95064 47.03557 42.99311
# Shear Modulus (GPa) = 33.71898 40.84470 37.28184
#
# Velocity S-wave (km/s) = 3.60097 3.96324 3.78644
# Velocity P-wave (km/s) = 5.68051 6.24748 5.97073
#
# Compressibility (1/GPa) = 0.02567352
#
# Stress axis : x y z
#
# Youngs Moduli (GPa) = 103.27048 51.78084 118.72796
#
# Poissons Ratio (x) = 0.08118 0.14917
# Poissons Ratio (y) = 0.16191 0.36189
# Poissons Ratio (z) = 0.12975 0.15783
#
# Static dielectric constant tensor:
#      x y z
#    x 2.054620 0.024690 0.006220 
#    y 0.024690 2.143570 0.012380 
#    z 0.006220 0.012380 1.993860 
# 
# From -- ./inp_files/331359.got.cif
#   From: 2010.05.17/outbox.cif.g08.bks.cpg/sg2_166_cif.got.tgz:331359.got - 2010.06.03 11:33:40.
