data_PCOD9028177
_publ_section_title
;
Structure prediction by ZEFSAII (Michael W. Deem and Ramdas Pophale) SiO2 
 PCOD9028177
Probable space group: P -1
;
_chemical_formula_sum "Si O2"
_cell_formula_units_Z 15
_cell_length_a 11.752483
_cell_length_b 7.984716
_cell_length_c 11.970863
_cell_angle_alpha 34.456549
_cell_angle_beta 108.528365
_cell_angle_gamma 109.328546
_cell_volume 597.625495
_symmetry_space_group_name_H-M "P -1"
_symmetry_group_IT_number 2
_symmetry_cell_setting 'triclinic'
loop_
_space_group_symop_operation_xyz
x,y,z
-x,-y,-z
loop_
_atom_site_type_symbol
_atom_site_label
_atom_site_fract_x
_atom_site_fract_y
_atom_site_fract_z
Si Si1 0.290667 0.076655 0.221007
Si Si2 0.500000 0.000000 0.500000
Si Si3 0.014009 0.175522 0.079009
Si Si4 0.503142 0.669667 0.228421
Si Si5 0.312302 0.451219 0.455523
Si Si6 0.078842 0.443485 0.723178
Si Si7 0.358076 0.594551 0.784362
Si Si8 0.936474 0.941554 0.394555
O O1 0.369556 0.039281 0.374492
O O2 0.155321 0.150236 0.159691
O O3 0.276793 0.762917 0.322785
O O4 0.356595 0.345402 0.015794
O O5 0.423743 0.924211 0.643525
O O6 0.941621 0.873565 0.168800
O O7 0.948242 0.200088 0.163468
O O8 0.019157 0.394659 0.854488
O O9 0.373991 0.546217 0.305169
O O10 0.595458 0.658425 0.365289
O O11 0.549536 0.455349 0.264877
O O12 0.500000 0.000000 0.000000
O O13 0.199288 0.200875 0.551142
O O14 0.220688 0.552001 0.722796
O O15 0.010624 0.686420 0.508298
O O16 0.000000 0.000000 0.500000
#
# Coordination Sequence:
#
# PCOD9028177 Si02
#       8
#     2   1   2   2   2   2   2   2
#     4  11  22  42  67  97 129 173 234 273 327 399
#     4  12  24  38  60  92 136 168 214 276 330 378
#     4  10  22  41  72 101 127 173 228 278 334 399
#     4  11  23  42  67  97 132 176 226 277 330 391
#     4  11  24  42  67  98 131 182 228 268 334 406
#     4  10  22  43  75 100 127 174 230 279 333 405
#     4  11  23  41  69 100 130 174 220 278 332 403
#     4  12  26  43  67 104 141 174 217 283 346 401
#
# _framework density 25.099329999999998
#
# number of rings (size 3 to 8) (size 9 to 14) (size 15 to 20)
#    0.000    1.067    4.000    2.400    0.000    3.733 
#    0.000    1.333    0.000    0.000    0.000    0.000 
#    0.000    0.000    0.000    0.000    0.000    0.000 
#
# Total GULP energy -83810.282598 kJ/mol
# GULP energy per Si atom -5587.352173 kJ/mol
# Density = 2.504220 g / cm^3
# Si number density = 25.099330 Si / 1000 Ang^3
#
#
#
# Elastic Constant Matrix: (Units=GPa)
#
#
# Indices 1 2 3 4 5 6 
#
# 1 70.1995 14.6940 49.1264 -7.2802 -23.7998 15.1646
# 2 14.6940 73.6883 20.7422 0.4797 -23.5315 6.7977
# 3 49.1264 20.7422 179.8262 -9.1024 -38.8088 18.3054
# 4 -7.2802 0.4797 -9.1024 34.3329 0.7029 -8.6531
# 5 -23.7998 -23.5315 -38.8088 0.7029 60.5368 -3.1789
# 6 15.1646 6.7977 18.3054 -8.6531 -3.1789 47.9108
#
#
#
# Elastic Compliance Matrix: (Units=1/GPa)
#
#
# Indices 1 2 3 4 5 6 
#
# 1 0.019767 -0.001020 -0.003747 0.002111 0.004739 -0.003985
# 2 -0.001020 0.015754 -0.000237 -0.001026 0.005497 -0.001642
# 3 -0.003747 -0.000237 0.007460 0.000800 0.003141 -0.001278
# 4 0.002111 -0.001026 0.000800 0.031000 0.000838 0.004826
# 5 0.004739 0.005497 0.003141 0.000838 0.022426 -0.001841
# 6 -0.003985 -0.001642 -0.001278 0.004826 -0.001841 0.023604
#
#
# Mechanical properties :
#
#
# Convention : Reuss Voigt Hill
#
# Bulk Modulus (GPa) = 30.32731 54.75991 42.54361
# Shear Modulus (GPa) = 35.45811 44.49952 39.97881
#
# Velocity S-wave (km/s) = 3.76268 4.21519 3.99535
# Velocity P-wave (km/s) = 5.56652 6.74945 6.18633
#
# Compressibility (1/GPa) = 0.03297358
#
# Stress axis : x y z
#
# Youngs Moduli (GPa) = 50.58840 63.47491 134.04030
#
# Poissons Ratio (x) = 0.06473 0.50230
# Poissons Ratio (y) = 0.05159 0.03178
# Poissons Ratio (z) = 0.18958 0.01505
#
# Static dielectric constant tensor:
#      x y z
#    x 1.985640 0.004980 -0.115110 
#    y 0.004980 0.071430 1.468600 
#    z -0.115110 1.468600 0.756860 
# 
# From -- ./inp_files/397033.got.cif
#   From: 2010.05.17/outbox.cif.g08.bks.cpg/sg2_199_cif.got.tgz:397033.got - 2010.06.03 11:33:40.
