data_PCOD9028349
_publ_section_title
;
Structure prediction by ZEFSAII (Michael W. Deem and Ramdas Pophale) SiO2 
 PCOD9028349
Probable space group: P -1
;
_chemical_formula_sum "Si O2"
_cell_formula_units_Z 16
_cell_length_a 21.337702
_cell_length_b 11.590522
_cell_length_c 11.664091
_cell_angle_alpha 154.868716
_cell_angle_beta 41.720915
_cell_angle_gamma 137.919601
_cell_volume 792.453459
_symmetry_space_group_name_H-M "P -1"
_symmetry_group_IT_number 2
_symmetry_cell_setting 'triclinic'
loop_
_space_group_symop_operation_xyz
x,y,z
-x,-y,-z
loop_
_atom_site_type_symbol
_atom_site_label
_atom_site_fract_x
_atom_site_fract_y
_atom_site_fract_z
Si Si1 0.268244 0.853055 0.410516
Si Si2 0.933181 0.617578 0.351822
Si Si3 0.389200 0.195905 0.854513
Si Si4 0.745043 0.376257 0.535686
Si Si5 0.758470 0.565255 0.123565
Si Si6 0.938569 0.806457 0.257549
Si Si7 0.556380 0.262060 0.234006
Si Si8 0.478463 0.998587 0.332505
O O1 0.224970 0.751766 0.502180
O O2 0.267634 0.169112 0.664327
O O3 0.381249 0.843465 0.259347
O O4 0.218636 0.642503 0.190846
O O5 0.837582 0.540190 0.488451
O O6 0.911117 0.730650 0.359053
O O7 0.015808 0.864098 0.515696
O O8 0.977432 0.350543 0.030563
O O9 0.315693 0.890426 0.690160
O O10 0.467810 0.203403 0.853575
O O11 0.440398 0.177160 0.644700
O O12 0.327115 0.424825 0.157494
O O13 0.847169 0.689847 0.197741
O O14 0.666526 0.384050 0.154807
O O15 0.500000 0.500000 0.500000
O O16 0.546367 0.176815 0.304418
O O17 0.500000 0.000000 0.000000
#
# Coordination Sequence:
#
# PCOD9028349 Si02
#       8
#     2   2   2   2   2   2   2   2
#     4  11  23  40  63  85 134 166 205 251 310 355
#     4  10  22  45  67  93 122 158 201 264 325 365
#     4  10  24  38  65  90 128 165 213 262 302 362
#     4  11  23  42  65  94 121 167 212 260 309 376
#     4  12  23  42  61  95 123 168 207 251 306 375
#     4  10  23  42  69  91 127 157 199 262 320 375
#     4  12  24  39  62  91 128 171 208 248 299 374
#     4  10  22  42  59  92 128 170 210 254 309 354
#
# _framework density 20.190460999999999
#
# number of rings (size 3 to 8) (size 9 to 14) (size 15 to 20)
#    0.000    1.250    2.500    3.000    1.750    6.500 
#    2.250    3.750    0.000    0.000    0.000    0.000 
#    0.000    0.000    0.000    0.000    0.000    0.000 
#
# Total GULP energy -89474.988976 kJ/mol
# GULP energy per Si atom -5592.186811 kJ/mol
# Density = 2.014451 g / cm^3
# Si number density = 20.190461 Si / 1000 Ang^3
#
#
#
# Elastic Constant Matrix: (Units=GPa)
#
#
# Indices 1 2 3 4 5 6 
#
# 1 83.5291 39.5826 12.2224 -0.4160 10.3347 -3.4980
# 2 39.5826 135.9549 39.2608 -14.5455 -2.0544 -12.0720
# 3 12.2224 39.2608 71.7276 20.9838 3.6306 -2.4969
# 4 -0.4160 -14.5455 20.9838 25.8485 5.3899 2.5702
# 5 10.3347 -2.0544 3.6306 5.3899 27.1399 8.5880
# 6 -3.4980 -12.0720 -2.4969 2.5702 8.5880 25.7846
#
#
#
# Elastic Compliance Matrix: (Units=1/GPa)
#
#
# Indices 1 2 3 4 5 6 
#
# 1 0.014983 -0.004852 0.001192 -0.002329 -0.006488 0.002269
# 2 -0.004852 0.014408 -0.012074 0.017501 0.000082 0.003146
# 3 0.001192 -0.012074 0.029308 -0.030743 0.000768 0.000156
# 4 -0.002329 0.017501 -0.030743 0.075242 -0.008714 0.000303
# 5 -0.006488 0.000082 0.000768 -0.008714 0.045739 -0.015133
# 6 0.002269 0.003146 0.000156 0.000303 -0.015133 0.045589
#
#
# Mechanical properties :
#
#
# Convention : Reuss Voigt Hill
#
# Bulk Modulus (GPa) = 36.72508 52.59371 44.65939
# Shear Modulus (GPa) = 18.81019 29.09766 23.95392
#
# Velocity S-wave (km/s) = 3.05558 3.80038 3.44815
# Velocity P-wave (km/s) = 5.53874 6.73517 6.16604
#
# Compressibility (1/GPa) = 0.02722935
#
# Stress axis : x y z
#
# Youngs Moduli (GPa) = 66.74265 69.40703 34.12072
#
# Poissons Ratio (x) = 0.33677 -0.04066
# Poissons Ratio (y) = 0.32384 0.41197
# Poissons Ratio (z) = -0.07953 0.83802
#
# Static dielectric constant tensor:
#      x y z
#    x 1.713300 -0.007300 0.012320 
#    y -0.007300 1.714500 0.008360 
#    z 0.012320 0.008360 1.703460 
# 
# From -- ./inp_files/474897.got.cif
#   From: 2010.05.17/outbox.cif.g08.bks.cpg/sg2_238_cif.got.tgz:474897.got - 2010.06.03 11:33:40.
