data_PCOD9028526
_publ_section_title
;
Structure prediction by ZEFSAII (Michael W. Deem and Ramdas Pophale) SiO2 
 PCOD9028526
Probable space group: P -1
;
_chemical_formula_sum "Si O2"
_cell_formula_units_Z 14
_cell_length_a 20.215238
_cell_length_b 16.984571
_cell_length_c 8.583275
_cell_angle_alpha 133.726463
_cell_angle_beta 38.244859
_cell_angle_gamma 160.057554
_cell_volume 606.566848
_symmetry_space_group_name_H-M "P -1"
_symmetry_group_IT_number 2
_symmetry_cell_setting 'triclinic'
loop_
_space_group_symop_operation_xyz
x,y,z
-x,-y,-z
loop_
_atom_site_type_symbol
_atom_site_label
_atom_site_fract_x
_atom_site_fract_y
_atom_site_fract_z
Si Si1 0.576732 0.867365 0.902100
Si Si2 0.757795 0.264264 0.214903
Si Si3 0.430582 0.476780 0.351620
Si Si4 0.133119 0.479728 0.383669
Si Si5 0.826331 0.880609 0.424538
Si Si6 0.277231 0.411746 0.240368
Si Si7 0.596972 0.983792 0.701217
O O1 0.312018 0.616163 0.102548
O O2 0.678825 0.068946 0.067411
O O3 0.731287 0.904890 0.712729
O O4 0.587480 0.885938 0.720502
O O5 0.795987 0.341760 0.423806
O O6 0.565900 0.166374 0.352241
O O7 0.000000 0.500000 0.000000
O O8 0.647927 0.696309 0.361891
O O9 0.214913 0.251772 0.554741
O O10 0.364728 0.506074 0.384152
O O11 0.514888 0.449087 0.056424
O O12 0.170026 0.419255 0.363749
O O13 0.864041 0.239738 0.510334
O O14 0.079827 0.139031 0.247574
O O15 0.500000 0.000000 0.000000
#
# Coordination Sequence:
#
# PCOD9028526 Si02
#       7
#     2   2   2   2   2   2   2
#     4  11  23  41  63  92 130 163 211 256 306 382
#     4  11  22  43  65  91 125 166 206 258 313 367
#     4  10  24  40  66  91 123 165 210 258 314 364
#     4  12  23  41  64  93 131 165 208 257 312 373
#     4  11  21  43  63  91 124 166 206 257 318 361
#     4  11  22  41  65  93 126 161 209 262 303 373
#     4  10  22  42  63  88 124 168 202 259 306 369
#
# _framework density 23.080721
#
# number of rings (size 3 to 8) (size 9 to 14) (size 15 to 20)
#    0.000    1.143    5.714    1.286    2.000    2.286 
#    2.571    0.000    0.000    0.000    0.000    0.000 
#    0.000    0.000    0.000    0.000    0.000    0.000 
#
# Total GULP energy -78285.643543 kJ/mol
# GULP energy per Si atom -5591.831682 kJ/mol
# Density = 2.302819 g / cm^3
# Si number density = 23.080721 Si / 1000 Ang^3
#
#
#
# Elastic Constant Matrix: (Units=GPa)
#
#
# Indices 1 2 3 4 5 6 
#
# 1 71.8187 46.5840 6.8398 -3.2542 -1.7929 0.7543
# 2 46.5840 88.8167 25.6574 -22.9387 13.6018 15.3522
# 3 6.8398 25.6574 42.2177 -21.6326 -1.1981 -5.2137
# 4 -3.2542 -22.9387 -21.6326 41.6349 -2.3251 -5.1745
# 5 -1.7929 13.6018 -1.1981 -2.3251 33.8199 -6.7641
# 6 0.7543 15.3522 -5.2137 -5.1745 -6.7641 30.3854
#
#
#
# Elastic Compliance Matrix: (Units=1/GPa)
#
#
# Indices 1 2 3 4 5 6 
#
# 1 0.028169 -0.023419 0.010841 -0.002309 0.014294 0.015782
# 2 -0.023419 0.039182 -0.022316 0.003444 -0.023072 -0.027594
# 3 0.010841 -0.022316 0.048478 0.018008 0.017775 0.026348
# 4 -0.002309 0.003444 0.018008 0.036310 0.003292 0.008323
# 5 0.014294 -0.023072 0.017775 0.003292 0.045468 0.025035
# 6 0.015782 -0.027594 0.026348 0.008323 0.025035 0.057972
#
#
# Mechanical properties :
#
#
# Convention : Reuss Voigt Hill
#
# Bulk Modulus (GPa) = 21.72038 40.11285 30.91661
# Shear Modulus (GPa) = 14.67507 29.41951 22.04729
#
# Velocity S-wave (km/s) = 2.52427 3.57408 3.09402
# Velocity P-wave (km/s) = 4.23403 5.86934 5.11743
#
# Compressibility (1/GPa) = 0.04603971
#
# Stress axis : x y z
#
# Youngs Moduli (GPa) = 35.50062 25.52218 20.62780
#
# Poissons Ratio (x) = 0.59771 -0.22362
# Poissons Ratio (y) = 0.83140 0.46033
# Poissons Ratio (z) = -0.38486 0.56955
#
# Static dielectric constant tensor:
#      x y z
#    x 1.929200 -0.025620 0.001470 
#    y -0.025620 1.869090 0.024970 
#    z 0.001470 0.024970 1.830710 
# 
# From -- ./inp_files/314945.got.cif
#   From: 2010.05.17/outbox.cif.g08.bks.cpg/sg2_158_cif.got.tgz:314945.got - 2010.06.03 11:33:40.
