data_PCOD9028821
_publ_section_title
;
Structure prediction by ZEFSAII (Michael W. Deem and Ramdas Pophale) SiO2 
 PCOD9028821
Probable space group: P -1
;
_chemical_formula_sum "Si O2"
_cell_formula_units_Z 14
_cell_length_a 10.220392
_cell_length_b 10.158119
_cell_length_c 7.071117
_cell_angle_alpha 55.948055
_cell_angle_beta 92.970187
_cell_angle_gamma 70.768650
_cell_volume 547.485767
_symmetry_space_group_name_H-M "P -1"
_symmetry_group_IT_number 2
_symmetry_cell_setting 'triclinic'
loop_
_space_group_symop_operation_xyz
x,y,z
-x,-y,-z
loop_
_atom_site_type_symbol
_atom_site_label
_atom_site_fract_x
_atom_site_fract_y
_atom_site_fract_z
Si Si1 0.839765 0.172569 0.104399
Si Si2 0.340752 0.666734 0.372108
Si Si3 0.408566 0.687299 0.750600
Si Si4 0.327647 0.241069 0.284232
Si Si5 0.353865 0.038548 0.070592
Si Si6 0.120819 0.205802 0.626266
Si Si7 0.906153 0.418077 0.167266
O O1 0.696014 0.193455 0.191887
O O2 0.926645 0.241769 0.195988
O O3 0.657365 0.144379 0.803245
O O4 0.778235 0.311948 0.813116
O O5 0.500000 0.500000 0.500000
O O6 0.309751 0.669545 0.589365
O O7 0.525890 0.752960 0.634493
O O8 0.500000 0.500000 0.000000
O O9 0.642122 0.898259 0.768646
O O10 0.232178 0.208106 0.466742
O O11 0.249263 0.427406 0.018157
O O12 0.086476 0.033743 0.769607
O O13 0.500000 0.000000 0.000000
O O14 0.788782 0.811920 0.162176
O O15 0.971803 0.367817 0.422094
O O16 0.000000 0.500000 0.000000
#
# Coordination Sequence:
#
# PCOD9028821 Si02
#       7
#     2   2   2   2   2   2   2
#     4  11  22  41  63  91 124 163 206 261 313 366
#     4  11  22  37  58  89 125 157 201 249 303 374
#     4  12  22  37  63  94 123 163 205 251 317 369
#     4  11  22  42  62  93 131 160 208 261 306 370
#     4  11  24  38  62  96 127 163 203 255 319 368
#     4  10  23  41  65  90 126 168 210 255 309 368
#     4  10  22  42  65  89 122 170 213 255 307 368
#
# _framework density 25.571441
#
# number of rings (size 3 to 8) (size 9 to 14) (size 15 to 20)
#    0.000    1.143    2.857    3.857    0.000    3.429 
#    0.000    2.857    0.000   10.286    0.000    0.000 
#    0.000    0.000    0.000    0.000    0.000    0.000 
#
# Total GULP energy -78269.594833 kJ/mol
# GULP energy per Si atom -5590.685345 kJ/mol
# Density = 2.551324 g / cm^3
# Si number density = 25.571441 Si / 1000 Ang^3
#
#
#
# Elastic Constant Matrix: (Units=GPa)
#
#
# Indices 1 2 3 4 5 6 
#
# 1 67.6778 2.8487 6.5523 2.1128 -0.2874 19.9934
# 2 2.8487 50.5263 10.2459 0.4731 -2.9727 9.9910
# 3 6.5523 10.2459 178.1474 -10.1950 6.9074 2.4934
# 4 2.1128 0.4731 -10.1950 47.4086 1.0258 -4.0049
# 5 -0.2874 -2.9727 6.9074 1.0258 40.4096 4.3837
# 6 19.9934 9.9910 2.4934 -4.0049 4.3837 31.8072
#
#
#
# Elastic Compliance Matrix: (Units=1/GPa)
#
#
# Indices 1 2 3 4 5 6 
#
# 1 0.018607 0.001753 -0.000800 -0.002132 0.001830 -0.012705
# 2 0.001753 0.021813 -0.001388 -0.001365 0.002801 -0.008403
# 3 -0.000800 -0.001388 0.005839 0.001402 -0.001231 0.000828
# 4 -0.002132 -0.001365 0.001402 0.021924 -0.001412 0.004614
# 5 0.001830 0.002801 -0.001231 -0.001412 0.025827 -0.005671
# 6 -0.012705 -0.008403 0.000828 0.004614 -0.005671 0.043362
#
#
# Mechanical properties :
#
#
# Convention : Reuss Voigt Hill
#
# Bulk Modulus (GPa) = 22.03188 37.29392 29.66290
# Shear Modulus (GPa) = 32.60025 42.37206 37.48615
#
# Velocity S-wave (km/s) = 3.57441 4.07505 3.83291
# Velocity P-wave (km/s) = 5.06653 6.06278 5.58690
#
# Compressibility (1/GPa) = 0.04538878
#
# Stress axis : x y z
#
# Youngs Moduli (GPa) = 53.74285 45.84328 171.26282
#
# Poissons Ratio (x) = -0.08037 0.13707
# Poissons Ratio (y) = -0.09422 0.23774
# Poissons Ratio (z) = 0.04301 0.06364
#
# Static dielectric constant tensor:
#      x y z
#    x 1.969390 0.062210 0.054440 
#    y 0.062210 2.026080 -0.000010 
#    z 0.054440 -0.000010 2.081440 
# 
# From -- ./inp_files/233963.got.cif
#   From: 2010.05.17/outbox.cif.g08.bks.cpg/sg2_117_cif.got.tgz:233963.got - 2010.06.03 11:33:40.
