data_PCOD9028736
_publ_section_title
;
Structure prediction by ZEFSAII (Michael W. Deem and Ramdas Pophale) SiO2 
 PCOD9028736
Probable space group: P -1
;
_chemical_formula_sum "Si O2"
_cell_formula_units_Z 16
_cell_length_a 15.263064
_cell_length_b 8.384848
_cell_length_c 12.229651
_cell_angle_alpha 37.583250
_cell_angle_beta 127.645784
_cell_angle_gamma 126.779176
_cell_volume 734.217961
_symmetry_space_group_name_H-M "P -1"
_symmetry_group_IT_number 2
_symmetry_cell_setting 'triclinic'
loop_
_space_group_symop_operation_xyz
x,y,z
-x,-y,-z
loop_
_atom_site_type_symbol
_atom_site_label
_atom_site_fract_x
_atom_site_fract_y
_atom_site_fract_z
Si Si1 0.959055 0.503186 0.626483
Si Si2 0.787268 0.939432 0.746915
Si Si3 0.539842 0.785779 0.225397
Si Si4 0.402119 0.215076 0.486209
Si Si5 0.574641 0.880161 0.774676
Si Si6 0.380273 0.357778 0.850620
Si Si7 0.125551 0.248253 0.760994
Si Si8 0.005188 0.343393 0.976739
O O1 0.929538 0.743609 0.405530
O O2 0.069565 0.431267 0.696802
O O3 0.861270 0.236952 0.666721
O O4 0.976803 0.519750 0.759396
O O5 0.712877 0.917044 0.592354
O O6 0.690034 0.877917 0.799932
O O7 0.875907 0.746815 0.907449
O O8 0.435265 0.534742 0.314172
O O9 0.601941 0.860254 0.347943
O O10 0.622980 0.691635 0.253556
O O11 0.500000 0.000000 0.000000
O O12 0.510225 0.114295 0.575730
O O13 0.481848 0.612480 0.815248
O O14 0.595051 0.872851 0.924623
O O15 0.257780 0.378558 0.784428
O O16 0.089445 0.941297 0.940237
O O17 0.000000 0.500000 0.000000
#
# Coordination Sequence:
#
# PCOD9028736 Si02
#       8
#     2   2   2   2   2   2   2   2
#     4  10  22  43  70  91 129 164 221 277 320 374
#     4  11  22  42  69  96 126 172 223 268 320 381
#     4  11  24  44  57  91 139 172 207 259 323 386
#     4  11  24  41  66  92 133 174 215 259 320 396
#     4  11  22  39  66  98 129 173 221 265 321 383
#     4  11  22  39  65  95 134 168 217 270 320 383
#     4  10  22  42  64  97 122 170 219 269 320 377
#     4  11  25  45  66  95 131 171 215 269 334 387
#
# _framework density 21.791896000000001
#
# number of rings (size 3 to 8) (size 9 to 14) (size 15 to 20)
#    0.000    1.250    2.500    4.125    1.750    2.500 
#    2.250    6.250    0.000    0.000    0.000    0.000 
#    0.000    0.000    0.000    0.000    0.000    0.000 
#
# Total GULP energy -89362.981711 kJ/mol
# GULP energy per Si atom -5585.186357 kJ/mol
# Density = 2.174230 g / cm^3
# Si number density = 21.791896 Si / 1000 Ang^3
#
#
#
# Elastic Constant Matrix: (Units=GPa)
#
#
# Indices 1 2 3 4 5 6 
#
# 1 113.2761 42.3634 24.1983 17.5706 -16.0470 20.1484
# 2 42.3634 42.1126 13.2742 22.4431 -4.3054 1.6415
# 3 24.1983 13.2742 113.6508 16.8303 -28.3078 -13.6756
# 4 17.5706 22.4431 16.8303 39.5210 -13.7030 -9.8405
# 5 -16.0470 -4.3054 -28.3078 -13.7030 33.6483 11.7979
# 6 20.1484 1.6415 -13.6756 -9.8405 11.7979 32.9194
#
#
#
# Elastic Compliance Matrix: (Units=1/GPa)
#
#
# Indices 1 2 3 4 5 6 
#
# 1 0.021038 -0.020686 -0.001165 0.003562 0.013503 -0.016103
# 2 -0.020686 0.057372 -0.001809 -0.026880 -0.017555 0.007305
# 3 -0.001165 -0.001809 0.011575 0.000084 0.008016 0.002764
# 4 0.003562 -0.026880 0.000084 0.045833 0.014266 0.007783
# 5 0.013503 -0.017555 0.008016 0.014266 0.053061 -0.018811
# 6 -0.016103 0.007305 0.002764 0.007783 -0.018811 0.050085
#
#
# Mechanical properties :
#
#
# Convention : Reuss Voigt Hill
#
# Bulk Modulus (GPa) = 23.43947 47.63458 35.53703
# Shear Modulus (GPa) = 16.63863 33.83132 25.23498
#
# Velocity S-wave (km/s) = 2.76619 3.94442 3.40663
# Velocity P-wave (km/s) = 4.58059 6.53076 5.64060
#
# Compressibility (1/GPa) = 0.04266308
#
# Stress axis : x y z
#
# Youngs Moduli (GPa) = 47.53378 17.43024 86.39303
#
# Poissons Ratio (x) = 0.36056 0.10067
# Poissons Ratio (y) = 0.98329 0.15630
# Poissons Ratio (z) = 0.05539 0.03154
#
# Static dielectric constant tensor:
#      x y z
#    x 1.816500 -0.028880 0.003840 
#    y -0.028880 1.774040 -0.004350 
#    z 0.003840 -0.004350 1.859160 
# 
# From -- ./inp_files/273972.got.cif
#   From: 2010.05.17/outbox.cif.g08.bks.cpg/sg2_137_cif.got.tgz:273972.got - 2010.06.03 11:33:40.
