data_PCOD9028938
_publ_section_title
;
Structure prediction by ZEFSAII (Michael W. Deem and Ramdas Pophale) SiO2 
 PCOD9028938
Probable space group: P -1
;
_chemical_formula_sum "Si O2"
_cell_formula_units_Z 16
_cell_length_a 7.755309
_cell_length_b 8.274603
_cell_length_c 19.064562
_cell_angle_alpha 45.172940
_cell_angle_beta 126.245633
_cell_angle_gamma 115.940973
_cell_volume 699.328278
_symmetry_space_group_name_H-M "P -1"
_symmetry_group_IT_number 2
_symmetry_cell_setting 'triclinic'
loop_
_space_group_symop_operation_xyz
x,y,z
-x,-y,-z
loop_
_atom_site_type_symbol
_atom_site_label
_atom_site_fract_x
_atom_site_fract_y
_atom_site_fract_z
Si Si1 0.818753 0.675178 0.385926
Si Si2 0.911413 0.757877 0.528912
Si Si3 0.508617 0.742544 0.889515
Si Si4 0.941163 0.763328 0.899819
Si Si5 0.697071 0.916653 0.152705
Si Si6 0.314719 0.124350 0.332569
Si Si7 0.540164 0.670607 0.558396
Si Si8 0.324621 0.578916 0.749626
O O1 0.850301 0.827120 0.414242
O O2 0.844926 0.807127 0.281034
O O3 0.589842 0.543668 0.375825
O O4 0.000000 0.500000 0.500000
O O5 0.693200 0.636913 0.540567
O O6 0.094859 0.598668 0.651533
O O7 0.000000 0.000000 0.500000
O O8 0.741967 0.802356 0.892502
O O9 0.354779 0.684203 0.802624
O O10 0.447472 0.929105 0.877234
O O11 0.500000 0.500000 0.000000
O O12 0.858734 0.814489 0.785386
O O13 0.154522 0.923705 0.910510
O O14 0.000000 0.500000 0.000000
O O15 0.609216 0.688192 0.160196
O O16 0.298111 0.223632 0.376228
O O17 0.525177 0.257171 0.312343
O O18 0.371943 0.861606 0.437910
#
# Coordination Sequence:
#
# PCOD9028938 Si02
#       8
#     2   2   2   2   2   2   2   2
#     4  12  24  42  63  99 143 182 228 281 352 418
#     4  12  24  39  65 100 145 184 234 286 342 434
#     4  11  26  50  76  99 140 186 236 298 372 417
#     4  11  25  46  73 103 136 185 240 296 361 427
#     4  12  25  46  74 103 143 183 235 301 349 418
#     4  10  22  42  65  95 141 181 229 287 352 419
#     4  11  23  39  66  99 139 188 230 281 356 423
#     4  11  24  46  67 107 137 183 238 287 352 425
#
# _framework density 22.879097999999999
#
# number of rings (size 3 to 8) (size 9 to 14) (size 15 to 20)
#    0.000    0.750    5.000    1.875    7.000    1.500 
#    0.000    0.625    0.000    0.000    0.000    0.000 
#    0.000    0.000    0.000    0.000    0.000    0.000 
#
# Total GULP energy -89220.218206 kJ/mol
# GULP energy per Si atom -5576.263638 kJ/mol
# Density = 2.282702 g / cm^3
# Si number density = 22.879098 Si / 1000 Ang^3
#
#
#
# Elastic Constant Matrix: (Units=GPa)
#
#
# Indices 1 2 3 4 5 6 
#
# 1 68.3489 45.4355 19.3144 -15.9640 0.6533 11.2795
# 2 45.4355 93.6996 23.3501 -21.3094 0.6343 0.7581
# 3 19.3144 23.3501 87.0095 -11.5670 -6.9406 -5.4538
# 4 -15.9640 -21.3094 -11.5670 40.6353 -0.0430 -6.4866
# 5 0.6533 0.6343 -6.9406 -0.0430 33.7521 -9.1575
# 6 11.2795 0.7581 -5.4538 -6.4866 -9.1575 33.2293
#
#
#
# Elastic Compliance Matrix: (Units=1/GPa)
#
#
# Indices 1 2 3 4 5 6 
#
# 1 0.024556 -0.010622 -0.003232 0.001677 -0.003447 -0.009246
# 2 -0.010622 0.017282 -0.001260 0.005208 0.000777 0.004236
# 3 -0.003232 -0.001260 0.013570 0.002745 0.004253 0.005061
# 4 0.001677 0.005208 0.002745 0.029767 0.002144 0.006164
# 5 -0.003447 0.000777 0.004253 0.002144 0.033692 0.011554
# 6 -0.009246 0.004236 0.005061 0.006164 0.011554 0.038354
#
#
# Mechanical properties :
#
#
# Convention : Reuss Voigt Hill
#
# Bulk Modulus (GPa) = 39.71490 47.25091 43.48290
# Shear Modulus (GPa) = 25.53077 32.25386 28.89232
#
# Velocity S-wave (km/s) = 3.34413 3.75874 3.55748
# Velocity P-wave (km/s) = 5.68395 6.28767 5.99341
#
# Compressibility (1/GPa) = 0.02517946
#
# Stress axis : x y z
#
# Youngs Moduli (GPa) = 40.72340 57.86312 73.69237
#
# Poissons Ratio (x) = 0.61464 0.23816
# Poissons Ratio (y) = 0.43258 0.09286
# Poissons Ratio (z) = 0.13161 0.07291
#
# Static dielectric constant tensor:
#      x y z
#    x 1.910580 -0.083740 0.044860 
#    y -0.083740 1.885710 0.002450 
#    z 0.044860 0.002450 1.855400 
# 
# From -- ./inp_files/587790.got.cif
#   From: 2010.05.17/outbox.cif.g08.bks.cpg/sg2_294_cif.got.tgz:587790.got - 2010.06.03 11:33:40.
