data_PCOD9028550
_publ_section_title
;
Structure prediction by ZEFSAII (Michael W. Deem and Ramdas Pophale) SiO2 
 PCOD9028550
Probable space group: P -1
;
_chemical_formula_sum "Si O2"
_cell_formula_units_Z 16
_cell_length_a 11.044822
_cell_length_b 8.273894
_cell_length_c 14.980628
_cell_angle_alpha 100.199119
_cell_angle_beta 119.475650
_cell_angle_gamma 41.352033
_cell_volume 742.085688
_symmetry_space_group_name_H-M "P -1"
_symmetry_group_IT_number 2
_symmetry_cell_setting 'triclinic'
loop_
_space_group_symop_operation_xyz
x,y,z
-x,-y,-z
loop_
_atom_site_type_symbol
_atom_site_label
_atom_site_fract_x
_atom_site_fract_y
_atom_site_fract_z
Si Si1 0.885008 0.171155 0.348661
Si Si2 0.525050 0.027986 0.264983
Si Si3 0.861742 0.986248 0.737165
Si Si4 0.557048 0.284778 0.807826
Si Si5 0.260544 0.794921 0.953020
Si Si6 0.863429 0.596506 0.705113
Si Si7 0.979314 0.743764 0.434333
Si Si8 0.666408 0.953895 0.115190
O O1 0.667874 0.408725 0.236455
O O2 0.090722 0.980055 0.337816
O O3 0.906939 0.300347 0.438845
O O4 0.887097 0.997141 0.382434
O O5 0.327718 0.271023 0.280145
O O6 0.548162 0.090060 0.181517
O O7 0.488926 0.867570 0.218488
O O8 0.761229 0.835381 0.378876
O O9 0.843956 0.807716 0.700365
O O10 0.068473 0.847591 0.860541
O O11 0.652304 0.237284 0.740288
O O12 0.733707 0.161705 0.936490
O O13 0.259979 0.954318 0.904519
O O14 0.500000 0.500000 0.000000
O O15 0.866945 0.488097 0.604558
O O16 0.106399 0.346268 0.809264
O O17 0.500000 0.000000 0.000000
#
# Coordination Sequence:
#
# PCOD9028550 Si02
#       8
#     2   2   2   2   2   2   2   2
#     4  11  23  44  64  90 120 158 204 253 311 359
#     4  10  22  42  63  93 122 161 204 248 303 359
#     4  11  23  41  62  92 125 161 204 249 301 362
#     4  11  24  41  62  90 126 162 204 250 299 362
#     4  12  23  40  60  90 127 166 205 245 298 355
#     4  10  23  41  62  93 125 158 204 249 301 364
#     4  10  24  42  66  89 120 158 202 257 306 364
#     4  11  21  39  61  87 125 166 202 246 294 352
#
# _framework density 21.560853999999999
#
# number of rings (size 3 to 8) (size 9 to 14) (size 15 to 20)
#    0.000    1.250    2.500    4.125    0.000    5.500 
#    2.250    5.000    0.000    0.000    0.000    0.000 
#    0.000    0.000    0.000    0.000    0.000    0.000 
#
# Total GULP energy -89418.958573 kJ/mol
# GULP energy per Si atom -5588.684911 kJ/mol
# Density = 2.151178 g / cm^3
# Si number density = 21.560854 Si / 1000 Ang^3
#
#
#
# Elastic Constant Matrix: (Units=GPa)
#
#
# Indices 1 2 3 4 5 6 
#
# 1 43.2813 27.8073 14.6698 12.7689 -4.9011 -27.5887
# 2 27.8073 59.9077 9.0658 25.8122 4.0630 -21.7249
# 3 14.6698 9.0658 77.2157 26.3540 6.2286 -3.6510
# 4 12.7689 25.8122 26.3540 28.6956 7.6125 -0.6368
# 5 -4.9011 4.0630 6.2286 7.6125 23.3535 5.5357
# 6 -27.5887 -21.7249 -3.6510 -0.6368 5.5357 36.2706
#
#
#
# Elastic Compliance Matrix: (Units=1/GPa)
#
#
# Indices 1 2 3 4 5 6 
#
# 1 0.061633 -0.002174 -0.001353 -0.026475 0.012079 0.043133
# 2 -0.002174 0.052099 0.016243 -0.059719 -0.001587 0.030381
# 3 -0.001353 0.016243 0.024029 -0.035746 -0.000367 0.010547
# 4 -0.026475 -0.059719 -0.035746 0.136537 -0.017226 -0.054479
# 5 0.012079 -0.001587 -0.000367 -0.017226 0.051329 0.000064
# 6 0.043133 0.030381 0.010547 -0.054479 0.000064 0.078672
#
#
# Mechanical properties :
#
#
# Convention : Reuss Voigt Hill
#
# Bulk Modulus (GPa) = 6.12771 31.49893 18.81332
# Shear Modulus (GPa) = 11.54032 26.25473 18.89752
#
# Velocity S-wave (km/s) = 2.31604 3.49335 2.96374
# Velocity P-wave (km/s) = 3.16233 5.55989 4.52287
#
# Compressibility (1/GPa) = 0.16319323
#
# Stress axis : x y z
#
# Youngs Moduli (GPa) = 16.22520 19.19421 41.61619
#
# Poissons Ratio (x) = 0.04172 0.05631
# Poissons Ratio (y) = 0.03527 -0.67597
# Poissons Ratio (z) = 0.02195 -0.31177
#
# Static dielectric constant tensor:
#      x y z
#    x 1.824230 0.018530 -0.044270 
#    y 0.018530 1.771830 0.035560 
#    z -0.044270 0.035560 1.833950 
# 
# From -- ./inp_files/270890.got.cif
#   From: 2010.05.17/outbox.cif.g08.bks.cpg/sg2_136_cif.got.tgz:270890.got - 2010.06.03 11:33:40.
