data_PCOD9028058
_publ_section_title
;
Structure prediction by ZEFSAII (Michael W. Deem and Ramdas Pophale) SiO2 
 PCOD9028058
Probable space group: P -1
;
_chemical_formula_sum "Si O2"
_cell_formula_units_Z 14
_cell_length_a 9.476241
_cell_length_b 8.314468
_cell_length_c 16.338038
_cell_angle_alpha 111.805805
_cell_angle_beta 140.727273
_cell_angle_gamma 48.077275
_cell_volume 576.527464
_symmetry_space_group_name_H-M "P -1"
_symmetry_group_IT_number 2
_symmetry_cell_setting 'triclinic'
loop_
_space_group_symop_operation_xyz
x,y,z
-x,-y,-z
loop_
_atom_site_type_symbol
_atom_site_label
_atom_site_fract_x
_atom_site_fract_y
_atom_site_fract_z
Si Si1 0.076969 0.046877 0.957858
Si Si2 0.042845 0.519196 0.388472
Si Si3 0.812523 0.243328 0.592169
Si Si4 0.295961 0.938319 0.873148
Si Si5 0.312258 0.292417 0.137115
Si Si6 0.592191 0.820141 0.657348
Si Si7 0.530909 0.712506 0.310342
O O1 0.753994 0.262340 0.821330
O O2 0.227398 0.875829 0.915645
O O3 0.293135 0.093358 0.084454
O O4 0.000000 0.000000 0.000000
O O5 0.760049 0.578481 0.313976
O O6 0.994743 0.743092 0.382299
O O7 0.162180 0.359953 0.332253
O O8 0.293803 0.396349 0.547268
O O9 0.500000 0.500000 0.500000
O O10 0.718785 0.097567 0.498651
O O11 0.989364 0.155480 0.738667
O O12 0.447121 0.768004 0.831988
O O13 0.500000 0.000000 0.000000
O O14 0.354984 0.298166 0.253648
O O15 0.000000 0.500000 0.000000
O O16 0.580290 0.032577 0.694999
#
# Coordination Sequence:
#
# PCOD9028058 Si02
#       7
#     2   2   2   2   2   2   2
#     4  11  23  44  67  93 133 178 222 275 347 402
#     4  10  24  39  69  96 132 176 224 285 338 406
#     4  10  22  41  71 100 129 178 230 282 333 402
#     4  10  24  43  70  96 135 181 223 277 347 400
#     4  11  26  43  66 101 135 178 233 284 331 413
#     4  11  23  43  67  96 138 174 233 280 342 404
#     4  11  23  44  63  98 138 177 222 281 349 405
#
# _framework density 24.283318000000001
#
# number of rings (size 3 to 8) (size 9 to 14) (size 15 to 20)
#    0.000    1.429    1.429    3.000   12.000    2.286 
#    5.143    1.429    0.000    0.000    0.000    0.000 
#    0.000    0.000    0.000    0.000    0.000    0.000 
#
# Total GULP energy -78221.805140 kJ/mol
# GULP energy per Si atom -5587.271796 kJ/mol
# Density = 2.422805 g / cm^3
# Si number density = 24.283318 Si / 1000 Ang^3
#
#
#
# Elastic Constant Matrix: (Units=GPa)
#
#
# Indices 1 2 3 4 5 6 
#
# 1 194.5825 26.3102 45.5765 4.0330 -40.6102 -39.3571
# 2 26.3102 48.3862 12.0851 4.6178 -12.3043 -12.3713
# 3 45.5765 12.0851 134.7924 1.8353 -4.2636 -14.5868
# 4 4.0330 4.6178 1.8353 24.4958 2.0226 2.1529
# 5 -40.6102 -12.3043 -4.2636 2.0226 51.9540 5.4985
# 6 -39.3571 -12.3713 -14.5868 2.1529 5.4985 38.7197
#
#
#
# Elastic Compliance Matrix: (Units=1/GPa)
#
#
# Indices 1 2 3 4 5 6 
#
# 1 0.008210 -0.000687 -0.001776 -0.002138 0.005472 0.006798
# 2 -0.000687 0.024669 -0.001062 -0.005414 0.004751 0.006411
# 3 -0.001776 -0.001062 0.008202 -0.000130 -0.001079 0.001105
# 4 -0.002138 -0.005414 -0.000130 0.043046 -0.004029 -0.005774
# 5 0.005472 0.004751 -0.001079 -0.004029 0.024355 0.003440
# 6 0.006798 0.006411 0.001105 -0.005774 0.003440 0.035034
#
#
# Mechanical properties :
#
#
# Convention : Reuss Voigt Hill
#
# Bulk Modulus (GPa) = 29.38486 60.63386 45.00936
# Shear Modulus (GPa) = 30.88160 42.61986 36.75073
#
# Velocity S-wave (km/s) = 3.56999 4.19395 3.89448
# Velocity P-wave (km/s) = 5.39631 6.96246 6.22880
#
# Compressibility (1/GPa) = 0.03403113
#
# Stress axis : x y z
#
# Youngs Moduli (GPa) = 121.80940 40.53600 121.92239
#
# Poissons Ratio (x) = 0.02783 0.21659
# Poissons Ratio (y) = 0.08362 0.12947
# Poissons Ratio (z) = 0.21639 0.04305
#
# Static dielectric constant tensor:
#      x y z
#    x 2.009050 0.017820 -0.002090 
#    y 0.017820 2.039980 0.004800 
#    z -0.002090 0.004800 1.936820 
# 
# From -- ./inp_files/307446.got.cif
#   From: 2010.05.17/outbox.cif.g08.bks.cpg/sg2_154_cif.got.tgz:307446.got - 2010.06.03 11:33:40.
