data_PCOD9028370
_publ_section_title
;
Structure prediction by ZEFSAII (Michael W. Deem and Ramdas Pophale) SiO2 
 PCOD9028370
Probable space group: P -1
;
_chemical_formula_sum "Si O2"
_cell_formula_units_Z 16
_cell_length_a 5.286434
_cell_length_b 19.971169
_cell_length_c 19.298398
_cell_angle_alpha 22.319821
_cell_angle_beta 100.154993
_cell_angle_gamma 91.853645
_cell_volume 713.543418
_symmetry_space_group_name_H-M "P -1"
_symmetry_group_IT_number 2
_symmetry_cell_setting 'triclinic'
loop_
_space_group_symop_operation_xyz
x,y,z
-x,-y,-z
loop_
_atom_site_type_symbol
_atom_site_label
_atom_site_fract_x
_atom_site_fract_y
_atom_site_fract_z
Si Si1 0.072072 0.470723 0.664620
Si Si2 0.278833 0.098811 0.760618
Si Si3 0.388708 0.756820 0.573298
Si Si4 0.272992 0.035429 0.529580
Si Si5 0.159863 0.963149 0.748893
Si Si6 0.302768 0.697197 0.772730
Si Si7 0.914945 0.923306 0.999308
Si Si8 0.654793 0.433049 0.790542
O O1 0.895620 0.686924 0.430485
O O2 0.919526 0.438485 0.757383
O O3 0.388278 0.449598 0.714220
O O4 0.052957 0.297506 0.783517
O O5 0.295168 0.073824 0.701574
O O6 0.592053 0.031956 0.865140
O O7 0.112759 0.968810 0.907717
O O8 0.549699 0.856672 0.530906
O O9 0.274412 0.667786 0.716854
O O10 0.559103 0.603013 0.676489
O O11 0.157105 0.918173 0.367603
O O12 0.184145 0.961378 0.668680
O O13 0.016802 0.192611 0.329081
O O14 0.410289 0.856015 0.659388
O O15 0.266983 0.754928 0.981464
O O16 0.500000 0.500000 0.000000
O O17 0.000000 0.000000 0.000000
#
# Coordination Sequence:
#
# PCOD9028370 Si02
#       8
#     2   2   2   2   2   2   2   2
#     4  12  25  45  70 106 140 183 234 283 352 418
#     4  12  25  45  74 102 148 186 229 299 346 408
#     4  11  24  39  64  99 128 180 234 288 348 421
#     4  10  23  39  63  92 134 170 233 286 342 421
#     4  11  23  40  65  99 131 179 225 289 351 398
#     4  10  22  42  60  89 132 178 226 284 351 412
#     4  12  27  48  74 107 143 189 236 280 347 428
#     4  12  25  40  69 102 140 178 232 288 348 418
#
# _framework density 22.423304999999999
#
# number of rings (size 3 to 8) (size 9 to 14) (size 15 to 20)
#    0.000    0.750    3.750    3.000    5.250    2.500 
#    0.000    0.000    0.000    0.000    0.000    0.000 
#    0.000    0.000    0.000    0.000    0.000    0.000 
#
# Total GULP energy -89274.119555 kJ/mol
# GULP energy per Si atom -5579.632472 kJ/mol
# Density = 2.237227 g / cm^3
# Si number density = 22.423305 Si / 1000 Ang^3
#
#
#
# Elastic Constant Matrix: (Units=GPa)
#
#
# Indices 1 2 3 4 5 6 
#
# 1 71.1158 7.6729 17.1795 -5.7094 2.1349 14.6536
# 2 7.6729 120.5689 17.4595 -23.9027 1.6005 24.0263
# 3 17.1795 17.4595 122.0805 -11.0785 26.0152 20.2430
# 4 -5.7094 -23.9027 -11.0785 65.5598 17.2003 -3.9331
# 5 2.1349 1.6005 26.0152 17.2003 30.5731 2.0232
# 6 14.6536 24.0263 20.2430 -3.9331 2.0232 35.3496
#
#
#
# Elastic Compliance Matrix: (Units=1/GPa)
#
#
# Indices 1 2 3 4 5 6 
#
# 1 0.015623 0.000618 -0.001067 0.001159 -0.000462 -0.006130
# 2 0.000618 0.010484 0.000660 0.004390 -0.003154 -0.007091
# 3 -0.001067 0.000660 0.012531 0.005399 -0.013275 -0.005822
# 4 0.001159 0.004390 0.005399 0.022189 -0.017183 -0.003104
# 5 -0.000462 -0.003154 -0.013275 -0.017183 0.053541 0.004961
# 6 -0.006130 -0.007091 -0.005822 -0.003104 0.004961 0.038354
#
#
# Mechanical properties :
#
#
# Convention : Reuss Voigt Hill
#
# Bulk Modulus (GPa) = 25.60181 44.26542 34.93361
# Shear Modulus (GPa) = 30.24431 44.39338 37.31884
#
# Velocity S-wave (km/s) = 3.67657 4.45431 4.08399
# Velocity P-wave (km/s) = 5.42818 6.79986 6.15237
#
# Compressibility (1/GPa) = 0.03905974
#
# Stress axis : x y z
#
# Youngs Moduli (GPa) = 64.00999 95.38021 79.80006
#
# Poissons Ratio (x) = -0.05891 0.08513
# Poissons Ratio (y) = -0.03953 -0.05266
# Poissons Ratio (z) = 0.06829 -0.06295
#
# Static dielectric constant tensor:
#      x y z
#    x 2.134450 -0.149700 -0.152180 
#    y -0.149700 1.906250 0.062190 
#    z -0.152180 0.062190 1.867820 
# 
# From -- ./inp_files/51618.got.cif
#   From: 2010.05.17/outbox.cif.g08.bks.cpg/sg2_26_cif.got.tgz:51618.got - 2010.06.03 11:33:40.
