data_PCOD9028611
_publ_section_title
;
Structure prediction by ZEFSAII (Michael W. Deem and Ramdas Pophale) SiO2 
 PCOD9028611
Probable space group: P -1
;
_chemical_formula_sum "Si O2"
_cell_formula_units_Z 12
_cell_length_a 11.128146
_cell_length_b 8.587440
_cell_length_c 20.201445
_cell_angle_alpha 34.201011
_cell_angle_beta 30.401462
_cell_angle_gamma 33.338280
_cell_volume 495.980448
_symmetry_space_group_name_H-M "P -1"
_symmetry_group_IT_number 2
_symmetry_cell_setting 'triclinic'
loop_
_space_group_symop_operation_xyz
x,y,z
-x,-y,-z
loop_
_atom_site_type_symbol
_atom_site_label
_atom_site_fract_x
_atom_site_fract_y
_atom_site_fract_z
Si Si1 0.810297 0.269110 0.911922
Si Si2 0.580947 0.676893 0.040892
Si Si3 0.645711 0.165759 0.515674
Si Si4 0.688723 0.127701 0.269486
Si Si5 0.152787 0.612979 0.768961
Si Si6 0.456643 0.058650 0.221037
O O1 0.610670 0.265911 0.950176
O O2 0.759722 0.622584 0.818216
O O3 0.711596 0.138103 0.067248
O O4 0.089933 0.073563 0.817299
O O5 0.532477 0.451490 0.193800
O O6 0.894078 0.556370 0.922196
O O7 0.500000 0.000000 0.000000
O O8 0.500000 0.500000 0.500000
O O9 0.871045 0.186015 0.356272
O O10 0.483118 0.062536 0.576553
O O11 0.667642 0.961389 0.642000
O O12 0.808077 0.204818 0.251135
O O13 0.411804 0.283362 0.753150
#
# Coordination Sequence:
#
# PCOD9028611 Si02
#       6
#     2   2   2   2   2   2
#     4  11  23  40  71 104 129 179 233 275 336 394
#     4  12  23  41  71 104 136 170 231 285 334 395
#     4  10  24  44  68  99 140 185 221 274 346 405
#     4  12  23  45  72  98 139 178 231 282 333 400
#     4  11  23  43  70 102 139 178 223 282 341 402
#     4  10  22  42  64 100 137 175 225 272 333 405
#
# _framework density 24.194500000000001
#
# number of rings (size 3 to 8) (size 9 to 14) (size 15 to 20)
#    0.000    1.000    5.000    2.000    0.000    6.667 
#    0.000   12.500    0.000    0.000    0.000    0.000 
#    0.000    0.000    0.000    0.000    0.000    0.000 
#
# Total GULP energy -66970.458035 kJ/mol
# GULP energy per Si atom -5580.871503 kJ/mol
# Density = 2.413943 g / cm^3
# Si number density = 24.194500 Si / 1000 Ang^3
#
#
#
# Elastic Constant Matrix: (Units=GPa)
#
#
# Indices 1 2 3 4 5 6 
#
# 1 117.6775 1.9119 29.2194 -6.3894 -16.4314 14.6498
# 2 1.9119 108.7814 7.1625 -14.5868 -2.6804 17.8559
# 3 29.2194 7.1625 128.3962 -17.8443 0.8950 6.4015
# 4 -6.3894 -14.5868 -17.8443 29.5125 6.8303 -0.0387
# 5 -16.4314 -2.6804 0.8950 6.8303 51.2441 -4.8936
# 6 14.6498 17.8559 6.4015 -0.0387 -4.8936 10.2910
#
#
#
# Elastic Compliance Matrix: (Units=1/GPa)
#
#
# Indices 1 2 3 4 5 6 
#
# 1 0.011967 0.004074 -0.001363 0.003412 0.001466 -0.022546
# 2 0.004074 0.016297 0.001431 0.010381 -0.002708 -0.036215
# 3 -0.001363 0.001431 0.009302 0.006511 -0.002089 -0.007299
# 4 0.003412 0.010381 0.006511 0.045366 -0.007415 -0.030274
# 5 0.001466 -0.002708 -0.002089 -0.007415 0.022249 0.014464
# 6 -0.022546 -0.036215 -0.007299 -0.030274 0.014464 0.203410
#
#
# Mechanical properties :
#
#
# Convention : Reuss Voigt Hill
#
# Bulk Modulus (GPa) = 21.81024 47.93807 34.87416
# Shear Modulus (GPa) = 15.84339 39.31359 27.57849
#
# Velocity S-wave (km/s) = 2.56175 4.03538 3.37985
# Velocity P-wave (km/s) = 4.21713 6.44740 5.44762
#
# Compressibility (1/GPa) = 0.04585001
#
# Stress axis : x y z
#
# Youngs Moduli (GPa) = 83.56527 61.36189 107.50470
#
# Poissons Ratio (x) = -0.24998 0.14648
# Poissons Ratio (y) = -0.34043 -0.15384
# Poissons Ratio (z) = 0.11386 -0.08781
#
# Static dielectric constant tensor:
#      x y z
#    x 1.997230 -0.028560 0.034780 
#    y -0.028560 1.976380 0.003170 
#    z 0.034780 0.003170 1.939210 
# 
# From -- ./inp_files/26500.got.cif
#   From: 2010.05.17/outbox.cif.g08.bks.cpg/sg2_14_cif.got.tgz:26500.got - 2010.06.03 11:33:40.
