data_PCOD9028232
_publ_section_title
;
Structure prediction by ZEFSAII (Michael W. Deem and Ramdas Pophale) SiO2 
 PCOD9028232
Probable space group: P -1
;
_chemical_formula_sum "Si O2"
_cell_formula_units_Z 12
_cell_length_a 12.904245
_cell_length_b 8.914720
_cell_length_c 9.550719
_cell_angle_alpha 121.283391
_cell_angle_beta 34.499413
_cell_angle_gamma 104.576651
_cell_volume 495.303540
_symmetry_space_group_name_H-M "P -1"
_symmetry_group_IT_number 2
_symmetry_cell_setting 'triclinic'
loop_
_space_group_symop_operation_xyz
x,y,z
-x,-y,-z
loop_
_atom_site_type_symbol
_atom_site_label
_atom_site_fract_x
_atom_site_fract_y
_atom_site_fract_z
Si Si1 0.157044 0.348989 0.454135
Si Si2 0.306618 0.939430 0.999743
Si Si3 0.233424 0.274410 0.637769
Si Si4 0.654477 0.459438 0.179552
Si Si5 0.752790 0.423836 0.770275
Si Si6 0.032834 0.982288 0.789783
O O1 0.184212 0.393609 0.606372
O O2 0.273647 0.428980 0.253361
O O3 0.945483 0.407641 0.642113
O O4 0.241943 0.122516 0.255058
O O5 0.539130 0.865461 0.685399
O O6 0.252318 0.767466 0.037227
O O7 0.176479 0.998604 0.034269
O O8 0.224456 0.415485 0.842721
O O9 0.098854 0.152204 0.749691
O O10 0.500000 0.500000 0.500000
O O11 0.588749 0.501135 0.111877
O O12 0.809899 0.216928 0.537810
O O13 0.000000 0.000000 0.000000
#
# Coordination Sequence:
#
# PCOD9028232 Si02
#       6
#     2   2   2   2   2   2
#     4  10  22  41  72  99 134 181 224 284 342 400
#     4  10  23  45  66  98 138 172 231 275 339 400
#     4  11  24  42  71  98 135 182 227 276 340 407
#     4  10  23  43  67  99 140 177 222 278 337 402
#     4  10  23  43  66 103 140 173 229 283 336 403
#     4  11  26  44  71 100 136 182 229 281 342 403
#
# _framework density 24.227565999999999
#
# number of rings (size 3 to 8) (size 9 to 14) (size 15 to 20)
#    0.000    1.667    0.000    2.500    9.333    6.000 
#    3.000    4.167    0.000    0.000    0.000    0.000 
#    0.000    0.000    0.000    0.000    0.000    0.000 
#
# Total GULP energy -67048.428375 kJ/mol
# GULP energy per Si atom -5587.369031 kJ/mol
# Density = 2.417242 g / cm^3
# Si number density = 24.227566 Si / 1000 Ang^3
#
#
#
# Elastic Constant Matrix: (Units=GPa)
#
#
# Indices 1 2 3 4 5 6 
#
# 1 126.0487 38.0502 53.6462 -12.8620 21.3954 3.9421
# 2 38.0502 104.0406 25.9382 -11.1678 31.9662 -3.6363
# 3 53.6462 25.9382 82.2413 -22.5016 13.0534 -0.0578
# 4 -12.8620 -11.1678 -22.5016 27.4290 -4.8990 15.2108
# 5 21.3954 31.9662 13.0534 -4.8990 60.9586 -6.0050
# 6 3.9421 -3.6363 -0.0578 15.2108 -6.0050 35.8870
#
#
#
# Elastic Compliance Matrix: (Units=1/GPa)
#
#
# Indices 1 2 3 4 5 6 
#
# 1 0.011813 -0.002178 -0.006837 -0.000335 -0.001732 -0.001677
# 2 -0.002178 0.012594 -0.000966 0.002621 -0.005473 -0.000513
# 3 -0.006837 -0.000966 0.022123 0.018401 -0.001071 -0.007290
# 4 -0.000335 0.002621 0.018401 0.068053 -0.002579 -0.028944
# 5 -0.001732 -0.005473 -0.001071 -0.002579 0.020311 0.004126
# 6 -0.001677 -0.000513 -0.007290 -0.028944 0.004126 0.040944
#
#
# Mechanical properties :
#
#
# Convention : Reuss Voigt Hill
#
# Bulk Modulus (GPa) = 37.63879 60.84441 49.24160
# Shear Modulus (GPa) = 24.43135 37.83466 31.13300
#
# Velocity S-wave (km/s) = 3.17899 3.95604 3.58861
# Velocity P-wave (km/s) = 5.38924 6.78493 6.12696
#
# Compressibility (1/GPa) = 0.02656834
#
# Stress axis : x y z
#
# Youngs Moduli (GPa) = 84.65350 79.40332 45.20221
#
# Poissons Ratio (x) = 0.17296 0.30903
# Poissons Ratio (y) = 0.18440 0.04365
# Poissons Ratio (z) = 0.57874 0.07668
#
# Static dielectric constant tensor:
#      x y z
#    x 1.927530 0.002370 -0.018270 
#    y 0.002370 1.944940 -0.083580 
#    z -0.018270 -0.083580 2.117100 
# 
# From -- ./inp_files/156059.got.cif
#   From: 2010.05.17/outbox.cif.g08.bks.cpg/sg2_79_cif.got.tgz:156059.got - 2010.06.03 11:33:40.
