data_PCOD9028032
_publ_section_title
;
Structure prediction by ZEFSAII (Michael W. Deem and Ramdas Pophale) SiO2 
 PCOD9028032
Probable space group: P -1
;
_chemical_formula_sum "Si O2"
_cell_formula_units_Z 10
_cell_length_a 8.468105
_cell_length_b 11.017556
_cell_length_c 12.207792
_cell_angle_alpha 49.299699
_cell_angle_beta 36.808893
_cell_angle_gamma 34.624934
_cell_volume 387.668348
_symmetry_space_group_name_H-M "P -1"
_symmetry_group_IT_number 2
_symmetry_cell_setting 'triclinic'
loop_
_space_group_symop_operation_xyz
x,y,z
-x,-y,-z
loop_
_atom_site_type_symbol
_atom_site_label
_atom_site_fract_x
_atom_site_fract_y
_atom_site_fract_z
Si Si1 0.499939 0.686998 0.238842
Si Si2 0.287249 0.307581 0.106473
Si Si3 0.557923 0.090958 0.657709
Si Si4 0.810339 0.238799 0.008921
Si Si5 0.598298 0.622752 0.619412
O O1 0.318028 0.847273 0.346944
O O2 0.385093 0.556508 0.343616
O O3 0.898539 0.502039 0.167904
O O4 0.499406 0.795435 0.065724
O O5 0.481314 0.370018 0.029491
O O6 0.280865 0.149896 0.274711
O O7 0.566052 0.180277 0.486857
O O8 0.138174 0.225966 0.826179
O O9 0.651702 0.280082 0.193132
O O10 0.000000 0.000000 0.000000
O O11 0.000000 0.500000 0.500000
#
# Coordination Sequence:
#
# PCOD9028032 Si02
#       5
#     2   2   2   2   2
#     4  11  23  42  68 101 139 179 227 287 345 404
#     4  10  22  41  70  98 135 183 228 276 343 412
#     4  11  24  44  71 102 138 181 229 283 345 411
#     4  10  23  44  69 100 138 180 226 280 341 408
#     4  12  26  44  71 103 138 182 233 286 345 410
#
# _framework density 25.795244
#
# number of rings (size 3 to 8) (size 9 to 14) (size 15 to 20)
#    0.000    1.200    0.000    6.000    0.000    8.000 
#    0.000    6.000    0.000    0.000    0.000    0.000 
#    0.000    0.000    0.000    0.000    0.000    0.000 
#
# Total GULP energy -56047.336131 kJ/mol
# GULP energy per Si atom -5604.733613 kJ/mol
# Density = 2.573653 g / cm^3
# Si number density = 25.795244 Si / 1000 Ang^3
#
#
#
# Elastic Constant Matrix: (Units=GPa)
#
#
# Indices 1 2 3 4 5 6 
#
# 1 196.5994 28.7863 69.5213 -7.5546 -5.8855 17.0327
# 2 28.7863 58.4945 48.5687 -6.2318 15.4837 -1.2333
# 3 69.5213 48.5687 181.3563 -18.0504 40.6709 10.9319
# 4 -7.5546 -6.2318 -18.0504 53.0218 -4.9717 -0.5012
# 5 -5.8855 15.4837 40.6709 -4.9717 59.3927 1.3183
# 6 17.0327 -1.2333 10.9319 -0.5012 1.3183 44.1490
#
#
#
# Elastic Compliance Matrix: (Units=1/GPa)
#
#
# Indices 1 2 3 4 5 6 
#
# 1 0.006523 -0.001936 -0.002504 0.000104 0.002920 -0.002037
# 2 -0.001936 0.022967 -0.004879 0.000520 -0.002855 0.002688
# 3 -0.002504 -0.004879 0.009166 0.001702 -0.005082 -0.001269
# 4 0.000104 0.000520 0.001702 0.019546 0.000351 -0.000236
# 5 0.002920 -0.002855 -0.005082 0.000351 0.021393 -0.000582
# 6 -0.002037 0.002688 -0.001269 -0.000236 -0.000582 0.023840
#
#
# Mechanical properties :
#
#
# Convention : Reuss Voigt Hill
#
# Bulk Modulus (GPa) = 49.95170 81.13364 65.54267
# Shear Modulus (GPa) = 38.83636 50.61762 44.72699
#
# Velocity S-wave (km/s) = 3.88437 4.43457 4.16856
# Velocity P-wave (km/s) = 6.28685 7.59880 6.97375
#
# Compressibility (1/GPa) = 0.02001934
#
# Stress axis : x y z
#
# Youngs Moduli (GPa) = 153.29939 43.54103 109.09962
#
# Poissons Ratio (x) = 0.08429 0.27316
# Poissons Ratio (y) = 0.29678 0.53225
# Poissons Ratio (z) = 0.38382 0.21242
#
# Static dielectric constant tensor:
#      x y z
#    x 2.018310 0.003670 -0.029460 
#    y 0.003670 2.202790 0.024610 
#    z -0.029460 0.024610 2.006670 
# 
# From -- ./inp_files/168614.got.cif
#   From: 2010.05.17/outbox.cif.g08.bks.cpg/sg2_85_cif.got.tgz:168614.got - 2010.06.03 11:33:40.
