data_PCOD9028356
_publ_section_title
;
Structure prediction by ZEFSAII (Michael W. Deem and Ramdas Pophale) SiO2 
 PCOD9028356
Probable space group: P -1
;
_chemical_formula_sum "Si O2"
_cell_formula_units_Z 15
_cell_length_a 5.559507
_cell_length_b 13.343981
_cell_length_c 9.032337
_cell_angle_alpha 70.890760
_cell_angle_beta 79.134677
_cell_angle_gamma 92.093442
_cell_volume 618.304239
_symmetry_space_group_name_H-M "P -1"
_symmetry_group_IT_number 2
_symmetry_cell_setting 'triclinic'
loop_
_space_group_symop_operation_xyz
x,y,z
-x,-y,-z
loop_
_atom_site_type_symbol
_atom_site_label
_atom_site_fract_x
_atom_site_fract_y
_atom_site_fract_z
Si Si1 0.677820 0.065203 0.062953
Si Si2 0.837733 0.637213 0.834264
Si Si3 0.850597 0.840386 0.179618
Si Si4 0.959790 0.451158 0.693257
Si Si5 0.000000 0.000000 0.500000
Si Si6 0.229282 0.818614 0.728135
Si Si7 0.673819 0.798511 0.530999
Si Si8 0.589652 0.652500 0.155583
O O1 0.600561 0.129524 0.183939
O O2 0.808417 0.962984 0.153156
O O3 0.873319 0.148410 0.916628
O O4 0.500000 0.000000 0.000000
O O5 0.919130 0.537602 0.784343
O O6 0.736959 0.711860 0.683906
O O7 0.072378 0.709121 0.843153
O O8 0.643067 0.618166 0.998164
O O9 0.792918 0.779873 0.368881
O O10 0.670601 0.778823 0.110095
O O11 0.694246 0.379326 0.754650
O O12 0.000000 0.500000 0.500000
O O13 0.205226 0.399969 0.743087
O O14 0.055833 0.906494 0.658835
O O15 0.775287 0.918329 0.501660
O O16 0.380186 0.796692 0.572929
#
# Coordination Sequence:
#
# PCOD9028356 Si02
#       8
#     2   2   2   2   1   2   2   2
#     4  11  26  42  70  99 155 190 253 295 373 442
#     4  11  27  46  74 109 143 192 247 304 378 448
#     4  11  26  45  65 110 140 199 239 309 367 437
#     4  12  29  52  82 111 149 191 249 316 382 449
#     4  10  22  42  60 102 138 194 240 298 358 426
#     4  11  24  43  70 102 145 194 247 301 362 453
#     4  11  25  40  71  97 148 182 250 297 370 435
#     4  12  28  50  80 109 152 192 252 307 379 450
#
# _framework density 24.259902
#
# number of rings (size 3 to 8) (size 9 to 14) (size 15 to 20)
#    0.000    0.800    2.667    2.400   11.200    1.067 
#    0.000    0.000    0.000    0.000    0.000    0.000 
#    0.000    0.000    0.000    0.000    0.000    0.000 
#
# Total GULP energy -83568.525339 kJ/mol
# GULP energy per Si atom -5571.235023 kJ/mol
# Density = 2.420469 g / cm^3
# Si number density = 24.259902 Si / 1000 Ang^3
#
#
#
# Elastic Constant Matrix: (Units=GPa)
#
#
# Indices 1 2 3 4 5 6 
#
# 1 79.6059 43.1947 44.2636 0.2922 -0.2150 23.1537
# 2 43.1947 104.3106 18.5534 -2.3037 -19.4728 9.7276
# 3 44.2636 18.5534 152.5158 12.1589 -7.3095 -0.7421
# 4 0.2922 -2.3037 12.1589 16.7890 1.3787 -3.7045
# 5 -0.2150 -19.4728 -7.3095 1.3787 27.8319 -6.2265
# 6 23.1537 9.7276 -0.7421 -3.7045 -6.2265 30.3302
#
#
#
# Elastic Compliance Matrix: (Units=1/GPa)
#
#
# Indices 1 2 3 4 5 6 
#
# 1 0.029799 -0.011628 -0.008065 0.000040 -0.015013 -0.022293
# 2 -0.011628 0.015877 0.001990 0.001345 0.012964 0.006659
# 3 -0.008065 0.001990 0.009382 -0.005461 0.005452 0.006200
# 4 0.000040 0.001345 -0.005461 0.065413 -0.002179 0.006946
# 5 -0.015013 0.012964 0.005452 -0.002179 0.050340 0.017504
# 6 -0.022293 0.006659 0.006200 0.006946 0.017504 0.052447
#
#
# Mechanical properties :
#
#
# Convention : Reuss Voigt Hill
#
# Bulk Modulus (GPa) = 50.88632 60.93951 55.91291
# Shear Modulus (GPa) = 18.85258 30.35158 24.60208
#
# Velocity S-wave (km/s) = 2.79069 3.54093 3.18796
# Velocity P-wave (km/s) = 5.60401 6.47237 6.05378
#
# Compressibility (1/GPa) = 0.01965165
#
# Stress axis : x y z
#
# Youngs Moduli (GPa) = 33.55791 62.98489 106.58587
#
# Poissons Ratio (x) = 0.73239 0.85963
# Poissons Ratio (y) = 0.39021 -0.21209
# Poissons Ratio (z) = 0.27065 -0.12533
#
# Static dielectric constant tensor:
#      x y z
#    x 1.995890 -0.042350 0.031180 
#    y -0.042350 1.928180 0.012350 
#    z 0.031180 0.012350 1.988720 
# 
# From -- ./inp_files/134946.got.cif
#   From: 2010.05.17/outbox.cif.g08.bks.cpg/sg2_68_cif.got.tgz:134946.got - 2010.06.03 11:33:40.
