data_PCOD9028297
_publ_section_title
;
Structure prediction by ZEFSAII (Michael W. Deem and Ramdas Pophale) SiO2 
 PCOD9028297
Probable space group: P -1
;
_chemical_formula_sum "Si O2"
_cell_formula_units_Z 16
_cell_length_a 12.145345
_cell_length_b 20.188797
_cell_length_c 9.316329
_cell_angle_alpha 63.874049
_cell_angle_beta 64.160522
_cell_angle_gamma 21.842581
_cell_volume 760.559014
_symmetry_space_group_name_H-M "P -1"
_symmetry_group_IT_number 2
_symmetry_cell_setting 'triclinic'
loop_
_space_group_symop_operation_xyz
x,y,z
-x,-y,-z
loop_
_atom_site_type_symbol
_atom_site_label
_atom_site_fract_x
_atom_site_fract_y
_atom_site_fract_z
Si Si1 0.719558 0.990714 0.673826
Si Si2 0.314777 0.322911 0.408836
Si Si3 0.862987 0.749136 0.157468
Si Si4 0.221392 0.809635 0.083521
Si Si5 0.395472 0.436580 0.338083
Si Si6 0.291511 0.685280 0.457838
Si Si7 0.895380 0.226953 0.087031
Si Si8 0.848851 0.539357 0.918565
O O1 0.521996 0.154203 0.536893
O O2 0.483567 0.059206 0.792402
O O3 0.998455 0.818397 0.580644
O O4 0.868022 0.942501 0.779332
O O5 0.466852 0.319616 0.335288
O O6 0.250956 0.346865 0.255095
O O7 0.000000 0.500000 0.500000
O O8 0.052083 0.637473 0.304786
O O9 0.944480 0.634187 0.118790
O O10 0.985610 0.756072 0.012351
O O11 0.202534 0.778209 0.276940
O O12 0.146540 0.791333 0.020430
O O13 0.556884 0.655682 0.023690
O O14 0.000000 0.000000 0.000000
O O15 0.514185 0.369411 0.495094
O O16 0.584002 0.394881 0.188068
O O17 0.500000 0.500000 0.500000
O O18 0.000000 0.500000 0.000000
#
# Coordination Sequence:
#
# PCOD9028297 Si02
#       8
#     2   2   2   2   2   2   2   2
#     4  11  25  43  73  99 137 182 240 282 344 426
#     4  11  21  43  69 104 135 177 234 286 346 417
#     4  11  22  45  74 102 133 187 237 282 342 428
#     4  12  27  45  68 104 145 181 233 296 355 414
#     4  10  22  41  74  95 133 185 231 281 341 420
#     4  11  27  45  67 101 143 182 230 292 358 413
#     4  11  24  43  70 100 139 183 238 278 342 422
#     4  11  26  43  71 104 140 177 227 295 358 407
#
# _framework density 21.037157000000001
#
# number of rings (size 3 to 8) (size 9 to 14) (size 15 to 20)
#    0.000    1.000    5.000    2.250    8.750    1.000 
#    0.000    2.500    0.000    0.000    0.000    0.000 
#    0.000    0.000    0.000    0.000    0.000    0.000 
#
# Total GULP energy -89341.257134 kJ/mol
# GULP energy per Si atom -5583.828571 kJ/mol
# Density = 2.098928 g / cm^3
# Si number density = 21.037157 Si / 1000 Ang^3
#
#
#
# Elastic Constant Matrix: (Units=GPa)
#
#
# Indices 1 2 3 4 5 6 
#
# 1 100.0798 48.8601 64.1305 -9.6783 16.1609 -21.1660
# 2 48.8601 130.2312 44.9195 2.0525 7.1970 -20.7566
# 3 64.1305 44.9195 140.7060 -13.5019 21.5179 -17.5971
# 4 -9.6783 2.0525 -13.5019 42.2565 -14.6243 -6.9615
# 5 16.1609 7.1970 21.5179 -14.6243 44.3830 -4.8026
# 6 -21.1660 -20.7566 -17.5971 -6.9615 -4.8026 35.9856
#
#
#
# Elastic Compliance Matrix: (Units=1/GPa)
#
#
# Indices 1 2 3 4 5 6 
#
# 1 0.016833 -0.003541 -0.005361 0.002729 -0.001454 0.005571
# 2 -0.003541 0.009924 -0.001358 -0.001182 0.000250 0.002782
# 3 -0.005361 -0.001358 0.010657 0.001656 -0.002310 0.001287
# 4 0.002729 -0.001182 0.001656 0.029421 0.009023 0.008629
# 5 -0.001454 0.000250 -0.002310 0.009023 0.027500 0.003575
# 6 0.005571 0.002782 0.001287 0.008629 0.003575 0.035446
#
#
# Mechanical properties :
#
#
# Convention : Reuss Voigt Hill
#
# Bulk Modulus (GPa) = 59.19204 76.31525 67.75364
# Shear Modulus (GPa) = 32.06558 38.73215 35.39887
#
# Velocity S-wave (km/s) = 3.90838 4.29549 4.10650
# Velocity P-wave (km/s) = 6.96888 7.80749 7.40007
#
# Compressibility (1/GPa) = 0.01689416
#
# Stress axis : x y z
#
# Youngs Moduli (GPa) = 59.40818 100.76806 93.83658
#
# Poissons Ratio (x) = 0.35683 0.50302
# Poissons Ratio (y) = 0.21037 0.12742
# Poissons Ratio (z) = 0.31846 0.13683
#
# Static dielectric constant tensor:
#      x y z
#    x 1.788370 -0.003270 -0.030070 
#    y -0.003270 1.785460 -0.005310 
#    z -0.030070 -0.005310 1.835000 
# 
# From -- ./inp_files/283018.got.cif
#   From: 2010.05.17/outbox.cif.g08.bks.cpg/sg2_142_cif.got.tgz:283018.got - 2010.06.03 11:33:40.
