data_PCOD9028891
_publ_section_title
;
Structure prediction by ZEFSAII (Michael W. Deem and Ramdas Pophale) SiO2 
 PCOD9028891
Probable space group: P -1
;
_chemical_formula_sum "Si O2"
_cell_formula_units_Z 13
_cell_length_a 11.015140
_cell_length_b 8.604566
_cell_length_c 7.521459
_cell_angle_alpha 109.297465
_cell_angle_beta 75.925791
_cell_angle_gamma 59.690402
_cell_volume 501.987943
_symmetry_space_group_name_H-M "P -1"
_symmetry_group_IT_number 2
_symmetry_cell_setting 'triclinic'
loop_
_space_group_symop_operation_xyz
x,y,z
-x,-y,-z
loop_
_atom_site_type_symbol
_atom_site_label
_atom_site_fract_x
_atom_site_fract_y
_atom_site_fract_z
Si Si1 0.618684 0.769799 0.212449
Si Si2 0.955743 0.355895 0.879323
Si Si3 0.630537 0.788381 0.621088
Si Si4 0.360446 0.727256 0.220018
Si Si5 0.000000 0.000000 0.000000
Si Si6 0.221337 0.667499 0.574633
Si Si7 0.886646 0.819407 0.630357
O O1 0.669029 0.784663 0.396333
O O2 0.463027 0.784500 0.299954
O O3 0.544020 0.980662 0.202283
O O4 0.762460 0.544784 0.991160
O O5 0.041612 0.254049 0.621498
O O6 0.988443 0.171382 0.923664
O O7 0.000000 0.500000 0.000000
O O8 0.642488 0.584515 0.558680
O O9 0.775755 0.751017 0.667638
O O10 0.249792 0.732761 0.405803
O O11 0.237133 0.925290 0.210181
O O12 0.500000 0.500000 0.000000
O O13 0.193333 0.809806 0.802263
O O14 0.039610 0.735986 0.666996
#
# Coordination Sequence:
#
# PCOD9028891 Si02
#       7
#     2   2   2   2   1   2   2
#     4  10  22  42  65  93 144 177 230 282 359 423
#     4  12  23  46  72 103 141 189 235 295 354 415
#     4  10  22  42  66  99 130 184 230 290 356 414
#     4  11  25  42  65  98 140 190 220 281 365 418
#     4  12  26  40  72 114 130 180 256 280 350 422
#     4  12  24  44  70 103 140 176 244 294 341 430
#     4  11  23  43  71  95 141 185 230 289 359 416
#
# _framework density 25.897036
#
# number of rings (size 3 to 8) (size 9 to 14) (size 15 to 20)
#    0.000    0.923    4.615    1.846    2.154    0.615 
#    2.769    8.462    0.000    0.000    0.000    0.000 
#    0.000    0.000    0.000    0.000    0.000    0.000 
#
# Total GULP energy -72489.656156 kJ/mol
# GULP energy per Si atom -5576.127397 kJ/mol
# Density = 2.583809 g / cm^3
# Si number density = 25.897036 Si / 1000 Ang^3
#
#
#
# Elastic Constant Matrix: (Units=GPa)
#
#
# Indices 1 2 3 4 5 6 
#
# 1 80.6433 6.5374 7.8946 2.1888 16.8443 -11.8654
# 2 6.5374 75.1507 25.4015 42.0763 -135.7255 -31.6700
# 3 7.8946 25.4015 106.7697 13.1818 27.7804 10.7411
# 4 2.1888 42.0763 13.1818 48.2080 0.1755 6.7882
# 5 16.8443 -135.7255 27.7804 0.1755 -474.9323 -163.2605
# 6 -11.8654 -31.6700 10.7411 6.7882 -163.2605 -29.5194
#
#
#
# Elastic Compliance Matrix: (Units=1/GPa)
#
#
# Indices 1 2 3 4 5 6 
#
# 1 0.014806 -0.001152 -0.001038 -0.000886 -0.002901 0.010746
# 2 -0.001152 0.013659 -0.000721 -0.010865 -0.002038 -0.005679
# 3 -0.001038 -0.000721 0.009665 -0.001937 0.000811 -0.000225
# 4 -0.000886 -0.010865 -0.001937 0.031099 0.003744 -0.002245
# 5 -0.002901 -0.002038 0.000811 0.003744 0.003470 -0.014682
# 6 0.010746 -0.005679 -0.000225 -0.002245 -0.014682 0.048500
#
#
# Mechanical properties :
#
#
# Convention : Reuss Voigt Hill
#
# Bulk Modulus (GPa) = 30.95091 38.02562 34.48826
# Shear Modulus (GPa) = 36.28669 -76.40006 -20.05668
#
# Velocity S-wave (km/s) = 3.74731 -5.43742 -2.78596
# Velocity P-wave (km/s) = 5.54081 4.97046 1.73135
#
# Compressibility (1/GPa) = 0.03230923
#
# Stress axis : x y z
#
# Youngs Moduli (GPa) = 67.53871 73.20999 103.46591
#
# Poissons Ratio (x) = 0.08431 0.10737
# Poissons Ratio (y) = 0.07778 0.07464
# Poissons Ratio (z) = 0.07009 0.05281
#
# Static dielectric constant tensor:
#      x y z
#    x 2.055220 -0.027680 -0.087000 
#    y -0.027680 2.068410 -0.029360 
#    z -0.087000 -0.029360 1.798520 
# 
# From -- ./inp_files/166413.got.cif
#   From: 2010.05.17/outbox.cif.g08.bks.cpg/sg2_84_cif.got.tgz:166413.got - 2010.06.03 11:33:40.
