data_PCOD9028859
_publ_section_title
;
Structure prediction by ZEFSAII (Michael W. Deem and Ramdas Pophale) SiO2 
 PCOD9028859
Probable space group: P -1
;
_chemical_formula_sum "Si O2"
_cell_formula_units_Z 12
_cell_length_a 14.973430
_cell_length_b 8.716906
_cell_length_c 7.522095
_cell_angle_alpha 82.780716
_cell_angle_beta 43.692676
_cell_angle_gamma 53.049584
_cell_volume 449.155818
_symmetry_space_group_name_H-M "P -1"
_symmetry_group_IT_number 2
_symmetry_cell_setting 'triclinic'
loop_
_space_group_symop_operation_xyz
x,y,z
-x,-y,-z
loop_
_atom_site_type_symbol
_atom_site_label
_atom_site_fract_x
_atom_site_fract_y
_atom_site_fract_z
Si Si1 0.186743 0.541463 0.445982
Si Si2 0.779062 0.029128 0.948135
Si Si3 0.565790 0.471959 0.686968
Si Si4 0.736244 0.991739 0.432023
Si Si5 0.346697 0.174374 0.976712
Si Si6 0.834485 0.471832 0.124305
O O1 0.364552 0.494397 0.245679
O O2 0.138519 0.503674 0.711327
O O3 0.228982 0.378366 0.260586
O O4 0.006672 0.812590 0.620656
O O5 0.688497 0.975936 0.961630
O O6 0.657925 0.292468 0.059422
O O7 0.748611 0.007344 0.199928
O O8 0.650501 0.226879 0.596643
O O9 0.688655 0.456289 0.359018
O O10 0.571956 0.011303 0.701534
O O11 0.954336 0.764696 0.214744
O O12 0.270455 0.311405 0.879255
#
# Coordination Sequence:
#
# PCOD9028859 Si02
#       6
#     2   2   2   2   2   2
#     4   9  24  42  62  92 132 163 207 258 313 375
#     4  11  23  40  67  93 128 168 206 258 318 371
#     4  10  22  42  65  92 124 172 205 256 319 365
#     4  11  22  39  69  91 127 165 213 257 310 375
#     4  12  24  41  65 100 122 164 215 257 311 375
#     4   9  23  41  65  92 125 167 205 256 317 365
#
# _framework density 26.716785000000002
#
# number of rings (size 3 to 8) (size 9 to 14) (size 15 to 20)
#    1.000    0.667    1.667    2.000    0.000    6.667 
#    0.000    1.667    0.000    0.000    0.000    0.000 
#    0.000    0.000    0.000    0.000    0.000    0.000 
#
# Total GULP energy -67318.601415 kJ/mol
# GULP energy per Si atom -5609.883451 kJ/mol
# Density = 2.665598 g / cm^3
# Si number density = 26.716785 Si / 1000 Ang^3
#
#
#
# Elastic Constant Matrix: (Units=GPa)
#
#
# Indices 1 2 3 4 5 6 
#
# 1 88.0932 26.1813 23.2612 3.8456 15.9497 11.2520
# 2 26.1813 101.2157 50.0625 32.1143 -4.3628 -6.6331
# 3 23.2612 50.0625 178.8086 41.2226 0.0325 -3.8933
# 4 3.8456 32.1143 41.2226 47.1205 -7.8093 6.1259
# 5 15.9497 -4.3628 0.0325 -7.8093 40.6389 10.6632
# 6 11.2520 -6.6331 -3.8933 6.1259 10.6632 33.2849
#
#
#
# Elastic Compliance Matrix: (Units=1/GPa)
#
#
# Indices 1 2 3 4 5 6 
#
# 1 0.014349 -0.004517 -0.001440 0.003151 -0.004154 -0.005168
# 2 -0.004517 0.015151 -0.001297 -0.009641 -0.000078 0.006194
# 3 -0.001440 -0.001297 0.007659 -0.006311 -0.001520 0.002773
# 4 0.003151 -0.009641 -0.006311 0.036076 0.008063 -0.012947
# 5 -0.004154 -0.000078 -0.001520 0.008063 0.030407 -0.010014
# 6 -0.005168 0.006194 0.002773 -0.012947 -0.010014 0.038941
#
#
# Mechanical properties :
#
#
# Convention : Reuss Voigt Hill
#
# Bulk Modulus (GPa) = 44.14803 63.01416 53.58110
# Shear Modulus (GPa) = 30.36913 42.11637 36.24275
#
# Velocity S-wave (km/s) = 3.37516 3.97470 3.68714
# Velocity P-wave (km/s) = 5.63465 6.68592 6.18267
#
# Compressibility (1/GPa) = 0.02265107
#
# Stress axis : x y z
#
# Youngs Moduli (GPa) = 69.69159 66.00154 130.57129
#
# Poissons Ratio (x) = 0.29811 0.18805
# Poissons Ratio (y) = 0.31477 0.16934
# Poissons Ratio (z) = 0.10037 0.08560
#
# Static dielectric constant tensor:
#      x y z
#    x 2.067560 -0.036100 0.008910 
#    y -0.036100 2.088550 -0.096310 
#    z 0.008910 -0.096310 2.082210 
# 
# From -- ./inp_files/461196.got.cif
#   From: 2010.05.17/outbox.cif.g08.bks.cpg/sg2_231_cif.got.tgz:461196.got - 2010.06.03 11:33:40.
