data_PCOD9028107
_publ_section_title
;
Structure prediction by ZEFSAII (Michael W. Deem and Ramdas Pophale) SiO2 
 PCOD9028107
Probable space group: P -1
;
_chemical_formula_sum "Si O2"
_cell_formula_units_Z 15
_cell_length_a 13.008598
_cell_length_b 5.221216
_cell_length_c 11.918997
_cell_angle_alpha 67.421648
_cell_angle_beta 127.222962
_cell_angle_gamma 117.464160
_cell_volume 565.634798
_symmetry_space_group_name_H-M "P -1"
_symmetry_group_IT_number 2
_symmetry_cell_setting 'triclinic'
loop_
_space_group_symop_operation_xyz
x,y,z
-x,-y,-z
loop_
_atom_site_type_symbol
_atom_site_label
_atom_site_fract_x
_atom_site_fract_y
_atom_site_fract_z
Si Si1 0.000000 0.000000 0.000000
Si Si2 0.335093 0.549202 0.980752
Si Si3 0.507671 0.075333 0.623238
Si Si4 0.761446 0.147128 0.927080
Si Si5 0.260881 0.197358 0.524869
Si Si6 0.381201 0.467281 0.774771
Si Si7 0.969435 0.174448 0.704848
Si Si8 0.002985 0.781638 0.638665
O O1 0.088795 0.806301 0.028783
O O2 0.059739 0.935200 0.171234
O O3 0.329640 0.564376 0.840111
O O4 0.258965 0.688620 0.999355
O O5 0.495872 0.660164 0.094915
O O6 0.288380 0.203764 0.032851
O O7 0.439284 0.763993 0.692223
O O8 0.500000 0.000000 0.500000
O O9 0.655535 0.208003 0.755651
O O10 0.406954 0.262496 0.555542
O O11 0.284164 0.229614 0.667932
O O12 0.156228 0.379222 0.403553
O O13 0.162841 0.903544 0.450565
O O14 0.051550 0.512064 0.692566
O O15 0.061009 0.991499 0.743558
O O16 0.000000 0.000000 0.500000
#
# Coordination Sequence:
#
# PCOD9028107 Si02
#       8
#     1   2   2   2   2   2   2   2
#     4  12  28  54  74 106 158 202 260 310 370 464
#     4  10  24  45  73 108 144 190 251 297 386 439
#     4  11  23  43  70 109 143 193 244 306 380 450
#     4  11  26  47  73 106 144 200 246 311 368 454
#     4  10  22  41  71 109 141 195 235 317 376 443
#     4  10  22  42  72 107 151 186 241 316 371 454
#     4  10  25  45  73 108 146 200 245 308 370 444
#     4  10  23  46  72 109 149 190 253 306 375 445
#
# _framework density 26.518875999999999
#
# number of rings (size 3 to 8) (size 9 to 14) (size 15 to 20)
#    0.800    0.800    1.333    2.000    1.867    6.400 
#    7.200    0.000    0.000    0.000    0.000    0.000 
#    0.000    0.000    0.000    0.000    0.000    0.000 
#
# Total GULP energy -83529.802499 kJ/mol
# GULP energy per Si atom -5568.653500 kJ/mol
# Density = 2.645852 g / cm^3
# Si number density = 26.518876 Si / 1000 Ang^3
#
#
#
# Elastic Constant Matrix: (Units=GPa)
#
#
# Indices 1 2 3 4 5 6 
#
# 1 154.4340 -2.7778 107.5092 27.1418 -4.8873 -20.1096
# 2 -2.7778 44.3143 109.6270 46.6650 -25.2883 31.8040
# 3 107.5092 109.6270 137.9109 18.1089 -14.4324 -54.9294
# 4 27.1418 46.6650 18.1089 25.7515 -10.5555 -23.7618
# 5 -4.8873 -25.2883 -14.4324 -10.5555 64.1830 16.9499
# 6 -20.1096 31.8040 -54.9294 -23.7618 16.9499 -5.2531
#
#
#
# Elastic Compliance Matrix: (Units=1/GPa)
#
#
# Indices 1 2 3 4 5 6 
#
# 1 0.012391 0.002192 -0.005636 -0.000442 -0.003565 0.015269
# 2 0.002192 0.006660 -0.000109 0.001971 -0.001775 0.018426
# 3 -0.005636 -0.000109 0.008431 -0.009953 0.003053 -0.012370
# 4 -0.000442 0.001971 -0.009953 0.034129 0.007452 -0.012627
# 5 -0.003565 -0.001775 0.003053 0.007452 0.017866 -0.005092
# 6 0.015269 0.018426 -0.012370 -0.012627 -0.005092 0.032777
#
#
# Mechanical properties :
#
#
# Convention : Reuss Voigt Hill
#
# Bulk Modulus (GPa) = 49.07420 85.04178 67.05799
# Shear Modulus (GPa) = 39.63452 25.08965 32.36208
#
# Velocity S-wave (km/s) = 3.87017 3.07922 3.49713
# Velocity P-wave (km/s) = 6.20617 6.69180 6.45355
#
# Compressibility (1/GPa) = 0.02037731
#
# Stress axis : x y z
#
# Youngs Moduli (GPa) = 80.70148 150.14419 118.60934
#
# Poissons Ratio (x) = -0.32918 0.66849
# Poissons Ratio (y) = -0.17693 0.01294
# Poissons Ratio (z) = 0.45484 0.01638
#
# Static dielectric constant tensor:
#      x y z
#    x 2.282030 0.062890 0.025810 
#    y 0.062890 2.142250 -0.032970 
#    z 0.025810 -0.032970 2.053080 
# 
# From -- ./inp_files/409245.got.cif
#   From: 2010.05.17/outbox.cif.g08.bks.cpg/sg2_205_cif.got.tgz:409245.got - 2010.06.03 11:33:40.
