data_PCOD9028652
_publ_section_title
;
Structure prediction by ZEFSAII (Michael W. Deem and Ramdas Pophale) SiO2 
 PCOD9028652
Probable space group: P -1
;
_chemical_formula_sum "Si O2"
_cell_formula_units_Z 16
_cell_length_a 9.111061
_cell_length_b 9.290063
_cell_length_c 10.331329
_cell_angle_alpha 99.642203
_cell_angle_beta 64.618776
_cell_angle_gamma 90.256097
_cell_volume 776.671039
_symmetry_space_group_name_H-M "P -1"
_symmetry_group_IT_number 2
_symmetry_cell_setting 'triclinic'
loop_
_space_group_symop_operation_xyz
x,y,z
-x,-y,-z
loop_
_atom_site_type_symbol
_atom_site_label
_atom_site_fract_x
_atom_site_fract_y
_atom_site_fract_z
Si Si1 0.660518 0.970142 0.521476
Si Si2 0.309806 0.852537 0.071162
Si Si3 0.008205 0.830983 0.007720
Si Si4 0.636917 0.839694 0.792187
Si Si5 0.643609 0.264590 0.675552
Si Si6 0.044663 0.539713 0.840451
Si Si7 0.269583 0.270133 0.732844
Si Si8 0.848254 0.533137 0.659143
O O1 0.614126 0.907357 0.668137
O O2 0.762685 0.844483 0.385929
O O3 0.500000 0.000000 0.500000
O O4 0.732176 0.125934 0.544145
O O5 0.344621 0.777781 0.184592
O O6 0.142436 0.809132 0.066590
O O7 0.300901 0.028567 0.123923
O O8 0.462258 0.809148 0.913457
O O9 0.833858 0.786042 0.116567
O O10 0.063976 0.713060 0.859037
O O11 0.000000 0.000000 0.000000
O O12 0.760538 0.696442 0.714399
O O13 0.456782 0.271356 0.701824
O O14 0.721036 0.416385 0.651692
O O15 0.912556 0.507620 0.777901
O O16 0.202732 0.431457 0.739198
O O17 0.000000 0.500000 0.000000
O O18 0.000000 0.500000 0.500000
#
# Coordination Sequence:
#
# PCOD9028652 Si02
#       8
#     2   2   2   2   2   2   2   2
#     4   9  20  41  64  92 128 171 215 264 327 391
#     4  10  23  41  66  97 131 169 223 267 332 388
#     4  11  24  38  64  97 128 166 213 276 324 376
#     4  10  23  40  68  98 132 168 224 278 317 392
#     4  10  23  41  69  93 127 181 214 265 333 392
#     4  10  23  42  63  93 132 169 217 263 328 389
#     4  10  22  42  64  90 131 170 217 261 322 399
#     4  12  26  45  66  98 136 172 223 277 330 392
#
# _framework density 20.600739999999998
#
# number of rings (size 3 to 8) (size 9 to 14) (size 15 to 20)
#    0.000    1.750    0.000    3.000   12.250    2.500 
#    2.250    6.250    0.000    0.000    0.000    0.000 
#    0.000    0.000    0.000    0.000    0.000    0.000 
#
# Total GULP energy -89331.151181 kJ/mol
# GULP energy per Si atom -5583.196949 kJ/mol
# Density = 2.055385 g / cm^3
# Si number density = 20.600740 Si / 1000 Ang^3
#
#
#
# Elastic Constant Matrix: (Units=GPa)
#
#
# Indices 1 2 3 4 5 6 
#
# 1 105.0175 37.2510 26.8903 9.1326 3.3394 6.9642
# 2 37.2510 127.1352 42.2701 32.2923 -15.0228 0.2325
# 3 26.8903 42.2701 74.1211 27.3663 -3.8485 -5.3858
# 4 9.1326 32.2923 27.3663 36.1304 -2.0382 -1.6220
# 5 3.3394 -15.0228 -3.8485 -2.0382 31.3476 -2.3172
# 6 6.9642 0.2325 -5.3858 -1.6220 -2.3172 29.6226
#
#
#
# Elastic Compliance Matrix: (Units=1/GPa)
#
#
# Indices 1 2 3 4 5 6 
#
# 1 0.011749 -0.003186 -0.003753 0.002373 -0.003348 -0.003552
# 2 -0.003186 0.012329 -0.002674 -0.007875 0.005419 0.000159
# 3 -0.003753 -0.002674 0.021406 -0.012616 0.001236 0.004201
# 4 0.002373 -0.007875 -0.012616 0.043486 -0.002795 -0.000627
# 5 -0.003348 0.005419 0.001236 -0.002795 0.035087 0.003561
# 6 -0.003552 0.000159 0.004201 -0.000627 0.003561 0.035600
#
#
# Mechanical properties :
#
#
# Convention : Reuss Voigt Hill
#
# Bulk Modulus (GPa) = 38.08706 57.67739 47.88222
# Shear Modulus (GPa) = 26.64721 32.74428 29.69575
#
# Velocity S-wave (km/s) = 3.60044 3.99114 3.80081
# Velocity P-wave (km/s) = 5.98436 7.02122 6.52342
#
# Compressibility (1/GPa) = 0.02625564
#
# Stress axis : x y z
#
# Youngs Moduli (GPa) = 85.11268 81.11080 46.71672
#
# Poissons Ratio (x) = 0.25845 0.17534
# Poissons Ratio (y) = 0.27120 0.12494
# Poissons Ratio (z) = 0.31944 0.21692
#
# Static dielectric constant tensor:
#      x y z
#    x 1.705480 -0.008860 0.008490 
#    y -0.008860 1.772150 0.030330 
#    z 0.008490 0.030330 1.760910 
# 
# From -- ./inp_files/379440.got.cif
#   From: 2010.05.17/outbox.cif.g08.bks.cpg/sg2_190_cif.got.tgz:379440.got - 2010.06.03 11:33:40.
