data_PCOD9028769
_publ_section_title
;
Structure prediction by ZEFSAII (Michael W. Deem and Ramdas Pophale) SiO2 
 PCOD9028769
Probable space group: P -1
;
_chemical_formula_sum "Si O2"
_cell_formula_units_Z 13
_cell_length_a 6.943511
_cell_length_b 12.034368
_cell_length_c 11.443955
_cell_angle_alpha 45.239256
_cell_angle_beta 116.941729
_cell_angle_gamma 124.146820
_cell_volume 559.213219
_symmetry_space_group_name_H-M "P -1"
_symmetry_group_IT_number 2
_symmetry_cell_setting 'triclinic'
loop_
_space_group_symop_operation_xyz
x,y,z
-x,-y,-z
loop_
_atom_site_type_symbol
_atom_site_label
_atom_site_fract_x
_atom_site_fract_y
_atom_site_fract_z
Si Si1 0.630355 0.983173 0.664419
Si Si2 0.610945 0.200550 0.906529
Si Si3 0.933956 0.715508 0.518220
Si Si4 0.000000 0.500000 0.500000
Si Si5 0.526815 0.241263 0.589623
Si Si6 0.477340 0.348927 0.978602
Si Si7 0.890667 0.532816 0.108311
O O1 0.520518 0.059447 0.681062
O O2 0.896463 0.100766 0.619342
O O3 0.500000 0.000000 0.500000
O O4 0.592821 0.796657 0.833196
O O5 0.604643 0.270750 0.723927
O O6 0.879263 0.293272 0.955187
O O7 0.468495 0.260610 0.917692
O O8 0.500000 0.000000 0.000000
O O9 0.712389 0.733713 0.505327
O O10 0.871541 0.599909 0.471156
O O11 0.040794 0.618540 0.710353
O O12 0.254102 0.634841 0.513408
O O13 0.740106 0.476290 0.990018
O O14 0.292158 0.435246 0.877471
#
# Coordination Sequence:
#
# PCOD9028769 Si02
#       7
#     2   2   2   1   2   2   2
#     4  11  24  46  70 101 140 183 241 290 351 416
#     4  12  26  45  69 104 145 181 238 290 356 421
#     4  11  24  42  71 104 138 178 235 294 349 413
#     4  10  22  42  64  98 138 172 228 278 358 406
#     4  11  25  43  70 106 135 183 234 300 351 416
#     4  11  26  48  71 101 143 193 233 285 355 421
#     4  11  26  48  69 102 143 191 234 288 350 426
#
# _framework density 23.246946999999999
#
# number of rings (size 3 to 8) (size 9 to 14) (size 15 to 20)
#    0.000    0.923    4.615    0.923    4.308    2.462 
#    2.769    0.000    0.000    0.000    0.000    0.000 
#    0.000    0.000    0.000    0.000    0.000    0.000 
#
# Total GULP energy -72409.290089 kJ/mol
# GULP energy per Si atom -5569.945391 kJ/mol
# Density = 2.319404 g / cm^3
# Si number density = 23.246947 Si / 1000 Ang^3
#
#
#
# Elastic Constant Matrix: (Units=GPa)
#
#
# Indices 1 2 3 4 5 6 
#
# 1 145.5710 39.8084 30.1659 -11.9896 24.4649 2.5901
# 2 39.8084 94.8640 34.5413 -13.3188 -8.3409 0.8836
# 3 30.1659 34.5413 77.6996 -15.0670 1.1897 8.3535
# 4 -11.9896 -13.3188 -15.0670 26.4549 -8.3576 -18.3416
# 5 24.4649 -8.3409 1.1897 -8.3576 29.5490 2.7503
# 6 2.5901 0.8836 8.3535 -18.3416 2.7503 39.9989
#
#
#
# Elastic Compliance Matrix: (Units=1/GPa)
#
#
# Indices 1 2 3 4 5 6 
#
# 1 0.010145 -0.004778 -0.002118 -0.002747 -0.010379 -0.000655
# 2 -0.004778 0.016522 -0.004089 0.010901 0.011401 0.005013
# 3 -0.002118 -0.004089 0.016872 0.007074 0.001938 -0.000185
# 4 -0.002747 0.010901 0.007074 0.075191 0.023418 0.031329
# 5 -0.010379 0.011401 0.001938 0.023418 0.051527 0.007211
# 6 -0.000655 0.005013 -0.000185 0.031329 0.007211 0.038841
#
#
# Mechanical properties :
#
#
# Convention : Reuss Voigt Hill
#
# Bulk Modulus (GPa) = 46.36469 58.57400 52.46935
# Shear Modulus (GPa) = 20.98562 33.44181 27.21372
#
# Velocity S-wave (km/s) = 3.00780 3.79693 3.42517
# Velocity P-wave (km/s) = 5.66129 6.66884 6.18561
#
# Compressibility (1/GPa) = 0.02156814
#
# Stress axis : x y z
#
# Youngs Moduli (GPa) = 98.57412 60.52671 59.26868
#
# Poissons Ratio (x) = 0.28920 0.12552
# Poissons Ratio (y) = 0.47099 0.24237
# Poissons Ratio (z) = 0.20876 0.24752
#
# Static dielectric constant tensor:
#      x y z
#    x 1.883180 0.053700 -0.059200 
#    y 0.053700 1.957170 -0.064680 
#    z -0.059200 -0.064680 1.947630 
# 
# From -- ./inp_files/65389.got.cif
#   From: 2010.05.17/outbox.cif.g08.bks.cpg/sg2_33_cif.got.tgz:65389.got - 2010.06.03 11:33:40.
