data_PCOD9028796
_publ_section_title
;
Structure prediction by ZEFSAII (Michael W. Deem and Ramdas Pophale) SiO2 
 PCOD9028796
Probable space group: P -1
;
_chemical_formula_sum "Si O2"
_cell_formula_units_Z 14
_cell_length_a 22.144547
_cell_length_b 7.873376
_cell_length_c 6.921701
_cell_angle_alpha 118.817237
_cell_angle_beta 141.736624
_cell_angle_gamma 48.814815
_cell_volume 560.857198
_symmetry_space_group_name_H-M "P -1"
_symmetry_group_IT_number 2
_symmetry_cell_setting 'triclinic'
loop_
_space_group_symop_operation_xyz
x,y,z
-x,-y,-z
loop_
_atom_site_type_symbol
_atom_site_label
_atom_site_fract_x
_atom_site_fract_y
_atom_site_fract_z
Si Si1 0.378366 0.610579 0.158984
Si Si2 0.233635 0.353710 0.129632
Si Si3 0.855320 0.218436 0.230448
Si Si4 0.545906 0.796024 0.153678
Si Si5 0.686537 0.030942 0.119749
Si Si6 0.040186 0.302838 0.827798
Si Si7 0.131217 0.847096 0.302099
O O1 0.500000 0.500000 0.500000
O O2 0.278905 0.643766 0.068771
O O3 0.394585 0.439714 0.937114
O O4 0.338887 0.847382 0.086522
O O5 0.354557 0.224524 0.474059
O O6 0.183563 0.616411 0.187553
O O7 0.136007 0.313511 0.950448
O O8 0.268206 0.231251 0.942628
O O9 0.861466 0.198231 0.472386
O O10 0.932698 0.328939 0.449677
O O11 0.904418 0.966023 0.129804
O O12 0.433056 0.839851 0.002412
O O13 0.500000 0.000000 0.000000
O O14 0.788735 0.050040 0.476462
O O15 0.000000 0.500000 0.000000
O O16 0.000000 0.000000 0.000000
#
# Coordination Sequence:
#
# PCOD9028796 Si02
#       7
#     2   2   2   2   2   2   2
#     4  11  22  45  74 104 144 186 234 290 355 427
#     4  12  23  45  74  99 142 186 236 294 353 424
#     4  10  22  42  65 101 140 178 229 286 344 415
#     4  12  26  45  72 109 140 186 245 292 361 428
#     4  11  25  50  71 102 149 186 232 304 353 418
#     4  11  20  39  70  94 131 181 223 286 346 399
#     4  11  24  45  68  99 139 190 234 284 357 422
#
# _framework density 24.961790000000001
#
# number of rings (size 3 to 8) (size 9 to 14) (size 15 to 20)
#    0.000    0.857    7.143    1.714    0.000    1.714 
#    5.143    0.000    0.000    0.000    0.000    0.000 
#    0.000    0.000    0.000    0.000    0.000    0.000 
#
# Total GULP energy -78368.778661 kJ/mol
# GULP energy per Si atom -5597.769904 kJ/mol
# Density = 2.490498 g / cm^3
# Si number density = 24.961790 Si / 1000 Ang^3
#
#
#
# Elastic Constant Matrix: (Units=GPa)
#
#
# Indices 1 2 3 4 5 6 
#
# 1 86.1989 22.6483 36.1240 -0.6722 32.2376 -20.3003
# 2 22.6483 192.9326 72.1409 18.4130 13.1644 -32.0698
# 3 36.1240 72.1409 204.7338 -7.9316 42.8647 -5.6334
# 4 -0.6722 18.4130 -7.9316 59.9564 -11.9797 0.3360
# 5 32.2376 13.1644 42.8647 -11.9797 47.7269 -6.7109
# 6 -20.3003 -32.0698 -5.6334 0.3360 -6.7109 45.7333
#
#
#
# Elastic Compliance Matrix: (Units=1/GPa)
#
#
# Indices 1 2 3 4 5 6 
#
# 1 0.017329 0.000237 -0.000812 -0.002161 -0.010712 0.006202
# 2 0.000237 0.007148 -0.002573 -0.002514 0.000230 0.004853
# 3 -0.000812 -0.002573 0.006977 0.000692 -0.005125 -0.002062
# 4 -0.002161 -0.002514 0.000692 0.018720 0.005964 -0.001900
# 5 -0.010712 0.000230 -0.005125 0.005964 0.034189 -0.000252
# 6 0.006202 0.004853 -0.002062 -0.001900 -0.000252 0.027745
#
#
# Mechanical properties :
#
#
# Convention : Reuss Voigt Hill
#
# Bulk Modulus (GPa) = 39.74488 82.85464 61.29976
# Shear Modulus (GPa) = 39.43548 54.21346 46.82447
#
# Velocity S-wave (km/s) = 3.97902 4.66538 4.33580
# Velocity P-wave (km/s) = 6.08827 7.89212 7.04814
#
# Compressibility (1/GPa) = 0.02516047
#
# Stress axis : x y z
#
# Youngs Moduli (GPa) = 57.70754 139.89437 143.32506
#
# Poissons Ratio (x) = -0.03321 0.11631
# Poissons Ratio (y) = -0.01370 0.36873
# Poissons Ratio (z) = 0.04683 0.35990
#
# Static dielectric constant tensor:
#      x y z
#    x 2.058940 0.095000 -0.062680 
#    y 0.095000 2.202760 -0.054830 
#    z -0.062680 -0.054830 2.057470 
# 
# From -- ./inp_files/356558.got.cif
#   From: 2010.05.17/outbox.cif.g08.bks.cpg/sg2_179_cif.got.tgz:356558.got - 2010.06.03 11:33:40.
