data_PCOD9028313
_publ_section_title
;
Structure prediction by ZEFSAII (Michael W. Deem and Ramdas Pophale) SiO2 
 PCOD9028313
Probable space group: P -1
;
_chemical_formula_sum "Si O2"
_cell_formula_units_Z 14
_cell_length_a 18.190420
_cell_length_b 9.542715
_cell_length_c 20.890985
_cell_angle_alpha 34.853179
_cell_angle_beta 18.994789
_cell_angle_gamma 44.863398
_cell_volume 629.044357
_symmetry_space_group_name_H-M "P -1"
_symmetry_group_IT_number 2
_symmetry_cell_setting 'triclinic'
loop_
_space_group_symop_operation_xyz
x,y,z
-x,-y,-z
loop_
_atom_site_type_symbol
_atom_site_label
_atom_site_fract_x
_atom_site_fract_y
_atom_site_fract_z
Si Si1 0.475220 0.197165 0.173275
Si Si2 0.667056 0.507822 0.126216
Si Si3 0.563745 0.667000 0.288084
Si Si4 0.305347 0.142119 0.468328
Si Si5 0.158247 0.536104 0.771312
Si Si6 0.019296 0.531173 0.397306
Si Si7 0.054910 0.005028 0.377661
O O1 0.449373 0.289190 0.231395
O O2 0.206911 0.066810 0.414094
O O3 0.572424 0.957554 0.183555
O O4 0.700674 0.409628 0.872844
O O5 0.893487 0.453677 0.990825
O O6 0.553309 0.603264 0.245413
O O7 0.479850 0.248863 0.344596
O O8 0.770937 0.738206 0.900243
O O9 0.328985 0.504340 0.584763
O O10 0.788710 0.620085 0.154313
O O11 0.084396 0.245010 0.620065
O O12 0.233829 0.838443 0.620788
O O13 0.000000 0.500000 0.500000
O O14 0.863834 0.245092 0.605006
O O15 0.000000 0.000000 0.500000
#
# Coordination Sequence:
#
# PCOD9028313 Si02
#       7
#     2   2   2   2   2   2   2
#     4  11  23  46  64  93 138 174 216 280 327 388
#     4  12  24  43  68 100 135 171 227 272 323 401
#     4  10  22  41  75  93 134 179 214 273 336 394
#     4  11  25  42  67  98 134 172 220 274 325 396
#     4  10  22  48  66 100 137 172 216 273 342 386
#     4  12  24  41  64  93 126 179 224 265 329 388
#     4  12  26  42  66  96 138 178 220 274 328 389
#
# _framework density 22.255981999999999
#
# number of rings (size 3 to 8) (size 9 to 14) (size 15 to 20)
#    0.000    0.857    4.286    3.429    4.000    2.286 
#    0.000    6.429    0.000    0.000    0.000    0.000 
#    0.000    0.000    0.000    0.000    0.000    0.000 
#
# Total GULP energy -78191.139198 kJ/mol
# GULP energy per Si atom -5585.081371 kJ/mol
# Density = 2.220533 g / cm^3
# Si number density = 22.255982 Si / 1000 Ang^3
#
#
#
# Elastic Constant Matrix: (Units=GPa)
#
#
# Indices 1 2 3 4 5 6 
#
# 1 121.8895 41.9191 35.4152 2.1498 -2.7180 28.9353
# 2 41.9191 99.0638 13.7976 12.2807 -14.6814 2.6111
# 3 35.4152 13.7976 76.5888 22.4613 -7.9048 9.5430
# 4 2.1498 12.2807 22.4613 28.1042 4.6325 10.2942
# 5 -2.7180 -14.6814 -7.9048 4.6325 37.3185 7.0181
# 6 28.9353 2.6111 9.5430 10.2942 7.0181 44.8127
#
#
#
# Elastic Compliance Matrix: (Units=1/GPa)
#
#
# Indices 1 2 3 4 5 6 
#
# 1 0.015264 -0.007089 -0.008708 0.013123 -0.003252 -0.010094
# 2 -0.007089 0.014917 0.004333 -0.012235 0.006941 0.004509
# 3 -0.008708 0.004333 0.023247 -0.022732 0.007991 0.004390
# 4 0.013123 -0.012235 -0.022732 0.066227 -0.013893 -0.015957
# 5 -0.003252 0.006941 0.007991 -0.013893 0.033083 -0.001996
# 6 -0.010094 0.004509 0.004390 -0.015957 -0.001996 0.031613
#
#
# Mechanical properties :
#
#
# Convention : Reuss Voigt Hill
#
# Bulk Modulus (GPa) = 32.78491 53.31180 43.04835
# Shear Modulus (GPa) = 22.99423 35.80777 29.40100
#
# Velocity S-wave (km/s) = 3.21778 4.01547 3.63855
# Velocity P-wave (km/s) = 5.34493 6.74571 6.08576
#
# Compressibility (1/GPa) = 0.03050184
#
# Stress axis : x y z
#
# Youngs Moduli (GPa) = 65.51167 67.03624 43.01631
#
# Poissons Ratio (x) = 0.47523 0.37458
# Poissons Ratio (y) = 0.46442 -0.18641
# Poissons Ratio (z) = 0.57046 -0.29050
#
# Static dielectric constant tensor:
#      x y z
#    x 1.819660 -0.056850 0.062130 
#    y -0.056850 1.841860 -0.014870 
#    z 0.062130 -0.014870 1.891220 
# 
# From -- ./inp_files/313607.got.cif
#   From: 2010.05.17/outbox.cif.g08.bks.cpg/sg2_157_cif.got.tgz:313607.got - 2010.06.03 11:33:40.
