data_PCOD9028822
_publ_section_title
;
Structure prediction by ZEFSAII (Michael W. Deem and Ramdas Pophale) SiO2 
 PCOD9028822
Probable space group: P -1
;
_chemical_formula_sum "Si O2"
_cell_formula_units_Z 16
_cell_length_a 12.664984
_cell_length_b 8.463685
_cell_length_c 19.810474
_cell_angle_alpha 52.446810
_cell_angle_beta 22.380084
_cell_angle_gamma 59.387431
_cell_volume 630.515596
_symmetry_space_group_name_H-M "P -1"
_symmetry_group_IT_number 2
_symmetry_cell_setting 'triclinic'
loop_
_space_group_symop_operation_xyz
x,y,z
-x,-y,-z
loop_
_atom_site_type_symbol
_atom_site_label
_atom_site_fract_x
_atom_site_fract_y
_atom_site_fract_z
Si Si1 0.253627 0.648938 0.388277
Si Si2 0.705175 0.229576 0.391515
Si Si3 0.272359 0.166750 0.041258
Si Si4 0.559163 0.204856 0.001761
Si Si5 0.333514 0.345973 0.225405
Si Si6 0.797444 0.264858 0.069432
Si Si7 0.578417 0.750086 0.582186
Si Si8 0.578503 0.782190 0.300280
O O1 0.047409 0.284508 0.451465
O O2 0.226484 0.406092 0.470039
O O3 0.417564 0.731258 0.338397
O O4 0.449885 0.723361 0.189830
O O5 0.488616 0.272998 0.451398
O O6 0.623716 0.294044 0.496940
O O7 0.015016 0.285228 0.161867
O O8 0.685548 0.985478 0.471458
O O9 0.220235 0.947143 0.092563
O O10 0.347237 0.143134 0.081161
O O11 0.687595 0.440224 0.853287
O O12 0.385242 0.191831 0.176734
O O13 0.607543 0.369553 0.103732
O O14 0.704191 0.301924 0.191247
O O15 0.684183 0.023896 0.184247
O O16 0.130972 0.305869 0.848912
#
# Coordination Sequence:
#
# PCOD9028822 Si02
#       8
#     2   2   2   2   2   2   2   2
#     4  12  25  40  65  98 127 161 210 262 309 367
#     4  10  22  42  65  89 125 169 207 254 314 373
#     4  11  23  40  63  92 127 164 208 260 312 368
#     4  10  24  41  61  89 127 167 208 254 312 372
#     4  11  24  42  65  92 127 168 208 255 312 372
#     4  10  22  42  65  92 127 167 208 255 312 372
#     4  10  23  40  63  91 125 164 209 255 311 371
#     4  10  23  41  65  95 127 163 208 259 312 369
#
# _framework density 25.376058
#
# number of rings (size 3 to 8) (size 9 to 14) (size 15 to 20)
#    0.000    1.500    0.000    3.750    0.000   17.500 
#    0.000    0.000    0.000    0.000    0.000    0.000 
#    0.000    0.000    0.000    0.000    0.000    0.000 
#
# Total GULP energy -89643.892936 kJ/mol
# GULP energy per Si atom -5602.743308 kJ/mol
# Density = 2.531830 g / cm^3
# Si number density = 25.376058 Si / 1000 Ang^3
#
#
#
# Elastic Constant Matrix: (Units=GPa)
#
#
# Indices 1 2 3 4 5 6 
#
# 1 105.3295 30.0927 32.4460 23.3998 8.0645 14.6617
# 2 30.0927 101.3213 37.8714 21.4136 8.5285 2.1320
# 3 32.4460 37.8714 125.9174 36.6001 5.6327 -1.5623
# 4 23.3998 21.4136 36.6001 48.2196 -1.3569 1.6174
# 5 8.0645 8.5285 5.6327 -1.3569 36.6412 5.0924
# 6 14.6617 2.1320 -1.5623 1.6174 5.0924 36.1196
#
#
#
# Elastic Compliance Matrix: (Units=1/GPa)
#
#
# Indices 1 2 3 4 5 6 
#
# 1 0.012085 -0.002051 -0.001382 -0.003797 -0.001490 -0.004464
# 2 -0.002051 0.012057 -0.002188 -0.002776 -0.002185 0.000458
# 3 -0.001382 -0.002188 0.011019 -0.006815 -0.001364 0.001664
# 4 -0.003797 -0.002776 -0.006815 0.029103 0.003664 -0.000410
# 5 -0.001490 -0.002185 -0.001364 0.003664 0.028970 -0.003574
# 6 -0.004464 0.000458 0.001664 -0.000410 -0.003574 0.030065
#
#
# Mechanical properties :
#
#
# Convention : Reuss Voigt Hill
#
# Bulk Modulus (GPa) = 41.80795 59.26539 50.53667
# Shear Modulus (GPa) = 35.08433 39.67328 37.37881
#
# Velocity S-wave (km/s) = 3.72233 3.95829 3.84213
# Velocity P-wave (km/s) = 5.91485 6.65555 6.29610
#
# Compressibility (1/GPa) = 0.02391890
#
# Stress axis : x y z
#
# Youngs Moduli (GPa) = 82.74943 82.93735 90.75608
#
# Poissons Ratio (x) = 0.17008 0.12545
# Poissons Ratio (y) = 0.16970 0.19855
# Poissons Ratio (z) = 0.11439 0.18145
#
# Static dielectric constant tensor:
#      x y z
#    x 1.902430 -0.006070 -0.017220 
#    y -0.006070 2.054220 -0.075290 
#    z -0.017220 -0.075290 2.054580 
# 
# From -- ./inp_files/565796.got.cif
#   From: 2010.05.17/outbox.cif.g08.bks.cpg/sg2_283_cif.got.tgz:565796.got - 2010.06.03 11:33:40.
