data_PCOD9028057
_publ_section_title
;
Structure prediction by ZEFSAII (Michael W. Deem and Ramdas Pophale) SiO2 
 PCOD9028057
Probable space group: P -1
;
_chemical_formula_sum "Si O2"
_cell_formula_units_Z 16
_cell_length_a 6.504649
_cell_length_b 13.177546
_cell_length_c 22.054356
_cell_angle_alpha 157.351228
_cell_angle_beta 105.502790
_cell_angle_gamma 77.529810
_cell_volume 699.059437
_symmetry_space_group_name_H-M "P -1"
_symmetry_group_IT_number 2
_symmetry_cell_setting 'triclinic'
loop_
_space_group_symop_operation_xyz
x,y,z
-x,-y,-z
loop_
_atom_site_type_symbol
_atom_site_label
_atom_site_fract_x
_atom_site_fract_y
_atom_site_fract_z
Si Si1 0.921222 0.249445 0.164548
Si Si2 0.314887 0.930884 0.833965
Si Si3 0.629875 0.251308 0.390542
Si Si4 0.475098 0.242621 0.812487
Si Si5 0.677396 0.440495 0.816507
Si Si6 0.641685 0.697010 0.386804
Si Si7 0.022136 0.110970 0.632172
Si Si8 0.658630 0.511036 0.652315
O O1 0.862072 0.166159 0.183499
O O2 0.720388 0.406484 0.218940
O O3 0.126056 0.441904 0.268441
O O4 0.000000 0.000000 0.000000
O O5 0.255301 0.845929 0.713477
O O6 0.530194 0.773668 0.776455
O O7 0.352520 0.247367 0.014332
O O8 0.500000 0.500000 0.500000
O O9 0.753538 0.387914 0.531744
O O10 0.496671 0.003090 0.275277
O O11 0.638975 0.322921 0.815649
O O12 0.247206 0.164881 0.715580
O O13 0.500000 0.500000 0.000000
O O14 0.509259 0.274610 0.667412
O O15 0.910944 0.384933 0.780584
O O16 0.501824 0.679070 0.426583
O O17 0.845853 0.894631 0.527004
O O18 0.000000 0.000000 0.500000
#
# Coordination Sequence:
#
# PCOD9028057 Si02
#       8
#     2   2   2   2   2   2   2   2
#     4  11  23  39  67 103 141 187 244 304 364 439
#     4  10  23  42  63 103 139 193 241 296 371 435
#     4  10  22  45  72 100 140 189 240 300 363 433
#     4  12  26  49  76 107 152 196 247 300 373 447
#     4  12  25  44  70 102 151 190 243 306 366 439
#     4  11  24  42  69 105 143 187 246 304 370 433
#     4  12  28  44  73 109 140 193 249 301 372 437
#     4  10  22  41  70  99 143 190 242 304 366 430
#
# _framework density 22.887896000000001
#
# number of rings (size 3 to 8) (size 9 to 14) (size 15 to 20)
#    0.000    1.000    2.500    3.375    5.250    4.000 
#    0.000    2.500    0.000    0.000    0.000    0.000 
#    0.000    0.000    0.000    0.000    0.000    0.000 
#
# Total GULP energy -89107.757018 kJ/mol
# GULP energy per Si atom -5569.234814 kJ/mol
# Density = 2.283580 g / cm^3
# Si number density = 22.887896 Si / 1000 Ang^3
#
#
#
# Elastic Constant Matrix: (Units=GPa)
#
#
# Indices 1 2 3 4 5 6 
#
# 1 84.7224 40.8371 42.3214 -15.0950 -6.3220 19.7548
# 2 40.8371 105.9600 43.9369 4.4085 -13.2320 17.7114
# 3 42.3214 43.9369 141.6681 -0.3493 -22.4694 1.7935
# 4 -15.0950 4.4085 -0.3493 41.9685 9.0983 1.6469
# 5 -6.3220 -13.2320 -22.4694 9.0983 38.6377 -2.3124
# 6 19.7548 17.7114 1.7935 1.6469 -2.3124 28.6923
#
#
#
# Elastic Compliance Matrix: (Units=1/GPa)
#
#
# Indices 1 2 3 4 5 6 
#
# 1 0.020866 -0.004781 -0.005240 0.009340 -0.004186 -0.011961
# 2 -0.004781 0.013481 -0.002206 -0.003663 0.003149 -0.004428
# 3 -0.005240 -0.002206 0.010066 -0.002894 0.005217 0.004927
# 4 0.009340 -0.003663 -0.002894 0.029704 -0.008786 -0.006402
# 5 -0.004186 0.003149 0.005217 -0.008786 0.031597 0.003663
# 6 -0.011961 -0.004428 0.004927 -0.006402 0.003663 0.046176
#
#
# Mechanical properties :
#
#
# Convention : Reuss Voigt Hill
#
# Bulk Modulus (GPa) = 50.10368 65.17126 57.63747
# Shear Modulus (GPa) = 27.32281 35.54338 31.43309
#
# Velocity S-wave (km/s) = 3.45884 3.94500 3.70989
# Velocity P-wave (km/s) = 6.15548 7.02045 6.60214
#
# Compressibility (1/GPa) = 0.01995861
#
# Stress axis : x y z
#
# Youngs Moduli (GPa) = 47.92450 74.18036 99.34057
#
# Poissons Ratio (x) = 0.35465 0.52056
# Poissons Ratio (y) = 0.22913 0.21916
# Poissons Ratio (z) = 0.25113 0.16366
#
# Static dielectric constant tensor:
#      x y z
#    x 1.852550 -0.021800 -0.008850 
#    y -0.021800 1.951060 -0.009850 
#    z -0.008850 -0.009850 2.064770 
# 
# From -- ./inp_files/604788.got.cif
#   From: 2010.05.17/outbox.cif.g08.bks.cpg/sg2_303_cif.got.tgz:604788.got - 2010.06.03 11:33:40.
