data_PCOD9028843
_publ_section_title
;
Structure prediction by ZEFSAII (Michael W. Deem and Ramdas Pophale) SiO2 
 PCOD9028843
Probable space group: P -1
;
_chemical_formula_sum "Si O2"
_cell_formula_units_Z 14
_cell_length_a 12.085679
_cell_length_b 22.293461
_cell_length_c 12.708465
_cell_angle_alpha 160.678586
_cell_angle_beta 135.546063
_cell_angle_gamma 35.208676
_cell_volume 623.103894
_symmetry_space_group_name_H-M "P -1"
_symmetry_group_IT_number 2
_symmetry_cell_setting 'triclinic'
loop_
_space_group_symop_operation_xyz
x,y,z
-x,-y,-z
loop_
_atom_site_type_symbol
_atom_site_label
_atom_site_fract_x
_atom_site_fract_y
_atom_site_fract_z
Si Si1 0.932750 0.669546 0.637500
Si Si2 0.495385 0.975328 0.829664
Si Si3 0.004096 0.962731 0.646823
Si Si4 0.651801 0.288753 0.676303
Si Si5 0.437712 0.638110 0.930327
Si Si6 0.178179 0.518719 0.161182
Si Si7 0.301183 0.445155 0.363976
O O1 0.720383 0.753257 0.589548
O O2 0.000000 0.500000 0.500000
O O3 0.096085 0.549676 0.459601
O O4 0.922378 0.884712 0.026752
O O5 0.343521 0.917867 0.619327
O O6 0.500000 0.000000 0.000000
O O7 0.445866 0.183301 0.070281
O O8 0.121957 0.817387 0.380116
O O9 0.081666 0.775463 0.480987
O O10 0.762039 0.142809 0.787086
O O11 0.529041 0.409239 0.683397
O O12 0.500000 0.500000 0.000000
O O13 0.620672 0.646411 0.047563
O O14 0.374423 0.586743 0.693144
O O15 0.256810 0.472549 0.256768
O O16 0.000000 0.500000 0.000000
#
# Coordination Sequence:
#
# PCOD9028843 Si02
#       7
#     2   2   2   2   2   2   2
#     4  11  20  36  67 104 133 166 221 279 336 403
#     4  12  19  38  67  95 136 172 219 274 337 402
#     4  10  22  42  65  90 133 175 222 279 334 394
#     4  11  23  38  62 100 139 171 215 279 347 406
#     4  10  22  43  69  93 127 175 230 282 333 403
#     4  11  26  44  63  94 137 179 232 280 336 401
#     4  11  23  40  69  99 129 178 229 277 329 402
#
# _framework density 22.468162
#
# number of rings (size 3 to 8) (size 9 to 14) (size 15 to 20)
#    0.000    1.143    4.286    2.143    0.000    8.000 
#    0.000    0.000    0.000    0.000    0.000    0.000 
#    0.000    0.000    0.000    0.000    0.000    0.000 
#
# Total GULP energy -78189.571566 kJ/mol
# GULP energy per Si atom -5584.969398 kJ/mol
# Density = 2.241702 g / cm^3
# Si number density = 22.468162 Si / 1000 Ang^3
#
#
#
# Elastic Constant Matrix: (Units=GPa)
#
#
# Indices 1 2 3 4 5 6 
#
# 1 154.0323 59.4014 51.0909 12.9134 -1.9972 -25.5004
# 2 59.4014 108.9036 31.6579 16.0823 -2.2935 -5.2373
# 3 51.0909 31.6579 76.6293 17.2928 0.4025 5.0013
# 4 12.9134 16.0823 17.2928 39.2326 -3.4872 -4.6781
# 5 -1.9972 -2.2935 0.4025 -3.4872 36.5620 16.0041
# 6 -25.5004 -5.2373 5.0013 -4.6781 16.0041 41.4803
#
#
#
# Elastic Compliance Matrix: (Units=1/GPa)
#
#
# Indices 1 2 3 4 5 6 
#
# 1 0.011791 -0.004273 -0.007068 0.001768 -0.003338 0.009049
# 2 -0.004273 0.012336 -0.001442 -0.003122 0.000968 -0.001621
# 3 -0.007068 -0.001442 0.020479 -0.006931 0.002456 -0.008726
# 4 0.001768 -0.003122 -0.006931 0.029861 0.000821 0.004580
# 5 -0.003338 0.000968 0.002456 0.000821 0.033948 -0.015231
# 6 0.009049 -0.001621 -0.008726 0.004580 -0.015231 0.036911
#
#
# Mechanical properties :
#
#
# Convention : Reuss Voigt Hill
#
# Bulk Modulus (GPa) = 52.52358 69.31841 60.92100
# Shear Modulus (GPa) = 28.21066 36.61598 32.41332
#
# Velocity S-wave (km/s) = 3.54727 4.04131 3.80232
# Velocity P-wave (km/s) = 6.34075 7.25914 6.81543
#
# Compressibility (1/GPa) = 0.01903907
#
# Stress axis : x y z
#
# Youngs Moduli (GPa) = 84.81129 81.06497 48.83073
#
# Poissons Ratio (x) = 0.34638 0.34514
# Poissons Ratio (y) = 0.36239 0.07042
# Poissons Ratio (z) = 0.59946 0.11691
#
# Static dielectric constant tensor:
#      x y z
#    x 1.852890 -0.109090 -0.069880 
#    y -0.109090 1.000040 -0.377910 
#    z -0.069880 -0.377910 1.700460 
# 
# From -- ./inp_files/438626.got.cif
#   From: 2010.05.17/outbox.cif.g08.bks.cpg/sg2_220_cif.got.tgz:438626.got - 2010.06.03 11:33:40.
