data_PCOD9028660
_publ_section_title
;
Structure prediction by ZEFSAII (Michael W. Deem and Ramdas Pophale) SiO2 
 PCOD9028660
Probable space group: P -1
;
_chemical_formula_sum "Si O2"
_cell_formula_units_Z 14
_cell_length_a 14.135521
_cell_length_b 9.360862
_cell_length_c 19.305649
_cell_angle_alpha 36.862478
_cell_angle_beta 153.501181
_cell_angle_gamma 135.944686
_cell_volume 683.717361
_symmetry_space_group_name_H-M "P -1"
_symmetry_group_IT_number 2
_symmetry_cell_setting 'triclinic'
loop_
_space_group_symop_operation_xyz
x,y,z
-x,-y,-z
loop_
_atom_site_type_symbol
_atom_site_label
_atom_site_fract_x
_atom_site_fract_y
_atom_site_fract_z
Si Si1 0.110313 0.789633 0.272332
Si Si2 0.031630 0.880725 0.642368
Si Si3 0.926476 0.660871 0.953062
Si Si4 0.551534 0.236556 0.395143
Si Si5 0.745426 0.449670 0.666012
Si Si6 0.880774 0.270229 0.478470
Si Si7 0.734902 0.431819 0.168818
O O1 0.265305 0.647935 0.481069
O O2 0.229666 0.772955 0.283672
O O3 0.890709 0.653481 0.172757
O O4 0.062015 0.054690 0.162993
O O5 0.240549 0.732191 0.819383
O O6 0.842529 0.688648 0.602396
O O7 0.000000 0.000000 0.500000
O O8 0.032761 0.048594 0.645149
O O9 0.672053 0.631442 0.812568
O O10 0.000000 0.500000 0.000000
O O11 0.093874 0.601720 0.145925
O O12 0.682364 0.195186 0.426335
O O13 0.500000 0.000000 0.500000
O O14 0.500000 0.500000 0.500000
O O15 0.802337 0.326909 0.327968
O O16 0.000000 0.500000 0.500000
O O17 0.500000 0.500000 0.000000
#
# Coordination Sequence:
#
# PCOD9028660 Si02
#       7
#     2   2   2   2   2   2   2
#     4  10  22  43  62  92 132 164 215 260 314 379
#     4   9  23  42  62  92 125 163 214 256 314 382
#     4  11  25  40  63  98 131 162 214 264 317 379
#     4  10  23  41  66  90 131 168 211 265 317 370
#     4  11  24  40  69  93 126 169 210 260 323 376
#     4  11  22  41  68  89 123 170 212 257 322 375
#     4  10  22  42  64  91 128 166 210 264 313 379
#
# _framework density 20.476296999999999
#
# number of rings (size 3 to 8) (size 9 to 14) (size 15 to 20)
#    0.000    1.714    1.429    1.286   12.000    2.286 
#    2.571    0.714    0.000    0.000    0.000    0.000 
#    0.000    0.000    0.000    0.000    0.000    0.000 
#
# Total GULP energy -77947.101012 kJ/mol
# GULP energy per Si atom -5567.650072 kJ/mol
# Density = 2.042969 g / cm^3
# Si number density = 20.476297 Si / 1000 Ang^3
#
#
#
# Elastic Constant Matrix: (Units=GPa)
#
#
# Indices 1 2 3 4 5 6 
#
# 1 158.0250 55.8635 65.9569 -6.5100 44.3636 -19.7258
# 2 55.8635 67.0224 39.0416 -6.6200 28.2050 -19.0030
# 3 65.9569 39.0416 132.0975 18.7144 35.0836 -9.6532
# 4 -6.5100 -6.6200 18.7144 25.9385 -0.1961 3.9145
# 5 44.3636 28.2050 35.0836 -0.1961 51.5066 -3.6815
# 6 -19.7258 -19.0030 -9.6532 3.9145 -3.6815 47.2320
#
#
#
# Elastic Compliance Matrix: (Units=1/GPa)
#
#
# Indices 1 2 3 4 5 6 
#
# 1 0.010914 -0.004448 -0.003354 0.003776 -0.004565 0.001414
# 2 -0.004448 0.027073 -0.004409 0.007876 -0.007467 0.006899
# 3 -0.003354 -0.004409 0.013179 -0.011532 -0.003704 0.000186
# 4 0.003776 0.007876 -0.011532 0.050095 0.000356 -0.001735
# 5 -0.004565 -0.007467 -0.003704 0.000356 0.029719 -0.003381
# 6 0.001414 0.006899 0.000186 -0.001735 -0.003381 0.024457
#
#
# Mechanical properties :
#
#
# Convention : Reuss Voigt Hill
#
# Bulk Modulus (GPa) = 37.39224 75.42989 56.41106
# Shear Modulus (GPa) = 26.48688 38.02094 32.25391
#
# Velocity S-wave (km/s) = 3.60048 4.31377 3.97316
# Velocity P-wave (km/s) = 5.96536 7.85679 6.97548
#
# Compressibility (1/GPa) = 0.02674352
#
# Stress axis : x y z
#
# Youngs Moduli (GPa) = 91.62475 36.93749 75.87855
#
# Poissons Ratio (x) = 0.16431 0.25450
# Poissons Ratio (y) = 0.40758 0.33453
# Poissons Ratio (z) = 0.30731 0.16285
#
# Static dielectric constant tensor:
#      x y z
#    x 1.757510 -0.018470 -0.001100 
#    y -0.018470 1.818210 -0.069100 
#    z -0.001100 -0.069100 1.857130 
# 
# From -- ./inp_files/195390.got.cif
#   From: 2010.05.17/outbox.cif.g08.bks.cpg/sg2_98_cif.got.tgz:195390.got - 2010.06.03 11:33:40.
