data_PCOD9028503
_publ_section_title
;
Structure prediction by ZEFSAII (Michael W. Deem and Ramdas Pophale) SiO2 
 PCOD9028503
Probable space group: P -1
;
_chemical_formula_sum "Si O2"
_cell_formula_units_Z 16
_cell_length_a 12.269095
_cell_length_b 9.495340
_cell_length_c 11.630608
_cell_angle_alpha 139.990656
_cell_angle_beta 53.096195
_cell_angle_gamma 130.609978
_cell_volume 646.737669
_symmetry_space_group_name_H-M "P -1"
_symmetry_group_IT_number 2
_symmetry_cell_setting 'triclinic'
loop_
_space_group_symop_operation_xyz
x,y,z
-x,-y,-z
loop_
_atom_site_type_symbol
_atom_site_label
_atom_site_fract_x
_atom_site_fract_y
_atom_site_fract_z
Si Si1 0.396211 0.586231 0.952778
Si Si2 0.318178 0.083542 0.698784
Si Si3 0.404654 0.776861 0.839790
Si Si4 0.883378 0.332650 0.554792
Si Si5 0.423586 0.744118 0.547385
Si Si6 0.111290 0.653134 0.187818
Si Si7 0.097655 0.840463 0.077766
Si Si8 0.719245 0.644272 0.775512
O O1 0.388097 0.564613 0.804645
O O2 0.568633 0.678275 0.929478
O O3 0.323633 0.330708 0.894961
O O4 0.287567 0.721932 0.131341
O O5 0.176954 0.927160 0.620688
O O6 0.337337 0.918405 0.683633
O O7 0.446841 0.155843 0.566315
O O8 0.464305 0.759671 0.664999
O O9 0.243384 0.779493 0.926297
O O10 0.500000 0.000000 0.000000
O O11 0.944108 0.331343 0.641214
O O12 0.757101 0.448143 0.701743
O O13 0.000000 0.500000 0.500000
O O14 0.322585 0.484318 0.403525
O O15 0.079700 0.812296 0.209669
O O16 0.037094 0.378312 0.025036
O O17 0.147941 0.105248 0.163290
#
# Coordination Sequence:
#
# PCOD9028503 Si02
#       8
#     2   2   2   2   2   2   2   2
#     4  10  22  42  63 101 121 164 213 260 324 372
#     4   9  21  40  61  91 126 164 211 261 316 370
#     4  11  22  38  65  96 130 166 211 259 315 380
#     4  11  26  42  64  93 129 173 217 252 320 379
#     4   9  21  39  63  92 129 164 205 267 313 368
#     4  10  25  43  65  92 134 168 209 266 316 378
#     4  10  23  43  64  96 127 167 214 261 323 371
#     4  10  22  42  66  99 126 162 217 260 316 385
#
# _framework density 24.739552
#
# number of rings (size 3 to 8) (size 9 to 14) (size 15 to 20)
#    0.000    2.000    1.250    0.750    8.750    5.000 
#    0.000    0.625    0.000    0.000    0.000    0.000 
#    0.000    0.000    0.000    0.000    0.000    0.000 
#
# Total GULP energy -89386.978954 kJ/mol
# GULP energy per Si atom -5586.686185 kJ/mol
# Density = 2.468324 g / cm^3
# Si number density = 24.739552 Si / 1000 Ang^3
#
#
#
# Elastic Constant Matrix: (Units=GPa)
#
#
# Indices 1 2 3 4 5 6 
#
# 1 67.9496 10.1270 17.4070 -9.2786 6.9547 4.7276
# 2 10.1270 93.0007 12.9445 14.7439 17.3174 6.8333
# 3 17.4070 12.9445 54.9982 -4.9879 25.7344 -0.6813
# 4 -9.2786 14.7439 -4.9879 41.5673 -7.2739 1.1546
# 5 6.9547 17.3174 25.7344 -7.2739 38.6174 -8.4198
# 6 4.7276 6.8333 -0.6813 1.1546 -8.4198 37.9126
#
#
#
# Elastic Compliance Matrix: (Units=1/GPa)
#
#
# Indices 1 2 3 4 5 6 
#
# 1 0.016885 -0.001995 -0.005407 0.004206 0.001912 -0.001547
# 2 -0.001995 0.013761 0.000642 -0.006599 -0.008326 -0.003868
# 3 -0.005407 0.000642 0.028631 -0.001293 -0.019331 -0.003181
# 4 0.004206 -0.006599 -0.001293 0.028681 0.008844 0.001732
# 5 0.001912 -0.008326 -0.019331 0.008844 0.046210 0.010908
# 6 -0.001547 -0.003868 -0.003181 0.001732 0.010908 0.029579
#
#
# Mechanical properties :
#
#
# Convention : Reuss Voigt Hill
#
# Bulk Modulus (GPa) = 21.85453 32.98951 27.42202
# Shear Modulus (GPa) = 25.97124 35.31748 30.64436
#
# Velocity S-wave (km/s) = 3.24356 3.78242 3.52331
# Velocity P-wave (km/s) = 4.78336 5.69555 5.25927
#
# Compressibility (1/GPa) = 0.04575710
#
# Stress axis : x y z
#
# Youngs Moduli (GPa) = 59.22251 72.66815 34.92721
#
# Poissons Ratio (x) = 0.14499 0.18885
# Poissons Ratio (y) = 0.11816 -0.02242
# Poissons Ratio (z) = 0.32022 -0.04665
#
# Static dielectric constant tensor:
#      x y z
#    x 1.999950 -0.008230 -0.080980 
#    y -0.008230 1.976270 -0.004160 
#    z -0.080980 -0.004160 2.050840 
# 
# From -- ./inp_files/419967.got.cif
#   From: 2010.05.17/outbox.cif.g08.bks.cpg/sg2_210_cif.got.tgz:419967.got - 2010.06.03 11:33:40.
