data_PCOD9028941
_publ_section_title
;
Structure prediction by ZEFSAII (Michael W. Deem and Ramdas Pophale) SiO2 
 PCOD9028941
Probable space group: P -1
;
_chemical_formula_sum "Si O2"
_cell_formula_units_Z 14
_cell_length_a 8.424240
_cell_length_b 9.367877
_cell_length_c 14.471030
_cell_angle_alpha 130.693391
_cell_angle_beta 45.817751
_cell_angle_gamma 126.720925
_cell_volume 598.933130
_symmetry_space_group_name_H-M "P -1"
_symmetry_group_IT_number 2
_symmetry_cell_setting 'triclinic'
loop_
_space_group_symop_operation_xyz
x,y,z
-x,-y,-z
loop_
_atom_site_type_symbol
_atom_site_label
_atom_site_fract_x
_atom_site_fract_y
_atom_site_fract_z
Si Si1 0.801402 0.405565 0.969929
Si Si2 0.688736 0.472821 0.483883
Si Si3 0.368561 0.247122 0.857733
Si Si4 0.138621 0.879304 0.682184
Si Si5 0.376672 0.292676 0.227606
Si Si6 0.337582 0.943781 0.236475
Si Si7 0.819780 0.212726 0.584738
O O1 0.739684 0.575306 0.005999
O O2 0.581647 0.313542 0.083244
O O3 0.840608 0.233574 0.818235
O O4 0.000000 0.500000 0.000000
O O5 0.500000 0.500000 0.500000
O O6 0.733116 0.260382 0.375312
O O7 0.611117 0.514640 0.636004
O O8 0.934129 0.633201 0.439855
O O9 0.436094 0.133376 0.869709
O O10 0.615984 0.314704 0.734337
O O11 0.208367 0.090198 0.788821
O O12 0.199957 0.875161 0.546797
O O13 0.867950 0.780809 0.753187
O O14 0.384112 0.132441 0.235463
O O15 0.235236 0.953874 0.384142
#
# Coordination Sequence:
#
# PCOD9028941 Si02
#       7
#     2   2   2   2   2   2   2
#     4  12  25  44  67  91 127 175 220 264 318 378
#     4  11  23  39  65 100 132 168 208 264 324 385
#     4  10  22  42  65  96 126 167 215 260 321 378
#     4  11  21  42  66  98 130 170 208 260 332 382
#     4  11  24  43  65  93 132 167 217 263 322 380
#     4  10  24  43  64  96 127 170 218 264 315 369
#     4   9  22  40  66  92 135 161 214 257 326 379
#
# _framework density 23.374896
#
# number of rings (size 3 to 8) (size 9 to 14) (size 15 to 20)
#    0.857    0.571    0.000    6.429    2.000    2.286 
#    2.571    1.429    0.000    0.000    0.000    0.000 
#    0.000    0.000    0.000    0.000    0.000    0.000 
#
# Total GULP energy -78325.067318 kJ/mol
# GULP energy per Si atom -5594.647666 kJ/mol
# Density = 2.332169 g / cm^3
# Si number density = 23.374896 Si / 1000 Ang^3
#
#
#
# Elastic Constant Matrix: (Units=GPa)
#
#
# Indices 1 2 3 4 5 6 
#
# 1 117.0927 25.0997 8.1656 -12.9220 -3.3819 7.3138
# 2 25.0997 69.6340 21.1708 7.1444 1.2595 -19.2262
# 3 8.1656 21.1708 33.8672 -5.4944 0.5624 4.1346
# 4 -12.9220 7.1444 -5.4944 27.8572 -1.2619 -4.0295
# 5 -3.3819 1.2595 0.5624 -1.2619 28.9885 14.4356
# 6 7.3138 -19.2262 4.1346 -4.0295 14.4356 37.9281
#
#
#
# Elastic Compliance Matrix: (Units=1/GPa)
#
#
# Indices 1 2 3 4 5 6 
#
# 1 0.011827 -0.009384 0.005323 0.007897 0.006667 -0.009316
# 2 -0.009384 0.034285 -0.024536 -0.014897 -0.015863 0.026318
# 3 0.005323 -0.024536 0.048589 0.015754 0.012263 -0.021754
# 4 0.007897 -0.014897 0.015754 0.045552 0.007662 -0.008868
# 5 0.006667 -0.015863 0.012263 0.007662 0.050543 -0.029087
# 6 -0.009316 0.026318 -0.021754 -0.008868 -0.029087 0.054003
#
#
# Mechanical properties :
#
#
# Convention : Reuss Voigt Hill
#
# Bulk Modulus (GPa) = 26.66240 36.60736 31.63488
# Shear Modulus (GPa) = 15.89842 30.03195 22.96519
#
# Velocity S-wave (km/s) = 2.61080 3.58829 3.13784
# Velocity P-wave (km/s) = 4.52985 5.73261 5.16635
#
# Compressibility (1/GPa) = 0.03750601
#
# Stress axis : x y z
#
# Youngs Moduli (GPa) = 84.55513 29.16741 20.58068
#
# Poissons Ratio (x) = 0.27371 -0.10954
# Poissons Ratio (y) = 0.79348 0.50496
# Poissons Ratio (z) = -0.45005 0.71564
#
# Static dielectric constant tensor:
#      x y z
#    x 1.899100 -0.028680 -0.016070 
#    y -0.028680 1.879530 0.027930 
#    z -0.016070 0.027930 1.877960 
# 
# From -- ./inp_files/493776.got.cif
#   From: 2010.05.17/outbox.cif.g08.bks.cpg/sg2_247_cif.got.tgz:493776.got - 2010.06.03 11:33:40.
