data_PCOD9028988
_publ_section_title
;
Structure prediction by ZEFSAII (Michael W. Deem and Ramdas Pophale) SiO2 
 PCOD9028988
Probable space group: P -1
;
_chemical_formula_sum "Si O2"
_cell_formula_units_Z 16
_cell_length_a 5.249576
_cell_length_b 15.327275
_cell_length_c 20.419903
_cell_angle_alpha 143.810879
_cell_angle_beta 134.605704
_cell_angle_gamma 62.624599
_cell_volume 667.969568
_symmetry_space_group_name_H-M "P -1"
_symmetry_group_IT_number 2
_symmetry_cell_setting 'triclinic'
loop_
_space_group_symop_operation_xyz
x,y,z
-x,-y,-z
loop_
_atom_site_type_symbol
_atom_site_label
_atom_site_fract_x
_atom_site_fract_y
_atom_site_fract_z
Si Si1 0.280980 0.592698 0.334658
Si Si2 0.138973 0.853565 0.732188
Si Si3 0.360698 0.284934 0.167692
Si Si4 0.720369 0.207949 0.423328
Si Si5 0.636418 0.903813 0.293314
Si Si6 0.394274 0.893158 0.477174
Si Si7 0.486022 0.210877 0.996261
Si Si8 0.613247 0.390877 0.007941
O O1 0.479782 0.464921 0.316178
O O2 0.137492 0.667791 0.417854
O O3 0.489996 0.735425 0.414339
O O4 0.965977 0.495431 0.171267
O O5 0.408268 0.808669 0.806673
O O6 0.176866 0.766289 0.618353
O O7 0.724676 0.816589 0.663461
O O8 0.278624 0.033650 0.851898
O O9 0.438225 0.271764 0.096750
O O10 0.922976 0.225214 0.069212
O O11 0.801099 0.045528 0.360082
O O12 0.945573 0.849299 0.358988
O O13 0.461350 0.994332 0.368953
O O14 0.381662 0.762466 0.124166
O O15 0.500000 0.000000 0.500000
O O16 0.365977 0.312988 0.978836
O O17 0.500000 0.500000 0.000000
#
# Coordination Sequence:
#
# PCOD9028988 Si02
#       8
#     2   2   2   2   2   2   2   2
#     4  10  25  44  64 106 143 183 229 300 353 409
#     4  12  24  45  76 103 136 193 243 283 356 433
#     4  11  25  46  72 105 146 182 232 304 357 411
#     4  11  26  43  73 103 144 183 239 290 352 423
#     4  10  22  42  65  98 136 181 234 285 348 418
#     4  10  22  42  70  96 134 185 237 286 351 423
#     4  11  24  44  72 105 148 181 236 295 355 415
#     4  11  22  43  69 101 141 185 238 282 357 419
#
# _framework density 23.953185999999999
#
# number of rings (size 3 to 8) (size 9 to 14) (size 15 to 20)
#    0.000    1.250    2.500    2.250    5.250    4.000 
#    2.250    3.125    0.000    0.000    0.000    0.000 
#    0.000    0.000    0.000    0.000    0.000    0.000 
#
# Total GULP energy -89388.489543 kJ/mol
# GULP energy per Si atom -5586.780596 kJ/mol
# Density = 2.389867 g / cm^3
# Si number density = 23.953186 Si / 1000 Ang^3
#
#
#
# Elastic Constant Matrix: (Units=GPa)
#
#
# Indices 1 2 3 4 5 6 
#
# 1 110.6566 28.1406 37.5371 -4.9304 -7.4276 4.6988
# 2 28.1406 142.3118 46.6042 -1.6190 -6.5084 10.1199
# 3 37.5371 46.6042 161.8994 21.6623 -16.7304 6.5476
# 4 -4.9304 -1.6190 21.6623 45.4892 -1.4325 4.8947
# 5 -7.4276 -6.5084 -16.7304 -1.4325 33.5636 -7.7877
# 6 4.6988 10.1199 6.5476 4.8947 -7.7877 35.4435
#
#
#
# Elastic Compliance Matrix: (Units=1/GPa)
#
#
# Indices 1 2 3 4 5 6 
#
# 1 0.010282 -0.001188 -0.002222 0.002236 0.000863 -0.000733
# 2 -0.001188 0.008129 -0.002192 0.001413 -0.000181 -0.001994
# 3 -0.002222 -0.002192 0.008180 -0.004188 0.003139 0.000677
# 4 0.002236 0.001413 -0.004188 0.024620 -0.001096 -0.003567
# 5 0.000863 -0.000181 0.003139 -0.001096 0.033038 0.006768
# 6 -0.000733 -0.001994 0.000677 -0.003567 0.006768 0.030735
#
#
# Mechanical properties :
#
#
# Convention : Reuss Voigt Hill
#
# Bulk Modulus (GPa) = 64.99238 71.04795 68.02017
# Shear Modulus (GPa) = 38.07575 43.07165 40.57370
#
# Velocity S-wave (km/s) = 3.99129 4.24507 4.12014
# Velocity P-wave (km/s) = 6.95935 7.33165 7.14792
#
# Compressibility (1/GPa) = 0.01538642
#
# Stress axis : x y z
#
# Youngs Moduli (GPa) = 97.26064 123.01508 122.24619
#
# Poissons Ratio (x) = 0.14619 0.27166
# Poissons Ratio (y) = 0.11558 0.26792
# Poissons Ratio (z) = 0.21613 0.26961
#
# Static dielectric constant tensor:
#      x y z
#    x 2.161850 0.146600 0.046490 
#    y 0.146600 2.160020 -0.041940 
#    z 0.046490 -0.041940 1.924970 
# 
# From -- ./inp_files/550135.got.cif
#   From: 2010.05.17/outbox.cif.g08.bks.cpg/sg2_276_cif.got.tgz:550135.got - 2010.06.03 11:33:40.
