data_PCOD9028846
_publ_section_title
;
Structure prediction by ZEFSAII (Michael W. Deem and Ramdas Pophale) SiO2 
 PCOD9028846
Probable space group: P -1
;
_chemical_formula_sum "Si O2"
_cell_formula_units_Z 12
_cell_length_a 10.002277
_cell_length_b 15.398513
_cell_length_c 10.010251
_cell_angle_alpha 48.835658
_cell_angle_beta 27.718289
_cell_angle_gamma 48.132956
_cell_volume 523.826982
_symmetry_space_group_name_H-M "P -1"
_symmetry_group_IT_number 2
_symmetry_cell_setting 'triclinic'
loop_
_space_group_symop_operation_xyz
x,y,z
-x,-y,-z
loop_
_atom_site_type_symbol
_atom_site_label
_atom_site_fract_x
_atom_site_fract_y
_atom_site_fract_z
Si Si1 0.404665 0.143317 0.949263
Si Si2 0.225413 0.002698 0.639190
Si Si3 0.740395 0.856160 0.205818
Si Si4 0.061891 0.778200 0.496520
Si Si5 0.396344 0.355143 0.287404
Si Si6 0.234765 0.590409 0.324054
O O1 0.209902 0.188151 0.944614
O O2 0.711456 0.180905 0.647911
O O3 0.231488 0.203343 0.173625
O O4 0.500000 0.000000 0.000000
O O5 0.421319 0.950378 0.390493
O O6 0.500000 0.000000 0.500000
O O7 0.031283 0.130937 0.638479
O O8 0.000118 0.919797 0.954446
O O9 0.670397 0.757301 0.465910
O O10 0.220610 0.653714 0.414374
O O11 0.422763 0.455862 0.269441
O O12 0.104751 0.408917 0.404268
O O13 0.656577 0.336706 0.967186
#
# Coordination Sequence:
#
# PCOD9028846 Si02
#       6
#     2   2   2   2   2   2
#     4  12  23  42  63  88 131 178 206 254 310 379
#     4  12  24  38  61  94 130 161 206 270 321 375
#     4  12  24  40  63  93 127 170 214 253 319 380
#     4  12  23  41  64  93 125 168 219 250 316 379
#     4  10  22  42  65  91 127 164 209 260 328 375
#     4  10  22  42  66  91 125 167 205 267 322 375
#
# _framework density 22.908327
#
# number of rings (size 3 to 8) (size 9 to 14) (size 15 to 20)
#    0.000    0.667    3.333    5.000    0.000    2.667 
#    0.000    1.667    0.000    0.000    0.000    0.000 
#    0.000    0.000    0.000    0.000    0.000    0.000 
#
# Total GULP energy -66986.419984 kJ/mol
# GULP energy per Si atom -5582.201665 kJ/mol
# Density = 2.285619 g / cm^3
# Si number density = 22.908327 Si / 1000 Ang^3
#
#
#
# Elastic Constant Matrix: (Units=GPa)
#
#
# Indices 1 2 3 4 5 6 
#
# 1 61.3191 19.4312 9.0633 -13.3229 -6.9851 17.4923
# 2 19.4312 64.2839 28.3129 5.5518 10.8552 24.0230
# 3 9.0633 28.3129 134.9252 -1.4391 -3.8951 2.0428
# 4 -13.3229 5.5518 -1.4391 36.7362 6.4513 3.8448
# 5 -6.9851 10.8552 -3.8951 6.4513 40.4018 5.2587
# 6 17.4923 24.0230 2.0428 3.8448 5.2587 27.2904
#
#
#
# Elastic Compliance Matrix: (Units=1/GPa)
#
#
# Indices 1 2 3 4 5 6 
#
# 1 0.024591 -0.003312 -0.000460 0.010037 0.005484 -0.015283
# 2 -0.003312 0.027780 -0.005482 -0.002503 -0.005496 -0.020509
# 3 -0.000460 -0.005482 0.008581 0.000278 0.001639 0.004123
# 4 0.010037 -0.002503 0.000278 0.032428 -0.001636 -0.008505
# 5 0.005484 -0.005496 0.001639 -0.001636 0.028114 -0.003986
# 6 -0.015283 -0.020509 0.004123 -0.008505 -0.003986 0.066150
#
#
# Mechanical properties :
#
#
# Convention : Reuss Voigt Hill
#
# Bulk Modulus (GPa) = 23.56078 41.57146 32.56612
# Shear Modulus (GPa) = 22.69639 34.46705 28.58172
#
# Velocity S-wave (km/s) = 3.15103 3.88308 3.53605
# Velocity P-wave (km/s) = 4.85240 6.18795 5.56042
#
# Compressibility (1/GPa) = 0.04244342
#
# Stress axis : x y z
#
# Youngs Moduli (GPa) = 40.66558 35.99717 116.54202
#
# Poissons Ratio (x) = 0.11923 0.05362
# Poissons Ratio (y) = 0.13469 0.63885
# Poissons Ratio (z) = 0.01871 0.19733
#
# Static dielectric constant tensor:
#      x y z
#    x 1.848800 0.052310 0.033330 
#    y 0.052310 1.960820 0.018590 
#    z 0.033330 0.018590 1.816010 
# 
# From -- ./inp_files/195448.got.cif
#   From: 2010.05.17/outbox.cif.g08.bks.cpg/sg2_98_cif.got.tgz:195448.got - 2010.06.03 11:33:40.
