data_PCOD9028149
_publ_section_title
;
Structure prediction by ZEFSAII (Michael W. Deem and Ramdas Pophale) SiO2 
 PCOD9028149
Probable space group: P -1
;
_chemical_formula_sum "Si O2"
_cell_formula_units_Z 16
_cell_length_a 14.322127
_cell_length_b 5.733079
_cell_length_c 17.081027
_cell_angle_alpha 128.274439
_cell_angle_beta 143.061409
_cell_angle_gamma 62.744290
_cell_volume 659.634582
_symmetry_space_group_name_H-M "P -1"
_symmetry_group_IT_number 2
_symmetry_cell_setting 'triclinic'
loop_
_space_group_symop_operation_xyz
x,y,z
-x,-y,-z
loop_
_atom_site_type_symbol
_atom_site_label
_atom_site_fract_x
_atom_site_fract_y
_atom_site_fract_z
Si Si1 0.393038 0.703297 0.337500
Si Si2 0.895422 0.073235 0.870770
Si Si3 0.251495 0.251790 0.763126
Si Si4 0.961914 0.520831 0.570110
Si Si5 0.668612 0.064332 0.091980
Si Si6 0.082462 0.150960 0.861106
Si Si7 0.810847 0.426907 0.670772
Si Si8 0.348219 0.740470 0.621883
O O1 0.260658 0.751899 0.192658
O O2 0.288532 0.610374 0.324490
O O3 0.504735 0.448784 0.334457
O O4 0.500000 0.000000 0.500000
O O5 0.018656 0.192797 0.913382
O O6 0.815444 0.765448 0.717764
O O7 0.000000 0.000000 0.000000
O O8 0.070396 0.282356 0.629676
O O9 0.315525 0.596882 0.860078
O O10 0.243932 0.072443 0.802735
O O11 0.354886 0.056471 0.735461
O O12 0.000000 0.500000 0.500000
O O13 0.781128 0.450694 0.452592
O O14 0.017257 0.831851 0.714044
O O15 0.733920 0.862825 0.025624
O O16 0.500000 0.000000 0.000000
O O17 0.990890 0.378161 0.796512
O O18 0.732307 0.221129 0.508540
#
# Coordination Sequence:
#
# PCOD9028149 Si02
#       8
#     2   2   2   2   2   2   2   2
#     4  11  24  43  68 105 141 185 242 307 374 434
#     4  11  25  48  70 100 140 191 249 300 364 458
#     4  11  25  43  69 108 145 190 243 299 363 448
#     4  11  21  41  68 104 145 186 234 298 366 451
#     4  11  25  49  70 101 150 193 245 300 362 445
#     4  10  22  41  71  98 131 190 240 294 369 433
#     4  11  22  43  70  98 136 186 237 300 375 436
#     4  12  21  40  69 106 141 180 235 304 378 424
#
# _framework density 24.255855
#
# number of rings (size 3 to 8) (size 9 to 14) (size 15 to 20)
#    0.000    1.000    2.500    4.875    1.750    3.000 
#    4.500    0.000    0.000    0.000    0.000    0.000 
#    0.000    0.000    0.000    0.000    0.000    0.000 
#
# Total GULP energy -89287.262439 kJ/mol
# GULP energy per Si atom -5580.453902 kJ/mol
# Density = 2.420065 g / cm^3
# Si number density = 24.255855 Si / 1000 Ang^3
#
#
#
# Elastic Constant Matrix: (Units=GPa)
#
#
# Indices 1 2 3 4 5 6 
#
# 1 126.7418 43.7173 26.8930 -4.4600 5.8868 -30.2204
# 2 43.7173 138.2945 35.8915 -1.5755 -2.8578 -29.4041
# 3 26.8930 35.8915 59.5492 -9.6982 -8.6260 -2.3626
# 4 -4.4600 -1.5755 -9.6982 47.3759 7.1658 1.2435
# 5 5.8868 -2.8578 -8.6260 7.1658 43.9710 -4.9566
# 6 -30.2204 -29.4041 -2.3626 1.2435 -4.9566 49.9677
#
#
#
# Elastic Compliance Matrix: (Units=1/GPa)
#
#
# Indices 1 2 3 4 5 6 
#
# 1 0.010502 -0.001182 -0.004029 0.000245 -0.001717 0.005289
# 2 -0.001182 0.010090 -0.005455 -0.001099 0.000491 0.005041
# 3 -0.004029 -0.005455 0.022849 0.003688 0.003581 -0.004303
# 4 0.000245 -0.001099 0.003688 0.022358 -0.003159 -0.001194
# 5 -0.001717 0.000491 0.003581 -0.003159 0.024438 0.001923
# 6 0.005289 0.005041 -0.004303 -0.001194 0.001923 0.026195
#
#
# Mechanical properties :
#
#
# Convention : Reuss Voigt Hill
#
# Bulk Modulus (GPa) = 45.23333 59.73210 52.48271
# Shear Modulus (GPa) = 34.45050 42.80184 38.62617
#
# Velocity S-wave (km/s) = 3.77277 4.20527 3.99488
# Velocity P-wave (km/s) = 6.13737 6.94682 6.55460
#
# Compressibility (1/GPa) = 0.02210759
#
# Stress axis : x y z
#
# Youngs Moduli (GPa) = 95.21651 99.10938 43.76540
#
# Poissons Ratio (x) = 0.11719 0.17634
# Poissons Ratio (y) = 0.11258 0.23875
# Poissons Ratio (z) = 0.38365 0.54067
#
# Static dielectric constant tensor:
#      x y z
#    x 1.955240 -0.008370 0.016950 
#    y -0.008370 1.962450 0.002800 
#    z 0.016950 0.002800 2.047270 
# 
# From -- ./inp_files/571814.got.cif
#   From: 2010.05.17/outbox.cif.g08.bks.cpg/sg2_286_cif.got.tgz:571814.got - 2010.06.03 11:33:40.
