data_PCOD9028139
_publ_section_title
;
Structure prediction by ZEFSAII (Michael W. Deem and Ramdas Pophale) SiO2 
 PCOD9028139
Probable space group: P -1
;
_chemical_formula_sum "Si O2"
_cell_formula_units_Z 16
_cell_length_a 18.574879
_cell_length_b 9.835193
_cell_length_c 8.229542
_cell_angle_alpha 80.025884
_cell_angle_beta 63.843398
_cell_angle_gamma 32.635526
_cell_volume 664.078566
_symmetry_space_group_name_H-M "P -1"
_symmetry_group_IT_number 2
_symmetry_cell_setting 'triclinic'
loop_
_space_group_symop_operation_xyz
x,y,z
-x,-y,-z
loop_
_atom_site_type_symbol
_atom_site_label
_atom_site_fract_x
_atom_site_fract_y
_atom_site_fract_z
Si Si1 0.528476 0.292653 0.013527
Si Si2 0.007404 0.230096 0.438196
Si Si3 0.785699 0.330622 0.621417
Si Si4 0.837333 0.221069 0.218260
Si Si5 0.249062 0.250732 0.981849
Si Si6 0.558326 0.781025 0.176669
Si Si7 0.115663 0.159331 0.681927
Si Si8 0.257735 0.227232 0.602310
O O1 0.402251 0.410757 0.239024
O O2 0.700618 0.977007 0.962025
O O3 0.500000 0.500000 0.000000
O O4 0.486559 0.273997 0.892999
O O5 0.867210 0.337887 0.628399
O O6 0.084215 0.204857 0.510125
O O7 0.912796 0.456793 0.352278
O O8 0.141130 0.918339 0.322526
O O9 0.841818 0.262185 0.393193
O O10 0.692234 0.513192 0.214767
O O11 0.815888 0.089483 0.282323
O O12 0.000000 0.000000 0.000000
O O13 0.355732 0.207622 0.976466
O O14 0.287952 0.212713 0.761775
O O15 0.060864 0.555798 0.127475
O O16 0.401231 0.058211 0.377279
O O17 0.236231 0.096670 0.628095
#
# Coordination Sequence:
#
# PCOD9028139 Si02
#       8
#     2   2   2   2   2   2   2   2
#     4  12  29  44  71 104 143 183 232 293 354 405
#     4  10  22  41  71  96 138 181 232 274 353 406
#     4  10  23  43  69 100 138 182 235 283 337 429
#     4  11  24  45  73 103 137 182 234 283 354 413
#     4  12  25  48  69 101 140 188 240 283 343 424
#     4  12  26  46  75  97 143 186 235 282 349 421
#     4  11  25  42  70 103 143 179 230 292 347 413
#     4  12  26  42  72 104 139 184 230 295 348 409
#
# _framework density 24.093533999999998
#
# number of rings (size 3 to 8) (size 9 to 14) (size 15 to 20)
#    0.000    0.750    1.250    5.250   10.500    0.500 
#    0.000    0.000    0.000    0.000    0.000    0.000 
#    0.000    0.000    0.000    0.000    0.000    0.000 
#
# Total GULP energy -89575.772461 kJ/mol
# GULP energy per Si atom -5598.485779 kJ/mol
# Density = 2.403870 g / cm^3
# Si number density = 24.093534 Si / 1000 Ang^3
#
#
#
# Elastic Constant Matrix: (Units=GPa)
#
#
# Indices 1 2 3 4 5 6 
#
# 1 86.8947 7.6671 14.0642 -3.1063 8.6277 13.4723
# 2 7.6671 134.8647 -7.5454 -13.8207 14.8328 1.8628
# 3 14.0642 -7.5454 79.6792 6.8137 8.3348 -6.6158
# 4 -3.1063 -13.8207 6.8137 29.2089 -5.4356 -8.4882
# 5 8.6277 14.8328 8.3348 -5.4356 36.4570 -1.7600
# 6 13.4723 1.8628 -6.6158 -8.4882 -1.7600 35.8132
#
#
#
# Elastic Compliance Matrix: (Units=1/GPa)
#
#
# Indices 1 2 3 4 5 6 
#
# 1 0.013075 -0.000559 -0.002516 -0.000395 -0.002620 -0.005577
# 2 -0.000559 0.008137 0.000946 0.003201 -0.002889 0.000579
# 3 -0.002516 0.000946 0.013892 -0.002911 -0.003273 0.002613
# 4 -0.000395 0.003201 -0.002911 0.040174 0.005893 0.009256
# 5 -0.002620 -0.002889 -0.003273 0.005893 0.031019 0.003452
# 6 -0.005577 0.000579 0.002613 0.009256 0.003452 0.032837
#
#
# Mechanical properties :
#
#
# Convention : Reuss Voigt Hill
#
# Bulk Modulus (GPa) = 32.41949 36.64561 34.53255
# Shear Modulus (GPa) = 32.53603 39.44599 35.99101
#
# Velocity S-wave (km/s) = 3.67877 4.05063 3.86917
# Velocity P-wave (km/s) = 5.61510 6.09258 5.85871
#
# Compressibility (1/GPa) = 0.03084565
#
# Stress axis : x y z
#
# Youngs Moduli (GPa) = 76.47940 122.89001 71.98244
#
# Poissons Ratio (x) = 0.06876 0.18112
# Poissons Ratio (y) = 0.04279 -0.06809
# Poissons Ratio (z) = 0.19243 -0.11625
#
# Static dielectric constant tensor:
#      x y z
#    x 1.946200 0.025030 0.018020 
#    y 0.025030 1.913280 0.003520 
#    z 0.018020 0.003520 1.947330 
# 
# From -- ./inp_files/328846.got.cif
#   From: 2010.05.17/outbox.cif.g08.bks.cpg/sg2_165_cif.got.tgz:328846.got - 2010.06.03 11:33:40.
