data_PCOD9028956
_publ_section_title
;
Structure prediction by ZEFSAII (Michael W. Deem and Ramdas Pophale) SiO2 
 PCOD9028956
Probable space group: P -1
;
_chemical_formula_sum "Si O2"
_cell_formula_units_Z 16
_cell_length_a 17.942584
_cell_length_b 8.626752
_cell_length_c 13.282653
_cell_angle_alpha 113.920701
_cell_angle_beta 22.199550
_cell_angle_gamma 123.103775
_cell_volume 617.253967
_symmetry_space_group_name_H-M "P -1"
_symmetry_group_IT_number 2
_symmetry_cell_setting 'triclinic'
loop_
_space_group_symop_operation_xyz
x,y,z
-x,-y,-z
loop_
_atom_site_type_symbol
_atom_site_label
_atom_site_fract_x
_atom_site_fract_y
_atom_site_fract_z
Si Si1 0.059388 0.196191 0.919278
Si Si2 0.813006 0.591015 0.844602
Si Si3 0.277541 0.108214 0.863104
Si Si4 0.929157 0.248586 0.629587
Si Si5 0.999982 0.483579 0.876014
Si Si6 0.654668 0.518687 0.698910
Si Si7 0.531443 0.915570 0.163640
Si Si8 0.483477 0.213571 0.414428
O O1 0.330746 0.312174 0.603922
O O2 0.930752 0.108614 0.953210
O O3 0.958920 0.301455 0.139692
O O4 0.000000 0.000000 0.000000
O O5 0.784210 0.720500 0.000582
O O6 0.868895 0.423697 0.763630
O O7 0.008343 0.740598 0.563274
O O8 0.576913 0.492260 0.049827
O O9 0.431334 0.153011 0.582250
O O10 0.377539 0.100030 0.843281
O O11 0.162969 0.311555 0.413925
O O12 0.728903 0.050083 0.873682
O O13 0.201990 0.462263 0.574772
O O14 0.000000 0.500000 0.000000
O O15 0.752998 0.338554 0.104920
O O16 0.600247 0.310772 0.762161
O O17 0.411741 0.041390 0.376703
#
# Coordination Sequence:
#
# PCOD9028956 Si02
#       8
#     2   2   2   2   2   2   2   2
#     4  10  23  37  60  94 133 176 219 272 330 401
#     4  10  25  47  72  98 133 177 224 291 331 403
#     4  10  22  42  65  96 139 175 225 276 336 399
#     4  11  25  48  72  99 134 175 234 278 344 393
#     4  12  23  39  61  96 137 178 223 267 336 406
#     4  11  24  44  70  99 138 177 224 281 338 397
#     4  11  23  42  68 101 133 179 220 278 332 408
#     4  11  22  38  65  99 136 178 222 272 334 405
#
# _framework density 25.92126
#
# number of rings (size 3 to 8) (size 9 to 14) (size 15 to 20)
#    0.000    1.250    1.250    4.875    5.250    4.000 
#    0.000    2.500    0.000    0.000    0.000    0.000 
#    0.000    0.000    0.000    0.000    0.000    0.000 
#
# Total GULP energy -89521.184870 kJ/mol
# GULP energy per Si atom -5595.074054 kJ/mol
# Density = 2.586226 g / cm^3
# Si number density = 25.921260 Si / 1000 Ang^3
#
#
#
# Elastic Constant Matrix: (Units=GPa)
#
#
# Indices 1 2 3 4 5 6 
#
# 1 52.5780 -4.1713 31.0987 0.7864 13.4751 -4.2187
# 2 -4.1713 59.0799 19.4952 -6.3256 7.5671 9.7915
# 3 31.0987 19.4952 153.5421 -13.1345 19.7266 0.4197
# 4 0.7864 -6.3256 -13.1345 49.5427 -5.8431 0.4170
# 5 13.4751 7.5671 19.7266 -5.8431 46.1504 -5.6906
# 6 -4.2187 9.7915 0.4197 0.4170 -5.6906 22.3953
#
#
#
# Elastic Compliance Matrix: (Units=1/GPa)
#
#
# Indices 1 2 3 4 5 6 
#
# 1 0.023629 0.003441 -0.004679 -0.001838 -0.005490 0.001673
# 2 0.003441 0.020241 -0.002583 0.001430 -0.004178 -0.009241
# 3 -0.004679 -0.002583 0.008131 0.001725 -0.001507 -0.000320
# 4 -0.001838 0.001430 0.001725 0.021112 0.002132 -0.000855
# 5 -0.005490 -0.004178 -0.001507 0.002132 0.025774 0.007330
# 6 0.001673 -0.009241 -0.000320 -0.000855 0.007330 0.050892
#
#
# Mechanical properties :
#
#
# Convention : Reuss Voigt Hill
#
# Bulk Modulus (GPa) = 22.54310 39.78282 31.16296
# Shear Modulus (GPa) = 29.03485 38.20285 33.61885
#
# Velocity S-wave (km/s) = 3.35045 3.84318 3.60524
# Velocity P-wave (km/s) = 4.86651 5.92235 5.42020
#
# Compressibility (1/GPa) = 0.04435947
#
# Stress axis : x y z
#
# Youngs Moduli (GPa) = 42.32138 49.40398 122.99308
#
# Poissons Ratio (x) = -0.17002 0.57551
# Poissons Ratio (y) = -0.14564 0.31765
# Poissons Ratio (z) = 0.19803 0.12759
#
# Static dielectric constant tensor:
#      x y z
#    x 2.154700 -0.108670 -0.062290 
#    y -0.108670 2.284190 0.012550 
#    z -0.062290 0.012550 2.083910 
# 
# From -- ./inp_files/540511.got.cif
#   From: 2010.05.17/outbox.cif.g08.bks.cpg/sg2_271_cif.got.tgz:540511.got - 2010.06.03 11:33:40.
