data_PCOD9028739
_publ_section_title
;
Structure prediction by ZEFSAII (Michael W. Deem and Ramdas Pophale) SiO2 
 PCOD9028739
Probable space group: P -1
;
_chemical_formula_sum "Si O2"
_cell_formula_units_Z 16
_cell_length_a 7.426840
_cell_length_b 17.047723
_cell_length_c 7.792459
_cell_angle_alpha 51.148854
_cell_angle_beta 71.539817
_cell_angle_gamma 61.948078
_cell_volume 677.748843
_symmetry_space_group_name_H-M "P -1"
_symmetry_group_IT_number 2
_symmetry_cell_setting 'triclinic'
loop_
_space_group_symop_operation_xyz
x,y,z
-x,-y,-z
loop_
_atom_site_type_symbol
_atom_site_label
_atom_site_fract_x
_atom_site_fract_y
_atom_site_fract_z
Si Si1 0.183136 0.407331 0.975209
Si Si2 0.093795 0.563829 0.508826
Si Si3 0.694543 0.211059 0.646365
Si Si4 0.740575 0.978211 0.992282
Si Si5 0.036065 0.763097 0.750713
Si Si6 0.857274 0.231454 0.925426
Si Si7 0.328280 0.287403 0.407606
Si Si8 0.301359 0.071218 0.559153
O O1 0.240435 0.471725 0.716676
O O2 0.083629 0.319090 0.068214
O O3 0.354358 0.351137 0.142856
O O4 0.000000 0.500000 0.000000
O O5 0.168932 0.644430 0.271067
O O6 0.901081 0.646398 0.556014
O O7 0.000000 0.500000 0.500000
O O8 0.474582 0.271389 0.547008
O O9 0.767263 0.083086 0.758109
O O10 0.835727 0.262314 0.429778
O O11 0.715858 0.216019 0.837456
O O12 0.913518 0.862334 0.045869
O O13 0.761933 0.983621 0.185066
O O14 0.500000 0.000000 0.000000
O O15 0.867370 0.879481 0.601390
O O16 0.170080 0.773309 0.856229
O O17 0.340988 0.171402 0.497419
O O18 0.500000 0.000000 0.500000
#
# Coordination Sequence:
#
# PCOD9028739 Si02
#       8
#     2   2   2   2   2   2   2   2
#     4   9  19  40  70  92 120 170 230 276 327 384
#     4  11  20  43  74  95 124 173 233 284 328 396
#     4  12  25  44  65  95 150 178 209 281 349 405
#     4  12  23  44  67  95 133 184 224 276 328 395
#     4  11  24  41  65  99 136 177 227 275 336 403
#     4  12  24  43  67 101 139 173 225 277 340 404
#     4  10  22  42  64  97 130 174 221 280 333 400
#     4  11  22  41  67  98 131 177 238 272 320 401
#
# _framework density 23.607567
#
# number of rings (size 3 to 8) (size 9 to 14) (size 15 to 20)
#    0.000    1.000    5.000    2.625    0.000    1.500 
#    2.250    6.250    0.000    0.000    0.000    0.000 
#    0.000    0.000    0.000    0.000    0.000    0.000 
#
# Total GULP energy -89336.193685 kJ/mol
# GULP energy per Si atom -5583.512105 kJ/mol
# Density = 2.355384 g / cm^3
# Si number density = 23.607567 Si / 1000 Ang^3
#
#
#
# Elastic Constant Matrix: (Units=GPa)
#
#
# Indices 1 2 3 4 5 6 
#
# 1 67.5507 12.5740 40.3060 -4.3578 29.6217 8.6611
# 2 12.5740 76.2129 21.6736 4.8279 3.8376 12.4649
# 3 40.3060 21.6736 178.3110 -5.0307 33.6501 14.3303
# 4 -4.3578 4.8279 -5.0307 32.8653 14.9973 -0.4454
# 5 29.6217 3.8376 33.6501 14.9973 44.2757 2.6150
# 6 8.6611 12.4649 14.3303 -0.4454 2.6150 28.2326
#
#
#
# Elastic Compliance Matrix: (Units=1/GPa)
#
#
# Indices 1 2 3 4 5 6 
#
# 1 0.026627 -0.003248 -0.000924 0.013461 -0.021148 -0.004094
# 2 -0.003248 0.015070 -0.001556 -0.004771 0.003979 -0.005311
# 3 -0.000924 -0.001556 0.007455 0.004022 -0.006146 -0.002181
# 4 0.013461 -0.004771 0.004022 0.045907 -0.027150 -0.000826
# 5 -0.021148 0.003979 -0.006146 -0.027150 0.050093 0.002782
# 6 -0.004094 -0.005311 -0.002181 -0.000826 0.002782 0.039857
#
#
# Mechanical properties :
#
#
# Convention : Reuss Voigt Hill
#
# Bulk Modulus (GPa) = 26.52944 52.35353 39.44149
# Shear Modulus (GPa) = 23.91993 37.57613 30.74803
#
# Velocity S-wave (km/s) = 3.18658 3.99394 3.61288
# Velocity P-wave (km/s) = 4.98008 6.59496 5.84357
#
# Compressibility (1/GPa) = 0.03769397
#
# Stress axis : x y z
#
# Youngs Moduli (GPa) = 37.55627 66.35659 134.14036
#
# Poissons Ratio (x) = 0.21556 0.12397
# Poissons Ratio (y) = 0.12200 0.20875
# Poissons Ratio (z) = 0.03471 0.10327
#
# Static dielectric constant tensor:
#      x y z
#    x 1.965780 0.007780 -0.036870 
#    y 0.007780 1.863240 0.020040 
#    z -0.036870 0.020040 1.977350 
# 
# From -- ./inp_files/212258.got.cif
#   From: 2010.05.17/outbox.cif.g08.bks.cpg/sg2_107_cif.got.tgz:212258.got - 2010.06.03 11:33:40.
