data_PCOD9028116
_publ_section_title
;
Structure prediction by ZEFSAII (Michael W. Deem and Ramdas Pophale) SiO2 
 PCOD9028116
Probable space group: P -1
;
_chemical_formula_sum "Si O2"
_cell_formula_units_Z 14
_cell_length_a 8.013677
_cell_length_b 20.302743
_cell_length_c 11.849028
_cell_angle_alpha 150.558640
_cell_angle_beta 37.103321
_cell_angle_gamma 146.717744
_cell_volume 502.431275
_symmetry_space_group_name_H-M "P -1"
_symmetry_group_IT_number 2
_symmetry_cell_setting 'triclinic'
loop_
_space_group_symop_operation_xyz
x,y,z
-x,-y,-z
loop_
_atom_site_type_symbol
_atom_site_label
_atom_site_fract_x
_atom_site_fract_y
_atom_site_fract_z
Si Si1 0.147941 0.788986 0.786878
Si Si2 0.202878 0.339908 0.865380
Si Si3 0.427970 0.686353 0.844133
Si Si4 0.450728 0.567467 0.879799
Si Si5 0.698291 0.287742 0.643532
Si Si6 0.755212 0.874926 0.742331
Si Si7 0.711304 0.067636 0.624289
O O1 0.111722 0.710496 0.567516
O O2 0.457059 0.811974 0.722779
O O3 0.823888 0.683379 0.869626
O O4 0.199754 0.959854 0.997867
O O5 0.328488 0.409859 0.777608
O O6 0.486651 0.363893 0.825979
O O7 0.929845 0.381277 0.108830
O O8 0.989050 0.155995 0.697893
O O9 0.468761 0.832781 0.115764
O O10 0.430153 0.568623 0.757270
O O11 0.662451 0.759066 0.723521
O O12 0.239117 0.637875 0.154746
O O13 0.492345 0.107803 0.505138
O O14 0.085422 0.907128 0.559468
#
# Coordination Sequence:
#
# PCOD9028116 Si02
#       7
#     2   2   2   2   2   2   2
#     4  11  23  38  68  96 127 159 216 261 317 360
#     4  10  23  45  65  90 127 171 214 250 312 379
#     4  10  24  42  66  89 131 171 210 245 321 380
#     4  12  26  42  61  97 137 163 200 263 322 376
#     4  12  22  43  68  97 121 161 218 270 306 361
#     4  11  21  41  68  95 122 166 214 265 301 373
#     4  10  22  41  71  91 119 167 219 255 306 371
#
# _framework density 27.864507
#
# number of rings (size 3 to 8) (size 9 to 14) (size 15 to 20)
#    0.857    0.286    4.286    2.143    2.000    2.857 
#    2.571    0.714    0.000    0.000    0.000    0.000 
#    0.000    0.000    0.000    0.000    0.000    0.000 
#
# Total GULP energy -78350.370442 kJ/mol
# GULP energy per Si atom -5596.455032 kJ/mol
# Density = 2.780109 g / cm^3
# Si number density = 27.864507 Si / 1000 Ang^3
#
#
#
# Elastic Constant Matrix: (Units=GPa)
#
#
# Indices 1 2 3 4 5 6 
#
# 1 99.6963 13.0644 0.9016 0.0223 0.5650 -8.5414
# 2 13.0644 150.1052 45.8710 -21.2661 -8.5258 -13.3875
# 3 0.9016 45.8710 133.8897 -12.8768 12.2021 -12.3449
# 4 0.0223 -21.2661 -12.8768 66.7231 -9.3573 4.6607
# 5 0.5650 -8.5258 12.2021 -9.3573 32.5000 -0.1055
# 6 -8.5414 -13.3875 -12.3449 4.6607 -0.1055 44.0016
#
#
#
# Elastic Compliance Matrix: (Units=1/GPa)
#
#
# Indices 1 2 3 4 5 6 
#
# 1 0.010320 -0.000979 0.000462 -0.000461 -0.000736 0.001882
# 2 -0.000979 0.008324 -0.002845 0.002578 0.004015 0.001281
# 3 0.000462 -0.002845 0.008984 0.000134 -0.004083 0.001721
# 4 -0.000461 0.002578 0.000134 0.016668 0.005430 -0.001020
# 5 -0.000736 0.004015 -0.004083 0.005430 0.034930 -0.000558
# 6 0.001882 0.001281 0.001721 -0.001020 -0.000558 0.024071
#
#
# Mechanical properties :
#
#
# Convention : Reuss Voigt Hill
#
# Bulk Modulus (GPa) = 47.83566 55.92947 51.88257
# Shear Modulus (GPa) = 42.73913 50.23522 46.48717
#
# Velocity S-wave (km/s) = 3.92065 4.25059 4.08895
# Velocity P-wave (km/s) = 6.14002 6.64873 6.39943
#
# Compressibility (1/GPa) = 0.02090491
#
# Stress axis : x y z
#
# Youngs Moduli (GPa) = 96.89866 120.13177 111.30690
#
# Poissons Ratio (x) = 0.11757 -0.05144
# Poissons Ratio (y) = 0.09483 0.31669
# Poissons Ratio (z) = -0.04478 0.34180
#
# Static dielectric constant tensor:
#      x y z
#    x 2.187680 0.060290 0.021950 
#    y 0.060290 2.122490 0.032110 
#    z 0.021950 0.032110 2.217700 
# 
# From -- ./inp_files/212470.got.cif
#   From: 2010.05.17/outbox.cif.g08.bks.cpg/sg2_107_cif.got.tgz:212470.got - 2010.06.03 11:33:40.
