data_PCOD9028473
_publ_section_title
;
Structure prediction by ZEFSAII (Michael W. Deem and Ramdas Pophale) SiO2 
 PCOD9028473
Probable space group: P -1
;
_chemical_formula_sum "Si O2"
_cell_formula_units_Z 15
_cell_length_a 21.439517
_cell_length_b 9.340641
_cell_length_c 25.115573
_cell_angle_alpha 142.734343
_cell_angle_beta 165.636593
_cell_angle_gamma 42.891270
_cell_volume 730.509187
_symmetry_space_group_name_H-M "P -1"
_symmetry_group_IT_number 2
_symmetry_cell_setting 'triclinic'
loop_
_space_group_symop_operation_xyz
x,y,z
-x,-y,-z
loop_
_atom_site_type_symbol
_atom_site_label
_atom_site_fract_x
_atom_site_fract_y
_atom_site_fract_z
Si Si1 0.703332 0.350771 0.605836
Si Si2 0.371271 0.098445 0.872345
Si Si3 0.208034 0.958776 0.584906
Si Si4 0.964867 0.539831 0.767699
Si Si5 0.000000 0.500000 0.000000
Si Si6 0.747786 0.956865 0.660111
Si Si7 0.247559 0.389448 0.660095
Si Si8 0.564429 0.795615 0.341771
O O1 0.500000 0.500000 0.500000
O O2 0.848613 0.464302 0.706994
O O3 0.559899 0.065158 0.396900
O O4 0.909520 0.376710 0.830965
O O5 0.072484 0.036003 0.622992
O O6 0.393742 0.992676 0.800397
O O7 0.499661 0.385988 0.058326
O O8 0.500000 0.000000 0.000000
O O9 0.163709 0.693681 0.443922
O O10 0.269464 0.173160 0.654738
O O11 0.871559 0.771385 0.739360
O O12 0.277761 0.612717 0.048279
O O13 0.056586 0.777567 0.103545
O O14 0.660305 0.838293 0.494598
O O15 0.500000 0.000000 0.500000
O O16 0.250242 0.297793 0.574181
O O17 0.000000 0.500000 0.500000
#
# Coordination Sequence:
#
# PCOD9028473 Si02
#       8
#     2   2   2   2   1   2   2   2
#     4  11  23  42  67  96 132 174 222 279 343 405
#     4  11  24  45  71  96 137 178 231 285 345 412
#     4  11  25  43  68 103 133 182 230 284 347 414
#     4  12  24  42  70  98 137 176 228 281 342 407
#     4  10  22  42  62  94 130 170 216 268 332 406
#     4  11  25  44  67 100 134 178 227 280 345 411
#     4  12  24  46  70 101 140 185 230 290 352 408
#     4  11  25  43  67  99 139 177 230 283 344 415
#
# _framework density 20.533622999999999
#
# number of rings (size 3 to 8) (size 9 to 14) (size 15 to 20)
#    0.000    0.800    4.000    3.600    1.867    1.600 
#    2.400    1.333    0.000    0.000    0.000    0.000 
#    0.000    0.000    0.000    0.000    0.000    0.000 
#
# Total GULP energy -83532.256601 kJ/mol
# GULP energy per Si atom -5568.817107 kJ/mol
# Density = 2.048689 g / cm^3
# Si number density = 20.533623 Si / 1000 Ang^3
#
#
#
# Elastic Constant Matrix: (Units=GPa)
#
#
# Indices 1 2 3 4 5 6 
#
# 1 135.8294 19.2598 35.3156 2.9012 -6.8450 -5.0914
# 2 19.2598 37.8235 6.6526 17.3786 0.1081 7.4027
# 3 35.3156 6.6526 67.6698 27.0913 -11.3050 9.1439
# 4 2.9012 17.3786 27.0913 41.5632 0.5760 5.5011
# 5 -6.8450 0.1081 -11.3050 0.5760 31.1355 9.7125
# 6 -5.0914 7.4027 9.1439 5.5011 9.7125 44.3706
#
#
#
# Elastic Compliance Matrix: (Units=1/GPa)
#
#
# Indices 1 2 3 4 5 6 
#
# 1 0.010730 -0.008371 -0.008914 0.008069 -0.002231 0.003953
# 2 -0.008371 0.040882 0.011595 -0.023019 0.005298 -0.008477
# 3 -0.008914 0.011595 0.030990 -0.023383 0.012553 -0.009193
# 4 0.008069 -0.023019 -0.023383 0.047737 -0.009298 0.005702
# 5 -0.002231 0.005298 0.012553 -0.009298 0.039864 -0.011300
# 6 0.003953 -0.008477 -0.009193 0.005702 -0.011300 0.028066
#
#
# Mechanical properties :
#
#
# Convention : Reuss Voigt Hill
#
# Bulk Modulus (GPa) = 14.04032 40.41986 27.23009
# Shear Modulus (GPa) = 21.42348 35.42017 28.42183
#
# Velocity S-wave (km/s) = 3.23358 4.15780 3.72447
# Velocity P-wave (km/s) = 4.56004 6.54043 5.63787
#
# Compressibility (1/GPa) = 0.07122343
#
# Stress axis : x y z
#
# Youngs Moduli (GPa) = 93.19524 24.46082 32.26803
#
# Poissons Ratio (x) = 0.20475 0.28764
# Poissons Ratio (y) = 0.78011 -0.37416
# Poissons Ratio (z) = 0.83076 -0.28363
#
# Static dielectric constant tensor:
#      x y z
#    x 1.775530 -0.000620 -0.013370 
#    y -0.000620 1.717600 -0.015790 
#    z -0.013370 -0.015790 1.745350 
# 
# From -- ./inp_files/599655.got.cif
#   From: 2010.05.17/outbox.cif.g08.bks.cpg/sg2_300_cif.got.tgz:599655.got - 2010.06.03 11:33:40.
