data_PCOD9028335
_publ_section_title
;
Structure prediction by ZEFSAII (Michael W. Deem and Ramdas Pophale) SiO2 
 PCOD9028335
Probable space group: P -1
;
_chemical_formula_sum "Si O2"
_cell_formula_units_Z 16
_cell_length_a 24.946279
_cell_length_b 5.923389
_cell_length_c 6.523090
_cell_angle_alpha 112.207647
_cell_angle_beta 129.056786
_cell_angle_gamma 81.346855
_cell_volume 687.787165
_symmetry_space_group_name_H-M "P -1"
_symmetry_group_IT_number 2
_symmetry_cell_setting 'triclinic'
loop_
_space_group_symop_operation_xyz
x,y,z
-x,-y,-z
loop_
_atom_site_type_symbol
_atom_site_label
_atom_site_fract_x
_atom_site_fract_y
_atom_site_fract_z
Si Si1 0.283329 0.821516 0.954082
Si Si2 0.969673 0.640459 0.792170
Si Si3 0.944539 0.044844 0.199548
Si Si4 0.748335 0.868187 0.319196
Si Si5 0.831538 0.539137 0.210459
Si Si6 0.389195 0.496219 0.209066
Si Si7 0.793835 0.817873 0.866866
Si Si8 0.505890 0.306723 0.138285
O O1 0.229067 0.629950 0.879396
O O2 0.263166 0.858967 0.682462
O O3 0.358603 0.733800 0.120797
O O4 0.266815 0.068000 0.115182
O O5 0.904563 0.500964 0.467479
O O6 0.025768 0.717428 0.777733
O O7 0.000000 0.500000 0.000000
O O8 0.944317 0.856238 0.942547
O O9 0.866191 0.000878 0.081509
O O10 0.000000 0.000000 0.500000
O O11 0.816971 0.810603 0.343820
O O12 0.762385 0.796488 0.558322
O O13 0.677216 0.708881 0.020662
O O14 0.817643 0.575253 0.949268
O O15 0.445427 0.375836 0.168897
O O16 0.422599 0.592196 0.537366
O O17 0.500000 0.500000 0.000000
O O18 0.500000 0.000000 0.000000
#
# Coordination Sequence:
#
# PCOD9028335 Si02
#       8
#     2   2   2   2   2   2   2   2
#     4  10  25  40  70  98 139 180 235 292 359 421
#     4  11  25  38  63  85 124 173 229 299 374 429
#     4  11  24  42  59  87 124 171 231 298 361 437
#     4  10  23  43  68  94 140 187 228 294 356 432
#     4  10  22  42  56  95 130 168 232 300 355 439
#     4  10  26  47  74 112 151 187 245 299 351 438
#     4  11  23  40  65  92 133 182 238 292 370 444
#     4  11  28  48  83 117 157 202 248 298 366 441
#
# _framework density 23.263010000000001
#
# number of rings (size 3 to 8) (size 9 to 14) (size 15 to 20)
#    0.000    1.500    2.500    0.000    8.750    6.500 
#    0.000    0.000    0.000    0.000    0.000    0.000 
#    0.000    0.000    0.000    0.000    0.000    0.000 
#
# Total GULP energy -89088.582751 kJ/mol
# GULP energy per Si atom -5568.036422 kJ/mol
# Density = 2.321006 g / cm^3
# Si number density = 23.263010 Si / 1000 Ang^3
#
#
#
# Elastic Constant Matrix: (Units=GPa)
#
#
# Indices 1 2 3 4 5 6 
#
# 1 76.8583 24.5381 48.8670 -1.9981 2.1387 1.2917
# 2 24.5381 84.3041 80.4603 -25.7815 -4.7815 15.1779
# 3 48.8670 80.4603 190.5261 -27.0035 4.2785 20.1085
# 4 -1.9981 -25.7815 -27.0035 50.3714 0.0659 -9.6295
# 5 2.1387 -4.7815 4.2785 0.0659 36.6083 -3.7838
# 6 1.2917 15.1779 20.1085 -9.6295 -3.7838 45.8801
#
#
#
# Elastic Compliance Matrix: (Units=1/GPa)
#
#
# Indices 1 2 3 4 5 6 
#
# 1 0.015928 -0.002105 -0.003625 -0.002133 -0.000640 0.001336
# 2 -0.002105 0.022793 -0.007959 0.006884 0.003787 -0.002236
# 3 -0.003625 -0.007959 0.009866 0.000767 -0.002148 -0.001605
# 4 -0.002133 0.006884 0.000767 0.024202 0.001161 0.002622
# 5 -0.000640 0.003787 -0.002148 0.001161 0.028334 0.002287
# 6 0.001336 -0.002236 -0.001605 0.002622 0.002287 0.023940
#
#
# Mechanical properties :
#
#
# Convention : Reuss Voigt Hill
#
# Bulk Modulus (GPa) = 47.15247 73.26883 60.21065
# Shear Modulus (GPa) = 31.34554 39.76016 35.55285
#
# Velocity S-wave (km/s) = 3.67473 4.13868 3.91359
# Velocity P-wave (km/s) = 6.19017 7.37580 6.80884
#
# Compressibility (1/GPa) = 0.02120780
#
# Stress axis : x y z
#
# Youngs Moduli (GPa) = 62.78286 43.87244 101.35755
#
# Poissons Ratio (x) = 0.09237 0.36743
# Poissons Ratio (y) = 0.13218 0.80673
# Poissons Ratio (z) = 0.22759 0.34919
#
# Static dielectric constant tensor:
#      x y z
#    x 1.880090 -0.046110 -0.073180 
#    y -0.046110 2.235310 -0.020160 
#    z -0.073180 -0.020160 1.926320 
# 
# From -- ./inp_files/125903.got.cif
#   From: 2010.05.17/outbox.cif.g08.bks.cpg/sg2_63_cif.got.tgz:125903.got - 2010.06.03 11:33:40.
