data_PCOD9028164
_publ_section_title
;
Structure prediction by ZEFSAII (Michael W. Deem and Ramdas Pophale) SiO2 
 PCOD9028164
Probable space group: P -1
;
_chemical_formula_sum "Si O2"
_cell_formula_units_Z 16
_cell_length_a 15.038892
_cell_length_b 17.019464
_cell_length_c 23.333897
_cell_angle_alpha 156.876698
_cell_angle_beta 161.015412
_cell_angle_gamma 32.435121
_cell_volume 747.477541
_symmetry_space_group_name_H-M "P -1"
_symmetry_group_IT_number 2
_symmetry_cell_setting 'triclinic'
loop_
_space_group_symop_operation_xyz
x,y,z
-x,-y,-z
loop_
_atom_site_type_symbol
_atom_site_label
_atom_site_fract_x
_atom_site_fract_y
_atom_site_fract_z
Si Si1 0.883949 0.125255 0.564174
Si Si2 0.933795 0.720492 0.098552
Si Si3 0.083140 0.505296 0.872241
Si Si4 0.562196 0.242301 0.967226
Si Si5 0.143235 0.726886 0.720121
Si Si6 0.629961 0.238654 0.238685
Si Si7 0.807185 0.072372 0.711890
Si Si8 0.164993 0.500242 0.789579
O O1 0.058866 0.183906 0.768511
O O2 0.865608 0.331589 0.657019
O O3 0.613363 0.957661 0.304355
O O4 0.000000 0.000000 0.500000
O O5 0.152379 0.870815 0.292403
O O6 0.644838 0.677899 0.857322
O O7 0.000000 0.500000 0.000000
O O8 0.365725 0.404828 0.974648
O O9 0.054429 0.550658 0.817886
O O10 0.094337 0.713360 0.052006
O O11 0.676808 0.174580 0.050731
O O12 0.810334 0.348400 0.147863
O O13 0.319477 0.694609 0.750983
O O14 0.000000 0.500000 0.500000
O O15 0.958629 0.886305 0.693928
O O16 0.925902 0.304737 0.494983
O O17 0.500000 0.000000 0.000000
O O18 0.500000 0.000000 0.500000
O O19 0.500000 0.500000 0.000000
#
# Coordination Sequence:
#
# PCOD9028164 Si02
#       8
#     2   2   2   2   2   2   2   2
#     4  10  22  41  73 103 141 188 241 289 366 435
#     4  12  27  48  73 109 152 193 245 315 375 440
#     4  10  22  43  66 102 140 186 239 300 364 437
#     4  10  22  41  71  99 137 195 244 297 359 436
#     4  12  25  46  70 103 146 188 253 307 363 444
#     4  12  26  44  75 110 140 194 255 305 367 445
#     4  12  28  44  71 106 147 198 241 309 383 439
#     4  10  24  42  72 102 145 189 245 304 362 438
#
# _framework density 21.405324
#
# number of rings (size 3 to 8) (size 9 to 14) (size 15 to 20)
#    0.000    1.000    3.750    2.250   12.250    0.000 
#    2.250    1.875    0.000    0.000    0.000    0.000 
#    0.000    0.000    0.000    0.000    0.000    0.000 
#
# Total GULP energy -89100.649188 kJ/mol
# GULP energy per Si atom -5568.790574 kJ/mol
# Density = 2.135660 g / cm^3
# Si number density = 21.405324 Si / 1000 Ang^3
#
#
#
# Elastic Constant Matrix: (Units=GPa)
#
#
# Indices 1 2 3 4 5 6 
#
# 1 135.6321 4.1510 29.4417 7.4900 0.5279 6.9164
# 2 4.1510 77.3439 27.8243 15.6686 7.1483 4.2532
# 3 29.4417 27.8243 136.0084 12.7887 2.9268 -7.2111
# 4 7.4900 15.6686 12.7887 38.5553 6.4360 1.5741
# 5 0.5279 7.1483 2.9268 6.4360 44.2195 3.3841
# 6 6.9164 4.2532 -7.2111 1.5741 3.3841 20.6383
#
#
#
# Elastic Compliance Matrix: (Units=1/GPa)
#
#
# Indices 1 2 3 4 5 6 
#
# 1 0.008014 0.000654 -0.001958 -0.001090 0.000353 -0.003479
# 2 0.000654 0.015304 -0.002979 -0.004991 -0.001265 -0.003826
# 3 -0.001958 -0.002979 0.008765 -0.001465 -0.000205 0.004478
# 4 -0.001090 -0.004991 -0.001465 0.029243 -0.003277 -0.000811
# 5 0.000353 -0.001265 -0.000205 -0.003277 0.023577 -0.003545
# 6 -0.003479 -0.003826 0.004478 -0.000811 -0.003545 0.052616
#
#
# Mechanical properties :
#
#
# Convention : Reuss Voigt Hill
#
# Bulk Modulus (GPa) = 42.52135 52.42428 47.47281
# Shear Modulus (GPa) = 32.48345 39.85378 36.16862
#
# Velocity S-wave (km/s) = 3.89979 4.31961 4.11506
# Velocity P-wave (km/s) = 6.33923 7.03016 6.69361
#
# Compressibility (1/GPa) = 0.02351760
#
# Stress axis : x y z
#
# Youngs Moduli (GPa) = 124.77875 65.34149 114.08556
#
# Poissons Ratio (x) = -0.04272 0.22340
# Poissons Ratio (y) = -0.08159 0.33983
# Poissons Ratio (z) = 0.24434 0.19464
#
# Static dielectric constant tensor:
#      x y z
#    x 1.809040 -0.034900 0.010470 
#    y -0.034900 1.819480 -0.148970 
#    z 0.010470 -0.148970 1.804100 
# 
# From -- ./inp_files/612215.got.cif
#   From: 2010.05.17/outbox.cif.g08.bks.cpg/sg2_307_cif.got.tgz:612215.got - 2010.06.03 11:33:40.
