data_PCOD9028436
_publ_section_title
;
Structure prediction by ZEFSAII (Michael W. Deem and Ramdas Pophale) SiO2 
 PCOD9028436
Probable space group: P -1
;
_chemical_formula_sum "Si O2"
_cell_formula_units_Z 14
_cell_length_a 8.241687
_cell_length_b 15.036013
_cell_length_c 7.986633
_cell_angle_alpha 61.101093
_cell_angle_beta 49.617412
_cell_angle_gamma 80.742592
_cell_volume 642.597105
_symmetry_space_group_name_H-M "P -1"
_symmetry_group_IT_number 2
_symmetry_cell_setting 'triclinic'
loop_
_space_group_symop_operation_xyz
x,y,z
-x,-y,-z
loop_
_atom_site_type_symbol
_atom_site_label
_atom_site_fract_x
_atom_site_fract_y
_atom_site_fract_z
Si Si1 0.653350 0.558487 0.100478
Si Si2 0.070385 0.706008 0.666810
Si Si3 0.125330 0.001091 0.736765
Si Si4 0.725038 0.077197 0.829636
Si Si5 0.598732 0.147749 0.217771
Si Si6 0.803757 0.481224 0.430453
Si Si7 0.217830 0.629820 0.993963
O O1 0.727380 0.522614 0.266068
O O2 0.399745 0.551568 0.284291
O O3 0.687869 0.469081 0.031958
O O4 0.806014 0.673544 0.870410
O O5 0.193275 0.820335 0.429440
O O6 0.120537 0.621896 0.578057
O O7 0.153853 0.675331 0.817753
O O8 0.349092 0.091348 0.484993
O O9 0.927358 0.019441 0.738368
O O10 0.226199 0.899022 0.745413
O O11 0.000000 0.000000 0.000000
O O12 0.667086 0.116795 0.015814
O O13 0.500000 0.000000 0.000000
O O14 0.638561 0.270892 0.101928
O O15 0.991683 0.575967 0.285180
#
# Coordination Sequence:
#
# PCOD9028436 Si02
#       7
#     2   2   2   2   2   2   2
#     4   8  15  31  54  85 119 151 192 237 288 355
#     4   9  19  34  56  85 122 151 193 247 291 343
#     4   9  22  42  62  81 117 158 204 245 294 356
#     4  11  25  42  59  88 124 157 200 251 301 353
#     4  10  22  42  62  86 119 159 201 247 298 355
#     4   8  15  32  53  87 115 152 193 234 291 352
#     4   9  18  33  61  87 115 151 198 243 286 354
#
# _framework density 21.786588999999999
#
# number of rings (size 3 to 8) (size 9 to 14) (size 15 to 20)
#    0.000    2.857    0.000    1.714    6.000    4.000 
#    7.714    2.857    0.000    5.143    0.000    0.000 
#    0.000    0.000    0.000    0.000    0.000    0.000 
#
# Total GULP energy -78079.364886 kJ/mol
# GULP energy per Si atom -5577.097492 kJ/mol
# Density = 2.173700 g / cm^3
# Si number density = 21.786589 Si / 1000 Ang^3
#
#
#
# Elastic Constant Matrix: (Units=GPa)
#
#
# Indices 1 2 3 4 5 6 
#
# 1 77.7331 27.4736 56.3165 -6.6253 -16.7699 -8.9846
# 2 27.4736 64.3595 50.0204 -12.5988 -14.4896 19.2288
# 3 56.3165 50.0204 176.9951 -15.5092 -26.6637 -8.2553
# 4 -6.6253 -12.5988 -15.5092 40.5509 -4.1112 -2.0127
# 5 -16.7699 -14.4896 -26.6637 -4.1112 39.2493 2.9950
# 6 -8.9846 19.2288 -8.2553 -2.0127 2.9950 22.9766
#
#
#
# Elastic Compliance Matrix: (Units=1/GPa)
#
#
# Indices 1 2 3 4 5 6 
#
# 1 0.021130 -0.012096 -0.002252 -0.000135 0.001695 0.017344
# 2 -0.012096 0.045129 -0.008965 0.007299 0.009702 -0.046344
# 3 -0.002252 -0.008965 0.009732 0.001238 0.001706 0.010005
# 4 -0.000135 0.007299 0.001238 0.027854 0.006713 -0.004151
# 5 0.001695 0.009702 0.001706 0.006713 0.032446 -0.010485
# 6 0.017344 -0.046344 0.010005 -0.004151 -0.010485 0.093687
#
#
# Mechanical properties :
#
#
# Convention : Reuss Voigt Hill
#
# Bulk Modulus (GPa) = 34.05544 65.18985 49.62265
# Shear Modulus (GPa) = 17.45840 32.90718 25.18279
#
# Velocity S-wave (km/s) = 2.83386 3.89064 3.40352
# Velocity P-wave (km/s) = 5.13547 7.08306 6.18639
#
# Compressibility (1/GPa) = 0.02936388
#
# Stress axis : x y z
#
# Youngs Moduli (GPa) = 47.32521 22.15879 102.75015
#
# Poissons Ratio (x) = 0.26804 0.23142
# Poissons Ratio (y) = 0.57245 0.92119
# Poissons Ratio (z) = 0.10659 0.19866
#
# Static dielectric constant tensor:
#      x y z
#    x 1.919400 -0.003820 0.045740 
#    y -0.003820 1.739850 0.024770 
#    z 0.045740 0.024770 1.809410 
# 
# From -- ./inp_files/200105.got.cif
#   From: 2010.05.17/outbox.cif.g08.bks.cpg/sg2_101_cif.got.tgz:200105.got - 2010.06.03 11:33:40.
