data_PCOD9028081
_publ_section_title
;
Structure prediction by ZEFSAII (Michael W. Deem and Ramdas Pophale) SiO2 
 PCOD9028081
Probable space group: P -1
;
_chemical_formula_sum "Si O2"
_cell_formula_units_Z 12
_cell_length_a 14.316601
_cell_length_b 8.553696
_cell_length_c 10.078867
_cell_angle_alpha 43.271882
_cell_angle_beta 147.447298
_cell_angle_gamma 128.871728
_cell_volume 454.908907
_symmetry_space_group_name_H-M "P -1"
_symmetry_group_IT_number 2
_symmetry_cell_setting 'triclinic'
loop_
_space_group_symop_operation_xyz
x,y,z
-x,-y,-z
loop_
_atom_site_type_symbol
_atom_site_label
_atom_site_fract_x
_atom_site_fract_y
_atom_site_fract_z
Si Si1 0.327230 0.515688 0.082125
Si Si2 0.688453 0.982882 0.563206
Si Si3 0.058132 0.767629 0.789043
Si Si4 0.679044 0.905187 0.023372
Si Si5 0.181013 0.564862 0.608105
Si Si6 0.316657 0.244392 0.590683
O O1 0.292044 0.246197 0.190050
O O2 0.519119 0.578476 0.328210
O O3 0.176646 0.615527 0.931922
O O4 0.312877 0.615147 0.856613
O O5 0.705833 0.891813 0.488779
O O6 0.815185 0.198654 0.611997
O O7 0.492320 0.065073 0.284347
O O8 0.874171 0.653490 0.681113
O O9 0.184242 0.888581 0.973598
O O10 0.000000 0.000000 0.500000
O O11 0.754804 0.656364 0.251497
O O12 0.645874 0.914301 0.137984
O O13 0.000000 0.500000 0.500000
#
# Coordination Sequence:
#
# PCOD9028081 Si02
#       6
#     2   2   2   2   2   2
#     4  12  26  46  70 103 138 177 229 280 341 403
#     4  12  25  44  71 101 137 181 225 283 338 403
#     4  10  22  41  71 102 130 177 228 275 334 400
#     4  11  22  43  71  99 136 185 227 271 345 403
#     4  12  26  48  68  97 141 184 226 281 338 405
#     4  11  22  44  71 100 138 175 223 284 339 393
#
# _framework density 26.378907999999999
#
# number of rings (size 3 to 8) (size 9 to 14) (size 15 to 20)
#    0.000    0.667    3.333    6.500    0.000    2.000 
#    3.000    0.000    0.000    0.000    0.000    0.000 
#    0.000    0.000    0.000    0.000    0.000    0.000 
#
# Total GULP energy -67238.656082 kJ/mol
# GULP energy per Si atom -5603.221340 kJ/mol
# Density = 2.631887 g / cm^3
# Si number density = 26.378908 Si / 1000 Ang^3
#
#
#
# Elastic Constant Matrix: (Units=GPa)
#
#
# Indices 1 2 3 4 5 6 
#
# 1 79.9042 30.0329 32.4213 -1.1915 24.2206 -5.7796
# 2 30.0329 141.9064 39.0475 -17.3323 28.5653 20.6829
# 3 32.4213 39.0475 89.6926 -10.7953 36.1529 24.3852
# 4 -1.1915 -17.3323 -10.7953 50.8715 1.8496 2.8946
# 5 24.2206 28.5653 36.1529 1.8496 54.0381 -0.0894
# 6 -5.7796 20.6829 24.3852 2.8946 -0.0894 39.4161
#
#
#
# Elastic Compliance Matrix: (Units=1/GPa)
#
#
# Indices 1 2 3 4 5 6 
#
# 1 0.017602 -0.003084 -0.007201 -0.002621 -0.001338 0.008843
# 2 -0.003084 0.009794 0.000932 0.003996 -0.004566 -0.006471
# 3 -0.007201 0.000932 0.024433 0.006816 -0.013873 -0.017192
# 4 -0.002621 0.003996 0.006816 0.023112 -0.006303 -0.008410
# 5 -0.001338 -0.004566 -0.013873 -0.006303 0.031034 0.011316
# 6 0.008843 -0.006471 -0.017192 -0.008410 0.011316 0.041342
#
#
# Mechanical properties :
#
#
# Convention : Reuss Voigt Hill
#
# Bulk Modulus (GPa) = 30.19026 57.16737 43.67881
# Shear Modulus (GPa) = 28.23863 42.86526 35.55194
#
# Velocity S-wave (km/s) = 3.27540 4.03548 3.67514
# Velocity P-wave (km/s) = 5.07681 6.59031 5.88244
#
# Compressibility (1/GPa) = 0.03312327
#
# Stress axis : x y z
#
# Youngs Moduli (GPa) = 56.81283 102.10833 40.92850
#
# Poissons Ratio (x) = 0.31486 0.29471
# Poissons Ratio (y) = 0.17519 -0.03814
# Poissons Ratio (z) = 0.40909 -0.09515
#
# Static dielectric constant tensor:
#      x y z
#    x 2.104390 0.038430 -0.006340 
#    y 0.038430 2.092150 0.041570 
#    z -0.006340 0.041570 2.085700 
# 
# From -- ./inp_files/185820.got.cif
#   From: 2010.05.17/outbox.cif.g08.bks.cpg/sg2_93_cif.got.tgz:185820.got - 2010.06.03 11:33:40.
