data_PCOD9028311
_publ_section_title
;
Structure prediction by ZEFSAII (Michael W. Deem and Ramdas Pophale) SiO2 
 PCOD9028311
Probable space group: P -1
;
_chemical_formula_sum "Si O2"
_cell_formula_units_Z 16
_cell_length_a 5.117284
_cell_length_b 18.553491
_cell_length_c 15.390356
_cell_angle_alpha 149.818640
_cell_angle_beta 100.663669
_cell_angle_gamma 92.640682
_cell_volume 656.153694
_symmetry_space_group_name_H-M "P -1"
_symmetry_group_IT_number 2
_symmetry_cell_setting 'triclinic'
loop_
_space_group_symop_operation_xyz
x,y,z
-x,-y,-z
loop_
_atom_site_type_symbol
_atom_site_label
_atom_site_fract_x
_atom_site_fract_y
_atom_site_fract_z
Si Si1 0.825961 0.404805 0.698919
Si Si2 0.664584 0.179389 0.850994
Si Si3 0.750548 0.926081 0.484448
Si Si4 0.163004 0.928491 0.666180
Si Si5 0.342230 0.600556 0.053294
Si Si6 0.173427 0.389960 0.394109
Si Si7 0.325086 0.483432 0.678624
Si Si8 0.835569 0.790462 0.959952
O O1 0.048304 0.480356 0.710483
O O2 0.768727 0.223856 0.491324
O O3 0.536898 0.434244 0.700299
O O4 0.008637 0.485970 0.883562
O O5 0.559185 0.306173 0.936110
O O6 0.666112 0.065599 0.654415
O O7 0.436721 0.070406 0.790424
O O8 0.972212 0.228354 0.968068
O O9 0.467904 0.758828 0.283715
O O10 0.908966 0.892855 0.543155
O O11 0.000000 0.000000 0.500000
O O12 0.114577 0.025963 0.845547
O O13 0.500000 0.500000 0.000000
O O14 0.500000 0.500000 0.500000
O O15 0.202128 0.353815 0.458954
O O16 0.068170 0.255912 0.174536
O O17 0.000000 0.500000 0.500000
O O18 0.515663 0.652635 0.821590
#
# Coordination Sequence:
#
# PCOD9028311 Si02
#       8
#     2   2   2   2   2   2   2   2
#     4  12  27  45  67 102 146 189 231 294 358 409
#     4  11  24  44  69  95 138 184 232 293 346 427
#     4  11  24  43  65  96 130 181 239 293 348 412
#     4  11  25  43  67  93 142 189 236 280 357 424
#     4  12  24  42  65  99 133 178 237 288 351 401
#     4  10  22  41  75 110 140 176 235 290 347 428
#     4  11  24  46  71 104 142 178 232 298 356 408
#     4  10  23  42  73 103 132 184 237 283 353 425
#
# _framework density 24.384530999999999
#
# number of rings (size 3 to 8) (size 9 to 14) (size 15 to 20)
#    0.000    1.000    3.750    2.625    8.750    0.000 
#    0.000    3.125    0.000    0.000    0.000    0.000 
#    0.000    0.000    0.000    0.000    0.000    0.000 
#
# Total GULP energy -89257.782665 kJ/mol
# GULP energy per Si atom -5578.611417 kJ/mol
# Density = 2.432903 g / cm^3
# Si number density = 24.384531 Si / 1000 Ang^3
#
#
#
# Elastic Constant Matrix: (Units=GPa)
#
#
# Indices 1 2 3 4 5 6 
#
# 1 79.2268 21.3770 35.0454 3.7801 -15.4591 -10.9209
# 2 21.3770 47.1666 50.9106 3.5181 -0.6812 -16.8580
# 3 35.0454 50.9106 196.9977 -8.6511 -22.9881 -13.8643
# 4 3.7801 3.5181 -8.6511 53.0562 -3.2907 -7.5848
# 5 -15.4591 -0.6812 -22.9881 -3.2907 42.4650 4.6140
# 6 -10.9209 -16.8580 -13.8643 -7.5848 4.6140 37.9481
#
#
#
# Elastic Compliance Matrix: (Units=1/GPa)
#
#
# Indices 1 2 3 4 5 6 
#
# 1 0.015659 -0.006057 -0.000569 -0.000356 0.005169 0.000908
# 2 -0.006057 0.038057 -0.008910 -0.002262 -0.007943 0.012422
# 3 -0.000569 -0.008910 0.007972 0.002006 0.004265 -0.001327
# 4 -0.000356 -0.002262 0.002006 0.019961 0.002102 0.003360
# 5 0.005169 -0.007943 0.004265 0.002102 0.028154 -0.003485
# 6 0.000908 0.012422 -0.001327 0.003360 -0.003485 0.032742
#
#
# Mechanical properties :
#
#
# Convention : Reuss Voigt Hill
#
# Bulk Modulus (GPa) = 32.66135 59.78410 46.22273
# Shear Modulus (GPa) = 27.20022 41.09774 34.14898
#
# Velocity S-wave (km/s) = 3.34349 4.10982 3.74630
# Velocity P-wave (km/s) = 5.32246 6.86231 6.14084
#
# Compressibility (1/GPa) = 0.03061722
#
# Stress axis : x y z
#
# Youngs Moduli (GPa) = 63.86218 26.27622 125.43275
#
# Poissons Ratio (x) = 0.15916 0.07135
# Poissons Ratio (y) = 0.38682 1.11756
# Poissons Ratio (z) = 0.03633 0.23411
#
# Static dielectric constant tensor:
#      x y z
#    x 2.165260 0.010270 0.101490 
#    y 0.010270 2.021650 -0.089800 
#    z 0.101490 -0.089800 2.272190 
# 
# From -- ./inp_files/485336.got.cif
#   From: 2010.05.17/outbox.cif.g08.bks.cpg/sg2_243_cif.got.tgz:485336.got - 2010.06.03 11:33:40.
