data_PCOD9028133
_publ_section_title
;
Structure prediction by ZEFSAII (Michael W. Deem and Ramdas Pophale) SiO2 
 PCOD9028133
Probable space group: P -1
;
_chemical_formula_sum "Si O2"
_cell_formula_units_Z 12
_cell_length_a 5.102883
_cell_length_b 9.540630
_cell_length_c 11.533083
_cell_angle_alpha 65.992760
_cell_angle_beta 78.034176
_cell_angle_gamma 66.880538
_cell_volume 470.963086
_symmetry_space_group_name_H-M "P -1"
_symmetry_group_IT_number 2
_symmetry_cell_setting 'triclinic'
loop_
_space_group_symop_operation_xyz
x,y,z
-x,-y,-z
loop_
_atom_site_type_symbol
_atom_site_label
_atom_site_fract_x
_atom_site_fract_y
_atom_site_fract_z
Si Si1 0.966978 0.160005 0.680903
Si Si2 0.407621 0.304733 0.533437
Si Si3 0.178422 0.384885 0.124834
Si Si4 0.266867 0.670125 0.134002
Si Si5 0.701179 0.482977 0.309824
Si Si6 0.785467 0.901850 0.932229
O O1 0.710888 0.213806 0.596043
O O2 0.926755 0.287675 0.747846
O O3 0.241081 0.177151 0.586457
O O4 0.918818 0.010812 0.804356
O O5 0.484235 0.384663 0.384758
O O6 0.260487 0.455051 0.586174
O O7 0.347803 0.493808 0.125825
O O8 0.315323 0.213383 0.106862
O O9 0.974884 0.373526 0.252286
O O10 0.000000 0.500000 0.000000
O O11 0.565164 0.643063 0.184418
O O12 0.059048 0.798784 0.020591
O O13 0.500000 0.000000 0.000000
#
# Coordination Sequence:
#
# PCOD9028133 Si02
#       6
#     2   2   2   2   2   2
#     4  11  22  43  67 105 139 186 231 278 354 418
#     4  10  23  40  76 101 142 181 234 290 337 424
#     4  10  23  43  66 100 138 177 235 291 345 407
#     4  10  22  41  71  95 137 173 237 285 342 402
#     4  10  22  42  69 106 133 177 239 288 346 397
#     4  11  25  44  68 100 143 187 226 287 357 420
#
# _framework density 25.479706
#
# number of rings (size 3 to 8) (size 9 to 14) (size 15 to 20)
#    0.000    1.667    1.667    1.500    9.333    4.667 
#    6.000    2.500    0.000    0.000    0.000    0.000 
#    0.000    0.000    0.000    0.000    0.000    0.000 
#
# Total GULP energy -66912.770056 kJ/mol
# GULP energy per Si atom -5576.064171 kJ/mol
# Density = 2.542171 g / cm^3
# Si number density = 25.479706 Si / 1000 Ang^3
#
#
#
# Elastic Constant Matrix: (Units=GPa)
#
#
# Indices 1 2 3 4 5 6 
#
# 1 93.1370 39.5935 51.8377 -14.8011 1.5339 0.8885
# 2 39.5935 106.0903 38.7243 2.5961 -10.0982 -0.2232
# 3 51.8377 38.7243 142.8434 -17.2324 -2.6543 -17.0035
# 4 -14.8011 2.5961 -17.2324 48.3693 0.9051 -3.8956
# 5 1.5339 -10.0982 -2.6543 0.9051 51.4295 1.0979
# 6 0.8885 -0.2232 -17.0035 -3.8956 1.0979 24.0883
#
#
#
# Elastic Compliance Matrix: (Units=1/GPa)
#
#
# Indices 1 2 3 4 5 6 
#
# 1 0.015709 -0.004446 -0.004522 0.003205 -0.001563 -0.003223
# 2 -0.004446 0.012212 -0.002241 -0.003015 0.002509 -0.001907
# 3 -0.004522 -0.002241 0.010601 0.003169 0.000012 0.008141
# 4 0.003205 -0.003015 0.003169 0.023443 -0.001063 0.005930
# 5 -0.001563 0.002509 0.000012 -0.001063 0.020024 -0.000995
# 6 -0.003223 -0.001907 0.008141 0.005930 -0.000995 0.048366
#
#
# Mechanical properties :
#
#
# Convention : Reuss Voigt Hill
#
# Bulk Modulus (GPa) = 62.09697 66.93131 64.51414
# Shear Modulus (GPa) = 31.61736 38.90511 35.26123
#
# Velocity S-wave (km/s) = 3.52644 3.91180 3.72411
# Velocity P-wave (km/s) = 6.40352 6.83582 6.62320
#
# Compressibility (1/GPa) = 0.01610385
#
# Stress axis : x y z
#
# Youngs Moduli (GPa) = 63.65611 81.88739 94.33364
#
# Poissons Ratio (x) = 0.36410 0.42654
# Poissons Ratio (y) = 0.28304 0.21141
# Poissons Ratio (z) = 0.28783 0.18352
#
# Static dielectric constant tensor:
#      x y z
#    x 2.127490 0.033660 -0.045940 
#    y 0.033660 2.096110 -0.070400 
#    z -0.045940 -0.070400 2.054250 
# 
# From -- ./inp_files/478973.got.cif
#   From: 2010.05.17/outbox.cif.g08.bks.cpg/sg2_240_cif.got.tgz:478973.got - 2010.06.03 11:33:40.
