data_PCOD9028979
_publ_section_title
;
Structure prediction by ZEFSAII (Michael W. Deem and Ramdas Pophale) SiO2 
 PCOD9028979
Probable space group: P -1
;
_chemical_formula_sum "Si O2"
_cell_formula_units_Z 14
_cell_length_a 4.990930
_cell_length_b 8.746778
_cell_length_c 17.908546
_cell_angle_alpha 55.696894
_cell_angle_beta 101.053998
_cell_angle_gamma 125.180009
_cell_volume 517.514269
_symmetry_space_group_name_H-M "P -1"
_symmetry_group_IT_number 2
_symmetry_cell_setting 'triclinic'
loop_
_space_group_symop_operation_xyz
x,y,z
-x,-y,-z
loop_
_atom_site_type_symbol
_atom_site_label
_atom_site_fract_x
_atom_site_fract_y
_atom_site_fract_z
Si Si1 0.024936 0.614543 0.174734
Si Si2 0.765657 0.770522 0.002557
Si Si3 0.220205 0.464241 0.438267
Si Si4 0.330276 0.908218 0.890252
Si Si5 0.287775 0.014644 0.396664
Si Si6 0.704490 0.517442 0.341065
Si Si7 0.818171 0.121592 0.279177
O O1 0.871645 0.626989 0.241163
O O2 0.015554 0.389906 0.231399
O O3 0.394770 0.845131 0.127082
O O4 0.781630 0.594450 0.101992
O O5 0.428558 0.745523 0.972956
O O6 0.036011 0.184701 0.075578
O O7 0.000000 0.000000 0.000000
O O8 0.500000 0.500000 0.500000
O O9 0.444672 0.560214 0.349131
O O10 0.942697 0.195538 0.503881
O O11 0.999331 0.564487 0.399935
O O12 0.345467 0.924321 0.797773
O O13 0.480943 0.248330 0.387912
O O14 0.554897 0.005580 0.364965
O O15 0.057388 0.039072 0.319999
#
# Coordination Sequence:
#
# PCOD9028979 Si02
#       7
#     2   2   2   2   2   2   2
#     4  10  24  42  68  93 135 168 228 265 326 401
#     4  10  22  42  65  98 129 177 216 272 327 387
#     4  12  26  41  68  98 131 167 220 271 330 396
#     4  11  24  41  68  94 136 173 217 274 330 379
#     4  11  24  45  66  93 140 167 225 269 323 401
#     4  11  24  43  66  96 125 182 211 269 336 384
#     4  11  25  42  67 102 128 182 217 273 327 386
#
# _framework density 27.052396999999999
#
# number of rings (size 3 to 8) (size 9 to 14) (size 15 to 20)
#    0.000    1.143    0.000    6.429    4.000   11.429 
#    0.000    0.000    0.000    0.000    0.000    0.000 
#    0.000    0.000    0.000    0.000    0.000    0.000 
#
# Total GULP energy -78559.170446 kJ/mol
# GULP energy per Si atom -5611.369318 kJ/mol
# Density = 2.699082 g / cm^3
# Si number density = 27.052397 Si / 1000 Ang^3
#
#
#
# Elastic Constant Matrix: (Units=GPa)
#
#
# Indices 1 2 3 4 5 6 
#
# 1 127.5568 -5.6976 33.6842 6.8540 -2.7563 10.0716
# 2 -5.6976 85.0715 13.5564 3.6150 10.0736 12.8799
# 3 33.6842 13.5564 102.1750 2.7247 9.3639 2.4002
# 4 6.8540 3.6150 2.7247 41.0597 2.9795 4.6027
# 5 -2.7563 10.0736 9.3639 2.9795 54.0969 8.1920
# 6 10.0716 12.8799 2.4002 4.6027 8.1920 20.5883
#
#
#
# Elastic Compliance Matrix: (Units=1/GPa)
#
#
# Indices 1 2 3 4 5 6 
#
# 1 0.009345 0.001880 -0.003317 -0.000974 0.001631 -0.005792
# 2 0.001880 0.013663 -0.002150 -0.000329 -0.000717 -0.008858
# 3 -0.003317 -0.002150 0.011303 -0.000137 -0.002099 0.002516
# 4 -0.000974 -0.000329 -0.000137 0.025125 -0.000642 -0.004663
# 5 0.001631 -0.000717 -0.002099 -0.000642 0.020319 -0.008046
# 6 -0.005792 -0.008858 0.002516 -0.004663 -0.008046 0.060896
#
#
# Mechanical properties :
#
#
# Convention : Reuss Voigt Hill
#
# Bulk Modulus (GPa) = 36.85255 44.20991 40.53123
# Shear Modulus (GPa) = 31.87326 41.36634 36.61980
#
# Velocity S-wave (km/s) = 3.43622 3.91464 3.68321
# Velocity P-wave (km/s) = 5.42178 6.06715 5.75352
#
# Compressibility (1/GPa) = 0.02713516
#
# Stress axis : x y z
#
# Youngs Moduli (GPa) = 107.01445 73.18914 88.47271
#
# Poissons Ratio (x) = -0.13757 0.29350
# Poissons Ratio (y) = -0.20114 0.19021
# Poissons Ratio (z) = 0.35502 0.15735
#
# Static dielectric constant tensor:
#      x y z
#    x 2.051480 -0.004510 0.027710 
#    y -0.004510 2.131790 0.036710 
#    z 0.027710 0.036710 2.103380 
# 
# From -- ./inp_files/321960.got.cif
#   From: 2010.05.17/outbox.cif.g08.bks.cpg/sg2_161_cif.got.tgz:321960.got - 2010.06.03 11:33:40.
