data_PCOD9028766
_publ_section_title
;
Structure prediction by ZEFSAII (Michael W. Deem and Ramdas Pophale) SiO2 
 PCOD9028766
Probable space group: P -1
;
_chemical_formula_sum "Si O2"
_cell_formula_units_Z 15
_cell_length_a 24.973825
_cell_length_b 6.362060
_cell_length_c 9.990697
_cell_angle_alpha 131.668815
_cell_angle_beta 34.090490
_cell_angle_gamma 121.199583
_cell_volume 662.612021
_symmetry_space_group_name_H-M "P -1"
_symmetry_group_IT_number 2
_symmetry_cell_setting 'triclinic'
loop_
_space_group_symop_operation_xyz
x,y,z
-x,-y,-z
loop_
_atom_site_type_symbol
_atom_site_label
_atom_site_fract_x
_atom_site_fract_y
_atom_site_fract_z
Si Si1 0.960961 0.380231 0.393038
Si Si2 0.315671 0.178486 0.662735
Si Si3 0.183702 0.093060 0.154638
Si Si4 0.609819 0.129793 0.973926
Si Si5 0.155961 0.450240 0.900187
Si Si6 0.500000 0.500000 0.500000
Si Si7 0.466988 0.706808 0.039399
Si Si8 0.808548 0.936734 0.567996
O O1 0.893150 0.638185 0.582650
O O2 0.900571 0.114760 0.437192
O O3 0.000000 0.500000 0.500000
O O4 0.056063 0.317738 0.082828
O O5 0.237770 0.319384 0.777833
O O6 0.396440 0.386288 0.619478
O O7 0.372518 0.894502 0.366137
O O8 0.259874 0.119507 0.890004
O O9 0.219682 0.093801 0.232848
O O10 0.142951 0.786635 0.087916
O O11 0.551771 0.175375 0.248968
O O12 0.564445 0.867627 0.888127
O O13 0.562655 0.390591 0.090671
O O14 0.720877 0.112590 0.750486
O O15 0.181465 0.356414 0.656696
O O16 0.500000 0.500000 0.000000
#
# Coordination Sequence:
#
# PCOD9028766 Si02
#       8
#     2   2   2   2   2   1   2   2
#     4  12  25  49  74 103 149 193 236 303 369 431
#     4  11  24  46  72 101 146 190 233 298 359 425
#     4  12  26  45  76 110 141 191 245 300 360 441
#     4  10  22  42  64  98 136 176 230 290 347 411
#     4  12  26  48  75 104 149 193 240 302 369 427
#     4  10  22  42  70  96 138 190 230 288 364 416
#     4  10  23  40  68  96 135 180 228 280 343 423
#     4  12  27  46  75 107 147 189 244 304 363 433
#
# _framework density 22.637684
#
# number of rings (size 3 to 8) (size 9 to 14) (size 15 to 20)
#    0.000    0.800    4.000    2.400    1.867    4.800 
#    0.000    4.667    0.000    0.000    0.000    0.000 
#    0.000    0.000    0.000    0.000    0.000    0.000 
#
# Total GULP energy -83518.077718 kJ/mol
# GULP energy per Si atom -5567.871848 kJ/mol
# Density = 2.258616 g / cm^3
# Si number density = 22.637684 Si / 1000 Ang^3
#
#
#
# Elastic Constant Matrix: (Units=GPa)
#
#
# Indices 1 2 3 4 5 6 
#
# 1 100.4891 41.1888 18.1831 -15.3900 -6.1805 1.3161
# 2 41.1888 46.5859 11.0739 -9.4705 -2.1564 -11.9468
# 3 18.1831 11.0739 82.5676 -17.4389 -9.9637 1.1352
# 4 -15.3900 -9.4705 -17.4389 34.5207 2.5961 -5.3340
# 5 -6.1805 -2.1564 -9.9637 2.5961 41.5620 -0.4565
# 6 1.3161 -11.9468 1.1352 -5.3340 -0.4565 28.7187
#
#
#
# Elastic Compliance Matrix: (Units=1/GPa)
#
#
# Indices 1 2 3 4 5 6 
#
# 1 0.017355 -0.016650 -0.001033 0.001406 0.001300 -0.007399
# 2 -0.016650 0.042923 -0.000971 0.006997 -0.000700 0.019945
# 3 -0.001033 -0.000971 0.014120 0.006241 0.002794 0.000289
# 4 0.001406 0.006997 0.006241 0.036111 -0.000085 0.009305
# 5 0.001300 -0.000700 0.002794 -0.000085 0.024892 -0.000081
# 6 -0.007399 0.019945 0.000289 0.009305 -0.000081 0.045172
#
#
# Mechanical properties :
#
#
# Convention : Reuss Voigt Hill
#
# Bulk Modulus (GPa) = 26.96187 41.17045 34.06616
# Shear Modulus (GPa) = 21.71586 31.57340 26.64463
#
# Velocity S-wave (km/s) = 3.10058 3.73866 3.43447
# Velocity P-wave (km/s) = 4.97536 6.07148 5.55054
#
# Compressibility (1/GPa) = 0.03708942
#
# Stress axis : x y z
#
# Youngs Moduli (GPa) = 57.61934 23.29757 70.81972
#
# Poissons Ratio (x) = 0.38791 0.07317
# Poissons Ratio (y) = 0.95939 0.06876
# Poissons Ratio (z) = 0.05953 0.02262
#
# Static dielectric constant tensor:
#      x y z
#    x 2.003140 -0.038330 0.274650 
#    y -0.038330 1.926000 0.079300 
#    z 0.274650 0.079300 2.353190 
# 
# From -- ./inp_files/105172.got.cif
#   From: 2010.05.17/outbox.cif.g08.bks.cpg/sg2_53_cif.got.tgz:105172.got - 2010.06.03 11:33:40.
