data_PCOD9028546
_publ_section_title
;
Structure prediction by ZEFSAII (Michael W. Deem and Ramdas Pophale) SiO2 
 PCOD9028546
Probable space group: P -1
;
_chemical_formula_sum "Si O2"
_cell_formula_units_Z 16
_cell_length_a 8.597444
_cell_length_b 13.996996
_cell_length_c 5.639919
_cell_angle_alpha 99.353886
_cell_angle_beta 97.690996
_cell_angle_gamma 67.707303
_cell_volume 617.682187
_symmetry_space_group_name_H-M "P -1"
_symmetry_group_IT_number 2
_symmetry_cell_setting 'triclinic'
loop_
_space_group_symop_operation_xyz
x,y,z
-x,-y,-z
loop_
_atom_site_type_symbol
_atom_site_label
_atom_site_fract_x
_atom_site_fract_y
_atom_site_fract_z
Si Si1 0.331219 0.103497 0.473818
Si Si2 0.150530 0.084306 0.923798
Si Si3 0.349790 0.652603 0.575268
Si Si4 0.523319 0.736601 0.269534
Si Si5 0.008114 0.614460 0.061168
Si Si6 0.783896 0.148443 0.047666
Si Si7 0.024732 0.610571 0.560044
Si Si8 0.367078 0.461112 0.074128
O O1 0.237371 0.097114 0.201255
O O2 0.390047 0.203027 0.524205
O O3 0.500000 0.000000 0.500000
O O4 0.228006 0.108084 0.703138
O O5 0.173691 0.962954 0.869515
O O6 0.947593 0.143919 0.927135
O O7 0.396811 0.691127 0.354164
O O8 0.222363 0.593127 0.579579
O O9 0.254319 0.758766 0.738657
O O10 0.536931 0.590177 0.688702
O O11 0.394506 0.823299 0.110119
O O12 0.649357 0.636665 0.110488
O O13 0.953260 0.667522 0.322687
O O14 0.949519 0.663970 0.814551
O O15 0.209578 0.567483 0.093173
O O16 0.000000 0.500000 0.000000
O O17 0.000000 0.500000 0.500000
O O18 0.500000 0.500000 0.000000
#
# Coordination Sequence:
#
# PCOD9028546 Si02
#       8
#     2   2   2   2   2   2   2   2
#     4  12  25  47  74 110 148 188 234 297 362 422
#     4  11  26  47  77 106 146 190 239 288 362 431
#     4  11  24  42  71  99 141 184 241 291 355 424
#     4  11  26  43  72 104 145 190 237 297 359 433
#     4  10  22  42  63  92 126 175 227 284 343 401
#     4  10  25  46  72 106 141 191 236 295 356 430
#     4  10  22  42  65  93 128 177 229 285 349 401
#     4  11  23  42  67  96 131 187 239 285 348 421
#
# _framework density 25.903289999999998
#
# number of rings (size 3 to 8) (size 9 to 14) (size 15 to 20)
#    0.000    1.250    2.500    1.875    8.750    2.000 
#    9.000    0.000    0.000    0.000    0.000    0.000 
#    0.000    0.000    0.000    0.000    0.000    0.000 
#
# Total GULP energy -89350.568828 kJ/mol
# GULP energy per Si atom -5584.410552 kJ/mol
# Density = 2.584433 g / cm^3
# Si number density = 25.903290 Si / 1000 Ang^3
#
#
#
# Elastic Constant Matrix: (Units=GPa)
#
#
# Indices 1 2 3 4 5 6 
#
# 1 103.9271 41.8325 36.5451 9.7076 5.4955 16.4872
# 2 41.8325 128.2077 37.5749 17.6167 1.8816 -7.3300
# 3 36.5451 37.5749 171.0915 7.6309 -19.6582 -1.1270
# 4 9.7076 17.6167 7.6309 28.3718 12.5854 7.2728
# 5 5.4955 1.8816 -19.6582 12.5854 38.4997 3.4714
# 6 16.4872 -7.3300 -1.1270 7.2728 3.4714 53.1409
#
#
#
# Elastic Compliance Matrix: (Units=1/GPa)
#
#
# Indices 1 2 3 4 5 6 
#
# 1 0.012725 -0.003843 -0.002258 0.000986 -0.002699 -0.004484
# 2 -0.003843 0.010390 -0.001011 -0.006299 0.001279 0.003382
# 3 -0.002258 -0.001011 0.007258 -0.002962 0.004974 0.000795
# 4 0.000986 -0.006299 -0.002962 0.048760 -0.016670 -0.006822
# 5 -0.002699 0.001279 0.004974 -0.016670 0.034181 0.001168
# 6 -0.004484 0.003382 0.000795 -0.006822 0.001168 0.021550
#
#
# Mechanical properties :
#
#
# Convention : Reuss Voigt Hill
#
# Bulk Modulus (GPa) = 61.91838 70.57014 66.24426
# Shear Modulus (GPa) = 32.36879 43.15408 37.76143
#
# Velocity S-wave (km/s) = 3.53881 4.08606 3.82224
# Velocity P-wave (km/s) = 6.37598 7.04017 6.71629
#
# Compressibility (1/GPa) = 0.01615029
#
# Stress axis : x y z
#
# Youngs Moduli (GPa) = 78.58672 96.24601 137.77845
#
# Poissons Ratio (x) = 0.36983 0.31108
# Poissons Ratio (y) = 0.30197 0.13929
# Poissons Ratio (z) = 0.17743 0.09730
#
# Static dielectric constant tensor:
#      x y z
#    x 1.965460 0.168420 -0.067480 
#    y 0.168420 1.886580 0.111690 
#    z -0.067480 0.111690 2.171950 
# 
# From -- ./inp_files/39412.got.cif
#   From: 2010.05.17/outbox.cif.g08.bks.cpg/sg2_20_cif.got.tgz:39412.got - 2010.06.03 11:33:40.
