data_PCOD9028560
_publ_section_title
;
Structure prediction by ZEFSAII (Michael W. Deem and Ramdas Pophale) SiO2 
 PCOD9028560
Probable space group: P -1
;
_chemical_formula_sum "Si O2"
_cell_formula_units_Z 16
_cell_length_a 12.687480
_cell_length_b 10.083246
_cell_length_c 5.110170
_cell_angle_alpha 78.274889
_cell_angle_beta 80.733148
_cell_angle_gamma 103.909013
_cell_volume 605.999610
_symmetry_space_group_name_H-M "P -1"
_symmetry_group_IT_number 2
_symmetry_cell_setting 'triclinic'
loop_
_space_group_symop_operation_xyz
x,y,z
-x,-y,-z
loop_
_atom_site_type_symbol
_atom_site_label
_atom_site_fract_x
_atom_site_fract_y
_atom_site_fract_z
Si Si1 0.696655 0.546506 0.677680
Si Si2 0.218721 0.678136 0.003996
Si Si3 0.477490 0.318336 0.745139
Si Si4 0.539173 0.869888 0.654880
Si Si5 0.116544 0.561595 0.575999
Si Si6 0.757062 0.773008 0.968855
Si Si7 0.997977 0.094466 0.211188
Si Si8 0.749701 0.030375 0.238082
O O1 0.569447 0.464711 0.698271
O O2 0.799032 0.535258 0.455257
O O3 0.721669 0.699951 0.730117
O O4 0.717244 0.439493 0.941214
O O5 0.125619 0.610949 0.850076
O O6 0.294425 0.834568 0.856417
O O7 0.171702 0.691764 0.307144
O O8 0.502860 0.253504 0.490816
O O9 0.479037 0.202108 0.021561
O O10 0.349358 0.323535 0.788697
O O11 0.672297 0.939382 0.526240
O O12 0.500000 0.000000 0.500000
O O13 0.000000 0.500000 0.500000
O O14 0.888411 0.779892 0.910643
O O15 0.757045 0.925229 0.037675
O O16 0.874679 0.109500 0.246707
O O17 0.000000 0.000000 0.500000
O O18 0.000000 0.000000 0.000000
#
# Coordination Sequence:
#
# PCOD9028560 Si02
#       8
#     2   2   2   2   2   2   2   2
#     4  10  25  44  70  96 138 175 224 269 332 394
#     4  10  24  42  69  97 135 170 221 272 335 385
#     4  11  24  43  65  97 131 177 220 274 324 391
#     4  11  24  41  69  98 134 172 223 270 333 392
#     4  10  24  43  67  98 133 177 222 273 329 393
#     4  10  23  47  64 102 129 181 219 273 329 398
#     4  10  22  42  63  94 131 171 213 268 329 389
#     4  10  23  43  71  99 135 171 221 279 331 390
#
# _framework density 26.402657000000001
#
# number of rings (size 3 to 8) (size 9 to 14) (size 15 to 20)
#    0.750    1.000    0.000    2.625    5.250    5.000 
#    9.000    3.125    0.000    0.000    0.000    0.000 
#    0.000    0.000    0.000    0.000    0.000    0.000 
#
# Total GULP energy -89222.566934 kJ/mol
# GULP energy per Si atom -5576.410433 kJ/mol
# Density = 2.634256 g / cm^3
# Si number density = 26.402657 Si / 1000 Ang^3
#
#
#
# Elastic Constant Matrix: (Units=GPa)
#
#
# Indices 1 2 3 4 5 6 
#
# 1 136.3007 71.7634 20.1667 -7.3745 -13.1437 27.6526
# 2 71.7634 123.2815 17.8690 -20.4996 -1.5009 13.0653
# 3 20.1667 17.8690 110.2179 -7.1339 13.6973 7.9460
# 4 -7.3745 -20.4996 -7.1339 54.1644 5.8832 -0.8940
# 5 -13.1437 -1.5009 13.6973 5.8832 29.4451 -3.0788
# 6 27.6526 13.0653 7.9460 -0.8940 -3.0788 55.9329
#
#
#
# Elastic Compliance Matrix: (Units=1/GPa)
#
#
# Indices 1 2 3 4 5 6 
#
# 1 0.012479 -0.006814 -0.001749 -0.001827 0.005980 -0.004029
# 2 -0.006814 0.012733 -0.000180 0.004211 -0.003117 0.000316
# 3 -0.001749 -0.000180 0.010344 0.001697 -0.006032 -0.000867
# 4 -0.001827 0.004211 0.001697 0.020628 -0.005543 -0.000297
# 5 0.005980 -0.003117 -0.006032 -0.005543 0.040466 0.000767
# 6 -0.004029 0.000316 -0.000867 -0.000297 0.000767 0.019957
#
#
# Mechanical properties :
#
#
# Convention : Reuss Voigt Hill
#
# Bulk Modulus (GPa) = 55.34665 65.48871 60.41768
# Shear Modulus (GPa) = 35.68424 45.24187 40.46305
#
# Velocity S-wave (km/s) = 3.68032 4.14398 3.91901
# Velocity P-wave (km/s) = 6.25042 6.91046 6.58871
#
# Compressibility (1/GPa) = 0.01806794
#
# Stress axis : x y z
#
# Youngs Moduli (GPa) = 80.13722 78.53507 96.67229
#
# Poissons Ratio (x) = 0.53516 0.16912
# Poissons Ratio (y) = 0.54608 0.01743
# Poissons Ratio (z) = 0.14019 0.01416
#
# Static dielectric constant tensor:
#      x y z
#    x 2.466830 -0.134390 0.051730 
#    y -0.134390 2.043560 -0.088890 
#    z 0.051730 -0.088890 2.211840 
# 
# From -- ./inp_files/94939.got.cif
#   From: 2010.05.17/outbox.cif.g08.bks.cpg/sg2_48_cif.got.tgz:94939.got - 2010.06.03 11:33:40.
