data_PCOD9028953
_publ_section_title
;
Structure prediction by ZEFSAII (Michael W. Deem and Ramdas Pophale) SiO2 
 PCOD9028953
Probable space group: P -1
;
_chemical_formula_sum "Si O2"
_cell_formula_units_Z 16
_cell_length_a 9.856290
_cell_length_b 13.516047
_cell_length_c 14.012007
_cell_angle_alpha 36.251411
_cell_angle_beta 86.159435
_cell_angle_gamma 110.893310
_cell_volume 790.794479
_symmetry_space_group_name_H-M "P -1"
_symmetry_group_IT_number 2
_symmetry_cell_setting 'triclinic'
loop_
_space_group_symop_operation_xyz
x,y,z
-x,-y,-z
loop_
_atom_site_type_symbol
_atom_site_label
_atom_site_fract_x
_atom_site_fract_y
_atom_site_fract_z
Si Si1 0.136235 0.576565 0.524496
Si Si2 0.013573 0.064375 0.558596
Si Si3 0.417221 0.513219 0.354236
Si Si4 0.818630 0.439039 0.777172
Si Si5 0.636872 0.819434 0.520253
Si Si6 0.516119 0.027223 0.239666
Si Si7 0.598901 0.763190 0.791530
Si Si8 0.197849 0.237632 0.761611
O O1 0.193749 0.432015 0.632704
O O2 0.000000 0.500000 0.500000
O O3 0.000982 0.506614 0.673367
O O4 0.330581 0.845160 0.323453
O O5 0.114482 0.330601 0.355626
O O6 0.140002 0.027379 0.627766
O O7 0.000000 0.000000 0.500000
O O8 0.800054 0.906889 0.722341
O O9 0.326670 0.613225 0.254616
O O10 0.449125 0.426628 0.326175
O O11 0.261652 0.291785 0.604285
O O12 0.621180 0.697348 0.250214
O O13 0.701443 0.215348 0.022082
O O14 0.616466 0.826028 0.629635
O O15 0.546325 0.891541 0.409779
O O16 0.498888 0.174025 0.194015
O O17 0.500000 0.500000 0.000000
O O18 0.000000 0.000000 0.000000
#
# Coordination Sequence:
#
# PCOD9028953 Si02
#       8
#     2   2   2   2   2   2   2   2
#     4  12  26  46  65 100 134 175 228 277 326 397
#     4   9  19  41  65  94 130 168 218 266 318 401
#     4  10  22  44  62  97 131 170 219 279 322 400
#     4  11  24  42  68  93 134 175 219 268 339 387
#     4  10  22  42  65  96 138 168 218 277 324 392
#     4  12  25  44  68 100 136 175 221 278 330 388
#     4  11  22  44  71 100 133 180 217 266 337 400
#     4  11  25  42  69  92 131 173 227 273 338 386
#
# _framework density 20.232817000000001
#
# number of rings (size 3 to 8) (size 9 to 14) (size 15 to 20)
#    0.000    1.250    3.750    2.625    3.500    0.500 
#    6.750    3.125    0.000    0.000    0.000    0.000 
#    0.000    0.000    0.000    0.000    0.000    0.000 
#
# Total GULP energy -89201.160521 kJ/mol
# GULP energy per Si atom -5575.072533 kJ/mol
# Density = 2.018677 g / cm^3
# Si number density = 20.232817 Si / 1000 Ang^3
#
#
#
# Elastic Constant Matrix: (Units=GPa)
#
#
# Indices 1 2 3 4 5 6 
#
# 1 69.2745 12.5606 5.2597 -7.3214 -2.8351 3.4807
# 2 12.5606 76.7412 17.2855 -7.3436 -4.3485 -4.1995
# 3 5.2597 17.2855 82.5213 -12.3521 -18.5600 2.8245
# 4 -7.3214 -7.3436 -12.3521 18.7608 -1.8570 0.8886
# 5 -2.8351 -4.3485 -18.5600 -1.8570 30.3425 1.8405
# 6 3.4807 -4.1995 2.8245 0.8886 1.8405 39.6094
#
#
#
# Elastic Compliance Matrix: (Units=1/GPa)
#
#
# Indices 1 2 3 4 5 6 
#
# 1 0.015593 -0.002153 0.000946 0.006176 0.002221 -0.001908
# 2 -0.002153 0.014342 -0.002332 0.003205 0.000516 0.001780
# 3 0.000946 -0.002332 0.016834 0.011729 0.010909 -0.002301
# 4 0.006176 0.003205 0.011729 0.066068 0.012442 -0.003100
# 5 0.002221 0.000516 0.010909 0.012442 0.040860 -0.003096
# 6 -0.001908 0.001780 -0.002301 -0.003100 -0.003096 0.025980
#
#
# Mechanical properties :
#
#
# Convention : Reuss Voigt Hill
#
# Bulk Modulus (GPa) = 25.19414 33.19428 29.19421
# Shear Modulus (GPa) = 25.00181 30.63797 27.81989
#
# Velocity S-wave (km/s) = 3.51907 3.89559 3.71211
# Velocity P-wave (km/s) = 5.38433 6.05606 5.73005
#
# Compressibility (1/GPa) = 0.03969176
#
# Stress axis : x y z
#
# Youngs Moduli (GPa) = 64.13019 69.72609 59.40332
#
# Poissons Ratio (x) = 0.15012 -0.05621
# Poissons Ratio (y) = 0.13807 0.13853
# Poissons Ratio (z) = -0.06069 0.16261
#
# Static dielectric constant tensor:
#      x y z
#    x 1.756810 0.001130 -0.019270 
#    y 0.001130 1.773900 0.003470 
#    z -0.019270 0.003470 1.715840 
# 
# From -- ./inp_files/500556.got.cif
#   From: 2010.05.17/outbox.cif.g08.bks.cpg/sg2_251_cif.got.tgz:500556.got - 2010.06.03 11:33:40.
