data_PCOD9028324
_publ_section_title
;
Structure prediction by ZEFSAII (Michael W. Deem and Ramdas Pophale) SiO2 
 PCOD9028324
Probable space group: P -1
;
_chemical_formula_sum "Si O2"
_cell_formula_units_Z 10
_cell_length_a 10.445462
_cell_length_b 5.694551
_cell_length_c 8.292386
_cell_angle_alpha 87.562071
_cell_angle_beta 68.031670
_cell_angle_gamma 125.954230
_cell_volume 346.970845
_symmetry_space_group_name_H-M "P -1"
_symmetry_group_IT_number 2
_symmetry_cell_setting 'triclinic'
loop_
_space_group_symop_operation_xyz
x,y,z
-x,-y,-z
loop_
_atom_site_type_symbol
_atom_site_label
_atom_site_fract_x
_atom_site_fract_y
_atom_site_fract_z
Si Si1 0.571014 0.190509 0.292325
Si Si2 0.895996 0.888393 0.382290
Si Si3 0.843756 0.327894 0.344415
Si Si4 0.254457 0.286872 0.011115
Si Si5 0.278497 0.805226 0.161926
O O1 0.770547 0.276183 0.196327
O O2 0.500000 0.000000 0.500000
O O3 0.411817 0.958048 0.247819
O O4 0.643264 0.535247 0.209253
O O5 0.796873 0.532794 0.429276
O O6 0.782056 0.000007 0.434292
O O7 0.000000 0.000000 0.500000
O O8 0.037275 0.050373 0.159748
O O9 0.058215 0.558927 0.283654
O O10 0.310752 0.584898 0.074900
O O11 0.311474 0.095499 0.053621
#
# Coordination Sequence:
#
# PCOD9028324 Si02
#       5
#     2   2   2   2   2
#     4  12  28  44  72 110 143 182 239 291 345 419
#     4  10  22  41  76  97 135 184 231 282 348 412
#     4  10  25  44  71 100 139 180 237 280 354 404
#     4  10  24  47  73 102 141 189 233 283 356 416
#     4  10  24  49  75  96 143 189 231 291 351 412
#
# _framework density 28.820865000000001
#
# number of rings (size 3 to 8) (size 9 to 14) (size 15 to 20)
#    0.000    1.600    0.000    1.800   11.200    9.600 
#    0.000    5.000    0.000    0.000    0.000    0.000 
#    0.000    0.000    0.000    0.000    0.000    0.000 
#
# Total GULP energy -55737.550882 kJ/mol
# GULP energy per Si atom -5573.755088 kJ/mol
# Density = 2.875527 g / cm^3
# Si number density = 28.820865 Si / 1000 Ang^3
#
#
#
# Elastic Constant Matrix: (Units=GPa)
#
#
# Indices 1 2 3 4 5 6 
#
# 1 137.2192 106.8916 17.8791 -0.6394 39.1586 -7.9964
# 2 106.8916 248.0167 80.3010 -18.7393 27.1622 -38.3067
# 3 17.8791 80.3010 139.4361 -39.9571 15.7714 8.0750
# 4 -0.6394 -18.7393 -39.9571 60.7370 7.1897 2.9064
# 5 39.1586 27.1622 15.7714 7.1897 58.2605 -8.6864
# 6 -7.9964 -38.3067 8.0750 2.9064 -8.6864 71.1858
#
#
#
# Elastic Compliance Matrix: (Units=1/GPa)
#
#
# Indices 1 2 3 4 5 6 
#
# 1 0.014316 -0.006925 0.003745 0.001614 -0.008143 -0.003603
# 2 -0.006925 0.009147 -0.005386 -0.001370 0.002785 0.005151
# 3 0.003745 -0.005386 0.012862 0.007684 -0.005164 -0.004880
# 4 0.001614 -0.001370 0.007684 0.021931 -0.005682 -0.003016
# 5 -0.008143 0.002785 -0.005164 -0.005682 0.024086 0.004341
# 6 -0.003603 0.005151 -0.004880 -0.003016 0.004341 0.017621
#
#
# Mechanical properties :
#
#
# Convention : Reuss Voigt Hill
#
# Bulk Modulus (GPa) = 52.10334 103.86835 77.98585
# Shear Modulus (GPa) = 40.48824 59.34334 49.91579
#
# Velocity S-wave (km/s) = 3.75216 4.54259 4.16616
# Velocity P-wave (km/s) = 6.07365 7.97690 7.08944
#
# Compressibility (1/GPa) = 0.01919263
#
# Stress axis : x y z
#
# Youngs Moduli (GPa) = 69.85423 109.32007 77.74862
#
# Poissons Ratio (x) = 0.75702 -0.29114
# Poissons Ratio (y) = 0.48373 0.41875
# Poissons Ratio (z) = -0.26158 0.58879
#
# Static dielectric constant tensor:
#      x y z
#    x 2.446810 0.218220 -0.051550 
#    y 0.218220 2.246430 0.131030 
#    z -0.051550 0.131030 2.770480 
# 
# From -- ./inp_files/228119.got.cif
#   From: 2010.05.17/outbox.cif.g08.bks.cpg/sg2_115_cif.got.tgz:228119.got - 2010.06.03 11:33:40.
