data_PCOD9028426
_publ_section_title
;
Structure prediction by ZEFSAII (Michael W. Deem and Ramdas Pophale) SiO2 
 PCOD9028426
Probable space group: P -1
;
_chemical_formula_sum "Si O2"
_cell_formula_units_Z 16
_cell_length_a 5.431423
_cell_length_b 10.172663
_cell_length_c 14.222423
_cell_angle_alpha 111.849389
_cell_angle_beta 115.282721
_cell_angle_gamma 71.788454
_cell_volume 648.367330
_symmetry_space_group_name_H-M "P -1"
_symmetry_group_IT_number 2
_symmetry_cell_setting 'triclinic'
loop_
_space_group_symop_operation_xyz
x,y,z
-x,-y,-z
loop_
_atom_site_type_symbol
_atom_site_label
_atom_site_fract_x
_atom_site_fract_y
_atom_site_fract_z
Si Si1 0.140628 0.677643 0.553216
Si Si2 0.770923 0.330512 0.749529
Si Si3 0.701696 0.872851 0.211943
Si Si4 0.443204 0.357475 0.531862
Si Si5 0.330736 0.459315 0.050821
Si Si6 0.466392 0.963347 0.376386
Si Si7 0.044431 0.867861 0.762804
Si Si8 0.386778 0.862018 0.986533
O O1 0.259465 0.508893 0.510358
O O2 0.356005 0.738177 0.536224
O O3 0.160658 0.731243 0.678133
O O4 0.812337 0.711095 0.485713
O O5 0.665524 0.398451 0.651896
O O6 0.612855 0.434935 0.828719
O O7 0.674020 0.177882 0.687940
O O8 0.097036 0.281361 0.806990
O O9 0.721641 0.913913 0.335275
O O10 0.809633 0.001249 0.210914
O O11 0.414578 0.867019 0.106706
O O12 0.420273 0.291279 0.046469
O O13 0.500000 0.500000 0.000000
O O14 0.000000 0.500000 0.000000
O O15 0.500000 0.000000 0.500000
O O16 0.265389 0.080124 0.310488
O O17 0.106401 0.851940 0.880070
O O18 0.500000 0.000000 0.000000
#
# Coordination Sequence:
#
# PCOD9028426 Si02
#       8
#     2   2   2   2   2   2   2   2
#     4  10  22  42  61  97 129 178 230 292 359 438
#     4  11  24  40  69 100 140 190 243 307 374 447
#     4  10  23  42  65  99 139 186 247 302 373 443
#     4  10  23  39  67  91 136 174 233 291 361 436
#     4  12  26  48  77 111 153 201 257 317 384 457
#     4  11  25  41  65 103 145 196 254 313 378 457
#     4  10  23  39  66  96 139 183 246 302 377 438
#     4  10  22  49  73 108 151 197 254 318 384 463
#
# _framework density 24.677371000000001
#
# number of rings (size 3 to 8) (size 9 to 14) (size 15 to 20)
#    0.000    1.500    1.250    2.250    7.000    1.500 
#    4.500    2.500    0.000    0.000    0.000    0.000 
#    0.000    0.000    0.000    0.000    0.000    0.000 
#
# Total GULP energy -89166.025477 kJ/mol
# GULP energy per Si atom -5572.876592 kJ/mol
# Density = 2.462120 g / cm^3
# Si number density = 24.677371 Si / 1000 Ang^3
#
#
#
# Elastic Constant Matrix: (Units=GPa)
#
#
# Indices 1 2 3 4 5 6 
#
# 1 84.0206 33.3449 32.9706 0.2619 -0.0530 -8.3881
# 2 33.3449 121.0352 44.2462 6.7046 -7.0113 -18.4978
# 3 32.9706 44.2462 186.3484 1.1536 -13.4331 -5.7425
# 4 0.2619 6.7046 1.1536 43.4663 -9.3560 -5.3070
# 5 -0.0530 -7.0113 -13.4331 -9.3560 34.0093 0.6679
# 6 -8.3881 -18.4978 -5.7425 -5.3070 0.6679 21.8275
#
#
#
# Elastic Compliance Matrix: (Units=1/GPa)
#
#
# Indices 1 2 3 4 5 6 
#
# 1 0.014018 -0.002901 -0.001801 0.000469 -0.001210 0.002605
# 2 -0.002901 0.010960 -0.001760 -0.000424 0.001295 0.007567
# 3 -0.001801 -0.001760 0.006248 0.000545 0.002261 -0.000476
# 4 0.000469 -0.000424 0.000545 0.025274 0.006966 0.005896
# 5 -0.001210 0.001295 0.002261 0.006966 0.032440 0.001928
# 6 0.002605 0.007567 -0.000476 0.005896 0.001928 0.054477
#
#
# Mechanical properties :
#
#
# Convention : Reuss Voigt Hill
#
# Bulk Modulus (GPa) = 54.64231 68.05863 61.35047
# Shear Modulus (GPa) = 30.78042 38.58347 34.68194
#
# Velocity S-wave (km/s) = 3.53556 3.95842 3.75295
# Velocity P-wave (km/s) = 6.23359 6.96645 6.61018
#
# Compressibility (1/GPa) = 0.01830084
#
# Stress axis : x y z
#
# Youngs Moduli (GPa) = 71.33709 91.24391 160.05719
#
# Poissons Ratio (x) = 0.26473 0.28829
# Poissons Ratio (y) = 0.20697 0.28166
# Poissons Ratio (z) = 0.12849 0.16057
#
# Static dielectric constant tensor:
#      x y z
#    x 2.049770 -0.012300 0.005270 
#    y -0.012300 1.974200 -0.014900 
#    z 0.005270 -0.014900 2.017920 
# 
# From -- ./inp_files/482966.got.cif
#   From: 2010.05.17/outbox.cif.g08.bks.cpg/sg2_242_cif.got.tgz:482966.got - 2010.06.03 11:33:40.
