data_PCOD9028046
_publ_section_title
;
Structure prediction by ZEFSAII (Michael W. Deem and Ramdas Pophale) SiO2 
 PCOD9028046
Probable space group: P -1
;
_chemical_formula_sum "Si O2"
_cell_formula_units_Z 12
_cell_length_a 20.708591
_cell_length_b 12.296143
_cell_length_c 17.699487
_cell_angle_alpha 146.709402
_cell_angle_beta 20.229470
_cell_angle_gamma 157.992246
_cell_volume 563.466541
_symmetry_space_group_name_H-M "P -1"
_symmetry_group_IT_number 2
_symmetry_cell_setting 'triclinic'
loop_
_space_group_symop_operation_xyz
x,y,z
-x,-y,-z
loop_
_atom_site_type_symbol
_atom_site_label
_atom_site_fract_x
_atom_site_fract_y
_atom_site_fract_z
Si Si1 0.779934 0.760838 0.293774
Si Si2 0.181500 0.849105 0.009822
Si Si3 0.263926 0.184499 0.260531
Si Si4 0.023003 0.666689 0.379582
Si Si5 0.389720 0.676119 0.898293
Si Si6 0.805449 0.235503 0.499796
O O1 0.500000 0.500000 0.500000
O O2 0.743784 0.596309 0.164716
O O3 0.033204 0.891102 0.143882
O O4 0.820959 0.015327 0.368767
O O5 0.215843 0.979718 0.130397
O O6 0.000000 0.500000 0.000000
O O7 0.486517 0.043170 0.755126
O O8 0.517598 0.331289 0.124627
O O9 0.233777 0.380016 0.370836
O O10 0.000000 0.000000 0.500000
O O11 0.914183 0.404371 0.399150
O O12 0.315705 0.013308 0.284485
O O13 0.160260 0.668320 0.156420
O O14 0.000000 0.500000 0.500000
#
# Coordination Sequence:
#
# PCOD9028046 Si02
#       6
#     2   2   2   2   2   2
#     4  12  25  44  71 105 140 183 238 291 346 417
#     4  12  27  43  73 105 138 183 239 288 348 416
#     4  10  22  41  70  99 134 183 234 275 344 418
#     4  10  23  41  68  99 135 182 231 281 344 412
#     4  10  23  43  74  96 139 188 233 276 353 422
#     4  12  26  44  70 103 146 181 233 292 353 410
#
# _framework density 21.296738000000001
#
# number of rings (size 3 to 8) (size 9 to 14) (size 15 to 20)
#    0.000    1.000    1.667    5.000    7.000    4.667 
#    0.000    1.667    0.000    0.000    0.000    0.000 
#    0.000    0.000    0.000    0.000    0.000    0.000 
#
# Total GULP energy -67015.145712 kJ/mol
# GULP energy per Si atom -5584.595476 kJ/mol
# Density = 2.124827 g / cm^3
# Si number density = 21.296738 Si / 1000 Ang^3
#
#
#
# Elastic Constant Matrix: (Units=GPa)
#
#
# Indices 1 2 3 4 5 6 
#
# 1 129.5318 49.1793 41.8986 11.5218 -2.3630 -1.0609
# 2 49.1793 91.9486 25.9412 6.2823 8.8506 -13.5189
# 3 41.8986 25.9412 101.5717 -1.0985 -7.1982 0.3725
# 4 11.5218 6.2823 -1.0985 42.2545 5.0225 2.7561
# 5 -2.3630 8.8506 -7.1982 5.0225 28.6179 9.3927
# 6 -1.0609 -13.5189 0.3725 2.7561 9.3927 50.8196
#
#
#
# Elastic Compliance Matrix: (Units=1/GPa)
#
#
# Indices 1 2 3 4 5 6 
#
# 1 0.010978 -0.005350 -0.002988 -0.002502 0.002756 -0.001546
# 2 -0.005350 0.016043 -0.002468 -0.000431 -0.007799 0.005639
# 3 -0.002988 -0.002468 0.012000 0.001139 0.003854 -0.001581
# 4 -0.002502 -0.000431 0.001139 0.024959 -0.003902 -0.000808
# 5 0.002756 -0.007799 0.003854 -0.003902 0.042412 -0.009673
# 6 -0.001546 0.005639 -0.001581 -0.000808 -0.009673 0.022988
#
#
# Mechanical properties :
#
#
# Convention : Reuss Voigt Hill
#
# Bulk Modulus (GPa) = 57.44818 61.89893 59.67356
# Shear Modulus (GPa) = 31.88868 38.07395 34.98131
#
# Velocity S-wave (km/s) = 3.87376 4.23281 4.05726
# Velocity P-wave (km/s) = 6.85869 7.28127 7.07314
#
# Compressibility (1/GPa) = 0.01740699
#
# Stress axis : x y z
#
# Youngs Moduli (GPa) = 91.08929 62.33254 83.33657
#
# Poissons Ratio (x) = 0.33350 0.24902
# Poissons Ratio (y) = 0.48736 0.20571
# Poissons Ratio (z) = 0.27219 0.15386
#
# Static dielectric constant tensor:
#      x y z
#    x 1.919690 -0.052000 -0.041050 
#    y -0.052000 1.787650 0.042690 
#    z -0.041050 0.042690 1.787770 
# 
# From -- ./inp_files/190311.got.cif
#   From: 2010.05.17/outbox.cif.g08.bks.cpg/sg2_96_cif.got.tgz:190311.got - 2010.06.03 11:33:40.
