data_PCOD9028516
_publ_section_title
;
Structure prediction by ZEFSAII (Michael W. Deem and Ramdas Pophale) SiO2 
 PCOD9028516
Probable space group: P -1
;
_chemical_formula_sum "Si O2"
_cell_formula_units_Z 14
_cell_length_a 10.461473
_cell_length_b 8.405172
_cell_length_c 8.816384
_cell_angle_alpha 66.643755
_cell_angle_beta 49.235517
_cell_angle_gamma 70.596468
_cell_volume 536.036876
_symmetry_space_group_name_H-M "P -1"
_symmetry_group_IT_number 2
_symmetry_cell_setting 'triclinic'
loop_
_space_group_symop_operation_xyz
x,y,z
-x,-y,-z
loop_
_atom_site_type_symbol
_atom_site_label
_atom_site_fract_x
_atom_site_fract_y
_atom_site_fract_z
Si Si1 0.404478 0.714978 0.687229
Si Si2 0.667063 0.804948 0.951404
Si Si3 0.719584 0.990035 0.141714
Si Si4 0.159920 0.524173 0.159935
Si Si5 0.751941 0.103236 0.560839
Si Si6 0.954318 0.842915 0.286942
Si Si7 0.651436 0.411429 0.707696
O O1 0.426116 0.869611 0.732380
O O2 0.566978 0.573535 0.613154
O O3 0.351916 0.803472 0.535367
O O4 0.246047 0.622149 0.915845
O O5 0.831799 0.673125 0.828398
O O6 0.659975 0.975891 0.789898
O O7 0.676547 0.856066 0.099868
O O8 0.506667 0.698512 0.092191
O O9 0.816081 0.900302 0.244197
O O10 0.784227 0.271165 0.573618
O O11 0.861716 0.097571 0.915737
O O12 0.281983 0.522598 0.211675
O O13 0.990500 0.634630 0.313001
O O14 0.894790 0.964929 0.428560
#
# Coordination Sequence:
#
# PCOD9028516 Si02
#       7
#     2   2   2   2   2   2   2
#     4   9  19  39  60  85 116 154 195 238 295 347
#     4  11  23  38  60  92 119 154 200 245 294 346
#     4   9  19  39  66  86 116 156 198 245 290 356
#     4  10  22  42  63  82 122 163 193 239 296 360
#     4  11  22  37  62  91 119 152 199 249 288 349
#     4   9  20  40  60  87 119 158 196 235 302 352
#     4  11  23  41  60  86 123 161 194 237 302 356
#
# _framework density 26.117604
#
# number of rings (size 3 to 8) (size 9 to 14) (size 15 to 20)
#    0.000    2.000    0.000    5.143    0.000    4.571 
#    0.000   17.143    0.000    0.000    0.000    0.000 
#    0.000    0.000    0.000    0.000    0.000    0.000 
#
# Total GULP energy -78372.735825 kJ/mol
# GULP energy per Si atom -5598.052559 kJ/mol
# Density = 2.605816 g / cm^3
# Si number density = 26.117604 Si / 1000 Ang^3
#
#
#
# Elastic Constant Matrix: (Units=GPa)
#
#
# Indices 1 2 3 4 5 6 
#
# 1 34.7776 18.7916 19.6836 9.5386 9.3008 1.2942
# 2 18.7916 214.7290 39.7809 40.6649 10.9319 -11.4155
# 3 19.6836 39.7809 107.4230 -1.1936 2.2404 -0.3006
# 4 9.5386 40.6649 -1.1936 44.0946 -1.8906 6.1214
# 5 9.3008 10.9319 2.2404 -1.8906 31.6289 9.4823
# 6 1.2942 -11.4155 -0.3006 6.1214 9.4823 44.0425
#
#
#
# Elastic Compliance Matrix: (Units=1/GPa)
#
#
# Indices 1 2 3 4 5 6 
#
# 1 0.038445 0.000676 -0.007136 -0.010103 -0.012569 0.003107
# 2 0.000676 0.006834 -0.002644 -0.007182 -0.003872 0.003565
# 3 -0.007136 -0.002644 0.011581 0.004657 0.002975 -0.001684
# 4 -0.010103 -0.007182 0.004657 0.033162 0.009564 -0.008201
# 5 -0.012569 -0.003872 0.002975 0.009564 0.040188 -0.010596
# 6 0.003107 0.003565 -0.001684 -0.008201 -0.010596 0.026948
#
#
# Mechanical properties :
#
#
# Convention : Reuss Voigt Hill
#
# Bulk Modulus (GPa) = 25.87217 57.04908 41.46063
# Shear Modulus (GPa) = 26.56061 42.53145 34.54603
#
# Velocity S-wave (km/s) = 3.19244 4.03980 3.64085
# Velocity P-wave (km/s) = 4.84938 6.60685 5.79513
#
# Compressibility (1/GPa) = 0.03865157
#
# Stress axis : x y z
#
# Youngs Moduli (GPa) = 26.01150 146.31993 86.35123
#
# Poissons Ratio (x) = -0.09891 0.61621
# Poissons Ratio (y) = -0.01758 0.22830
# Poissons Ratio (z) = 0.18562 0.38684
#
# Static dielectric constant tensor:
#      x y z
#    x 2.035450 -0.030440 -0.073490 
#    y -0.030440 2.120570 0.009250 
#    z -0.073490 0.009250 2.078960 
# 
# From -- ./inp_files/237012.got.cif
#   From: 2010.05.17/outbox.cif.g08.bks.cpg/sg2_119_cif.got.tgz:237012.got - 2010.06.03 11:33:40.
