data_PCOD9028047
_publ_section_title
;
Structure prediction by ZEFSAII (Michael W. Deem and Ramdas Pophale) SiO2 
 PCOD9028047
Probable space group: P -1
;
_chemical_formula_sum "Si O2"
_cell_formula_units_Z 16
_cell_length_a 14.902592
_cell_length_b 18.344617
_cell_length_c 8.831609
_cell_angle_alpha 38.220989
_cell_angle_beta 42.688897
_cell_angle_gamma 29.398747
_cell_volume 723.032797
_symmetry_space_group_name_H-M "P -1"
_symmetry_group_IT_number 2
_symmetry_cell_setting 'triclinic'
loop_
_space_group_symop_operation_xyz
x,y,z
-x,-y,-z
loop_
_atom_site_type_symbol
_atom_site_label
_atom_site_fract_x
_atom_site_fract_y
_atom_site_fract_z
Si Si1 0.006033 0.635410 0.786453
Si Si2 0.378621 0.527852 0.467230
Si Si3 0.221797 0.133576 0.579952
Si Si4 0.401123 0.219634 0.420842
Si Si5 0.111570 0.075363 0.099719
Si Si6 0.302619 0.152010 0.926821
Si Si7 0.408076 0.667132 0.935936
Si Si8 0.262018 0.788996 0.609911
O O1 0.935244 0.738165 0.553135
O O2 0.209147 0.558526 0.689886
O O3 0.856530 0.753988 0.906553
O O4 0.000000 0.500000 0.000000
O O5 0.500000 0.500000 0.500000
O O6 0.529285 0.359951 0.460491
O O7 0.312395 0.668020 0.199838
O O8 0.271566 0.226539 0.453620
O O9 0.404959 0.971864 0.531057
O O10 0.153051 0.072623 0.876939
O O11 0.321302 0.255117 0.631608
O O12 0.449031 0.327865 0.175957
O O13 0.891112 0.219900 0.170259
O O14 0.178847 0.919772 0.363648
O O15 0.242502 0.091704 0.981500
O O16 0.500000 0.000000 0.000000
O O17 0.285778 0.810021 0.724540
O O18 0.500000 0.500000 0.000000
#
# Coordination Sequence:
#
# PCOD9028047 Si02
#       8
#     2   2   2   2   2   2   2   2
#     4  12  28  43  70 104 142 182 235 291 350 425
#     4  11  26  44  67  98 145 180 232 286 353 413
#     4  10  23  43  67 107 137 177 237 291 351 403
#     4  10  22  42  73  98 134 187 227 292 345 417
#     4  10  22  41  70  99 135 173 239 286 337 422
#     4  11  22  42  69  97 136 176 231 279 346 415
#     4  10  23  42  69  97 137 182 231 274 353 420
#     4  10  22  42  68  96 133 186 227 280 348 410
#
# _framework density 22.129009
#
# number of rings (size 3 to 8) (size 9 to 14) (size 15 to 20)
#    0.000    1.500    1.250    2.250    8.750    0.000 
#    0.000    2.500    0.000    0.000    0.000    0.000 
#    0.000    0.000    0.000    0.000    0.000    0.000 
#
# Total GULP energy -89154.708180 kJ/mol
# GULP energy per Si atom -5572.169261 kJ/mol
# Density = 2.207864 g / cm^3
# Si number density = 22.129009 Si / 1000 Ang^3
#
#
#
# Elastic Constant Matrix: (Units=GPa)
#
#
# Indices 1 2 3 4 5 6 
#
# 1 85.5280 28.5082 40.4473 17.4964 1.5821 -9.8219
# 2 28.5082 61.4207 33.1065 26.0512 -0.0680 -22.2999
# 3 40.4473 33.1065 138.0658 30.8737 5.4710 -7.2910
# 4 17.4964 26.0512 30.8737 29.9109 -6.7400 -9.9531
# 5 1.5821 -0.0680 5.4710 -6.7400 49.0158 6.0496
# 6 -9.8219 -22.2999 -7.2910 -9.9531 6.0496 26.2981
#
#
#
# Elastic Compliance Matrix: (Units=1/GPa)
#
#
# Indices 1 2 3 4 5 6 
#
# 1 0.014971 -0.004453 -0.002850 -0.001908 -0.000485 0.000414
# 2 -0.004453 0.035904 -0.001148 -0.021505 -0.005294 0.021542
# 3 -0.002850 -0.001148 0.010388 -0.009248 -0.002071 -0.002182
# 4 -0.001908 -0.021505 -0.009248 0.065378 0.009937 0.000946
# 5 -0.000485 -0.005294 -0.002071 0.009937 0.022839 -0.006738
# 6 0.000414 0.021542 -0.002182 0.000946 -0.006738 0.057750
#
#
# Mechanical properties :
#
#
# Convention : Reuss Voigt Hill
#
# Bulk Modulus (GPa) = 22.54316 54.34872 38.44594
# Shear Modulus (GPa) = 20.92734 33.24178 27.08456
#
# Velocity S-wave (km/s) = 3.07856 3.88000 3.50228
# Velocity P-wave (km/s) = 4.77974 6.68475 5.81084
#
# Compressibility (1/GPa) = 0.04435936
#
# Stress axis : x y z
#
# Youngs Moduli (GPa) = 66.79445 27.85210 96.26365
#
# Poissons Ratio (x) = 0.12403 0.27438
# Poissons Ratio (y) = 0.29745 0.11055
# Poissons Ratio (z) = 0.19038 0.03199
#
# Static dielectric constant tensor:
#      x y z
#    x 1.669720 -0.188560 0.050740 
#    y -0.188560 1.596960 0.010810 
#    z 0.050740 0.010810 1.969270 
# 
# From -- ./inp_files/317959.got.cif
#   From: 2010.05.17/outbox.cif.g08.bks.cpg/sg2_159_cif.got.tgz:317959.got - 2010.06.03 11:33:40.
