data_PCOD9028160
_publ_section_title
;
Structure prediction by ZEFSAII (Michael W. Deem and Ramdas Pophale) SiO2 
 PCOD9028160
Probable space group: P -1
;
_chemical_formula_sum "Si O2"
_cell_formula_units_Z 16
_cell_length_a 12.046593
_cell_length_b 9.098284
_cell_length_c 9.233640
_cell_angle_alpha 94.507239
_cell_angle_beta 62.091070
_cell_angle_gamma 126.190004
_cell_volume 693.468589
_symmetry_space_group_name_H-M "P -1"
_symmetry_group_IT_number 2
_symmetry_cell_setting 'triclinic'
loop_
_space_group_symop_operation_xyz
x,y,z
-x,-y,-z
loop_
_atom_site_type_symbol
_atom_site_label
_atom_site_fract_x
_atom_site_fract_y
_atom_site_fract_z
Si Si1 0.879442 0.316412 0.161627
Si Si2 0.138441 0.180015 0.520369
Si Si3 0.532519 0.092861 0.229348
Si Si4 0.999140 0.082740 0.155944
Si Si5 0.492809 0.388500 0.352633
Si Si6 0.020001 0.422793 0.628223
Si Si7 0.673639 0.255089 0.849018
Si Si8 0.667934 0.570792 0.967770
O O1 0.704926 0.164586 0.185902
O O2 0.956570 0.220050 0.157326
O O3 0.866837 0.405541 0.318906
O O4 0.000000 0.500000 0.000000
O O5 0.322980 0.298906 0.372015
O O6 0.089603 0.313061 0.564432
O O7 0.000000 0.000000 0.500000
O O8 0.125202 0.088801 0.675990
O O9 0.489921 0.206990 0.358177
O O10 0.405240 0.867853 0.258819
O O11 0.556170 0.163390 0.053394
O O12 0.179509 0.209975 0.120710
O O13 0.000000 0.000000 0.000000
O O14 0.500000 0.500000 0.500000
O O15 0.634700 0.521178 0.157588
O O16 0.835074 0.282498 0.787175
O O17 0.000000 0.500000 0.500000
O O18 0.716843 0.458934 0.842196
O O19 0.500000 0.500000 0.000000
#
# Coordination Sequence:
#
# PCOD9028160 Si02
#       8
#     2   2   2   2   2   2   2   2
#     4  12  22  44  70 101 137 182 237 285 349 416
#     4  12  26  44  69 101 142 180 228 290 351 411
#     4  10  22  41  71  99 134 184 229 295 339 421
#     4  12  26  43  68 108 138 178 236 291 349 418
#     4  11  23  45  67 100 140 180 228 285 360 416
#     4  12  25  44  71  99 141 185 231 287 352 423
#     4  10  22  43  67 100 135 177 245 277 347 421
#     4  11  24  43  72  97 135 186 233 288 347 424
#
# _framework density 23.072422
#
# number of rings (size 3 to 8) (size 9 to 14) (size 15 to 20)
#    0.000    0.750    2.500    5.250    3.500    1.000 
#    0.000    1.250    0.000    0.000    0.000    0.000 
#    0.000    0.000    0.000    0.000    0.000    0.000 
#
# Total GULP energy -89441.601720 kJ/mol
# GULP energy per Si atom -5590.100107 kJ/mol
# Density = 2.301991 g / cm^3
# Si number density = 23.072422 Si / 1000 Ang^3
#
#
#
# Elastic Constant Matrix: (Units=GPa)
#
#
# Indices 1 2 3 4 5 6 
#
# 1 111.0732 33.3675 13.0038 9.4757 -14.9938 8.8279
# 2 33.3675 106.6850 42.6059 24.0280 2.2033 12.1209
# 3 13.0038 42.6059 92.9298 7.5413 2.0254 -9.0330
# 4 9.4757 24.0280 7.5413 38.9752 3.1994 6.5927
# 5 -14.9938 2.2033 2.0254 3.1994 43.5555 1.7303
# 6 8.8279 12.1209 -9.0330 6.5927 1.7303 55.8173
#
#
#
# Elastic Compliance Matrix: (Units=1/GPa)
#
#
# Indices 1 2 3 4 5 6 
#
# 1 0.010618 -0.002998 -0.000236 -0.000825 0.003922 -0.001091
# 2 -0.002998 0.014495 -0.005955 -0.006500 -0.000898 -0.002841
# 3 -0.000236 -0.005955 0.013839 0.000503 -0.000601 0.003529
# 4 -0.000825 -0.006500 0.000503 0.030261 -0.002127 -0.001885
# 5 0.003922 -0.000898 -0.000601 -0.002127 0.024580 -0.001033
# 6 -0.001091 -0.002841 0.003529 -0.001885 -0.001033 0.019531
#
#
# Mechanical properties :
#
#
# Convention : Reuss Voigt Hill
#
# Bulk Modulus (GPa) = 48.60467 54.29361 51.44914
# Shear Modulus (GPa) = 36.08555 42.45033 39.26794
#
# Velocity S-wave (km/s) = 3.95905 4.29403 4.12994
# Velocity P-wave (km/s) = 6.48156 6.94030 6.71485
#
# Compressibility (1/GPa) = 0.02057416
#
# Stress axis : x y z
#
# Youngs Moduli (GPa) = 94.18202 68.99071 72.25779
#
# Poissons Ratio (x) = 0.20683 0.01704
# Poissons Ratio (y) = 0.28236 0.43030
# Poissons Ratio (z) = 0.02221 0.41084
#
# Static dielectric constant tensor:
#      x y z
#    x 2.019240 -0.106970 0.084810 
#    y -0.106970 1.921850 -0.037940 
#    z 0.084810 -0.037940 1.912300 
# 
# From -- ./inp_files/244437.got.cif
#   From: 2010.05.17/outbox.cif.g08.bks.cpg/sg2_123_cif.got.tgz:244437.got - 2010.06.03 11:33:40.
