data_PCOD9028459
_publ_section_title
;
Structure prediction by ZEFSAII (Michael W. Deem and Ramdas Pophale) SiO2 
 PCOD9028459
Probable space group: P -1
;
_chemical_formula_sum "Si O2"
_cell_formula_units_Z 14
_cell_length_a 6.818262
_cell_length_b 17.017830
_cell_length_c 19.082059
_cell_angle_alpha 158.464129
_cell_angle_beta 124.479523
_cell_angle_gamma 48.813723
_cell_volume 602.970040
_symmetry_space_group_name_H-M "P -1"
_symmetry_group_IT_number 2
_symmetry_cell_setting 'triclinic'
loop_
_space_group_symop_operation_xyz
x,y,z
-x,-y,-z
loop_
_atom_site_type_symbol
_atom_site_label
_atom_site_fract_x
_atom_site_fract_y
_atom_site_fract_z
Si Si1 0.247030 0.038692 0.110769
Si Si2 0.126932 0.733415 0.355202
Si Si3 0.796947 0.693660 0.881361
Si Si4 0.654038 0.701222 0.173319
Si Si5 0.212058 0.506503 0.439163
Si Si6 0.814187 0.057208 0.828208
Si Si7 0.282380 0.772773 0.278365
O O1 0.184580 0.315712 0.327691
O O2 0.308905 0.918150 0.099264
O O3 0.505839 0.908385 0.007796
O O4 0.000000 0.000000 0.000000
O O5 0.906379 0.750111 0.267532
O O6 0.191530 0.505269 0.225921
O O7 0.344166 0.721344 0.331724
O O8 0.970552 0.970661 0.566206
O O9 0.826875 0.582529 0.718719
O O10 0.014600 0.792745 0.020243
O O11 0.416286 0.858863 0.205592
O O12 0.538765 0.755071 0.273421
O O13 0.752285 0.433878 0.943216
O O14 0.500000 0.500000 0.500000
O O15 0.006023 0.778780 0.631103
#
# Coordination Sequence:
#
# PCOD9028459 Si02
#       7
#     2   2   2   2   2   2   2
#     4  12  25  49  74 100 140 181 231 292 347 409
#     4  11  24  43  67  98 140 179 225 281 334 413
#     4  12  25  45  71 102 142 182 225 289 355 398
#     4  11  23  42  69  96 139 178 226 278 332 410
#     4  12  25  49  74 100 140 181 231 292 347 409
#     4  12  26  44  71 107 135 185 231 280 351 413
#     4  10  22  42  62  92 138 178 224 276 336 386
#
# _framework density 23.218401
#
# number of rings (size 3 to 8) (size 9 to 14) (size 15 to 20)
#    0.000    0.571    2.857    6.000    0.000    2.286 
#   10.286    0.000    0.000    0.000    0.000    0.000 
#    0.000    0.000    0.000    0.000    0.000    0.000 
#
# Total GULP energy -78329.250503 kJ/mol
# GULP energy per Si atom -5594.946465 kJ/mol
# Density = 2.316555 g / cm^3
# Si number density = 23.218401 Si / 1000 Ang^3
#
#
#
# Elastic Constant Matrix: (Units=GPa)
#
#
# Indices 1 2 3 4 5 6 
#
# 1 68.0189 36.9528 20.8731 5.2366 0.4185 22.9274
# 2 36.9528 78.7755 11.9677 14.8968 7.7627 9.1899
# 3 20.8731 11.9677 140.8638 21.1800 -3.5058 14.5926
# 4 5.2366 14.8968 21.1800 29.0788 11.4497 4.5922
# 5 0.4185 7.7627 -3.5058 11.4497 44.0319 -5.7213
# 6 22.9274 9.1899 14.5926 4.5922 -5.7213 51.3184
#
#
#
# Elastic Compliance Matrix: (Units=1/GPa)
#
#
# Indices 1 2 3 4 5 6 
#
# 1 0.023697 -0.010535 -0.002447 0.004597 -0.000864 -0.008512
# 2 -0.010535 0.018970 0.001044 -0.008570 -0.000712 0.001700
# 3 -0.002447 0.001044 0.008569 -0.007139 0.002295 -0.000636
# 4 0.004597 -0.008570 -0.007139 0.048661 -0.012302 -0.004215
# 5 -0.000864 -0.000712 0.002295 -0.012302 0.026739 0.003943
# 6 -0.008512 0.001700 -0.000636 -0.004215 0.003943 0.023982
#
#
# Mechanical properties :
#
#
# Convention : Reuss Voigt Hill
#
# Bulk Modulus (GPa) = 36.55020 47.47171 42.01095
# Shear Modulus (GPa) = 27.23088 39.41014 33.32051
#
# Velocity S-wave (km/s) = 3.42835 4.12438 3.79237
# Velocity P-wave (km/s) = 5.60781 6.57045 6.10812
#
# Compressibility (1/GPa) = 0.02735963
#
# Stress axis : x y z
#
# Youngs Moduli (GPa) = 42.19942 52.71475 116.69453
#
# Poissons Ratio (x) = 0.55537 0.28557
# Poissons Ratio (y) = 0.44458 -0.12184
# Poissons Ratio (z) = 0.10327 -0.05504
#
# Static dielectric constant tensor:
#      x y z
#    x 1.901060 0.055300 0.017680 
#    y 0.055300 1.851390 0.011300 
#    z 0.017680 0.011300 1.894030 
# 
# From -- ./inp_files/561818.got.cif
#   From: 2010.05.17/outbox.cif.g08.bks.cpg/sg2_281_cif.got.tgz:561818.got - 2010.06.03 11:33:40.
