data_PCOD9028937
_publ_section_title
;
Structure prediction by ZEFSAII (Michael W. Deem and Ramdas Pophale) SiO2 
 PCOD9028937
Probable space group: P -1
;
_chemical_formula_sum "Si O2"
_cell_formula_units_Z 16
_cell_length_a 5.923611
_cell_length_b 18.917553
_cell_length_c 21.471359
_cell_angle_alpha 19.623551
_cell_angle_beta 116.062069
_cell_angle_gamma 113.926598
_cell_volume 725.620208
_symmetry_space_group_name_H-M "P -1"
_symmetry_group_IT_number 2
_symmetry_cell_setting 'triclinic'
loop_
_space_group_symop_operation_xyz
x,y,z
-x,-y,-z
loop_
_atom_site_type_symbol
_atom_site_label
_atom_site_fract_x
_atom_site_fract_y
_atom_site_fract_z
Si Si1 0.895417 0.647869 0.054226
Si Si2 0.860977 0.618027 0.593494
Si Si3 0.396588 0.172400 0.795853
Si Si4 0.301266 0.576405 0.047979
Si Si5 0.647816 0.387732 0.538969
Si Si6 0.940552 0.111256 0.708308
Si Si7 0.725458 0.882306 0.592862
Si Si8 0.201121 0.030894 0.599744
O O1 0.612120 0.556613 0.102326
O O2 0.034051 0.576479 0.193412
O O3 0.100292 0.588983 0.072508
O O4 0.856641 0.898951 0.842507
O O5 0.614414 0.571866 0.562846
O O6 0.053068 0.706713 0.493204
O O7 0.810781 0.805899 0.481132
O O8 0.608464 0.288842 0.684628
O O9 0.248776 0.375614 0.639955
O O10 0.216172 0.075407 0.802157
O O11 0.500000 0.000000 0.000000
O O12 0.227371 0.362244 0.182523
O O13 0.261612 0.798973 0.824279
O O14 0.776172 0.203376 0.667561
O O15 0.951124 0.011592 0.543554
O O16 0.500000 0.000000 0.500000
O O17 0.635635 0.885025 0.507084
#
# Coordination Sequence:
#
# PCOD9028937 Si02
#       8
#     2   2   2   2   2   2   2   2
#     4  12  27  43  71 104 137 183 230 285 348 410
#     4  11  23  43  68  97 138 178 226 286 340 411
#     4  10  22  42  65  95 140 175 227 281 345 406
#     4  12  27  46  70 101 140 179 233 286 348 411
#     4  10  23  40  66 100 133 178 228 280 342 410
#     4  11  24  41  69  99 134 183 229 283 345 408
#     4  11  26  44  71  99 135 186 231 283 350 414
#     4  11  24  45  69  97 140 179 230 285 347 410
#
# _framework density 22.050104999999999
#
# number of rings (size 3 to 8) (size 9 to 14) (size 15 to 20)
#    0.000    1.000    2.500    3.000    7.000    4.000 
#    0.000    0.000    0.000    0.000    0.000    0.000 
#    0.000    0.000    0.000    0.000    0.000    0.000 
#
# Total GULP energy -89134.072867 kJ/mol
# GULP energy per Si atom -5570.879554 kJ/mol
# Density = 2.199992 g / cm^3
# Si number density = 22.050105 Si / 1000 Ang^3
#
#
#
# Elastic Constant Matrix: (Units=GPa)
#
#
# Indices 1 2 3 4 5 6 
#
# 1 78.1130 24.6951 7.2399 0.3940 3.5225 -17.4078
# 2 24.6951 85.8813 -10.9313 -0.1694 -8.8984 -22.9438
# 3 7.2399 -10.9313 84.8507 4.9879 3.6670 6.6559
# 4 0.3940 -0.1694 4.9879 59.7695 -5.4199 -11.2469
# 5 3.5225 -8.8984 3.6670 -5.4199 26.7917 2.8323
# 6 -17.4078 -22.9438 6.6559 -11.2469 2.8323 73.0634
#
#
#
# Elastic Compliance Matrix: (Units=1/GPa)
#
#
# Indices 1 2 3 4 5 6 
#
# 1 0.015040 -0.004219 -0.001900 0.000233 -0.003346 0.002597
# 2 -0.004219 0.014486 0.001688 0.001011 0.004985 0.003352
# 3 -0.001900 0.001688 0.012383 -0.001338 -0.001026 -0.001217
# 4 0.000233 0.001011 -0.001338 0.017765 0.003756 0.003084
# 5 -0.003346 0.004985 -0.001026 0.003756 0.040334 -0.000124
# 6 0.002597 0.003352 -0.001217 0.003084 -0.000124 0.015949
#
#
# Mechanical properties :
#
#
# Convention : Reuss Voigt Hill
#
# Bulk Modulus (GPa) = 30.25767 32.31694 31.28731
# Shear Modulus (GPa) = 36.80946 47.11434 41.96190
#
# Velocity S-wave (km/s) = 4.09021 4.62745 4.36710
# Velocity P-wave (km/s) = 6.00487 6.57564 6.29672
#
# Compressibility (1/GPa) = 0.03304947
#
# Stress axis : x y z
#
# Youngs Moduli (GPa) = 66.48769 69.03119 80.75279
#
# Poissons Ratio (x) = 0.29125 0.15340
# Poissons Ratio (y) = 0.28052 -0.13634
# Poissons Ratio (z) = 0.12630 -0.11655
#
# Static dielectric constant tensor:
#      x y z
#    x 5.841680 -1.143690 -2.529560 
#    y -1.143690 2.111340 0.733490 
#    z -2.529560 0.733490 3.368330 
# 
# From -- ./inp_files/47587.got.cif
#   From: 2010.05.17/outbox.cif.g08.bks.cpg/sg2_24_cif.got.tgz:47587.got - 2010.06.03 11:33:40.
