data_PCOD9028585
_publ_section_title
;
Structure prediction by ZEFSAII (Michael W. Deem and Ramdas Pophale) SiO2 
 PCOD9028585
Probable space group: P -1
;
_chemical_formula_sum "Si O2"
_cell_formula_units_Z 16
_cell_length_a 19.191817
_cell_length_b 5.081713
_cell_length_c 10.002176
_cell_angle_alpha 103.345862
_cell_angle_beta 133.702163
_cell_angle_gamma 77.324542
_cell_volume 683.677232
_symmetry_space_group_name_H-M "P -1"
_symmetry_group_IT_number 2
_symmetry_cell_setting 'triclinic'
loop_
_space_group_symop_operation_xyz
x,y,z
-x,-y,-z
loop_
_atom_site_type_symbol
_atom_site_label
_atom_site_fract_x
_atom_site_fract_y
_atom_site_fract_z
Si Si1 0.339164 0.917029 0.624050
Si Si2 0.290919 0.025686 0.862321
Si Si3 0.712956 0.517178 0.715769
Si Si4 0.097790 0.645585 0.148678
Si Si5 0.627986 0.429529 0.882847
Si Si6 0.937534 0.789891 0.466291
Si Si7 0.861630 0.783493 0.650945
Si Si8 0.447763 0.144969 0.575355
O O1 0.308860 0.687380 0.456067
O O2 0.333795 0.862876 0.768298
O O3 0.250031 0.148482 0.523812
O O4 0.432974 0.012709 0.684666
O O5 0.176102 0.136233 0.719532
O O6 0.347086 0.295071 0.981923
O O7 0.317283 0.826992 0.998652
O O8 0.827808 0.501921 0.875873
O O9 0.665177 0.447848 0.782519
O O10 0.659442 0.790342 0.619226
O O11 0.132825 0.523036 0.324485
O O12 0.106498 0.966587 0.185295
O O13 0.000000 0.500000 0.000000
O O14 0.514185 0.389472 0.720012
O O15 0.928400 0.816094 0.616458
O O16 0.000000 0.500000 0.500000
O O17 0.000000 0.000000 0.500000
O O18 0.500000 0.000000 0.500000
#
# Coordination Sequence:
#
# PCOD9028585 Si02
#       8
#     2   2   2   2   2   2   2   2
#     4  10  24  45  73  94 138 189 234 281 345 432
#     4  11  28  47  67 108 150 176 233 303 359 401
#     4  11  25  45  72  99 142 187 242 286 347 431
#     4  11  23  40  67 100 131 173 226 295 352 399
#     4  12  27  44  70 107 147 180 228 305 360 402
#     4  11  23  43  72  96 133 191 236 276 346 433
#     4  10  22  42  63  96 132 175 230 282 340 413
#     4  12  24  45  75 103 137 190 249 280 353 433
#
# _framework density 23.402857999999998
#
# number of rings (size 3 to 8) (size 9 to 14) (size 15 to 20)
#    0.000    1.000    2.500    3.000    3.500    6.000 
#    0.000    1.250    0.000    0.000    0.000    0.000 
#    0.000    0.000    0.000    0.000    0.000    0.000 
#
# Total GULP energy -89242.897859 kJ/mol
# GULP energy per Si atom -5577.681116 kJ/mol
# Density = 2.334959 g / cm^3
# Si number density = 23.402858 Si / 1000 Ang^3
#
#
#
# Elastic Constant Matrix: (Units=GPa)
#
#
# Indices 1 2 3 4 5 6 
#
# 1 150.1580 11.2832 11.5032 0.8048 0.2646 15.5412
# 2 11.2832 87.7993 0.7209 -9.3807 -3.6433 8.1672
# 3 11.5032 0.7209 46.2091 -2.4158 -0.6210 2.8443
# 4 0.8048 -9.3807 -2.4158 34.4811 6.8088 3.0323
# 5 0.2646 -3.6433 -0.6210 6.8088 40.0025 2.0287
# 6 15.5412 8.1672 2.8443 3.0323 2.0287 45.1029
#
#
#
# Elastic Compliance Matrix: (Units=1/GPa)
#
#
# Indices 1 2 3 4 5 6 
#
# 1 0.007066 -0.000721 -0.001628 -0.000288 0.000022 -0.002183
# 2 -0.000721 0.012075 0.000313 0.003391 0.000644 -0.002215
# 3 -0.001628 0.000313 0.022197 0.001741 0.000139 -0.001019
# 4 -0.000288 0.003391 0.001741 0.031231 -0.004851 -0.002506
# 5 0.000022 0.000644 0.000139 -0.004851 0.025934 -0.000973
# 6 -0.002183 -0.002215 -0.001019 -0.002506 -0.000973 0.023601
#
#
# Mechanical properties :
#
#
# Convention : Reuss Voigt Hill
#
# Bulk Modulus (GPa) = 26.83450 36.79789 31.81619
# Shear Modulus (GPa) = 36.07555 41.29458 38.68506
#
# Velocity S-wave (km/s) = 3.93046 4.20516 4.07013
# Velocity P-wave (km/s) = 5.66473 6.27182 5.97599
#
# Compressibility (1/GPa) = 0.03726547
#
# Stress axis : x y z
#
# Youngs Moduli (GPa) = 141.52195 82.81684 45.05165
#
# Poissons Ratio (x) = 0.05975 0.07335
# Poissons Ratio (y) = 0.10210 -0.01412
# Poissons Ratio (z) = 0.23041 -0.02596
#
# Static dielectric constant tensor:
#      x y z
#    x 1.905490 -0.045660 0.034200 
#    y -0.045660 1.932660 -0.077370 
#    z 0.034200 -0.077370 2.106230 
# 
# From -- ./inp_files/323931.got.cif
#   From: 2010.05.17/outbox.cif.g08.bks.cpg/sg2_162_cif.got.tgz:323931.got - 2010.06.03 11:33:40.
