data_PCOD9028632
_publ_section_title
;
Structure prediction by ZEFSAII (Michael W. Deem and Ramdas Pophale) SiO2 
 PCOD9028632
Probable space group: P -1
;
_chemical_formula_sum "Si O2"
_cell_formula_units_Z 14
_cell_length_a 8.964626
_cell_length_b 8.145983
_cell_length_c 22.963325
_cell_angle_alpha 30.316933
_cell_angle_beta 40.625246
_cell_angle_gamma 52.877837
_cell_volume 544.293757
_symmetry_space_group_name_H-M "P -1"
_symmetry_group_IT_number 2
_symmetry_cell_setting 'triclinic'
loop_
_space_group_symop_operation_xyz
x,y,z
-x,-y,-z
loop_
_atom_site_type_symbol
_atom_site_label
_atom_site_fract_x
_atom_site_fract_y
_atom_site_fract_z
Si Si1 0.670220 0.303107 0.113459
Si Si2 0.033012 0.533295 0.839939
Si Si3 0.062777 0.531562 0.306878
Si Si4 0.597012 0.525460 0.397390
Si Si5 0.516497 0.503822 0.222202
Si Si6 0.110040 0.257904 0.583622
Si Si7 0.326256 0.766922 0.046863
O O1 0.647489 0.431647 0.146252
O O2 0.464075 0.459093 0.094967
O O3 0.640154 0.907798 0.247301
O O4 0.900032 0.453539 0.964855
O O5 0.892024 0.267593 0.920519
O O6 0.307381 0.564908 0.758992
O O7 0.007724 0.886195 0.713513
O O8 0.252805 0.330257 0.341015
O O9 0.222355 0.765555 0.142854
O O10 0.842914 0.398466 0.371867
O O11 0.963196 0.692778 0.342749
O O12 0.500000 0.500000 0.500000
O O13 0.389931 0.337183 0.477445
O O14 0.510221 0.889895 0.116667
O O15 0.000000 0.500000 0.500000
#
# Coordination Sequence:
#
# PCOD9028632 Si02
#       7
#     2   2   2   2   2   2   2
#     4  11  22  41  69  95 125 172 220 263 316 387
#     4  12  24  41  66  98 129 170 219 263 318 389
#     4  10  22  42  64  87 127 170 209 261 319 377
#     4  10  22  43  67  95 128 170 215 263 320 384
#     4  11  22  39  64  98 131 165 210 269 326 374
#     4  11  24  45  68  94 128 172 216 264 321 388
#     4  11  23  39  63  99 133 165 209 273 328 373
#
# _framework density 25.721402000000001
#
# number of rings (size 3 to 8) (size 9 to 14) (size 15 to 20)
#    0.000    1.143    0.000    8.143    0.000    2.286 
#    0.000   27.143    0.000    0.000    0.000    0.000 
#    0.000    0.000    0.000    0.000    0.000    0.000 
#
# Total GULP energy -78251.199692 kJ/mol
# GULP energy per Si atom -5589.371407 kJ/mol
# Density = 2.566286 g / cm^3
# Si number density = 25.721402 Si / 1000 Ang^3
#
#
#
# Elastic Constant Matrix: (Units=GPa)
#
#
# Indices 1 2 3 4 5 6 
#
# 1 176.0062 46.3617 26.2109 -7.3652 -36.8380 -38.8744
# 2 46.3617 68.7518 54.3281 4.9367 -3.6466 -12.6897
# 3 26.2109 54.3281 124.4547 -22.2279 -7.6681 -30.6310
# 4 -7.3652 4.9367 -22.2279 49.3774 -3.8906 5.5728
# 5 -36.8380 -3.6466 -7.6681 -3.8906 30.8233 6.7092
# 6 -38.8744 -12.6897 -30.6310 5.5728 6.7092 36.2110
#
#
#
# Elastic Compliance Matrix: (Units=1/GPa)
#
#
# Indices 1 2 3 4 5 6 
#
# 1 0.014968 -0.014080 0.008861 0.007267 0.016186 0.014514
# 2 -0.014080 0.038094 -0.020797 -0.014974 -0.016332 -0.014028
# 3 0.008861 -0.020797 0.022396 0.012462 0.011550 0.017112
# 4 0.007267 -0.014974 0.012462 0.028684 0.012238 0.006413
# 5 0.016186 -0.016332 0.011550 0.012238 0.052122 0.009883
# 6 0.014514 -0.014028 0.017112 0.006413 0.009883 0.049938
#
#
# Mechanical properties :
#
#
# Convention : Reuss Voigt Hill
#
# Bulk Modulus (GPa) = 42.68728 69.22378 55.95553
# Shear Modulus (GPa) = 18.79394 39.43649 29.11521
#
# Velocity S-wave (km/s) = 2.70603 3.91988 3.36809
# Velocity P-wave (km/s) = 5.13766 6.88902 6.07676
#
# Compressibility (1/GPa) = 0.02342618
#
# Stress axis : x y z
#
# Youngs Moduli (GPa) = 66.80788 26.25108 44.65005
#
# Poissons Ratio (x) = 0.36963 -0.39566
# Poissons Ratio (y) = 0.94068 0.92859
# Poissons Ratio (z) = -0.59201 0.54594
#
# Static dielectric constant tensor:
#      x y z
#    x 2.046700 -0.067450 0.032410 
#    y -0.067450 2.032880 0.021720 
#    z 0.032410 0.021720 1.988560 
# 
# From -- ./inp_files/216117.got.cif
#   From: 2010.05.17/outbox.cif.g08.bks.cpg/sg2_109_cif.got.tgz:216117.got - 2010.06.03 11:33:40.
