data_PCOD9028564
_publ_section_title
;
Structure prediction by ZEFSAII (Michael W. Deem and Ramdas Pophale) SiO2 
 PCOD9028564
Probable space group: P -1
;
_chemical_formula_sum "Si O2"
_cell_formula_units_Z 16
_cell_length_a 12.743909
_cell_length_b 10.485853
_cell_length_c 12.224372
_cell_angle_alpha 70.678079
_cell_angle_beta 54.889682
_cell_angle_gamma 32.701909
_cell_volume 677.263507
_symmetry_space_group_name_H-M "P -1"
_symmetry_group_IT_number 2
_symmetry_cell_setting 'triclinic'
loop_
_space_group_symop_operation_xyz
x,y,z
-x,-y,-z
loop_
_atom_site_type_symbol
_atom_site_label
_atom_site_fract_x
_atom_site_fract_y
_atom_site_fract_z
Si Si1 0.849733 0.724476 0.720717
Si Si2 0.287029 0.584908 0.073197
Si Si3 0.088038 0.094130 0.193234
Si Si4 0.640893 0.099390 0.580866
Si Si5 0.540191 0.378418 0.768289
Si Si6 0.782161 0.149267 0.275291
Si Si7 0.457124 0.876583 0.859737
Si Si8 0.317632 0.171720 0.660328
O O1 0.900017 0.793938 0.761239
O O2 0.589307 0.885979 0.836481
O O3 0.055471 0.431587 0.697750
O O4 0.835514 0.817145 0.587631
O O5 0.336540 0.419778 0.174323
O O6 0.500000 0.500000 0.000000
O O7 0.350339 0.484207 0.939038
O O8 0.023506 0.881097 0.150509
O O9 0.845384 0.243017 0.257059
O O10 0.214118 0.854586 0.246128
O O11 0.242214 0.007628 0.022720
O O12 0.596015 0.242194 0.666019
O O13 0.715221 0.110389 0.424258
O O14 0.402507 0.227182 0.661830
O O15 0.441985 0.614409 0.733614
O O16 0.358798 0.010858 0.763620
O O17 0.500000 0.000000 0.500000
#
# Coordination Sequence:
#
# PCOD9028564 Si02
#       8
#     2   2   2   2   2   2   2   2
#     4  10  23  43  68  91 128 175 213 266 328 368
#     4  11  23  44  63  98 137 169 212 271 321 386
#     4  10  22  43  65  97 132 162 216 271 320 386
#     4  10  25  43  66  97 132 170 219 269 317 394
#     4  10  22  42  63  94 133 168 217 260 319 387
#     4  12  23  39  69  98 134 174 212 265 333 379
#     4  10  23  42  65  93 130 164 219 264 319 384
#     4  11  26  43  64  95 128 170 223 265 314 389
#
# _framework density 23.624480999999999
#
# number of rings (size 3 to 8) (size 9 to 14) (size 15 to 20)
#    0.000    1.500    2.500    1.875    3.500    8.500 
#    0.000    0.000    0.000    0.000    0.000    0.000 
#    0.000    0.000    0.000    0.000    0.000    0.000 
#
# Total GULP energy -89386.700655 kJ/mol
# GULP energy per Si atom -5586.668791 kJ/mol
# Density = 2.357071 g / cm^3
# Si number density = 23.624481 Si / 1000 Ang^3
#
#
#
# Elastic Constant Matrix: (Units=GPa)
#
#
# Indices 1 2 3 4 5 6 
#
# 1 38.0354 -7.8280 1.4522 1.0197 -11.0710 -0.1141
# 2 -7.8280 146.8681 48.2892 -30.2070 6.0592 -14.0575
# 3 1.4522 48.2892 92.8668 -37.5171 2.5931 -13.2685
# 4 1.0197 -30.2070 -37.5171 32.7398 2.2768 -0.4433
# 5 -11.0710 6.0592 2.5931 2.2768 30.8960 -4.4616
# 6 -0.1141 -14.0575 -13.2685 -0.4433 -4.4616 25.2977
#
#
#
# Elastic Compliance Matrix: (Units=1/GPa)
#
#
# Indices 1 2 3 4 5 6 
#
# 1 0.030048 0.001461 -0.002755 -0.003503 0.011174 0.001412
# 2 0.001461 0.009245 -0.001282 0.007149 -0.001072 0.004407
# 3 -0.002755 -0.001282 0.024143 0.026940 -0.003032 0.011875
# 4 -0.003503 0.007149 0.026940 0.068878 -0.007396 0.017989
# 5 0.011174 -0.001072 -0.003032 -0.007396 0.038022 0.004440
# 6 0.001412 0.004407 0.011875 0.017989 0.004440 0.049311
#
#
# Mechanical properties :
#
#
# Convention : Reuss Voigt Hill
#
# Bulk Modulus (GPa) = 17.15767 40.17747 28.66757
# Shear Modulus (GPa) = 20.47286 33.51049 26.99168
#
# Velocity S-wave (km/s) = 2.94699 3.77034 3.38380
# Velocity P-wave (km/s) = 4.34259 5.99980 5.23716
#
# Compressibility (1/GPa) = 0.05828296
#
# Stress axis : x y z
#
# Youngs Moduli (GPa) = 33.28045 108.16970 41.42037
#
# Poissons Ratio (x) = -0.15804 0.11411
# Poissons Ratio (y) = -0.04862 0.05311
# Poissons Ratio (z) = 0.09169 0.13869
#
# Static dielectric constant tensor:
#      x y z
#    x 1.928430 0.046720 0.020130 
#    y 0.046720 1.935520 -0.012190 
#    z 0.020130 -0.012190 1.853840 
# 
# From -- ./inp_files/427575.got.cif
#   From: 2010.05.17/outbox.cif.g08.bks.cpg/sg2_214_cif.got.tgz:427575.got - 2010.06.03 11:33:40.
