data_PCOD9028305
_publ_section_title
;
Structure prediction by ZEFSAII (Michael W. Deem and Ramdas Pophale) SiO2 
 PCOD9028305
Probable space group: P -1
;
_chemical_formula_sum "Si O2"
_cell_formula_units_Z 14
_cell_length_a 14.792417
_cell_length_b 9.436229
_cell_length_c 5.110349
_cell_angle_alpha 77.119952
_cell_angle_beta 84.721490
_cell_angle_gamma 84.156522
_cell_volume 689.996103
_symmetry_space_group_name_H-M "P -1"
_symmetry_group_IT_number 2
_symmetry_cell_setting 'triclinic'
loop_
_space_group_symop_operation_xyz
x,y,z
-x,-y,-z
loop_
_atom_site_type_symbol
_atom_site_label
_atom_site_fract_x
_atom_site_fract_y
_atom_site_fract_z
Si Si1 0.747640 0.634254 0.179300
Si Si2 0.005762 0.746072 0.369041
Si Si3 0.160057 0.891485 0.513380
Si Si4 0.696544 0.369792 0.594621
Si Si5 0.399093 0.533189 0.909118
Si Si6 0.086426 0.483496 0.175374
Si Si7 0.843520 0.918818 0.068359
O O1 0.743967 0.521096 0.467758
O O2 0.652143 0.614133 0.068255
O O3 0.773489 0.794569 0.171968
O O4 0.826601 0.564897 0.997099
O O5 0.060834 0.831430 0.530347
O O6 0.082576 0.640963 0.245459
O O7 0.937538 0.639543 0.562418
O O8 0.943919 0.846958 0.148655
O O9 0.236222 0.765845 0.457395
O O10 0.175548 0.951199 0.772837
O O11 0.160586 0.022025 0.248745
O O12 0.613266 0.386350 0.400053
O O13 0.659348 0.373296 0.895466
O O14 0.500000 0.500000 0.000000
O O15 0.000000 0.500000 0.000000
#
# Coordination Sequence:
#
# PCOD9028305 Si02
#       7
#     2   2   2   2   2   2   2
#     4  10  24  39  68  92 129 164 220 257 327 367
#     4  11  25  37  59  88 129 176 230 261 310 360
#     4  12  26  42  61  90 133 177 214 256 317 375
#     4  10  23  42  70  93 127 160 214 255 320 384
#     4  10  22  41  75 103 121 152 213 275 317 375
#     4  11  21  37  62  90 125 166 221 272 305 359
#     4  12  26  40  60  91 132 175 213 267 312 369
#
# _framework density 20.28997
#
# number of rings (size 3 to 8) (size 9 to 14) (size 15 to 20)
#    0.857    0.286    1.429    4.714   10.000    0.000 
#    0.000    0.000    0.000    5.143    0.000    0.000 
#    0.000    0.000    0.000    0.000    0.000    0.000 
#
# Total GULP energy -78258.299181 kJ/mol
# GULP energy per Si atom -5589.878513 kJ/mol
# Density = 2.024379 g / cm^3
# Si number density = 20.289970 Si / 1000 Ang^3
#
#
#
# Elastic Constant Matrix: (Units=GPa)
#
#
# Indices 1 2 3 4 5 6 
#
# 1 108.2038 24.3836 -17.1922 -1.7610 11.0637 11.1187
# 2 24.3836 72.3954 -2.8841 5.2043 -5.5989 12.3082
# 3 -17.1922 -2.8841 46.2410 2.7672 6.4327 3.4005
# 4 -1.7610 5.2043 2.7672 33.0641 -1.6420 9.6134
# 5 11.0637 -5.5989 6.4327 -1.6420 25.0300 0.7924
# 6 11.1187 12.3082 3.4005 9.6134 0.7924 23.4547
#
#
#
# Elastic Compliance Matrix: (Units=1/GPa)
#
#
# Indices 1 2 3 4 5 6 
#
# 1 0.012313 -0.003747 0.005648 0.001923 -0.007441 -0.005226
# 2 -0.003747 0.016701 -0.000613 -0.000488 0.005736 -0.006893
# 3 0.005648 -0.000613 0.025381 -0.000577 -0.009021 -0.005494
# 4 0.001923 -0.000488 -0.000577 0.034915 0.001953 -0.014948
# 5 -0.007441 0.005736 -0.009021 0.001953 0.046988 -0.000563
# 6 -0.005226 -0.006893 -0.005494 -0.014948 -0.000563 0.055672
#
#
# Mechanical properties :
#
#
# Convention : Reuss Voigt Hill
#
# Bulk Modulus (GPa) = 17.55281 26.16166 21.85724
# Shear Modulus (GPa) = 23.99397 31.14529 27.56963
#
# Velocity S-wave (km/s) = 3.44256 3.92217 3.69016
# Velocity P-wave (km/s) = 4.94685 5.78214 5.38073
#
# Compressibility (1/GPa) = 0.05697092
#
# Stress axis : x y z
#
# Youngs Moduli (GPa) = 81.21600 59.87573 39.39931
#
# Poissons Ratio (x) = 0.22437 -0.22255
# Poissons Ratio (y) = 0.30434 0.02417
# Poissons Ratio (z) = -0.45875 0.03673
#
# Static dielectric constant tensor:
#      x y z
#    x 1.718780 0.025190 0.020970 
#    y 0.025190 1.740660 -0.007080 
#    z 0.020970 -0.007080 1.755810 
# 
# From -- ./inp_files/39498.got.cif
#   From: 2010.05.17/outbox.cif.g08.bks.cpg/sg2_20_cif.got.tgz:39498.got - 2010.06.03 11:33:40.
