data_PCOD9028589
_publ_section_title
;
Structure prediction by ZEFSAII (Michael W. Deem and Ramdas Pophale) SiO2 
 PCOD9028589
Probable space group: P -1
;
_chemical_formula_sum "Si O2"
_cell_formula_units_Z 14
_cell_length_a 22.214675
_cell_length_b 9.008662
_cell_length_c 9.227662
_cell_angle_alpha 30.087907
_cell_angle_beta 44.628854
_cell_angle_gamma 37.326432
_cell_volume 559.661721
_symmetry_space_group_name_H-M "P -1"
_symmetry_group_IT_number 2
_symmetry_cell_setting 'triclinic'
loop_
_space_group_symop_operation_xyz
x,y,z
-x,-y,-z
loop_
_atom_site_type_symbol
_atom_site_label
_atom_site_fract_x
_atom_site_fract_y
_atom_site_fract_z
Si Si1 0.575738 0.741830 0.471784
Si Si2 0.794107 0.621170 0.185558
Si Si3 0.184541 0.007955 0.435622
Si Si4 0.159603 0.219030 0.718846
Si Si5 0.340569 0.824223 0.551910
Si Si6 0.473107 0.786744 0.100753
Si Si7 0.915045 0.290228 0.800779
O O1 0.686339 0.670061 0.365329
O O2 0.566583 0.406259 0.770934
O O3 0.500000 0.000000 0.500000
O O4 0.536950 0.910927 0.237131
O O5 0.836413 0.699020 0.190664
O O6 0.857985 0.231969 0.341553
O O7 0.783783 0.878202 0.859607
O O8 0.129170 0.363275 0.319476
O O9 0.271044 0.765032 0.607833
O O10 0.072729 0.554352 0.502610
O O11 0.263852 0.117835 0.544620
O O12 0.147130 0.891690 0.986083
O O13 0.402000 0.913613 0.256059
O O14 0.418768 0.504910 0.783081
O O15 0.000000 0.000000 0.000000
#
# Coordination Sequence:
#
# PCOD9028589 Si02
#       7
#     2   2   2   2   2   2   2
#     4  12  24  40  59  93 139 185 227 286 332 380
#     4  12  23  43  63 102 136 180 225 270 345 401
#     4  11  23  43  70  94 135 181 221 281 340 403
#     4  11  25  42  72  99 138 173 222 274 347 405
#     4  10  22  42  63  97 130 185 232 283 323 395
#     4  11  24  37  63  91 133 180 244 279 319 381
#     4  11  25  48  74 102 129 170 225 279 342 419
#
# _framework density 25.015111000000001
#
# number of rings (size 3 to 8) (size 9 to 14) (size 15 to 20)
#    0.000    0.857    2.857    4.286    0.000    8.000 
#    0.000    4.286    0.000    0.000    0.000    0.000 
#    0.000    0.000    0.000    0.000    0.000    0.000 
#
# Total GULP energy -78328.862563 kJ/mol
# GULP energy per Si atom -5594.918754 kJ/mol
# Density = 2.495818 g / cm^3
# Si number density = 25.015111 Si / 1000 Ang^3
#
#
#
# Elastic Constant Matrix: (Units=GPa)
#
#
# Indices 1 2 3 4 5 6 
#
# 1 152.1762 54.2588 39.2939 -10.7177 12.2274 34.8082
# 2 54.2588 63.9625 27.9548 -22.0096 10.1800 23.1023
# 3 39.2939 27.9548 95.6361 -28.0405 -3.9584 13.1309
# 4 -10.7177 -22.0096 -28.0405 32.7101 5.9101 5.3054
# 5 12.2274 10.1800 -3.9584 5.9101 34.7676 -3.5734
# 6 34.8082 23.1023 13.1309 5.3054 -3.5734 35.8915
#
#
#
# Elastic Compliance Matrix: (Units=1/GPa)
#
#
# Indices 1 2 3 4 5 6 
#
# 1 0.010777 -0.005791 -0.002256 -0.000803 -0.002838 -0.006063
# 2 -0.005791 0.056105 0.006465 0.053357 -0.027192 -0.043457
# 3 -0.002256 0.006465 0.017037 0.020813 -0.003898 -0.011671
# 4 -0.000803 0.053357 0.020813 0.100248 -0.036137 -0.059597
# 5 -0.002838 -0.027192 -0.003898 -0.036137 0.046676 0.031670
# 6 -0.006063 -0.043457 -0.011671 -0.059597 0.031670 0.077946
#
#
# Mechanical properties :
#
#
# Convention : Reuss Voigt Hill
#
# Bulk Modulus (GPa) = 12.38304 61.64331 37.01317
# Shear Modulus (GPa) = 14.75494 33.35832 24.05663
#
# Velocity S-wave (km/s) = 2.43130 3.65571 3.10447
# Velocity P-wave (km/s) = 3.58366 6.52034 5.26106
#
# Compressibility (1/GPa) = 0.08075564
#
# Stress axis : x y z
#
# Youngs Moduli (GPa) = 92.79249 17.82383 58.69643
#
# Poissons Ratio (x) = 0.10321 0.13240
# Poissons Ratio (y) = 0.53734 -0.37948
# Poissons Ratio (z) = 0.20930 -0.11523
#
# Static dielectric constant tensor:
#      x y z
#    x 2.016870 -0.082900 -0.048590 
#    y -0.082900 2.054320 0.016390 
#    z -0.048590 0.016390 1.924750 
# 
# From -- ./inp_files/351942.got.cif
#   From: 2010.05.17/outbox.cif.g08.bks.cpg/sg2_176_cif.got.tgz:351942.got - 2010.06.03 11:33:40.
