data_PCOD9028366
_publ_section_title
;
Structure prediction by ZEFSAII (Michael W. Deem and Ramdas Pophale) SiO2 
 PCOD9028366
Probable space group: P -1
;
_chemical_formula_sum "Si O2"
_cell_formula_units_Z 14
_cell_length_a 17.194628
_cell_length_b 10.869900
_cell_length_c 7.490076
_cell_angle_alpha 57.718409
_cell_angle_beta 123.359157
_cell_angle_gamma 149.672628
_cell_volume 584.518521
_symmetry_space_group_name_H-M "P -1"
_symmetry_group_IT_number 2
_symmetry_cell_setting 'triclinic'
loop_
_space_group_symop_operation_xyz
x,y,z
-x,-y,-z
loop_
_atom_site_type_symbol
_atom_site_label
_atom_site_fract_x
_atom_site_fract_y
_atom_site_fract_z
Si Si1 0.652011 0.086736 0.592775
Si Si2 0.967615 0.603748 0.494938
Si Si3 0.308597 0.153360 0.571928
Si Si4 0.642649 0.738804 0.874280
Si Si5 0.092584 0.162237 0.772021
Si Si6 0.792083 0.671185 0.606967
Si Si7 0.498622 0.145060 0.782678
O O1 0.820561 0.373369 0.612568
O O2 0.500000 0.000000 0.500000
O O3 0.654383 0.926022 0.797850
O O4 0.631626 0.036241 0.394467
O O5 0.916068 0.689359 0.262179
O O6 0.000000 0.500000 0.500000
O O7 0.134862 0.862776 0.588816
O O8 0.354080 0.247244 0.350294
O O9 0.300750 0.294152 0.555675
O O10 0.438162 0.206628 0.769251
O O11 0.500000 0.500000 0.000000
O O12 0.784110 0.803271 0.039928
O O13 0.131486 0.257695 0.542830
O O14 0.923110 0.871671 0.765507
O O15 0.667071 0.394249 0.719977
O O16 0.500000 0.000000 0.000000
#
# Coordination Sequence:
#
# PCOD9028366 Si02
#       7
#     2   2   2   2   2   2   2
#     4  11  24  41  63  92 130 164 205 268 317 366
#     4  11  20  42  67  90 128 163 211 267 315 369
#     4  10  23  41  62  91 123 169 208 264 314 369
#     4  11  22  39  62  96 126 162 221 259 314 375
#     4  10  23  39  66  94 120 171 206 263 320 369
#     4  10  22  42  60  88 133 161 208 255 314 386
#     4  11  23  37  59  90 123 167 204 251 312 376
#
# _framework density 23.951338
#
# number of rings (size 3 to 8) (size 9 to 14) (size 15 to 20)
#    0.000    1.429    2.857    3.857    0.000    8.000 
#    0.000    0.000    0.000    6.857    0.000    0.000 
#    0.000    0.000    0.000    0.000    0.000    0.000 
#
# Total GULP energy -78194.385776 kJ/mol
# GULP energy per Si atom -5585.313270 kJ/mol
# Density = 2.389682 g / cm^3
# Si number density = 23.951338 Si / 1000 Ang^3
#
#
#
# Elastic Constant Matrix: (Units=GPa)
#
#
# Indices 1 2 3 4 5 6 
#
# 1 126.7516 33.9118 42.1438 -11.6950 32.0634 9.7558
# 2 33.9118 166.4846 53.0456 -38.5368 8.9478 23.0854
# 3 42.1438 53.0456 122.5856 -25.7185 42.9499 -1.2157
# 4 -11.6950 -38.5368 -25.7185 33.6434 5.3912 6.7593
# 5 32.0634 8.9478 42.9499 5.3912 49.6006 -0.3807
# 6 9.7558 23.0854 -1.2157 6.7593 -0.3807 43.6771
#
#
#
# Elastic Compliance Matrix: (Units=1/GPa)
#
#
# Indices 1 2 3 4 5 6 
#
# 1 0.010532 -0.000043 0.000234 0.005672 -0.007644 -0.003268
# 2 -0.000043 0.010632 -0.000939 0.013415 -0.002595 -0.007735
# 3 0.000234 -0.000939 0.017699 0.015588 -0.017014 -0.001624
# 4 0.005672 0.013415 0.015588 0.067030 -0.027013 -0.018532
# 5 -0.007644 -0.002595 -0.017014 -0.027013 0.043295 0.007163
# 6 -0.003268 -0.007735 -0.001624 -0.018532 0.007163 0.030598
#
#
# Mechanical properties :
#
#
# Convention : Reuss Voigt Hill
#
# Bulk Modulus (GPa) = 26.76200 74.89155 50.82678
# Shear Modulus (GPa) = 25.80811 44.49894 35.15353
#
# Velocity S-wave (km/s) = 3.28613 4.31500 3.83522
# Velocity P-wave (km/s) = 5.05924 7.49411 6.39365
#
# Compressibility (1/GPa) = 0.03736641
#
# Stress axis : x y z
#
# Youngs Moduli (GPa) = 94.95083 94.05864 56.49970
#
# Poissons Ratio (x) = 0.00403 -0.01320
# Poissons Ratio (y) = 0.00407 0.05305
# Poissons Ratio (z) = -0.02219 0.08832
#
# Static dielectric constant tensor:
#      x y z
#    x 2.106230 -0.034790 0.023820 
#    y -0.034790 1.927170 0.012060 
#    z 0.023820 0.012060 1.903090 
# 
# From -- ./inp_files/202500.got.cif
#   From: 2010.05.17/outbox.cif.g08.bks.cpg/sg2_102_cif.got.tgz:202500.got - 2010.06.03 11:33:40.
