data_PCOD9028329
_publ_section_title
;
Structure prediction by ZEFSAII (Michael W. Deem and Ramdas Pophale) SiO2 
 PCOD9028329
Probable space group: P -1
;
_chemical_formula_sum "Si O2"
_cell_formula_units_Z 12
_cell_length_a 11.492269
_cell_length_b 9.166789
_cell_length_c 8.602004
_cell_angle_alpha 78.841562
_cell_angle_beta 120.287871
_cell_angle_gamma 143.079726
_cell_volume 429.932957
_symmetry_space_group_name_H-M "P -1"
_symmetry_group_IT_number 2
_symmetry_cell_setting 'triclinic'
loop_
_space_group_symop_operation_xyz
x,y,z
-x,-y,-z
loop_
_atom_site_type_symbol
_atom_site_label
_atom_site_fract_x
_atom_site_fract_y
_atom_site_fract_z
Si Si1 0.500000 0.000000 0.500000
Si Si2 0.536332 0.373695 0.861746
Si Si3 0.033761 0.409414 0.411956
Si Si4 0.177402 0.788732 0.013922
Si Si5 0.500000 0.000000 0.000000
Si Si6 0.231339 0.029056 0.449904
Si Si7 0.126370 0.076581 0.888411
O O1 0.720600 0.331397 0.563199
O O2 0.295877 0.949292 0.398559
O O3 0.461934 0.282080 0.654203
O O4 0.301374 0.215510 0.829621
O O5 0.598361 0.268154 0.994097
O O6 0.734506 0.677984 0.963734
O O7 0.000000 0.500000 0.500000
O O8 0.813063 0.217419 0.173056
O O9 0.974450 0.209182 0.512521
O O10 0.448036 0.982336 0.177482
O O11 0.110418 0.893957 0.978333
O O12 0.000000 0.500000 0.000000
O O13 0.121526 0.073611 0.290014
#
# Coordination Sequence:
#
# PCOD9028329 Si02
#       7
#     1   2   2   2   1   2   2
#     4  10  26  42  68 118 146 206 262 308 382 470
#     4  10  22  41  77 115 147 205 256 312 391 465
#     4  10  23  44  70 108 147 203 258 315 385 460
#     4  11  25  46  75 109 153 202 258 322 393 468
#     4  10  22  42  70 106 150 200 252 306 376 476
#     4  11  22  47  78 106 160 202 259 325 386 457
#     4  10  23  46  75 117 154 203 255 324 394 463
#
# _framework density 27.911328999999999
#
# number of rings (size 3 to 8) (size 9 to 14) (size 15 to 20)
#    0.000    1.667    3.333    0.500    7.000    0.000 
#    6.000    5.833    0.000    0.000    0.000    0.000 
#    0.000    0.000    0.000    0.000    0.000    0.000 
#
# Total GULP energy -66896.810227 kJ/mol
# GULP energy per Si atom -5574.734186 kJ/mol
# Density = 2.784780 g / cm^3
# Si number density = 27.911329 Si / 1000 Ang^3
#
#
#
# Elastic Constant Matrix: (Units=GPa)
#
#
# Indices 1 2 3 4 5 6 
#
# 1 211.9784 77.3164 36.2410 -13.8152 20.8756 -23.4645
# 2 77.3164 242.1800 54.8687 -0.6334 22.5926 -29.2253
# 3 36.2410 54.8687 82.5856 2.8917 23.2775 -27.8479
# 4 -13.8152 -0.6334 2.8917 36.4062 -12.7376 -1.5917
# 5 20.8756 22.5926 23.2775 -12.7376 43.9130 -0.1025
# 6 -23.4645 -29.2253 -27.8479 -1.5917 -0.1025 78.4231
#
#
#
# Elastic Compliance Matrix: (Units=1/GPa)
#
#
# Indices 1 2 3 4 5 6 
#
# 1 0.005721 -0.001384 -0.001151 0.001988 -0.000819 0.000826
# 2 -0.001384 0.005282 -0.002378 -0.000549 -0.000956 0.000697
# 3 -0.001151 -0.002378 0.018935 -0.005159 -0.009750 0.005376
# 4 0.001988 -0.000549 -0.005159 0.032624 0.011533 -0.000764
# 5 -0.000819 -0.000956 -0.009750 0.011533 0.032159 -0.003788
# 6 0.000826 0.000697 0.005376 -0.000764 -0.003788 0.015147
#
#
# Mechanical properties :
#
#
# Convention : Reuss Voigt Hill
#
# Bulk Modulus (GPa) = 49.72206 97.06624 73.39415
# Shear Modulus (GPa) = 39.55792 56.30300 47.93046
#
# Velocity S-wave (km/s) = 3.76875 4.49621 4.14846
# Velocity P-wave (km/s) = 6.06555 7.86172 7.02131
#
# Compressibility (1/GPa) = 0.02011180
#
# Stress axis : x y z
#
# Youngs Moduli (GPa) = 174.80064 189.33119 52.81220
#
# Poissons Ratio (x) = 0.26209 0.06078
# Poissons Ratio (y) = 0.24198 0.12557
# Poissons Ratio (z) = 0.20118 0.45017
#
# Static dielectric constant tensor:
#      x y z
#    x 1.876800 -0.029460 0.160590 
#    y -0.029460 2.082140 0.111760 
#    z 0.160590 0.111760 2.115450 
# 
# From -- ./inp_files/243691.got.cif
#   From: 2010.05.17/outbox.cif.g08.bks.cpg/sg2_122_cif.got.tgz:243691.got - 2010.06.03 11:33:40.
