data_PCOD9028747
_publ_section_title
;
Structure prediction by ZEFSAII (Michael W. Deem and Ramdas Pophale) SiO2 
 PCOD9028747
Probable space group: P -1
;
_chemical_formula_sum "Si O2"
_cell_formula_units_Z 14
_cell_length_a 8.700698
_cell_length_b 9.750875
_cell_length_c 19.011107
_cell_angle_alpha 151.161283
_cell_angle_beta 129.619224
_cell_angle_gamma 52.538926
_cell_volume 593.901597
_symmetry_space_group_name_H-M "P -1"
_symmetry_group_IT_number 2
_symmetry_cell_setting 'triclinic'
loop_
_space_group_symop_operation_xyz
x,y,z
-x,-y,-z
loop_
_atom_site_type_symbol
_atom_site_label
_atom_site_fract_x
_atom_site_fract_y
_atom_site_fract_z
Si Si1 0.309608 0.846258 0.393435
Si Si2 0.920448 0.616677 0.933136
Si Si3 0.929702 0.317898 0.462387
Si Si4 0.278010 0.970569 0.840363
Si Si5 0.307172 0.386484 0.857666
Si Si6 0.706585 0.182844 0.075565
Si Si7 0.786724 0.174591 0.490272
O O1 0.255096 0.584728 0.212760
O O2 0.320339 0.733472 0.426459
O O3 0.500000 0.000000 0.500000
O O4 0.118976 0.088072 0.434708
O O5 0.125975 0.451157 0.889662
O O6 0.902936 0.785187 0.077867
O O7 0.855458 0.885011 0.981718
O O8 0.000000 0.500000 0.500000
O O9 0.834063 0.410558 0.552383
O O10 0.761817 0.166147 0.305321
O O11 0.285625 0.745441 0.806628
O O12 0.483748 0.104661 0.961373
O O13 0.249429 0.577340 0.857130
O O14 0.327697 0.062544 0.689052
O O15 0.500000 0.500000 0.000000
O O16 0.000000 0.000000 0.500000
#
# Coordination Sequence:
#
# PCOD9028747 Si02
#       7
#     2   2   2   2   2   2   2
#     4  11  26  43  69  99 130 182 223 280 347 403
#     4  10  22  42  64  97 135 169 226 280 329 409
#     4  11  24  42  68  94 134 179 224 274 335 404
#     4   9  22  40  65  98 127 175 225 276 331 398
#     4  12  23  40  68  99 134 175 227 283 342 397
#     4   9  22  39  68  91 128 181 213 277 342 400
#     4  10  23  44  64  93 137 174 220 272 342 403
#
# _framework density 23.572927
#
# number of rings (size 3 to 8) (size 9 to 14) (size 15 to 20)
#    0.857    0.857    2.857    1.286    8.000    1.714 
#    0.000    0.714    0.000    0.000    0.000    0.000 
#    0.000    0.000    0.000    0.000    0.000    0.000 
#
# Total GULP energy -78137.097232 kJ/mol
# GULP energy per Si atom -5581.221231 kJ/mol
# Density = 2.351927 g / cm^3
# Si number density = 23.572927 Si / 1000 Ang^3
#
#
#
# Elastic Constant Matrix: (Units=GPa)
#
#
# Indices 1 2 3 4 5 6 
#
# 1 71.5981 25.2471 7.3036 -15.7462 5.9113 25.3722
# 2 25.2471 105.3052 12.3183 -2.9879 0.9690 47.0416
# 3 7.3036 12.3183 68.7153 -22.8139 11.6727 8.3276
# 4 -15.7462 -2.9879 -22.8139 39.5823 2.3444 1.6277
# 5 5.9113 0.9690 11.6727 2.3444 25.6976 -2.9976
# 6 25.3722 47.0416 8.3276 1.6277 -2.9976 57.8591
#
#
#
# Elastic Compliance Matrix: (Units=1/GPa)
#
#
# Indices 1 2 3 4 5 6 
#
# 1 0.020568 -0.000583 0.004545 0.011702 -0.009008 -0.009996
# 2 -0.000583 0.015160 -0.000478 0.001240 -0.001748 -0.012127
# 3 0.004545 -0.000478 0.022342 0.015682 -0.013301 -0.005951
# 4 0.011702 0.001240 0.015682 0.040348 -0.014744 -0.010296
# 5 -0.009008 -0.001748 -0.013301 -0.014744 0.049637 0.010272
# 6 -0.009996 -0.012127 -0.005951 -0.010296 0.010272 0.033205
#
#
# Mechanical properties :
#
#
# Convention : Reuss Voigt Hill
#
# Bulk Modulus (GPa) = 15.37499 37.26185 26.31842
# Shear Modulus (GPa) = 25.51388 38.01111 31.76249
#
# Velocity S-wave (km/s) = 3.29346 4.01994 3.67470
# Velocity P-wave (km/s) = 4.58246 6.11457 5.40310
#
# Compressibility (1/GPa) = 0.06504071
#
# Stress axis : x y z
#
# Youngs Moduli (GPa) = 48.61858 65.96105 44.75787
#
# Poissons Ratio (x) = 0.03844 -0.20343
# Poissons Ratio (y) = 0.02833 0.02138
# Poissons Ratio (z) = -0.22098 0.03150
#
# Static dielectric constant tensor:
#      x y z
#    x 1.938720 0.045170 0.019630 
#    y 0.045170 1.981260 0.014640 
#    z 0.019630 0.014640 1.913650 
# 
# From -- ./inp_files/554807.got.cif
#   From: 2010.05.17/outbox.cif.g08.bks.cpg/sg2_278_cif.got.tgz:554807.got - 2010.06.03 11:33:40.
