data_PCOD9028865
_publ_section_title
;
Structure prediction by ZEFSAII (Michael W. Deem and Ramdas Pophale) SiO2 
 PCOD9028865
Probable space group: P -1
;
_chemical_formula_sum "Si O2"
_cell_formula_units_Z 16
_cell_length_a 14.296560
_cell_length_b 11.496266
_cell_length_c 14.702488
_cell_angle_alpha 40.311626
_cell_angle_beta 148.741033
_cell_angle_gamma 118.246704
_cell_volume 686.927092
_symmetry_space_group_name_H-M "P -1"
_symmetry_group_IT_number 2
_symmetry_cell_setting 'triclinic'
loop_
_space_group_symop_operation_xyz
x,y,z
-x,-y,-z
loop_
_atom_site_type_symbol
_atom_site_label
_atom_site_fract_x
_atom_site_fract_y
_atom_site_fract_z
Si Si1 0.132680 0.429488 0.747948
Si Si2 0.539394 0.229176 0.096814
Si Si3 0.667744 0.814341 0.537248
Si Si4 0.996838 0.868055 0.417527
Si Si5 0.929155 0.957552 0.796222
Si Si6 0.455664 0.813434 0.073784
Si Si7 0.666078 0.002309 0.708893
Si Si8 0.696585 0.497491 0.620953
O O1 0.011006 0.646782 0.574511
O O2 0.000000 0.500000 0.500000
O O3 0.365912 0.378017 0.938621
O O4 0.192199 0.222981 0.983122
O O5 0.776607 0.176839 0.335749
O O6 0.482284 0.300032 0.904223
O O7 0.552294 0.006474 0.254233
O O8 0.800643 0.885594 0.666212
O O9 0.781176 0.597762 0.705241
O O10 0.486948 0.829509 0.443507
O O11 0.997516 0.917703 0.280738
O O12 0.795307 0.067436 0.179094
O O13 0.798513 0.061610 0.717225
O O14 0.129971 0.736513 0.123331
O O15 0.602933 0.648753 0.368453
O O16 0.500000 0.000000 0.000000
O O17 0.500000 0.000000 0.500000
O O18 0.500000 0.500000 0.500000
#
# Coordination Sequence:
#
# PCOD9028865 Si02
#       8
#     2   2   2   2   2   2   2   2
#     4  11  24  41  70  99 131 168 217 267 327 379
#     4  10  22  42  65  93 127 169 214 261 317 387
#     4   9  20  42  66  88 126 170 207 259 318 382
#     4  11  24  44  65  93 131 170 215 265 319 391
#     4  10  22  42  65  92 128 168 213 260 319 386
#     4  12  24  42  65  90 129 167 217 269 323 381
#     4   9  21  42  67  95 126 167 213 257 319 392
#     4  12  24  41  60  92 132 164 212 267 320 374
#
# _framework density 23.292135999999999
#
# number of rings (size 3 to 8) (size 9 to 14) (size 15 to 20)
#    0.000    1.500    2.500    2.625    5.250    0.000 
#    6.750    1.250    0.000    0.000    0.000    0.000 
#    0.000    0.000    0.000    0.000    0.000    0.000 
#
# Total GULP energy -89338.470766 kJ/mol
# GULP energy per Si atom -5583.654423 kJ/mol
# Density = 2.323912 g / cm^3
# Si number density = 23.292136 Si / 1000 Ang^3
#
#
#
# Elastic Constant Matrix: (Units=GPa)
#
#
# Indices 1 2 3 4 5 6 
#
# 1 95.4355 -6.2288 17.4132 8.3464 -13.7819 2.4409
# 2 -6.2288 24.0401 -0.3988 8.2829 -8.6801 -0.9404
# 3 17.4132 -0.3988 88.3020 6.6571 -19.4034 3.3168
# 4 8.3464 8.2829 6.6571 25.3830 -2.3448 -1.4784
# 5 -13.7819 -8.6801 -19.4034 -2.3448 44.9394 -1.2801
# 6 2.4409 -0.9404 3.3168 -1.4784 -1.2801 24.6098
#
#
#
# Elastic Compliance Matrix: (Units=1/GPa)
#
#
# Indices 1 2 3 4 5 6 
#
# 1 0.012214 0.006571 -0.000986 -0.005562 0.004273 -0.000939
# 2 0.006571 0.054856 0.003277 -0.019689 0.013012 0.000497
# 3 -0.000986 0.003277 0.013139 -0.003744 0.005766 -0.001473
# 4 -0.005562 -0.019689 -0.003744 0.048389 -0.004516 0.002976
# 5 0.004273 0.013012 0.005766 -0.004516 0.028344 0.000499
# 6 -0.000939 0.000497 -0.001473 0.002976 0.000499 0.041150
#
#
# Mechanical properties :
#
#
# Convention : Reuss Voigt Hill
#
# Bulk Modulus (GPa) = 10.21107 25.48321 17.84714
# Shear Modulus (GPa) = 23.47299 32.11924 27.79611
#
# Velocity S-wave (km/s) = 3.17797 3.71748 3.45826
# Velocity P-wave (km/s) = 4.22605 5.42132 4.86056
#
# Compressibility (1/GPa) = 0.09793291
#
# Stress axis : x y z
#
# Youngs Moduli (GPa) = 81.87049 18.22968 76.11168
#
# Poissons Ratio (x) = -0.11978 0.07501
# Poissons Ratio (y) = -0.53795 -0.24942
# Poissons Ratio (z) = 0.08069 -0.05974
#
# Static dielectric constant tensor:
#      x y z
#    x 1.895590 0.019730 0.002500 
#    y 0.019730 1.937380 0.055600 
#    z 0.002500 0.055600 1.887300 
# 
# From -- ./inp_files/184340.got.cif
#   From: 2010.05.17/outbox.cif.g08.bks.cpg/sg2_93_cif.got.tgz:184340.got - 2010.06.03 11:33:40.
