data_PCOD9028931
_publ_section_title
;
Structure prediction by ZEFSAII (Michael W. Deem and Ramdas Pophale) SiO2 
 PCOD9028931
Probable space group: P -1
;
_chemical_formula_sum "Si O2"
_cell_formula_units_Z 16
_cell_length_a 6.482116
_cell_length_b 12.200257
_cell_length_c 11.596565
_cell_angle_alpha 71.006824
_cell_angle_beta 76.252558
_cell_angle_gamma 43.842914
_cell_volume 600.666783
_symmetry_space_group_name_H-M "P -1"
_symmetry_group_IT_number 2
_symmetry_cell_setting 'triclinic'
loop_
_space_group_symop_operation_xyz
x,y,z
-x,-y,-z
loop_
_atom_site_type_symbol
_atom_site_label
_atom_site_fract_x
_atom_site_fract_y
_atom_site_fract_z
Si Si1 0.115162 0.498831 0.106939
Si Si2 0.434674 0.600096 0.607917
Si Si3 0.563213 0.895035 0.250766
Si Si4 0.248878 0.810287 0.784731
Si Si5 0.549350 0.891076 0.633010
Si Si6 0.006664 0.342878 0.515667
Si Si7 0.522975 0.304418 0.778270
Si Si8 0.955345 0.207605 0.953243
O O1 0.423327 0.319258 0.154113
O O2 0.169615 0.615340 0.068019
O O3 0.829260 0.582302 0.194207
O O4 0.000000 0.500000 0.000000
O O5 0.299695 0.710929 0.700296
O O6 0.738341 0.529332 0.530544
O O7 0.181987 0.686005 0.515665
O O8 0.530846 0.433304 0.689811
O O9 0.405759 0.834846 0.260929
O O10 0.811770 0.766457 0.358624
O O11 0.736004 0.888470 0.123099
O O12 0.358818 0.068068 0.282848
O O13 0.249231 0.940532 0.692829
O O14 0.032916 0.855016 0.901158
O O15 0.769963 0.716948 0.599836
O O16 0.500000 0.000000 0.500000
O O17 0.729513 0.226455 0.891814
#
# Coordination Sequence:
#
# PCOD9028931 Si02
#       8
#     2   2   2   2   2   2   2   2
#     4  11  20  34  66 100 143 174 203 271 345 412
#     4  11  22  38  68 108 131 170 222 278 358 409
#     4  10  23  45  66  94 134 186 230 274 324 394
#     4  12  23  41  67 103 140 176 217 281 345 408
#     4  10  25  47  65  91 134 186 238 279 323 390
#     4  10  22  42  65  95 135 170 227 286 331 396
#     4  11  20  38  65  98 137 179 209 277 340 398
#     4  11  22  40  66 104 139 169 223 270 345 411
#
# _framework density 26.637065
#
# number of rings (size 3 to 8) (size 9 to 14) (size 15 to 20)
#    0.000    1.250    3.750    2.625    0.000    5.500 
#    2.250    2.500    0.000    0.000    0.000    0.000 
#    0.000    0.000    0.000    0.000    0.000    0.000 
#
# Total GULP energy -89499.239342 kJ/mol
# GULP energy per Si atom -5593.702459 kJ/mol
# Density = 2.657644 g / cm^3
# Si number density = 26.637065 Si / 1000 Ang^3
#
#
#
# Elastic Constant Matrix: (Units=GPa)
#
#
# Indices 1 2 3 4 5 6 
#
# 1 119.7667 56.4842 62.6495 18.6065 12.4159 7.3154
# 2 56.4842 94.2769 50.6199 23.2135 4.8957 20.9481
# 3 62.6495 50.6199 167.3838 25.0322 -3.2611 19.0194
# 4 18.6065 23.2135 25.0322 47.5500 3.6615 9.6398
# 5 12.4159 4.8957 -3.2611 3.6615 69.9807 12.3208
# 6 7.3154 20.9481 19.0194 9.6398 12.3208 62.3938
#
#
#
# Elastic Compliance Matrix: (Units=1/GPa)
#
#
# Indices 1 2 3 4 5 6 
#
# 1 0.013282 -0.006428 -0.003228 -0.000612 -0.002404 0.002154
# 2 -0.006428 0.017279 -0.001710 -0.004265 0.000783 -0.004022
# 3 -0.003228 -0.001710 0.008203 -0.002024 0.001448 -0.001521
# 4 -0.000612 -0.004265 -0.002024 0.024790 -0.000708 -0.001570
# 5 -0.002404 0.000783 0.001448 -0.000708 0.015355 -0.003345
# 6 0.002154 -0.004022 -0.001521 -0.001570 -0.003345 0.018492
#
#
# Mechanical properties :
#
#
# Convention : Reuss Voigt Hill
#
# Bulk Modulus (GPa) = 62.36486 80.10385 71.23435
# Shear Modulus (GPa) = 39.84801 50.09649 44.97225
#
# Velocity S-wave (km/s) = 3.87196 4.34142 4.11339
# Velocity P-wave (km/s) = 6.59190 7.43425 7.02571
#
# Compressibility (1/GPa) = 0.01603467
#
# Stress axis : x y z
#
# Youngs Moduli (GPa) = 75.28921 57.87231 121.90537
#
# Poissons Ratio (x) = 0.37200 0.39345
# Poissons Ratio (y) = 0.48395 0.20840
# Poissons Ratio (z) = 0.24300 0.09894
#
# Static dielectric constant tensor:
#      x y z
#    x 2.138940 -0.006910 -0.057650 
#    y -0.006910 2.195030 0.017310 
#    z -0.057650 0.017310 2.075080 
# 
# From -- ./inp_files/364264.got.cif
#   From: 2010.05.17/outbox.cif.g08.bks.cpg/sg2_183_cif.got.tgz:364264.got - 2010.06.03 11:33:40.
