data_PCOD9028730
_publ_section_title
;
Structure prediction by ZEFSAII (Michael W. Deem and Ramdas Pophale) SiO2 
 PCOD9028730
Probable space group: P -1
;
_chemical_formula_sum "Si O2"
_cell_formula_units_Z 12
_cell_length_a 12.834076
_cell_length_b 5.686245
_cell_length_c 15.561405
_cell_angle_alpha 82.228178
_cell_angle_beta 27.590343
_cell_angle_gamma 72.220817
_cell_volume 476.659093
_symmetry_space_group_name_H-M "P -1"
_symmetry_group_IT_number 2
_symmetry_cell_setting 'triclinic'
loop_
_space_group_symop_operation_xyz
x,y,z
-x,-y,-z
loop_
_atom_site_type_symbol
_atom_site_label
_atom_site_fract_x
_atom_site_fract_y
_atom_site_fract_z
Si Si1 0.805366 0.435187 0.202318
Si Si2 0.367439 0.744056 0.821996
Si Si3 0.389709 0.947674 0.435099
Si Si4 0.990008 0.585731 0.215670
Si Si5 0.770752 0.206016 0.602153
Si Si6 0.429391 0.291732 0.007154
O O1 0.732069 0.251927 0.203019
O O2 0.922840 0.395102 0.212215
O O3 0.551533 0.689308 0.379154
O O4 0.000000 0.500000 0.000000
O O5 0.419780 0.999216 0.771329
O O6 0.638872 0.515626 0.655148
O O7 0.165189 0.705033 0.032310
O O8 0.251633 0.176596 0.589333
O O9 0.201505 0.921072 0.505332
O O10 0.139747 0.434531 0.196006
O O11 0.554626 0.237538 0.825236
O O12 0.000000 0.000000 0.500000
O O13 0.500000 0.500000 0.000000
O O14 0.500000 0.000000 0.000000
#
# Coordination Sequence:
#
# PCOD9028730 Si02
#       6
#     2   2   2   2   2   2
#     4   9  20  42  60  95 132 167 222 276 334 403
#     4   9  22  40  61  94 129 167 222 271 340 393
#     4  11  22  40  67  94 127 175 217 279 338 406
#     4  10  22  42  64  96 132 172 223 276 335 404
#     4  10  23  41  63  91 132 170 223 281 331 407
#     4  11  26  46  68 101 136 179 229 284 341 405
#
# _framework density 25.175225000000001
#
# number of rings (size 3 to 8) (size 9 to 14) (size 15 to 20)
#    0.000    2.000    0.000    2.500    7.000    4.000 
#    3.000    0.000    0.000    0.000    0.000    0.000 
#    0.000    0.000    0.000    0.000    0.000    0.000 
#
# Total GULP energy -66864.927106 kJ/mol
# GULP energy per Si atom -5572.077259 kJ/mol
# Density = 2.511792 g / cm^3
# Si number density = 25.175225 Si / 1000 Ang^3
#
#
#
# Elastic Constant Matrix: (Units=GPa)
#
#
# Indices 1 2 3 4 5 6 
#
# 1 154.7696 41.2059 6.9454 11.2339 -19.2838 -4.2847
# 2 41.2059 86.6080 16.5969 4.6794 -3.1317 -10.2167
# 3 6.9454 16.5969 107.8117 8.4756 -5.3166 3.6166
# 4 11.2339 4.6794 8.4756 39.6621 -2.7165 -1.0102
# 5 -19.2838 -3.1317 -5.3166 -2.7165 38.8740 7.5994
# 6 -4.2847 -10.2167 3.6166 -1.0102 7.5994 20.3567
#
#
#
# Elastic Compliance Matrix: (Units=1/GPa)
#
#
# Indices 1 2 3 4 5 6 
#
# 1 0.008050 -0.003914 0.000479 -0.001696 0.004003 -0.001934
# 2 -0.003914 0.014719 -0.002405 -0.000093 -0.002650 0.007975
# 3 0.000479 -0.002405 0.009991 -0.001945 0.002003 -0.003725
# 4 -0.001696 -0.000093 -0.001945 0.026182 0.000509 0.001051
# 5 0.004003 -0.002650 0.002003 0.000509 0.030167 -0.012080
# 6 -0.001934 0.007975 -0.003725 0.001051 -0.012080 0.057943
#
#
# Mechanical properties :
#
#
# Convention : Reuss Voigt Hill
#
# Bulk Modulus (GPa) = 47.43214 53.18731 50.30973
# Shear Modulus (GPa) = 30.16448 38.74129 34.45288
#
# Velocity S-wave (km/s) = 3.46523 3.92709 3.70337
# Velocity P-wave (km/s) = 5.90696 6.46030 6.18981
#
# Compressibility (1/GPa) = 0.02108275
#
# Stress axis : x y z
#
# Youngs Moduli (GPa) = 124.22386 67.93899 100.08633
#
# Poissons Ratio (x) = 0.26588 -0.04799
# Poissons Ratio (y) = 0.48616 0.24068
# Poissons Ratio (z) = -0.05956 0.16338
#
# Static dielectric constant tensor:
#      x y z
#    x 2.084480 -0.118360 -0.052920 
#    y -0.118360 2.221280 -0.069330 
#    z -0.052920 -0.069330 2.064540 
# 
# From -- ./inp_files/23724.got.cif
#   From: 2010.05.17/outbox.cif.g08.bks.cpg/sg2_12_cif.got.tgz:23724.got - 2010.06.03 11:33:40.
