data_PCOD9028563
_publ_section_title
;
Structure prediction by ZEFSAII (Michael W. Deem and Ramdas Pophale) SiO2 
 PCOD9028563
Probable space group: P -1
;
_chemical_formula_sum "Si O2"
_cell_formula_units_Z 16
_cell_length_a 15.544554
_cell_length_b 15.305273
_cell_length_c 8.407170
_cell_angle_alpha 107.237103
_cell_angle_beta 97.250097
_cell_angle_gamma 145.882963
_cell_volume 771.912419
_symmetry_space_group_name_H-M "P -1"
_symmetry_group_IT_number 2
_symmetry_cell_setting 'triclinic'
loop_
_space_group_symop_operation_xyz
x,y,z
-x,-y,-z
loop_
_atom_site_type_symbol
_atom_site_label
_atom_site_fract_x
_atom_site_fract_y
_atom_site_fract_z
Si Si1 0.554479 0.812823 0.191795
Si Si2 0.695583 0.753126 0.838508
Si Si3 0.590593 0.648181 0.247679
Si Si4 0.078900 0.110795 0.344549
Si Si5 0.926816 0.406908 0.182888
Si Si6 0.959708 0.309395 0.420339
Si Si7 0.333738 0.773057 0.257917
Si Si8 0.336378 0.544468 0.673249
O O1 0.565416 0.728919 0.243978
O O2 0.443425 0.782555 0.255830
O O3 0.782380 0.071132 0.324095
O O4 0.405714 0.649699 0.916819
O O5 0.546378 0.523850 0.729634
O O6 0.826580 0.850062 0.767730
O O7 0.555738 0.709421 0.749783
O O8 0.844271 0.907738 0.113588
O O9 0.833560 0.866572 0.477633
O O10 0.500000 0.500000 0.000000
O O11 0.187001 0.311484 0.517483
O O12 0.994750 0.564107 0.377893
O O13 0.123996 0.565021 0.205235
O O14 0.873494 0.276254 0.224912
O O15 0.736092 0.250378 0.938529
O O16 0.183326 0.473588 0.523258
O O17 0.500000 0.000000 0.500000
#
# Coordination Sequence:
#
# PCOD9028563 Si02
#       8
#     2   2   2   2   2   2   2   2
#     4  12  24  40  66 102 131 175 221 268 330 392
#     4  10  22  42  63  94 131 177 214 267 333 378
#     4  11  22  39  63  97 131 171 218 266 320 381
#     4  10  22  42  67  88 138 173 216 272 322 389
#     4  10  24  45  67  98 130 172 215 276 336 390
#     4  11  24  42  69  98 129 168 224 274 327 392
#     4  11  23  45  70  96 138 171 213 276 336 392
#     4  11  21  39  63  96 131 164 222 267 315 393
#
# _framework density 20.727741000000002
#
# number of rings (size 3 to 8) (size 9 to 14) (size 15 to 20)
#    0.000    1.250    5.000    2.250    0.000    5.000 
#    0.000    2.500    0.000    0.000    0.000    0.000 
#    0.000    0.000    0.000    0.000    0.000    0.000 
#
# Total GULP energy -89275.917800 kJ/mol
# GULP energy per Si atom -5579.744862 kJ/mol
# Density = 2.068056 g / cm^3
# Si number density = 20.727741 Si / 1000 Ang^3
#
#
#
# Elastic Constant Matrix: (Units=GPa)
#
#
# Indices 1 2 3 4 5 6 
#
# 1 172.3511 46.7202 43.8788 -5.0790 5.5376 -4.1352
# 2 46.7202 30.8526 12.0329 -3.7948 11.4316 1.2554
# 3 43.8788 12.0329 125.5707 -2.3490 8.9853 -10.3968
# 4 -5.0790 -3.7948 -2.3490 27.2403 -2.7325 7.1376
# 5 5.5376 11.4316 8.9853 -2.7325 40.0836 -2.2376
# 6 -4.1352 1.2554 -10.3968 7.1376 -2.2376 25.4148
#
#
#
# Elastic Compliance Matrix: (Units=1/GPa)
#
#
# Indices 1 2 3 4 5 6 
#
# 1 0.011033 -0.017505 -0.002293 -0.000774 0.004057 0.002297
# 2 -0.017505 0.066152 0.000317 0.006765 -0.016579 -0.009346
# 3 -0.002293 0.000317 0.009122 -0.000650 -0.001674 0.003378
# 4 -0.000774 0.006765 -0.000650 0.040668 0.000420 -0.012110
# 5 0.004057 -0.016579 -0.001674 0.000420 0.029703 0.003292
# 6 0.002297 -0.009346 0.003378 -0.012110 0.003292 0.045255
#
#
# Mechanical properties :
#
#
# Convention : Reuss Voigt Hill
#
# Bulk Modulus (GPa) = 21.12146 59.33758 40.22952
# Shear Modulus (GPa) = 19.47985 33.62391 26.55188
#
# Velocity S-wave (km/s) = 3.06893 4.03199 3.58296
# Velocity P-wave (km/s) = 4.77178 7.09684 6.04711
#
# Compressibility (1/GPa) = 0.04734521
#
# Stress axis : x y z
#
# Youngs Moduli (GPa) = 90.63807 15.11672 109.62899
#
# Poissons Ratio (x) = 0.26462 0.25133
# Poissons Ratio (y) = 1.58663 -0.03475
# Poissons Ratio (z) = 0.20779 -0.00479
#
# Static dielectric constant tensor:
#      x y z
#    x 1.763380 0.061670 0.050770 
#    y 0.061670 1.778120 0.011900 
#    z 0.050770 0.011900 1.763590 
# 
# From -- ./inp_files/315653.got.cif
#   From: 2010.05.17/outbox.cif.g08.bks.cpg/sg2_158_cif.got.tgz:315653.got - 2010.06.03 11:33:40.
