data_PCOD9028665
_publ_section_title
;
Structure prediction by ZEFSAII (Michael W. Deem and Ramdas Pophale) SiO2 
 PCOD9028665
Probable space group: P -1
;
_chemical_formula_sum "Si O2"
_cell_formula_units_Z 14
_cell_length_a 11.891861
_cell_length_b 9.041677
_cell_length_c 13.926309
_cell_angle_alpha 116.788634
_cell_angle_beta 31.130688
_cell_angle_gamma 127.282675
_cell_volume 607.520541
_symmetry_space_group_name_H-M "P -1"
_symmetry_group_IT_number 2
_symmetry_cell_setting 'triclinic'
loop_
_space_group_symop_operation_xyz
x,y,z
-x,-y,-z
loop_
_atom_site_type_symbol
_atom_site_label
_atom_site_fract_x
_atom_site_fract_y
_atom_site_fract_z
Si Si1 0.900367 0.169959 0.310182
Si Si2 0.731190 0.484021 0.782826
Si Si3 0.567799 0.120193 0.132554
Si Si4 0.335991 0.154094 0.882222
Si Si5 0.137109 0.769978 0.248149
Si Si6 0.554708 0.589461 0.592745
Si Si7 0.428548 0.198745 0.621171
O O1 0.705420 0.228192 0.425023
O O2 0.045304 0.306324 0.333048
O O3 0.737316 0.945979 0.382678
O O4 0.121892 0.198822 0.086297
O O5 0.603332 0.341946 0.747654
O O6 0.819338 0.379235 0.764127
O O7 0.500000 0.500000 0.000000
O O8 0.553815 0.275228 0.255614
O O9 0.657447 0.995382 0.092381
O O10 0.300607 0.971865 0.239720
O O11 0.745594 0.211038 0.937788
O O12 0.310044 0.088036 0.773564
O O13 0.847755 0.700190 0.430151
O O14 0.500000 0.500000 0.500000
O O15 0.429839 0.394762 0.686309
#
# Coordination Sequence:
#
# PCOD9028665 Si02
#       7
#     2   2   2   2   2   2   2
#     4  10  22  42  64  91 136 168 217 275 323 387
#     4   9  19  39  68  98 126 162 219 278 321 390
#     4  10  25  44  73  97 133 178 220 277 334 396
#     4  10  23  42  68 100 123 170 227 270 336 382
#     4  10  22  48  68  97 135 175 224 275 334 388
#     4  12  28  44  65 101 140 179 222 267 336 404
#     4  11  25  41  66  94 133 178 216 272 327 394
#
# _framework density 23.044487
#
# number of rings (size 3 to 8) (size 9 to 14) (size 15 to 20)
#    0.000    1.714    1.429    0.857   10.000    1.143 
#    0.000    0.000    0.000    0.000    0.000    0.000 
#    0.000    0.000    0.000    0.000    0.000    0.000 
#
# Total GULP energy -78216.392977 kJ/mol
# GULP energy per Si atom -5586.885213 kJ/mol
# Density = 2.299204 g / cm^3
# Si number density = 23.044487 Si / 1000 Ang^3
#
#
#
# Elastic Constant Matrix: (Units=GPa)
#
#
# Indices 1 2 3 4 5 6 
#
# 1 66.1123 12.2574 7.9896 -2.6584 8.1332 5.7500
# 2 12.2574 114.4904 24.1820 -2.1467 -5.9019 31.8599
# 3 7.9896 24.1820 76.2644 8.6760 -10.8494 9.8129
# 4 -2.6584 -2.1467 8.6760 41.2154 9.5486 -6.6687
# 5 8.1332 -5.9019 -10.8494 9.5486 30.1033 -5.4176
# 6 5.7500 31.8599 9.8129 -6.6687 -5.4176 20.7879
#
#
#
# Elastic Compliance Matrix: (Units=1/GPa)
#
#
# Indices 1 2 3 4 5 6 
#
# 1 0.016804 -0.000612 -0.002398 0.002599 -0.006990 -0.003567
# 2 -0.000612 0.015845 -0.001649 -0.002610 -0.000887 -0.024405
# 3 -0.002398 -0.001649 0.016190 -0.006062 0.007272 -0.004501
# 4 0.002599 -0.002610 -0.006062 0.030140 -0.010611 0.013047
# 5 -0.006990 -0.000887 0.007272 -0.010611 0.042265 0.007470
# 6 -0.003567 -0.024405 -0.004501 0.013047 0.007470 0.094751
#
#
# Mechanical properties :
#
#
# Convention : Reuss Voigt Hill
#
# Bulk Modulus (GPa) = 25.30288 38.41390 31.85839
# Shear Modulus (GPa) = 20.96577 32.58386 26.77482
#
# Velocity S-wave (km/s) = 3.01955 3.76434 3.41233
# Velocity P-wave (km/s) = 4.81257 5.96651 5.42034
#
# Compressibility (1/GPa) = 0.03952119
#
# Stress axis : x y z
#
# Youngs Moduli (GPa) = 59.51101 63.11252 61.76814
#
# Poissons Ratio (x) = 0.03861 0.14810
# Poissons Ratio (y) = 0.03640 0.10186
# Poissons Ratio (z) = 0.14269 0.10407
#
# Static dielectric constant tensor:
#      x y z
#    x 1.888350 0.003780 0.001730 
#    y 0.003780 1.932200 -0.045410 
#    z 0.001730 -0.045410 1.821980 
# 
# From -- ./inp_files/462538.got.cif
#   From: 2010.05.17/outbox.cif.g08.bks.cpg/sg2_232_cif.got.tgz:462538.got - 2010.06.03 11:33:40.
