data_PCOD9028738
_publ_section_title
;
Structure prediction by ZEFSAII (Michael W. Deem and Ramdas Pophale) SiO2 
 PCOD9028738
Probable space group: P -1
;
_chemical_formula_sum "Si O2"
_cell_formula_units_Z 16
_cell_length_a 9.436390
_cell_length_b 14.602044
_cell_length_c 21.018520
_cell_angle_alpha 21.399399
_cell_angle_beta 120.959552
_cell_angle_gamma 108.608333
_cell_volume 778.942897
_symmetry_space_group_name_H-M "P -1"
_symmetry_group_IT_number 2
_symmetry_cell_setting 'triclinic'
loop_
_space_group_symop_operation_xyz
x,y,z
-x,-y,-z
loop_
_atom_site_type_symbol
_atom_site_label
_atom_site_fract_x
_atom_site_fract_y
_atom_site_fract_z
Si Si1 0.494883 0.718389 0.202251
Si Si2 0.325171 0.214469 0.155771
Si Si3 0.159336 0.856328 0.284011
Si Si4 0.722856 0.804377 0.696028
Si Si5 0.951947 0.109614 0.346605
Si Si6 0.760544 0.762272 0.518006
Si Si7 0.300669 0.654829 0.315111
Si Si8 0.778572 0.364189 0.892668
O O1 0.694679 0.453313 0.448488
O O2 0.338890 0.806475 0.166187
O O3 0.418057 0.601610 0.202401
O O4 0.500000 0.000000 0.000000
O O5 0.269455 0.184471 0.234025
O O6 0.243092 0.065053 0.186766
O O7 0.553398 0.033326 0.315596
O O8 0.224573 0.559883 0.902409
O O9 0.153060 0.835014 0.219909
O O10 0.942015 0.026571 0.147890
O O11 0.776681 0.496904 0.874848
O O12 0.867948 0.894803 0.641769
O O13 0.500000 0.000000 0.500000
O O14 0.890889 0.892580 0.442868
O O15 0.000000 0.000000 0.500000
O O16 0.735888 0.584506 0.570497
O O17 0.828169 0.546679 0.734564
O O18 0.500000 0.500000 0.500000
#
# Coordination Sequence:
#
# PCOD9028738 Si02
#       8
#     2   2   2   2   2   2   2   2
#     4  10  22  42  64  97 130 167 224 280 325 402
#     4  12  22  42  69  94 137 176 216 276 341 401
#     4  11  21  42  70  91 126 179 220 268 339 393
#     4  12  23  42  66  93 134 187 216 271 350 393
#     4  12  24  41  65 103 136 169 235 276 324 412
#     4  11  21  42  68 101 132 172 225 277 329 401
#     4   9  19  41  70  88 129 173 216 267 340 391
#     4  11  22  42  68  89 136 174 221 270 340 399
#
# _framework density 20.540659000000002
#
# number of rings (size 3 to 8) (size 9 to 14) (size 15 to 20)
#    0.000    1.000    7.500    0.750    0.000    2.500 
#    4.500    7.500    0.000    0.000    0.000    0.000 
#    0.000    0.000    0.000    0.000    0.000    0.000 
#
# Total GULP energy -89347.974226 kJ/mol
# GULP energy per Si atom -5584.248389 kJ/mol
# Density = 2.049391 g / cm^3
# Si number density = 20.540659 Si / 1000 Ang^3
#
#
#
# Elastic Constant Matrix: (Units=GPa)
#
#
# Indices 1 2 3 4 5 6 
#
# 1 96.7760 65.3318 49.4582 -10.7820 -1.1844 -3.7939
# 2 65.3318 125.7876 25.8149 -21.8729 -13.5737 -3.1913
# 3 49.4582 25.8149 111.4384 -11.0648 1.6172 10.8330
# 4 -10.7820 -21.8729 -11.0648 26.7894 8.1272 3.5931
# 5 -1.1844 -13.5737 1.6172 8.1272 34.4492 -11.3668
# 6 -3.7939 -3.1913 10.8330 3.5931 -11.3668 28.1163
#
#
#
# Elastic Compliance Matrix: (Units=1/GPa)
#
#
# Indices 1 2 3 4 5 6 
#
# 1 0.020565 -0.009578 -0.007716 -0.003310 -0.000284 0.004969
# 2 -0.009578 0.014261 0.001606 0.007348 0.003548 0.000203
# 3 -0.007716 0.001606 0.013589 0.006424 -0.004694 -0.008813
# 4 -0.003310 0.007348 0.006424 0.050904 -0.014268 -0.014361
# 5 -0.000284 0.003548 -0.004694 -0.014268 0.040758 0.020474
# 6 0.004969 0.000203 -0.008813 -0.014361 0.020474 0.049768
#
#
# Mechanical properties :
#
#
# Convention : Reuss Voigt Hill
#
# Bulk Modulus (GPa) = 58.69102 68.35686 63.52394
# Shear Modulus (GPa) = 22.03624 30.76412 26.40018
#
# Velocity S-wave (km/s) = 3.27893 3.87424 3.58895
# Velocity P-wave (km/s) = 6.55518 7.30507 6.94026
#
# Compressibility (1/GPa) = 0.01703838
#
# Stress axis : x y z
#
# Youngs Moduli (GPa) = 48.62741 70.12349 73.59027
#
# Poissons Ratio (x) = 0.67161 0.56781
# Poissons Ratio (y) = 0.46573 -0.11816
# Poissons Ratio (z) = 0.37520 -0.11259
#
# Static dielectric constant tensor:
#      x y z
#    x 1.750090 0.010010 0.035300 
#    y 0.010010 1.743010 0.058760 
#    z 0.035300 0.058760 1.696520 
# 
# From -- ./inp_files/590425.got.cif
#   From: 2010.05.17/outbox.cif.g08.bks.cpg/sg2_296_cif.got.tgz:590425.got - 2010.06.03 11:33:40.
