data_PCOD9028260
_publ_section_title
;
Structure prediction by ZEFSAII (Michael W. Deem and Ramdas Pophale) SiO2 
 PCOD9028260
Probable space group: P -1
;
_chemical_formula_sum "Si O2"
_cell_formula_units_Z 14
_cell_length_a 13.905058
_cell_length_b 14.131141
_cell_length_c 9.904527
_cell_angle_alpha 48.400368
_cell_angle_beta 68.518510
_cell_angle_gamma 30.122409
_cell_volume 607.846293
_symmetry_space_group_name_H-M "P -1"
_symmetry_group_IT_number 2
_symmetry_cell_setting 'triclinic'
loop_
_space_group_symop_operation_xyz
x,y,z
-x,-y,-z
loop_
_atom_site_type_symbol
_atom_site_label
_atom_site_fract_x
_atom_site_fract_y
_atom_site_fract_z
Si Si1 0.637175 0.468822 0.163547
Si Si2 0.288623 0.200947 0.322220
Si Si3 0.877075 0.009089 0.110387
Si Si4 0.141379 0.960661 0.358448
Si Si5 0.134280 0.173309 0.952421
Si Si6 0.023164 0.235630 0.436710
Si Si7 0.575105 0.810140 0.987177
O O1 0.698749 0.330516 0.404106
O O2 0.584773 0.673664 0.017334
O O3 0.401266 0.667711 0.041946
O O4 0.885129 0.196754 0.219338
O O5 0.086728 0.521199 0.156621
O O6 0.197199 0.161430 0.435024
O O7 0.500000 0.000000 0.500000
O O8 0.362051 0.141386 0.185534
O O9 0.917495 0.849398 0.134834
O O10 0.970371 0.860004 0.346533
O O11 0.000000 0.000000 0.000000
O O12 0.096898 0.083042 0.406245
O O13 0.234734 0.957215 0.206425
O O14 0.320472 0.078955 0.920933
O O15 0.772041 0.567701 0.223628
#
# Coordination Sequence:
#
# PCOD9028260 Si02
#       7
#     2   2   2   2   2   2   2
#     4   9  20  41  64  95 134 176 215 268 338 390
#     4  12  25  46  72  95 139 179 221 279 339 397
#     4  11  27  41  65 103 145 167 222 280 336 399
#     4  10  22  41  73  92 132 181 229 266 337 400
#     4  11  25  45  69  99 132 182 224 272 342 397
#     4  11  25  44  66 100 136 179 225 282 325 394
#     4  10  23  43  70 100 134 171 231 276 326 398
#
# _framework density 23.032139999999998
#
# number of rings (size 3 to 8) (size 9 to 14) (size 15 to 20)
#    0.000    1.429    2.857    2.143    8.000    5.714 
#    0.000    0.000    0.000    0.000    0.000    0.000 
#    0.000    0.000    0.000    0.000    0.000    0.000 
#
# Total GULP energy -78314.852204 kJ/mol
# GULP energy per Si atom -5593.918015 kJ/mol
# Density = 2.297972 g / cm^3
# Si number density = 23.032140 Si / 1000 Ang^3
#
#
#
# Elastic Constant Matrix: (Units=GPa)
#
#
# Indices 1 2 3 4 5 6 
#
# 1 117.7875 38.0330 26.3334 8.0217 0.5926 -24.8522
# 2 38.0330 92.2015 35.8608 13.6280 1.7445 -20.4327
# 3 26.3334 35.8608 115.7142 23.6167 6.2617 -23.4973
# 4 8.0217 13.6280 23.6167 35.2375 -6.5706 7.5826
# 5 0.5926 1.7445 6.2617 -6.5706 40.1452 -4.7247
# 6 -24.8522 -20.4327 -23.4973 7.5826 -4.7247 44.0345
#
#
#
# Elastic Compliance Matrix: (Units=1/GPa)
#
#
# Indices 1 2 3 4 5 6 
#
# 1 0.010669 -0.002925 -0.000024 -0.002338 0.000188 0.005074
# 2 -0.002925 0.014592 -0.001821 -0.004919 -0.000531 0.004938
# 3 -0.000024 -0.001821 0.012935 -0.010076 -0.002706 0.007488
# 4 -0.002338 -0.004919 -0.010076 0.042189 0.006900 -0.015503
# 5 0.000188 -0.000531 -0.002706 0.006900 0.026490 0.000070
# 6 0.005074 0.004938 0.007488 -0.015503 0.000070 0.034537
#
#
# Mechanical properties :
#
#
# Convention : Reuss Voigt Hill
#
# Bulk Modulus (GPa) = 34.89730 58.46198 46.67964
# Shear Modulus (GPa) = 31.15187 38.91518 35.03353
#
# Velocity S-wave (km/s) = 3.68168 4.11494 3.90432
# Velocity P-wave (km/s) = 5.76693 6.92927 6.37465
#
# Compressibility (1/GPa) = 0.02865551
#
# Stress axis : x y z
#
# Youngs Moduli (GPa) = 93.73380 68.53004 77.30795
#
# Poissons Ratio (x) = 0.20045 0.00186
# Poissons Ratio (y) = 0.27417 0.14079
# Poissons Ratio (z) = 0.00226 0.12481
#
# Static dielectric constant tensor:
#      x y z
#    x 1.893500 0.011860 -0.000670 
#    y 0.011860 1.896190 0.003580 
#    z -0.000670 0.003580 1.839880 
# 
# From -- ./inp_files/314615.got.cif
#   From: 2010.05.17/outbox.cif.g08.bks.cpg/sg2_158_cif.got.tgz:314615.got - 2010.06.03 11:33:40.
