data_PCOD9028291
_publ_section_title
;
Structure prediction by ZEFSAII (Michael W. Deem and Ramdas Pophale) SiO2 
 PCOD9028291
Probable space group: P -1
;
_chemical_formula_sum "Si O2"
_cell_formula_units_Z 16
_cell_length_a 12.238127
_cell_length_b 15.977553
_cell_length_c 18.594929
_cell_angle_alpha 27.951354
_cell_angle_beta 133.727702
_cell_angle_gamma 152.138795
_cell_volume 726.581639
_symmetry_space_group_name_H-M "P -1"
_symmetry_group_IT_number 2
_symmetry_cell_setting 'triclinic'
loop_
_space_group_symop_operation_xyz
x,y,z
-x,-y,-z
loop_
_atom_site_type_symbol
_atom_site_label
_atom_site_fract_x
_atom_site_fract_y
_atom_site_fract_z
Si Si1 0.195143 0.487011 0.388121
Si Si2 0.272477 0.901105 0.892140
Si Si3 0.668585 0.365704 0.498119
Si Si4 0.274014 0.537500 0.088394
Si Si5 0.019560 0.682766 0.097231
Si Si6 0.537149 0.844134 0.822600
Si Si7 0.000548 0.044718 0.882350
Si Si8 0.168489 0.077402 0.454422
O O1 0.226520 0.481734 0.491063
O O2 0.091578 0.590206 0.252783
O O3 0.474145 0.748424 0.278728
O O4 0.005081 0.177678 0.492590
O O5 0.026691 0.740225 0.859100
O O6 0.317226 0.740884 0.008130
O O7 0.186223 0.817345 0.998722
O O8 0.365839 0.122293 0.542076
O O9 0.807133 0.616152 0.311330
O O10 0.690097 0.175990 0.637782
O O11 0.322822 0.390980 0.253989
O O12 0.437890 0.726433 0.948369
O O13 0.718702 0.386056 0.166261
O O14 0.067246 0.924648 0.964813
O O15 0.721302 0.856494 0.877485
O O16 0.000000 0.000000 0.000000
O O17 0.000000 0.000000 0.500000
#
# Coordination Sequence:
#
# PCOD9028291 Si02
#       8
#     2   2   2   2   2   2   2   2
#     4  12  25  45  71 107 151 188 234 292 361 430
#     4  10  22  41  74 106 146 189 230 287 355 438
#     4  12  27  48  73 107 143 187 242 298 361 424
#     4  10  22  42  73 104 146 190 231 288 361 422
#     4  11  25  45  72 109 140 191 241 289 361 426
#     4  11  23  50  72 102 146 185 241 300 353 420
#     4  12  28  49  75 101 139 192 247 301 356 425
#     4  12  27  42  68 110 152 191 233 295 354 431
#
# _framework density 22.020925999999999
#
# number of rings (size 3 to 8) (size 9 to 14) (size 15 to 20)
#    0.000    0.750    2.500    4.125    8.750    1.000 
#    2.250    1.250    0.000    0.000    0.000    0.000 
#    0.000    0.000    0.000    0.000    0.000    0.000 
#
# Total GULP energy -89645.968750 kJ/mol
# GULP energy per Si atom -5602.873047 kJ/mol
# Density = 2.197081 g / cm^3
# Si number density = 22.020926 Si / 1000 Ang^3
#
#
#
# Elastic Constant Matrix: (Units=GPa)
#
#
# Indices 1 2 3 4 5 6 
#
# 1 30.8123 7.3266 27.6480 -12.1943 11.7942 6.7261
# 2 7.3266 92.7010 13.3170 -0.9131 -8.6458 -1.6207
# 3 27.6480 13.3170 108.9478 3.7608 -4.3052 -8.4989
# 4 -12.1943 -0.9131 3.7608 28.1171 1.0434 0.3620
# 5 11.7942 -8.6458 -4.3052 1.0434 34.6214 -1.5560
# 6 6.7261 -1.6207 -8.4989 0.3620 -1.5560 36.5943
#
#
#
# Elastic Compliance Matrix: (Units=1/GPa)
#
#
# Indices 1 2 3 4 5 6 
#
# 1 0.109962 -0.008308 -0.032995 0.053961 -0.046646 -0.030760
# 2 -0.008308 0.011852 0.001235 -0.003646 0.006172 0.002637
# 3 -0.032995 0.001235 0.019495 -0.017582 0.015018 0.011460
# 4 0.053961 -0.003646 -0.017582 0.062298 -0.024067 -0.015803
# 5 -0.046646 0.006172 0.015018 -0.024067 0.049568 0.014681
# 6 -0.030760 0.002637 0.011460 -0.015803 0.014681 0.036539
#
#
# Mechanical properties :
#
#
# Convention : Reuss Voigt Hill
#
# Bulk Modulus (GPa) = 16.34684 36.56047 26.45365
# Shear Modulus (GPa) = 12.81251 32.14452 22.47852
#
# Velocity S-wave (km/s) = 2.41474 3.82478 3.19843
# Velocity P-wave (km/s) = 3.90052 6.01198 5.06744
#
# Compressibility (1/GPa) = 0.06117392
#
# Stress axis : x y z
#
# Youngs Moduli (GPa) = 9.09402 84.37128 51.29406
#
# Poissons Ratio (x) = 0.70093 1.69247
# Poissons Ratio (y) = 0.07555 -0.06335
# Poissons Ratio (z) = 0.30006 -0.10420
#
# Static dielectric constant tensor:
#      x y z
#    x 1.768800 0.031700 -0.006610 
#    y 0.031700 1.837820 -0.013210 
#    z -0.006610 -0.013210 1.783420 
# 
# From -- ./inp_files/569945.got.cif
#   From: 2010.05.17/outbox.cif.g08.bks.cpg/sg2_285_cif.got.tgz:569945.got - 2010.06.03 11:33:40.
