data_PCOD9028328
_publ_section_title
;
Structure prediction by ZEFSAII (Michael W. Deem and Ramdas Pophale) SiO2 
 PCOD9028328
Probable space group: P -1
;
_chemical_formula_sum "Si O2"
_cell_formula_units_Z 10
_cell_length_a 9.344268
_cell_length_b 10.729225
_cell_length_c 8.598296
_cell_angle_alpha 84.899887
_cell_angle_beta 52.728947
_cell_angle_gamma 44.416386
_cell_volume 377.806517
_symmetry_space_group_name_H-M "P -1"
_symmetry_group_IT_number 2
_symmetry_cell_setting 'triclinic'
loop_
_space_group_symop_operation_xyz
x,y,z
-x,-y,-z
loop_
_atom_site_type_symbol
_atom_site_label
_atom_site_fract_x
_atom_site_fract_y
_atom_site_fract_z
Si Si1 0.678340 0.538035 0.257209
Si Si2 0.399993 0.131180 0.318773
Si Si3 0.138109 0.410184 0.175089
Si Si4 0.084516 0.813068 0.018225
Si Si5 0.109847 0.030947 0.556482
O O1 0.379647 0.789764 0.491339
O O2 0.966533 0.392245 0.205464
O O3 0.747736 0.569694 0.044289
O O4 0.646728 0.413921 0.236204
O O5 0.399416 0.207897 0.148673
O O6 0.748651 0.931351 0.195140
O O7 0.133680 0.356040 0.575681
O O8 0.273425 0.063574 0.386052
O O9 0.149914 0.780392 0.162559
O O10 0.000000 0.000000 0.000000
O O11 0.000000 0.000000 0.500000
#
# Coordination Sequence:
#
# PCOD9028328 Si02
#       5
#     2   2   2   2   2
#     4  11  24  44  72 101 142 180 234 279 352 403
#     4  11  23  47  73 102 144 179 236 280 346 409
#     4  10  22  41  77 106 131 190 229 283 341 418
#     4  12  28  47  71 104 141 183 231 289 343 412
#     4  12  28  47  71 104 141 183 231 289 343 412
#
# _framework density 26.468574
#
# number of rings (size 3 to 8) (size 9 to 14) (size 15 to 20)
#    0.000    0.800    4.000    3.000    5.600    6.400 
#    0.000    0.000    0.000    0.000    0.000    0.000 
#    0.000    0.000    0.000    0.000    0.000    0.000 
#
# Total GULP energy -56055.796286 kJ/mol
# GULP energy per Si atom -5605.579629 kJ/mol
# Density = 2.640833 g / cm^3
# Si number density = 26.468574 Si / 1000 Ang^3
#
#
#
# Elastic Constant Matrix: (Units=GPa)
#
#
# Indices 1 2 3 4 5 6 
#
# 1 148.3625 33.4191 22.9712 -4.0156 28.2188 19.9711
# 2 33.4191 111.3407 22.1849 -1.6654 13.7034 18.7851
# 3 22.9712 22.1849 87.7233 6.1970 27.6764 6.5163
# 4 -4.0156 -1.6654 6.1970 47.6167 9.3666 9.8777
# 5 28.2188 13.7034 27.6764 9.3666 38.9154 3.4033
# 6 19.9711 18.7851 6.5163 9.8777 3.4033 57.5744
#
#
#
# Elastic Compliance Matrix: (Units=1/GPa)
#
#
# Indices 1 2 3 4 5 6 
#
# 1 0.008630 -0.001366 0.000055 0.002428 -0.006172 -0.002606
# 2 -0.001366 0.010424 -0.001665 0.001374 -0.001575 -0.002881
# 3 0.000055 -0.001665 0.015036 0.000104 -0.010120 -0.000597
# 4 0.002428 0.001374 0.000104 0.023759 -0.007606 -0.004929
# 5 -0.006172 -0.001575 -0.010120 -0.007606 0.039513 0.002769
# 6 -0.002606 -0.002881 -0.000597 -0.004929 0.002769 0.019962
#
#
# Mechanical properties :
#
#
# Convention : Reuss Voigt Hill
#
# Bulk Modulus (GPa) = 35.53794 56.06410 45.80102
# Shear Modulus (GPa) = 37.69229 46.74471 42.21850
#
# Velocity S-wave (km/s) = 3.77774 4.20699 3.99813
# Velocity P-wave (km/s) = 5.69948 6.69520 6.21731
#
# Compressibility (1/GPa) = 0.02813894
#
# Stress axis : x y z
#
# Youngs Moduli (GPa) = 115.87752 95.93681 66.50759
#
# Poissons Ratio (x) = 0.13101 -0.00366
# Poissons Ratio (y) = 0.15824 0.11071
# Poissons Ratio (z) = -0.00637 0.15969
#
# Static dielectric constant tensor:
#      x y z
#    x 2.074020 -0.003920 -0.038930 
#    y -0.003920 2.033290 0.030130 
#    z -0.038930 0.030130 2.125720 
# 
# From -- ./inp_files/143892.got.cif
#   From: 2010.05.17/outbox.cif.g08.bks.cpg/sg2_72_cif.got.tgz:143892.got - 2010.06.03 11:33:40.
