data_PCOD9028686
_publ_section_title
;
Structure prediction by ZEFSAII (Michael W. Deem and Ramdas Pophale) SiO2 
 PCOD9028686
Probable space group: P -1
;
_chemical_formula_sum "Si O2"
_cell_formula_units_Z 16
_cell_length_a 22.675821
_cell_length_b 6.812954
_cell_length_c 7.121816
_cell_angle_alpha 94.773604
_cell_angle_beta 119.032916
_cell_angle_gamma 123.898083
_cell_volume 697.115105
_symmetry_space_group_name_H-M "P -1"
_symmetry_group_IT_number 2
_symmetry_cell_setting 'triclinic'
loop_
_space_group_symop_operation_xyz
x,y,z
-x,-y,-z
loop_
_atom_site_type_symbol
_atom_site_label
_atom_site_fract_x
_atom_site_fract_y
_atom_site_fract_z
Si Si1 0.454949 0.460876 0.127904
Si Si2 0.955887 0.479589 0.237054
Si Si3 0.278394 0.372427 0.797789
Si Si4 0.695571 0.122140 0.205930
Si Si5 0.345719 0.086353 0.435757
Si Si6 0.176888 0.519719 0.109802
Si Si7 0.213870 0.160056 0.103956
Si Si8 0.848795 0.208587 0.582147
O O1 0.544579 0.693929 0.407504
O O2 0.500000 0.500000 0.000000
O O3 0.380885 0.484869 0.983873
O O4 0.389459 0.146093 0.059580
O O5 0.000000 0.500000 0.500000
O O6 0.047051 0.653413 0.264483
O O7 0.906678 0.594079 0.167855
O O8 0.875037 0.159783 0.042074
O O9 0.290374 0.620410 0.775125
O O10 0.215721 0.116282 0.538309
O O11 0.232709 0.255122 0.923196
O O12 0.793265 0.207643 0.326613
O O13 0.670241 0.009245 0.375542
O O14 0.301575 0.209870 0.321431
O O15 0.276420 0.792829 0.206437
O O16 0.189472 0.321085 0.169163
O O17 0.152100 0.618890 0.250673
#
# Coordination Sequence:
#
# PCOD9028686 Si02
#       8
#     2   2   2   2   2   2   2   2
#     4   9  20  39  64  93 128 169 216 263 316 378
#     4  11  23  42  67  92 133 169 212 265 329 378
#     4  11  23  40  66  98 130 167 217 267 319 379
#     4   9  21  37  66  95 126 166 222 259 313 380
#     4   9  21  42  63  89 133 171 208 263 324 377
#     4  10  24  40  65  95 129 165 217 265 319 381
#     4  11  25  42  65  96 132 168 211 268 328 380
#     4  10  22  42  64  93 130 173 213 263 317 382
#
# _framework density 22.951733000000001
#
# number of rings (size 3 to 8) (size 9 to 14) (size 15 to 20)
#    0.000    2.000    1.250    1.125    1.750   16.500 
#    0.000    1.250    0.000    2.250    0.000    0.000 
#    0.000    0.000    0.000    0.000    0.000    0.000 
#
# Total GULP energy -89222.172771 kJ/mol
# GULP energy per Si atom -5576.385798 kJ/mol
# Density = 2.289949 g / cm^3
# Si number density = 22.951733 Si / 1000 Ang^3
#
#
#
# Elastic Constant Matrix: (Units=GPa)
#
#
# Indices 1 2 3 4 5 6 
#
# 1 65.4890 54.2881 36.8462 0.3828 26.9964 -12.5658
# 2 54.2881 165.1737 50.5304 -11.9469 27.1512 -39.3712
# 3 36.8462 50.5304 129.8488 5.2485 42.8888 -10.9724
# 4 0.3828 -11.9469 5.2485 26.6197 13.3198 3.2281
# 5 26.9964 27.1512 42.8888 13.3198 51.5775 -2.7691
# 6 -12.5658 -39.3712 -10.9724 3.2281 -2.7691 46.8799
#
#
#
# Elastic Compliance Matrix: (Units=1/GPa)
#
#
# Indices 1 2 3 4 5 6 
#
# 1 0.024968 -0.005904 -0.001900 0.001679 -0.008779 0.000655
# 2 -0.005904 0.010836 -0.001347 0.005713 -0.002611 0.006655
# 3 -0.001900 -0.001347 0.011423 0.001148 -0.008066 0.000477
# 4 0.001679 0.005713 0.001148 0.048382 -0.017273 0.001165
# 5 -0.008779 -0.002611 -0.008066 -0.017273 0.036359 -0.003097
# 6 0.000655 0.006655 0.000477 0.001165 -0.003097 0.026944
#
#
# Mechanical properties :
#
#
# Convention : Reuss Voigt Hill
#
# Bulk Modulus (GPa) = 34.57493 71.53788 53.05641
# Shear Modulus (GPa) = 26.75856 39.60521 33.18188
#
# Velocity S-wave (km/s) = 3.41818 4.15852 3.80639
# Velocity P-wave (km/s) = 5.53854 7.36846 6.51804
#
# Compressibility (1/GPa) = 0.02892269
#
# Stress axis : x y z
#
# Youngs Moduli (GPa) = 40.05108 92.28716 87.54477
#
# Poissons Ratio (x) = 0.54490 0.16635
# Poissons Ratio (y) = 0.23648 0.11795
# Poissons Ratio (z) = 0.07611 0.12434
#
# Static dielectric constant tensor:
#      x y z
#    x 1.973640 0.090610 -0.083100 
#    y 0.090610 1.859430 -0.041750 
#    z -0.083100 -0.041750 2.034160 
# 
# From -- ./inp_files/351035.got.cif
#   From: 2010.05.17/outbox.cif.g08.bks.cpg/sg2_176_cif.got.tgz:351035.got - 2010.06.03 11:33:40.
