data_PCOD9028391
_publ_section_title
;
Structure prediction by ZEFSAII (Michael W. Deem and Ramdas Pophale) SiO2 
 PCOD9028391
Probable space group: P -1
;
_chemical_formula_sum "Si O2"
_cell_formula_units_Z 14
_cell_length_a 10.157926
_cell_length_b 21.162793
_cell_length_c 9.735283
_cell_angle_alpha 150.743016
_cell_angle_beta 140.906953
_cell_angle_gamma 41.459513
_cell_volume 626.960212
_symmetry_space_group_name_H-M "P -1"
_symmetry_group_IT_number 2
_symmetry_cell_setting 'triclinic'
loop_
_space_group_symop_operation_xyz
x,y,z
-x,-y,-z
loop_
_atom_site_type_symbol
_atom_site_label
_atom_site_fract_x
_atom_site_fract_y
_atom_site_fract_z
Si Si1 0.062207 0.011559 0.230620
Si Si2 0.651435 0.815102 0.269718
Si Si3 0.483286 0.527595 0.200994
Si Si4 0.904976 0.761640 0.649362
Si Si5 0.149559 0.352098 0.323939
Si Si6 0.363257 0.628014 0.712370
Si Si7 0.959314 0.284080 0.776839
O O1 0.912844 0.145108 0.426812
O O2 0.296089 0.049388 0.494154
O O3 0.000000 0.000000 0.000000
O O4 0.014614 0.881268 0.010761
O O5 0.728624 0.807796 0.476512
O O6 0.837344 0.707255 0.134986
O O7 0.439783 0.760089 0.979504
O O8 0.631745 0.631863 0.538296
O O9 0.577829 0.403546 0.139696
O O10 0.241286 0.593876 0.171430
O O11 0.500000 0.500000 0.000000
O O12 0.107021 0.654746 0.545618
O O13 0.815985 0.707734 0.610478
O O14 0.000000 0.500000 0.500000
O O15 0.029938 0.276192 0.977468
O O16 0.500000 0.500000 0.500000
#
# Coordination Sequence:
#
# PCOD9028391 Si02
#       7
#     2   2   2   2   2   2   2
#     4   8  20  43  63  86 119 164 205 253 299 350
#     4   9  22  40  61  87 121 161 198 253 307 345
#     4  12  23  38  59  87 127 161 193 244 305 366
#     4  11  22  41  62  86 125 159 206 253 293 364
#     4  12  23  39  59  93 125 160 199 248 308 362
#     4  12  24  34  61  97 116 157 206 245 313 362
#     4  10  22  42  61  86 127 156 203 253 299 357
#
# _framework density 22.329967
#
# number of rings (size 3 to 8) (size 9 to 14) (size 15 to 20)
#    0.857    0.571    2.857    2.571    0.000    2.286 
#    0.000    2.143    0.000    0.000    0.000    0.000 
#    0.000    0.000    0.000    0.000    0.000    0.000 
#
# Total GULP energy -78147.690204 kJ/mol
# GULP energy per Si atom -5581.977872 kJ/mol
# Density = 2.227914 g / cm^3
# Si number density = 22.329967 Si / 1000 Ang^3
#
#
#
# Elastic Constant Matrix: (Units=GPa)
#
#
# Indices 1 2 3 4 5 6 
#
# 1 70.3211 -0.6292 12.3408 -1.2700 12.5747 12.3881
# 2 -0.6292 34.1056 4.1716 -5.3481 -6.4535 13.8347
# 3 12.3408 4.1716 93.4095 6.0740 -10.6412 7.2713
# 4 -1.2700 -5.3481 6.0740 26.7998 5.8140 3.4724
# 5 12.5747 -6.4535 -10.6412 5.8140 42.5271 -2.8787
# 6 12.3881 13.8347 7.2713 3.4724 -2.8787 36.7490
#
#
#
# Elastic Compliance Matrix: (Units=1/GPa)
#
#
# Indices 1 2 3 4 5 6 
#
# 1 0.017287 0.003134 -0.002876 0.004453 -0.006463 -0.007365
# 2 0.003134 0.037840 -0.001255 0.009569 0.002124 -0.015791
# 3 -0.002876 -0.001255 0.011889 -0.003957 0.004162 -0.000211
# 4 0.004453 0.009569 -0.003957 0.043088 -0.007352 -0.008968
# 5 -0.006463 0.002124 0.004162 -0.007352 0.028028 0.003446
# 6 -0.007365 -0.015791 -0.000211 -0.008968 0.003446 0.036798
#
#
# Mechanical properties :
#
#
# Convention : Reuss Voigt Hill
#
# Bulk Modulus (GPa) = 15.37957 25.51141 20.44549
# Shear Modulus (GPa) = 25.17630 33.34537 29.26083
#
# Velocity S-wave (km/s) = 3.36142 3.86852 3.62385
# Velocity P-wave (km/s) = 4.68699 5.60388 5.16582
#
# Compressibility (1/GPa) = 0.06502131
#
# Stress axis : x y z
#
# Youngs Moduli (GPa) = 57.84741 26.42689 84.10850
#
# Poissons Ratio (x) = -0.08281 0.24192
# Poissons Ratio (y) = -0.18127 0.10555
# Poissons Ratio (z) = 0.16639 0.03316
#
# Static dielectric constant tensor:
#      x y z
#    x 1.836590 -0.054850 0.028480 
#    y -0.054850 1.875000 0.001700 
#    z 0.028480 0.001700 1.897750 
# 
# From -- ./inp_files/68109.got.cif
#   From: 2010.05.17/outbox.cif.g08.bks.cpg/sg2_35_cif.got.tgz:68109.got - 2010.06.03 11:33:40.
