data_PCOD9028818
_publ_section_title
;
Structure prediction by ZEFSAII (Michael W. Deem and Ramdas Pophale) SiO2 
 PCOD9028818
Probable space group: P -1
;
_chemical_formula_sum "Si O2"
_cell_formula_units_Z 14
_cell_length_a 9.811875
_cell_length_b 10.800611
_cell_length_c 10.895632
_cell_angle_alpha 75.025114
_cell_angle_beta 57.693752
_cell_angle_gamma 120.216167
_cell_volume 583.446305
_symmetry_space_group_name_H-M "P -1"
_symmetry_group_IT_number 2
_symmetry_cell_setting 'triclinic'
loop_
_space_group_symop_operation_xyz
x,y,z
-x,-y,-z
loop_
_atom_site_type_symbol
_atom_site_label
_atom_site_fract_x
_atom_site_fract_y
_atom_site_fract_z
Si Si1 0.781121 0.254932 0.173830
Si Si2 0.768135 0.987936 0.398611
Si Si3 0.860695 0.154512 0.700701
Si Si4 0.714036 0.796933 0.240884
Si Si5 0.295936 0.214448 0.190788
Si Si6 0.560237 0.503418 0.753589
Si Si7 0.605724 0.974624 0.113130
O O1 0.855474 0.173636 0.237867
O O2 0.512332 0.147098 0.380907
O O3 0.716387 0.154941 0.099092
O O4 0.000000 0.500000 0.000000
O O5 0.011673 0.101083 0.336998
O O6 0.726137 0.838411 0.367646
O O7 0.668770 0.153923 0.777765
O O8 0.149416 0.353537 0.463103
O O9 0.737594 0.957007 0.740751
O O10 0.827236 0.093324 0.873963
O O11 0.606343 0.609528 0.263137
O O12 0.552862 0.816191 0.258622
O O13 0.000000 0.000000 0.000000
O O14 0.425020 0.354614 0.214151
O O15 0.449310 0.343109 0.957308
#
# Coordination Sequence:
#
# PCOD9028818 Si02
#       7
#     2   2   2   2   2   2   2
#     4  10  23  40  62  94 123 172 212 252 313 384
#     4  10  22  42  65  87 134 165 204 269 314 360
#     4  11  23  43  63  94 130 164 208 266 311 375
#     4  11  21  45  65  94 131 164 208 267 310 380
#     4  11  23  44  63  98 127 162 214 268 304 381
#     4  11  24  38  70  96 119 175 211 250 328 369
#     4  10  23  43  61  91 134 160 206 270 309 364
#
# _framework density 23.995353000000001
#
# number of rings (size 3 to 8) (size 9 to 14) (size 15 to 20)
#    0.000    1.429    2.857    1.286    2.000    4.000 
#    0.000    1.429    0.000    0.000    0.000    0.000 
#    0.000    0.000    0.000    0.000    0.000    0.000 
#
# Total GULP energy -78301.005113 kJ/mol
# GULP energy per Si atom -5592.928937 kJ/mol
# Density = 2.394074 g / cm^3
# Si number density = 23.995353 Si / 1000 Ang^3
#
#
#
# Elastic Constant Matrix: (Units=GPa)
#
#
# Indices 1 2 3 4 5 6 
#
# 1 69.3729 -2.5070 -8.8834 -6.5330 -6.6273 -8.7865
# 2 -2.5070 177.4636 36.6394 9.4964 6.2544 10.3732
# 3 -8.8834 36.6394 120.3841 6.1096 0.6319 -14.2334
# 4 -6.5330 9.4964 6.1096 45.9753 -3.4930 6.9029
# 5 -6.6273 6.2544 0.6319 -3.4930 23.6371 4.3562
# 6 -8.7865 10.3732 -14.2334 6.9029 4.3562 23.5093
#
#
#
# Elastic Compliance Matrix: (Units=1/GPa)
#
#
# Indices 1 2 3 4 5 6 
#
# 1 0.015960 -0.000791 0.002091 0.001459 0.003651 0.006476
# 2 -0.000791 0.006460 -0.002496 -0.000561 -0.001159 -0.004278
# 3 0.002091 -0.002496 0.010382 -0.001981 -0.000969 0.008930
# 4 0.001459 -0.000561 -0.001981 0.024054 0.005738 -0.008533
# 5 0.003651 -0.001159 -0.000969 0.005738 0.046160 -0.008949
# 6 0.006476 -0.004278 0.008930 -0.008533 -0.008949 0.056414
#
#
# Mechanical properties :
#
#
# Convention : Reuss Voigt Hill
#
# Bulk Modulus (GPa) = 32.88386 46.41318 39.64852
# Shear Modulus (GPa) = 29.07655 41.42243 35.24949
#
# Velocity S-wave (km/s) = 3.48481 4.15935 3.83693
# Velocity P-wave (km/s) = 5.47045 6.51548 6.01570
#
# Compressibility (1/GPa) = 0.03041005
#
# Stress axis : x y z
#
# Youngs Moduli (GPa) = 62.65546 154.79966 96.31962
#
# Poissons Ratio (x) = 0.12252 -0.20141
# Poissons Ratio (y) = 0.04959 0.24039
# Poissons Ratio (z) = -0.13102 0.38634
#
# Static dielectric constant tensor:
#      x y z
#    x 2.000790 0.015770 0.050570 
#    y 0.015770 1.952390 0.015770 
#    z 0.050570 0.015770 1.906430 
# 
# From -- ./inp_files/425919.got.cif
#   From: 2010.05.17/outbox.cif.g08.bks.cpg/sg2_213_cif.got.tgz:425919.got - 2010.06.03 11:33:40.
