data_PCOD9028633
_publ_section_title
;
Structure prediction by ZEFSAII (Michael W. Deem and Ramdas Pophale) SiO2 
 PCOD9028633
Probable space group: P -1
;
_chemical_formula_sum "Si O2"
_cell_formula_units_Z 16
_cell_length_a 5.313193
_cell_length_b 13.620142
_cell_length_c 12.634915
_cell_angle_alpha 98.830001
_cell_angle_beta 105.511296
_cell_angle_gamma 112.081891
_cell_volume 782.674917
_symmetry_space_group_name_H-M "P -1"
_symmetry_group_IT_number 2
_symmetry_cell_setting 'triclinic'
loop_
_space_group_symop_operation_xyz
x,y,z
-x,-y,-z
loop_
_atom_site_type_symbol
_atom_site_label
_atom_site_fract_x
_atom_site_fract_y
_atom_site_fract_z
Si Si1 0.745044 0.343136 0.334594
Si Si2 0.549547 0.671178 0.288501
Si Si3 0.089700 0.607375 0.954919
Si Si4 0.178892 0.972816 0.923927
Si Si5 0.871443 0.534069 0.237139
Si Si6 0.351331 0.365612 0.468061
Si Si7 0.236600 0.259707 0.105870
Si Si8 0.352850 0.192979 0.876046
O O1 0.551869 0.327296 0.414095
O O2 0.521403 0.273780 0.205945
O O3 0.866170 0.472759 0.335923
O O4 0.026800 0.323267 0.379015
O O5 0.199612 0.617783 0.254843
O O6 0.664314 0.677080 0.421227
O O7 0.684966 0.775889 0.243089
O O8 0.656711 0.589877 0.227209
O O9 0.236855 0.566233 0.874109
O O10 0.842733 0.636481 0.881928
O O11 0.307665 0.721539 0.052685
O O12 0.000000 0.500000 0.000000
O O13 0.011856 0.841644 0.874868
O O14 0.232899 0.061722 0.852188
O O15 0.500000 0.000000 0.000000
O O16 0.000000 0.000000 0.000000
O O17 0.500000 0.500000 0.500000
O O18 0.229868 0.227443 0.974780
#
# Coordination Sequence:
#
# PCOD9028633 Si02
#       8
#     2   2   2   2   2   2   2   2
#     4  12  23  38  62  85 121 163 212 249 296 357
#     4  12  25  38  59  87 129 166 204 245 305 365
#     4  12  22  34  57  93 135 160 190 239 314 383
#     4  10  22  42  64  88 119 162 210 252 302 361
#     4  12  22  36  56  89 125 167 194 242 302 367
#     4  12  23  40  59  86 124 170 206 248 293 369
#     4  11  24  41  63  92 124 162 210 256 304 367
#     4  11  24  38  63  91 126 162 200 255 312 365
#
# _framework density 20.442712
#
# number of rings (size 3 to 8) (size 9 to 14) (size 15 to 20)
#    0.000    0.500    6.250    3.375    0.000    1.000 
#    0.000    0.000    0.000    1.500    0.000    0.000 
#    0.000    0.000    0.000    0.000    0.000    0.000 
#
# Total GULP energy -89192.757738 kJ/mol
# GULP energy per Si atom -5574.547359 kJ/mol
# Density = 2.039618 g / cm^3
# Si number density = 20.442712 Si / 1000 Ang^3
#
#
#
# Elastic Constant Matrix: (Units=GPa)
#
#
# Indices 1 2 3 4 5 6 
#
# 1 109.2877 38.1376 21.3584 -3.9240 -0.5971 13.4192
# 2 38.1376 141.9499 49.6829 -40.0138 11.3645 16.2818
# 3 21.3584 49.6829 81.1457 -31.5666 -8.2704 14.0152
# 4 -3.9240 -40.0138 -31.5666 33.9964 6.3785 0.3397
# 5 -0.5971 11.3645 -8.2704 6.3785 24.5050 6.1182
# 6 13.4192 16.2818 14.0152 0.3397 6.1182 26.4649
#
#
#
# Elastic Compliance Matrix: (Units=1/GPa)
#
#
# Indices 1 2 3 4 5 6 
#
# 1 0.011045 -0.003855 -0.001840 -0.005627 0.003656 -0.003027
# 2 -0.003855 0.015095 -0.001731 0.017880 -0.011328 -0.004026
# 3 -0.001840 -0.001731 0.024174 0.018982 0.007147 -0.012700
# 4 -0.005627 0.017880 0.018982 0.070706 -0.016615 -0.015266
# 5 0.003656 -0.011328 0.007147 -0.016615 0.055718 -0.011337
# 6 -0.003027 -0.004026 -0.012700 -0.015266 -0.011337 0.051340
#
#
# Mechanical properties :
#
#
# Convention : Reuss Voigt Hill
#
# Bulk Modulus (GPa) = 28.19997 61.19347 44.69672
# Shear Modulus (GPa) = 19.62702 31.87356 25.75029
#
# Velocity S-wave (km/s) = 3.10191 3.95291 3.55298
# Velocity P-wave (km/s) = 5.16272 7.12973 6.22442
#
# Compressibility (1/GPa) = 0.03546103
#
# Stress axis : x y z
#
# Youngs Moduli (GPa) = 90.54140 66.24588 41.36689
#
# Poissons Ratio (x) = 0.25537 0.07613
# Poissons Ratio (y) = 0.34903 0.07161
# Poissons Ratio (z) = 0.16662 0.11469
#
# Static dielectric constant tensor:
#      x y z
#    x 1.803630 0.076230 -0.005000 
#    y 0.076230 1.876900 -0.024270 
#    z -0.005000 -0.024270 1.808620 
# 
# From -- ./inp_files/367780.got.cif
#   From: 2010.05.17/outbox.cif.g08.bks.cpg/sg2_184_cif.got.tgz:367780.got - 2010.06.03 11:33:40.
