data_PCOD9028903
_publ_section_title
;
Structure prediction by ZEFSAII (Michael W. Deem and Ramdas Pophale) SiO2 
 PCOD9028903
Probable space group: P -1
;
_chemical_formula_sum "Si O2"
_cell_formula_units_Z 14
_cell_length_a 8.418746
_cell_length_b 13.719515
_cell_length_c 8.432455
_cell_angle_alpha 130.640686
_cell_angle_beta 124.868955
_cell_angle_gamma 69.298716
_cell_volume 606.082342
_symmetry_space_group_name_H-M "P -1"
_symmetry_group_IT_number 2
_symmetry_cell_setting 'triclinic'
loop_
_space_group_symop_operation_xyz
x,y,z
-x,-y,-z
loop_
_atom_site_type_symbol
_atom_site_label
_atom_site_fract_x
_atom_site_fract_y
_atom_site_fract_z
Si Si1 0.488394 0.308198 0.497345
Si Si2 0.088966 0.659601 0.068054
Si Si3 0.158499 0.510609 0.464761
Si Si4 0.717719 0.242151 0.033935
Si Si5 0.608214 0.865281 0.447590
Si Si6 0.379678 0.876871 0.859085
Si Si7 0.977791 0.871159 0.451474
O O1 0.335921 0.419953 0.510870
O O2 0.409431 0.195549 0.452327
O O3 0.499747 0.242873 0.261830
O O4 0.700561 0.355120 0.740291
O O5 0.140812 0.736906 0.013383
O O6 0.961046 0.534485 0.807527
O O7 0.957595 0.748896 0.195324
O O8 0.232958 0.655035 0.692374
O O9 0.000000 0.500000 0.500000
O O10 0.691282 0.115312 0.991841
O O11 0.507188 0.245220 0.838171
O O12 0.817605 0.879127 0.503846
O O13 0.500000 0.000000 0.500000
O O14 0.186192 0.861735 0.634734
O O15 0.500000 0.000000 0.000000
O O16 0.000000 0.000000 0.500000
#
# Coordination Sequence:
#
# PCOD9028903 Si02
#       7
#     2   2   2   2   2   2   2
#     4  10  23  43  66  94 138 176 214 280 332 386
#     4   9  22  43  64  96 135 167 224 268 331 390
#     4  10  23  41  70  95 133 174 230 268 329 394
#     4  10  22  42  65  94 130 167 220 270 326 389
#     4  11  23  43  66  96 134 174 220 271 341 396
#     4  11  24  42  65  99 130 169 222 275 337 395
#     4  11  23  40  65  94 130 172 217 272 331 398
#
# _framework density 23.099170000000001
#
# number of rings (size 3 to 8) (size 9 to 14) (size 15 to 20)
#    0.000    1.714    0.000    4.286    8.000    5.714 
#    0.000    3.571    0.000    0.000    0.000    0.000 
#    0.000    0.000    0.000    0.000    0.000    0.000 
#
# Total GULP energy -78058.457436 kJ/mol
# GULP energy per Si atom -5575.604103 kJ/mol
# Density = 2.304660 g / cm^3
# Si number density = 23.099170 Si / 1000 Ang^3
#
#
#
# Elastic Constant Matrix: (Units=GPa)
#
#
# Indices 1 2 3 4 5 6 
#
# 1 105.7628 15.7973 18.3331 10.9705 6.2652 0.8566
# 2 15.7973 35.8727 -0.9862 -1.9197 6.0612 -6.9442
# 3 18.3331 -0.9862 124.4771 8.2981 1.2988 -10.3613
# 4 10.9705 -1.9197 8.2981 23.0616 4.3507 -0.0965
# 5 6.2652 6.0612 1.2988 4.3507 25.7700 2.5026
# 6 0.8566 -6.9442 -10.3613 -0.0965 2.5026 48.2094
#
#
#
# Elastic Compliance Matrix: (Units=1/GPa)
#
#
# Indices 1 2 3 4 5 6 
#
# 1 0.011071 -0.005373 -0.001433 -0.005135 -0.000365 -0.001270
# 2 -0.005373 0.033072 0.001170 0.006451 -0.008159 0.005547
# 3 -0.001433 0.001170 0.008577 -0.002266 -0.000175 0.002042
# 4 -0.005135 0.006451 -0.002266 0.048763 -0.008491 0.001072
# 5 -0.000365 -0.008159 -0.000175 -0.008491 0.042589 -0.003434
# 6 -0.001270 0.005547 0.002042 0.001072 -0.003434 0.022184
#
#
# Mechanical properties :
#
#
# Convention : Reuss Voigt Hill
#
# Bulk Modulus (GPa) = 24.12657 36.93344 30.53000
# Shear Modulus (GPa) = 26.13108 34.93942 30.53525
#
# Velocity S-wave (km/s) = 3.36706 3.89341 3.63977
# Velocity P-wave (km/s) = 5.05802 6.01958 5.55963
#
# Compressibility (1/GPa) = 0.04144808
#
# Stress axis : x y z
#
# Youngs Moduli (GPa) = 90.32947 30.23667 116.59489
#
# Poissons Ratio (x) = 0.16247 0.16704
# Poissons Ratio (y) = 0.48538 -0.13645
# Poissons Ratio (z) = 0.12941 -0.03539
#
# Static dielectric constant tensor:
#      x y z
#    x 1.944230 0.042550 -0.048840 
#    y 0.042550 2.039220 0.043100 
#    z -0.048840 0.043100 1.994470 
# 
# From -- ./inp_files/199916.got.cif
#   From: 2010.05.17/outbox.cif.g08.bks.cpg/sg2_100_cif.got.tgz:199916.got - 2010.06.03 11:33:40.
