data_PCOD9028819
_publ_section_title
;
Structure prediction by ZEFSAII (Michael W. Deem and Ramdas Pophale) SiO2 
 PCOD9028819
Probable space group: P -1
;
_chemical_formula_sum "Si O2"
_cell_formula_units_Z 12
_cell_length_a 9.518912
_cell_length_b 8.963491
_cell_length_c 11.640416
_cell_angle_alpha 81.739470
_cell_angle_beta 52.485098
_cell_angle_gamma 49.426005
_cell_volume 543.334379
_symmetry_space_group_name_H-M "P -1"
_symmetry_group_IT_number 2
_symmetry_cell_setting 'triclinic'
loop_
_space_group_symop_operation_xyz
x,y,z
-x,-y,-z
loop_
_atom_site_type_symbol
_atom_site_label
_atom_site_fract_x
_atom_site_fract_y
_atom_site_fract_z
Si Si1 0.062980 0.602747 0.537615
Si Si2 0.561590 0.894404 0.856918
Si Si3 0.012201 0.169854 0.011478
Si Si4 0.619521 0.567931 0.994681
Si Si5 0.688192 0.499978 0.344049
Si Si6 0.278027 0.783390 0.347688
O O1 0.786213 0.837780 0.682762
O O2 0.000000 0.500000 0.500000
O O3 0.181215 0.494035 0.616423
O O4 0.245914 0.618106 0.388304
O O5 0.666610 0.665753 0.866236
O O6 0.500000 0.000000 0.000000
O O7 0.305656 0.034907 0.895729
O O8 0.858081 0.366045 0.974321
O O9 0.879730 0.292935 0.186704
O O10 0.000000 0.000000 0.000000
O O11 0.391841 0.757707 0.171846
O O12 0.500000 0.500000 0.000000
O O13 0.500000 0.500000 0.500000
O O14 0.504189 0.294299 0.664665
O O15 0.000000 0.000000 0.500000
#
# Coordination Sequence:
#
# PCOD9028819 Si02
#       6
#     2   2   2   2   2   2
#     4  11  23  42  62  92 131 162 204 268 327 363
#     4  12  24  42  67  95 133 166 209 275 328 367
#     4  11  23  41  67  95 127 173 218 259 320 386
#     4  11  23  41  67  96 124 167 224 259 307 397
#     4   9  21  39  62  88 122 169 208 249 313 388
#     4  10  22  42  65  88 123 169 216 255 311 389
#
# _framework density 22.085844999999999
#
# number of rings (size 3 to 8) (size 9 to 14) (size 15 to 20)
#    0.000    1.333    3.333    2.000    7.000    0.667 
#    3.000    0.833    0.000    0.000    0.000    0.000 
#    0.000    0.000    0.000    0.000    0.000    0.000 
#
# Total GULP energy -66968.714313 kJ/mol
# GULP energy per Si atom -5580.726193 kJ/mol
# Density = 2.203558 g / cm^3
# Si number density = 22.085845 Si / 1000 Ang^3
#
#
#
# Elastic Constant Matrix: (Units=GPa)
#
#
# Indices 1 2 3 4 5 6 
#
# 1 163.8084 33.8455 26.0931 12.3453 2.2778 -21.0126
# 2 33.8455 82.4315 22.5375 7.6948 -0.2321 -6.5162
# 3 26.0931 22.5375 102.6747 3.7854 -8.1710 -18.2429
# 4 12.3453 7.6948 3.7854 34.6217 2.6565 -9.1292
# 5 2.2778 -0.2321 -8.1710 2.6565 44.4462 8.0345
# 6 -21.0126 -6.5162 -18.2429 -9.1292 8.0345 29.6380
#
#
#
# Elastic Compliance Matrix: (Units=1/GPa)
#
#
# Indices 1 2 3 4 5 6 
#
# 1 0.007344 -0.002431 -0.000624 -0.000755 -0.001253 0.004396
# 2 -0.002431 0.013953 -0.002520 -0.002196 0.000026 -0.000890
# 3 -0.000624 -0.002520 0.011591 0.001079 0.000963 0.006210
# 4 -0.000755 -0.002196 0.001079 0.032621 -0.003656 0.010685
# 5 -0.001253 0.000026 0.000963 -0.003656 0.024411 -0.008034
# 6 0.004396 -0.000890 0.006210 0.010685 -0.008034 0.045952
#
#
# Mechanical properties :
#
#
# Convention : Reuss Voigt Hill
#
# Bulk Modulus (GPa) = 45.99876 57.09631 51.54753
# Shear Modulus (GPa) = 32.41092 39.50374 35.95733
#
# Velocity S-wave (km/s) = 3.83495 4.23383 4.03931
# Velocity P-wave (km/s) = 6.36251 7.05751 6.71901
#
# Compressibility (1/GPa) = 0.02173972
#
# Stress axis : x y z
#
# Youngs Moduli (GPa) = 136.15688 71.66949 86.27099
#
# Poissons Ratio (x) = 0.17420 0.05382
# Poissons Ratio (y) = 0.33094 0.21742
# Poissons Ratio (z) = 0.08494 0.18062
#
# Static dielectric constant tensor:
#      x y z
#    x 1.740530 -0.021960 -0.008590 
#    y -0.021960 1.959330 -0.051910 
#    z -0.008590 -0.051910 1.834500 
# 
# From -- ./inp_files/165227.got.cif
#   From: 2010.05.17/outbox.cif.g08.bks.cpg/sg2_83_cif.got.tgz:165227.got - 2010.06.03 11:33:40.
