data_PCOD9028823
_publ_section_title
;
Structure prediction by ZEFSAII (Michael W. Deem and Ramdas Pophale) SiO2 
 PCOD9028823
Probable space group: P -1
;
_chemical_formula_sum "Si O2"
_cell_formula_units_Z 12
_cell_length_a 17.561002
_cell_length_b 11.923040
_cell_length_c 8.513307
_cell_angle_alpha 54.043909
_cell_angle_beta 56.534229
_cell_angle_gamma 20.767376
_cell_volume 511.594676
_symmetry_space_group_name_H-M "P -1"
_symmetry_group_IT_number 2
_symmetry_cell_setting 'triclinic'
loop_
_space_group_symop_operation_xyz
x,y,z
-x,-y,-z
loop_
_atom_site_type_symbol
_atom_site_label
_atom_site_fract_x
_atom_site_fract_y
_atom_site_fract_z
Si Si1 0.225854 0.347375 0.705813
Si Si2 0.771628 0.397374 0.316093
Si Si3 0.014563 0.842418 0.298972
Si Si4 0.932457 0.565955 0.703904
Si Si5 0.395659 0.753346 0.526937
Si Si6 0.680610 0.631390 0.905275
O O1 0.145561 0.569239 0.742838
O O2 0.161067 0.522337 0.479505
O O3 0.117573 0.348009 0.795955
O O4 0.470105 0.979624 0.774302
O O5 0.606134 0.553733 0.500833
O O6 0.947942 0.048384 0.335072
O O7 0.636246 0.619257 0.130373
O O8 0.173138 0.668577 0.122724
O O9 0.787404 0.082896 0.305993
O O10 0.832281 0.553414 0.834941
O O11 0.000000 0.500000 0.500000
O O12 0.754220 0.926261 0.645810
O O13 0.500000 0.500000 0.500000
#
# Coordination Sequence:
#
# PCOD9028823 Si02
#       6
#     2   2   2   2   2   2
#     4  11  23  39  66  93 121 167 213 249 306 378
#     4  11  23  40  64  95 130 158 206 264 313 357
#     4  10  22  42  65  89 125 171 208 247 307 380
#     4  11  22  40  63  92 125 162 211 254 305 371
#     4   9  19  37  61  86 120 165 199 242 304 369
#     4  12  23  41  66  96 126 161 204 267 310 357
#
# _framework density 23.456068999999999
#
# number of rings (size 3 to 8) (size 9 to 14) (size 15 to 20)
#    0.000    1.333    5.000    2.000    0.000    0.667 
#    3.000    0.000    0.000    2.000    0.000    0.000 
#    0.000    0.000    0.000    0.000    0.000    0.000 
#
# Total GULP energy -66863.865496 kJ/mol
# GULP energy per Si atom -5571.988791 kJ/mol
# Density = 2.340268 g / cm^3
# Si number density = 23.456069 Si / 1000 Ang^3
#
#
#
# Elastic Constant Matrix: (Units=GPa)
#
#
# Indices 1 2 3 4 5 6 
#
# 1 130.2125 60.1809 17.5902 -2.1430 3.9731 -15.3137
# 2 60.1809 114.9075 37.7111 -2.3936 -2.3236 8.0862
# 3 17.5902 37.7111 59.1065 11.8914 -4.1944 -8.6563
# 4 -2.1430 -2.3936 11.8914 26.8357 2.3958 -6.4389
# 5 3.9731 -2.3236 -4.1944 2.3958 20.3944 -0.4584
# 6 -15.3137 8.0862 -8.6563 -6.4389 -0.4584 35.7361
#
#
#
# Elastic Compliance Matrix: (Units=1/GPa)
#
#
# Indices 1 2 3 4 5 6 
#
# 1 0.011787 -0.007272 0.001698 0.001554 -0.002793 0.007351
# 2 -0.007272 0.016603 -0.010340 0.003325 0.000594 -0.008771
# 3 0.001698 -0.010340 0.026792 -0.011330 0.005503 0.007586
# 4 0.001554 0.003325 -0.011330 0.044589 -0.007377 0.005108
# 5 -0.002793 0.000594 0.005503 -0.007377 0.051628 -0.000665
# 6 0.007351 -0.008771 0.007586 0.005108 -0.000665 0.035867
#
#
# Mechanical properties :
#
#
# Convention : Reuss Voigt Hill
#
# Bulk Modulus (GPa) = 42.82174 59.46563 51.14368
# Shear Modulus (GPa) = 22.03822 29.17619 25.60721
#
# Velocity S-wave (km/s) = 3.06854 3.53067 3.30769
# Velocity P-wave (km/s) = 5.55431 6.48289 6.03648
#
# Compressibility (1/GPa) = 0.02335263
#
# Stress axis : x y z
#
# Youngs Moduli (GPa) = 84.84265 60.22983 37.32512
#
# Poissons Ratio (x) = 0.43797 -0.06336
# Poissons Ratio (y) = 0.61694 0.38595
# Poissons Ratio (z) = -0.14403 0.62280
#
# Static dielectric constant tensor:
#      x y z
#    x 2.042060 -0.072770 0.018800 
#    y -0.072770 1.915410 0.034630 
#    z 0.018800 0.034630 2.020200 
# 
# From -- ./inp_files/164823.got.cif
#   From: 2010.05.17/outbox.cif.g08.bks.cpg/sg2_83_cif.got.tgz:164823.got - 2010.06.03 11:33:40.
