data_PCOD9028771
_publ_section_title
;
Structure prediction by ZEFSAII (Michael W. Deem and Ramdas Pophale) SiO2 
 PCOD9028771
Probable space group: P -1
;
_chemical_formula_sum "Si O2"
_cell_formula_units_Z 15
_cell_length_a 20.026876
_cell_length_b 8.055544
_cell_length_c 6.335065
_cell_angle_alpha 120.916897
_cell_angle_beta 103.353560
_cell_angle_gamma 45.355326
_cell_volume 609.494896
_symmetry_space_group_name_H-M "P -1"
_symmetry_group_IT_number 2
_symmetry_cell_setting 'triclinic'
loop_
_space_group_symop_operation_xyz
x,y,z
-x,-y,-z
loop_
_atom_site_type_symbol
_atom_site_label
_atom_site_fract_x
_atom_site_fract_y
_atom_site_fract_z
Si Si1 0.500000 0.500000 0.500000
Si Si2 0.594428 0.907426 0.101951
Si Si3 0.244857 0.265391 0.192966
Si Si4 0.093418 0.792995 0.175866
Si Si5 0.746329 0.509990 0.273187
Si Si6 0.708680 0.216377 0.338733
Si Si7 0.867484 0.860934 0.561213
Si Si8 0.017833 0.325223 0.093356
O O1 0.595251 0.439716 0.445931
O O2 0.432888 0.825472 0.665379
O O3 0.647595 0.690403 0.186271
O O4 0.670898 0.775922 0.883377
O O5 0.500000 0.000000 0.000000
O O6 0.251745 0.293460 0.464470
O O7 0.146114 0.553665 0.228514
O O8 0.264534 0.017185 0.945730
O O9 0.169905 0.654039 0.947498
O O10 0.996966 0.868905 0.099515
O O11 0.080233 0.039158 0.398722
O O12 0.746419 0.334490 0.325248
O O13 0.766212 0.075732 0.510364
O O14 0.927084 0.562025 0.326573
O O15 0.886831 0.819893 0.798690
O O16 0.000000 0.500000 0.000000
#
# Coordination Sequence:
#
# PCOD9028771 Si02
#       8
#     1   2   2   2   2   2   2   2
#     4  10  24  42  70  96 144 184 234 288 340 408
#     4  10  23  42  65  97 139 180 237 293 341 412
#     4  10  22  42  64  98 138 180 233 280 345 414
#     4  11  24  44  70 104 137 181 229 287 348 421
#     4  11  25  42  73 102 139 189 230 288 357 414
#     4  11  23  46  70 104 141 191 233 292 354 407
#     4  11  25  46  72 105 143 180 238 292 343 428
#     4  11  27  48  71 105 140 185 230 291 355 419
#
# _framework density 24.610541999999999
#
# number of rings (size 3 to 8) (size 9 to 14) (size 15 to 20)
#    0.000    1.333    2.667    1.200    3.733    6.933 
#    0.000    2.667    0.000    0.000    0.000    0.000 
#    0.000    0.000    0.000    0.000    0.000    0.000 
#
# Total GULP energy -83703.136308 kJ/mol
# GULP energy per Si atom -5580.209087 kJ/mol
# Density = 2.455453 g / cm^3
# Si number density = 24.610542 Si / 1000 Ang^3
#
#
#
# Elastic Constant Matrix: (Units=GPa)
#
#
# Indices 1 2 3 4 5 6 
#
# 1 101.2497 19.5440 30.4017 -16.7248 0.3032 -4.9693
# 2 19.5440 109.7816 40.4584 -21.9016 -7.1316 -4.2342
# 3 30.4017 40.4584 79.3434 -11.3562 7.0403 -5.3326
# 4 -16.7248 -21.9016 -11.3562 44.4229 3.3517 8.1132
# 5 0.3032 -7.1316 7.0403 3.3517 39.4397 7.3589
# 6 -4.9693 -4.2342 -5.3326 8.1132 7.3589 41.5729
#
#
#
# Elastic Compliance Matrix: (Units=1/GPa)
#
#
# Indices 1 2 3 4 5 6 
#
# 1 0.011632 0.000121 -0.004059 0.003345 0.000341 0.000169
# 2 0.000121 0.012390 -0.006053 0.004544 0.003109 -0.000937
# 3 -0.004059 -0.006053 0.017791 0.000020 -0.004613 0.001993
# 4 0.003345 0.004544 0.000020 0.026844 -0.000696 -0.004251
# 5 0.000341 0.003109 -0.004613 -0.000696 0.027732 -0.005007
# 6 0.000169 -0.000937 0.001993 -0.004251 -0.005007 0.025950
#
#
# Mechanical properties :
#
#
# Convention : Reuss Voigt Hill
#
# Bulk Modulus (GPa) = 45.80455 52.35364 49.07910
# Shear Modulus (GPa) = 33.42288 38.41846 35.92067
#
# Velocity S-wave (km/s) = 3.68920 3.95531 3.82457
# Velocity P-wave (km/s) = 6.06623 6.49448 6.28400
#
# Compressibility (1/GPa) = 0.02183189
#
# Stress axis : x y z
#
# Youngs Moduli (GPa) = 85.97206 80.70738 56.20751
#
# Poissons Ratio (x) = -0.00977 0.22813
# Poissons Ratio (y) = -0.01040 0.34022
# Poissons Ratio (z) = 0.34894 0.48852
#
# Static dielectric constant tensor:
#      x y z
#    x 1.999930 0.026590 0.005130 
#    y 0.026590 1.910100 -0.030370 
#    z 0.005130 -0.030370 2.002440 
# 
# From -- ./inp_files/117428.got.cif
#   From: 2010.05.17/outbox.cif.g08.bks.cpg/sg2_59_cif.got.tgz:117428.got - 2010.06.03 11:33:40.
