data_PCOD9028892
_publ_section_title
;
Structure prediction by ZEFSAII (Michael W. Deem and Ramdas Pophale) SiO2 
 PCOD9028892
Probable space group: P -1
;
_chemical_formula_sum "Si O2"
_cell_formula_units_Z 14
_cell_length_a 18.025584
_cell_length_b 12.075660
_cell_length_c 6.190604
_cell_angle_alpha 77.676793
_cell_angle_beta 96.103530
_cell_angle_gamma 152.478067
_cell_volume 597.966476
_symmetry_space_group_name_H-M "P -1"
_symmetry_group_IT_number 2
_symmetry_cell_setting 'triclinic'
loop_
_space_group_symop_operation_xyz
x,y,z
-x,-y,-z
loop_
_atom_site_type_symbol
_atom_site_label
_atom_site_fract_x
_atom_site_fract_y
_atom_site_fract_z
Si Si1 0.438576 0.992762 0.288865
Si Si2 0.787802 0.139819 0.557788
Si Si3 0.580025 0.531455 0.196716
Si Si4 0.841416 0.788027 0.880922
Si Si5 0.751033 0.870452 0.497143
Si Si6 0.249693 0.575140 0.101592
Si Si7 0.022412 0.435358 0.853660
O O1 0.384580 0.038832 0.355127
O O2 0.500000 0.000000 0.500000
O O3 0.580113 0.202296 0.069763
O O4 0.293634 0.723545 0.242999
O O5 0.870513 0.362090 0.385921
O O6 0.852479 0.182333 0.790189
O O7 0.844438 0.115102 0.426557
O O8 0.714279 0.770883 0.294445
O O9 0.422117 0.309380 0.396078
O O10 0.500000 0.500000 0.000000
O O11 0.685379 0.582193 0.079165
O O12 0.823059 0.873072 0.681067
O O13 0.817825 0.642750 0.788830
O O14 0.000000 0.000000 0.000000
O O15 0.115353 0.453148 0.962123
O O16 0.000000 0.500000 0.000000
#
# Coordination Sequence:
#
# PCOD9028892 Si02
#       7
#     2   2   2   2   2   2   2
#     4  11  23  42  65  98 127 171 214 269 323 369
#     4  11  23  40  66  93 126 166 215 262 319 387
#     4   9  21  42  62  91 123 168 218 257 315 369
#     4  11  24  42  64  97 134 172 210 264 329 386
#     4  10  22  42  65  94 124 169 218 264 315 378
#     4  11  24  42  65  95 133 167 216 265 319 386
#     4  11  23  42  62  93 127 165 209 261 323 379
#
# _framework density 23.412686000000001
#
# number of rings (size 3 to 8) (size 9 to 14) (size 15 to 20)
#    0.000    1.429    2.857    1.714    0.000    8.571 
#    0.000    0.000    0.000    0.000    0.000    0.000 
#    0.000    0.000    0.000    0.000    0.000    0.000 
#
# Total GULP energy -78067.643198 kJ/mol
# GULP energy per Si atom -5576.260228 kJ/mol
# Density = 2.335940 g / cm^3
# Si number density = 23.412686 Si / 1000 Ang^3
#
#
#
# Elastic Constant Matrix: (Units=GPa)
#
#
# Indices 1 2 3 4 5 6 
#
# 1 142.5186 38.2647 27.3611 11.3403 21.4356 -16.3336
# 2 38.2647 46.3821 20.1196 6.2134 26.9899 -3.0461
# 3 27.3611 20.1196 70.0581 20.7013 4.6087 -5.1125
# 4 11.3403 6.2134 20.7013 36.2481 10.3431 -5.5878
# 5 21.4356 26.9899 4.6087 10.3431 36.7526 4.4966
# 6 -16.3336 -3.0461 -5.1125 -5.5878 4.4966 45.7810
#
#
#
# Elastic Compliance Matrix: (Units=1/GPa)
#
#
# Indices 1 2 3 4 5 6 
#
# 1 0.009525 -0.006468 -0.001501 -0.000326 -0.000874 0.002846
# 2 -0.006468 0.053507 -0.013587 0.012172 -0.037847 0.004938
# 3 -0.001501 -0.013587 0.021786 -0.013381 0.012111 -0.001829
# 4 -0.000326 0.012172 -0.013381 0.039551 -0.018921 0.005885
# 5 -0.000874 -0.037847 0.012111 -0.018921 0.060509 -0.009730
# 6 0.002846 0.004938 -0.001829 0.005885 -0.009730 0.024657
#
#
# Mechanical properties :
#
#
# Convention : Reuss Voigt Hill
#
# Bulk Modulus (GPa) = 23.97717 47.82772 35.90245
# Shear Modulus (GPa) = 18.75832 35.30390 27.03111
#
# Velocity S-wave (km/s) = 2.83362 3.88738 3.40155
# Velocity P-wave (km/s) = 4.57922 6.37349 5.54935
#
# Compressibility (1/GPa) = 0.04170633
#
# Stress axis : x y z
#
# Youngs Moduli (GPa) = 104.98806 18.68920 45.90150
#
# Poissons Ratio (x) = 0.12088 0.06890
# Poissons Ratio (y) = 0.67903 0.62366
# Poissons Ratio (z) = 0.15759 0.25393
#
# Static dielectric constant tensor:
#      x y z
#    x 1.478880 0.409490 0.028500 
#    y 0.409490 1.758900 -0.097680 
#    z 0.028500 -0.097680 1.849350 
# 
# From -- ./inp_files/72048.got.cif
#   From: 2010.05.17/outbox.cif.g08.bks.cpg/sg2_37_cif.got.tgz:72048.got - 2010.06.03 11:33:40.
