data_PCOD9028210
_publ_section_title
;
Structure prediction by ZEFSAII (Michael W. Deem and Ramdas Pophale) SiO2 
 PCOD9028210
Probable space group: P -1
;
_chemical_formula_sum "Si O2"
_cell_formula_units_Z 14
_cell_length_a 17.229591
_cell_length_b 20.912730
_cell_length_c 7.563413
_cell_angle_alpha 36.924519
_cell_angle_beta 44.487801
_cell_angle_gamma 19.306662
_cell_volume 529.605556
_symmetry_space_group_name_H-M "P -1"
_symmetry_group_IT_number 2
_symmetry_cell_setting 'triclinic'
loop_
_space_group_symop_operation_xyz
x,y,z
-x,-y,-z
loop_
_atom_site_type_symbol
_atom_site_label
_atom_site_fract_x
_atom_site_fract_y
_atom_site_fract_z
Si Si1 0.932278 0.176793 0.739794
Si Si2 0.195994 0.350650 0.659830
Si Si3 0.209679 0.970247 0.073653
Si Si4 0.233215 0.177528 0.510507
Si Si5 0.136395 0.191680 0.233893
Si Si6 0.348051 0.417382 0.056793
Si Si7 0.408055 0.595578 0.738004
O O1 0.650718 0.422320 0.619986
O O2 0.115247 0.083022 0.521487
O O3 0.000000 0.000000 0.000000
O O4 0.974523 0.168447 0.895331
O O5 0.354125 0.316393 0.416802
O O6 0.000000 0.500000 0.500000
O O7 0.011140 0.546065 0.679946
O O8 0.284205 0.153797 0.972612
O O9 0.242700 0.841746 0.432953
O O10 0.417219 0.783028 0.002145
O O11 0.222365 0.082092 0.868020
O O12 0.199119 0.169493 0.382151
O O13 0.500000 0.000000 0.500000
O O14 0.864911 0.435320 0.057864
O O15 0.316348 0.560842 0.882300
O O16 0.500000 0.500000 0.000000
#
# Coordination Sequence:
#
# PCOD9028210 Si02
#       7
#     2   2   2   2   2   2   2
#     4  11  22  43  72 104 131 185 235 271 344 415
#     4  10  23  43  67 103 136 180 228 282 348 409
#     4  11  24  45  69 100 139 183 232 280 345 415
#     4  11  24  42  69 102 137 180 234 285 339 413
#     4  10  22  41  72  94 136 185 223 278 345 402
#     4  11  22  44  70  96 139 184 227 281 347 400
#     4  12  27  44  71 102 144 181 225 292 347 405
#
# _framework density 26.434766
#
# number of rings (size 3 to 8) (size 9 to 14) (size 15 to 20)
#    0.000    1.143    2.857    3.429    4.000    1.714 
#    5.143   11.429    0.000    0.000    0.000    0.000 
#    0.000    0.000    0.000    0.000    0.000    0.000 
#
# Total GULP energy -78038.576851 kJ/mol
# GULP energy per Si atom -5574.184061 kJ/mol
# Density = 2.637460 g / cm^3
# Si number density = 26.434766 Si / 1000 Ang^3
#
#
#
# Elastic Constant Matrix: (Units=GPa)
#
#
# Indices 1 2 3 4 5 6 
#
# 1 117.4761 25.8351 31.1322 14.5437 -12.3786 -20.7772
# 2 25.8351 114.2638 12.6268 22.8992 -8.7826 -40.1316
# 3 31.1322 12.6268 212.3322 36.6801 -31.5482 -25.0104
# 4 14.5437 22.8992 36.6801 32.2002 -12.9974 -7.8966
# 5 -12.3786 -8.7826 -31.5482 -12.9974 45.7100 3.8899
# 6 -20.7772 -40.1316 -25.0104 -7.8966 3.8899 45.8639
#
#
#
# Elastic Compliance Matrix: (Units=1/GPa)
#
#
# Indices 1 2 3 4 5 6 
#
# 1 0.009722 -0.000446 -0.000426 -0.002245 0.001336 0.003282
# 2 -0.000446 0.015019 0.002453 -0.009981 0.000555 0.012511
# 3 -0.000426 0.002453 0.006743 -0.007150 0.002621 0.004177
# 4 -0.002245 -0.009981 -0.007150 0.048650 0.006871 -0.005856
# 5 0.001336 0.000555 0.002621 0.006871 0.025980 0.001499
# 6 0.003282 0.012511 0.004177 -0.005856 0.001499 0.035380
#
#
# Mechanical properties :
#
#
# Convention : Reuss Voigt Hill
#
# Bulk Modulus (GPa) = 28.86430 64.80668 46.83549
# Shear Modulus (GPa) = 33.35959 49.72003 41.53981
#
# Velocity S-wave (km/s) = 3.55626 4.34159 3.96840
# Velocity P-wave (km/s) = 5.27308 7.04993 6.22523
#
# Compressibility (1/GPa) = 0.03464487
#
# Stress axis : x y z
#
# Youngs Moduli (GPa) = 102.85425 66.58428 148.30531
#
# Poissons Ratio (x) = 0.02969 0.06321
# Poissons Ratio (y) = 0.04586 -0.36373
# Poissons Ratio (z) = 0.04384 -0.16330
#
# Static dielectric constant tensor:
#      x y z
#    x 2.090420 -0.253260 0.040070 
#    y -0.253260 2.275370 0.009740 
#    z 0.040070 0.009740 2.235950 
# 
# From -- ./inp_files/214150.got.cif
#   From: 2010.05.17/outbox.cif.g08.bks.cpg/sg2_108_cif.got.tgz:214150.got - 2010.06.03 11:33:40.
