data_PCOD9028448
_publ_section_title
;
Structure prediction by ZEFSAII (Michael W. Deem and Ramdas Pophale) SiO2 
 PCOD9028448
Probable space group: P -1
;
_chemical_formula_sum "Si O2"
_cell_formula_units_Z 14
_cell_length_a 9.008189
_cell_length_b 13.318245
_cell_length_c 10.161157
_cell_angle_alpha 32.927944
_cell_angle_beta 89.224461
_cell_angle_gamma 88.083846
_cell_volume 662.057827
_symmetry_space_group_name_H-M "P -1"
_symmetry_group_IT_number 2
_symmetry_cell_setting 'triclinic'
loop_
_space_group_symop_operation_xyz
x,y,z
-x,-y,-z
loop_
_atom_site_type_symbol
_atom_site_label
_atom_site_fract_x
_atom_site_fract_y
_atom_site_fract_z
Si Si1 0.875502 0.537822 0.348152
Si Si2 0.643866 0.258273 0.743761
Si Si3 0.067847 0.431749 0.212331
Si Si4 0.856539 0.937821 0.494138
Si Si5 0.588826 0.861618 0.749979
Si Si6 0.685102 0.313394 0.988716
Si Si7 0.336081 0.126159 0.967677
O O1 0.734694 0.405012 0.499645
O O2 0.806123 0.742096 0.148148
O O3 0.000000 0.500000 0.500000
O O4 0.958931 0.504918 0.246901
O O5 0.464206 0.242720 0.765536
O O6 0.683954 0.307898 0.837817
O O7 0.694232 0.053081 0.920644
O O8 0.092961 0.210994 0.451860
O O9 0.224780 0.521546 0.137039
O O10 0.000000 0.500000 0.000000
O O11 0.748277 0.836190 0.709038
O O12 0.769625 0.120974 0.241678
O O13 0.000000 0.000000 0.500000
O O14 0.484023 0.688954 0.955983
O O15 0.500000 0.000000 0.500000
O O16 0.603337 0.932809 0.822160
#
# Coordination Sequence:
#
# PCOD9028448 Si02
#       7
#     2   2   2   2   2   2   2
#     4  12  26  41  65  99 135 172 221 266 329 398
#     4  10  23  43  67  93 127 175 220 273 323 388
#     4  12  25  41  63  96 130 172 215 268 332 384
#     4  11  23  39  65  91 128 167 211 269 328 387
#     4   9  21  42  66  95 126 170 219 272 328 388
#     4  10  22  42  62  91 130 162 224 270 318 392
#     4  10  23  43  68  94 132 172 221 273 327 384
#
# _framework density 21.146187999999999
#
# number of rings (size 3 to 8) (size 9 to 14) (size 15 to 20)
#    0.000    1.429    2.857    1.286    4.000    1.143 
#    0.000    0.000    0.000    0.000    0.000    0.000 
#    0.000    0.000    0.000    0.000    0.000    0.000 
#
# Total GULP energy -78203.975854 kJ/mol
# GULP energy per Si atom -5585.998275 kJ/mol
# Density = 2.109806 g / cm^3
# Si number density = 21.146188 Si / 1000 Ang^3
#
#
#
# Elastic Constant Matrix: (Units=GPa)
#
#
# Indices 1 2 3 4 5 6 
#
# 1 96.8367 48.3475 22.4985 -0.4366 -12.8730 -9.1783
# 2 48.3475 110.7789 17.0021 -8.3297 -5.5297 4.2898
# 3 22.4985 17.0021 37.4865 5.1885 -1.7972 1.5296
# 4 -0.4366 -8.3297 5.1885 40.9460 -5.5323 -2.9804
# 5 -12.8730 -5.5297 -1.7972 -5.5323 29.3841 2.4264
# 6 -9.1783 4.2898 1.5296 -2.9804 2.4264 40.7655
#
#
#
# Elastic Compliance Matrix: (Units=1/GPa)
#
#
# Indices 1 2 3 4 5 6 
#
# 1 0.015903 -0.005694 -0.007007 0.000920 0.005294 0.004195
# 2 -0.005694 0.012174 -0.002353 0.002591 0.000331 -0.002305
# 3 -0.007007 -0.002353 0.032675 -0.005203 -0.002262 -0.002802
# 4 0.000920 0.002591 -0.005203 0.026477 0.005413 0.001743
# 5 0.005294 0.000331 -0.002262 0.005413 0.037342 -0.000585
# 6 0.004195 -0.002305 -0.002802 0.001743 -0.000585 0.025985
#
#
# Mechanical properties :
#
#
# Convention : Reuss Voigt Hill
#
# Bulk Modulus (GPa) = 32.63237 46.75539 39.69388
# Shear Modulus (GPa) = 26.19486 32.70272 29.44879
#
# Velocity S-wave (km/s) = 3.52341 3.93683 3.73584
# Velocity P-wave (km/s) = 5.65843 6.54396 6.11724
#
# Compressibility (1/GPa) = 0.03064442
#
# Stress axis : x y z
#
# Youngs Moduli (GPa) = 62.88148 82.14366 30.60487
#
# Poissons Ratio (x) = 0.46775 0.21444
# Poissons Ratio (y) = 0.35806 0.07200
# Poissons Ratio (z) = 0.44058 0.19325
#
# Static dielectric constant tensor:
#      x y z
#    x 1.793210 -0.011430 -0.012630 
#    y -0.011430 1.710110 0.007950 
#    z -0.012630 0.007950 1.772310 
# 
# From -- ./inp_files/183724.got.cif
#   From: 2010.05.17/outbox.cif.g08.bks.cpg/sg2_92_cif.got.tgz:183724.got - 2010.06.03 11:33:40.
