data_PCOD9028848
_publ_section_title
;
Structure prediction by ZEFSAII (Michael W. Deem and Ramdas Pophale) SiO2 
 PCOD9028848
Probable space group: P -1
;
_chemical_formula_sum "Si O2"
_cell_formula_units_Z 12
_cell_length_a 9.030975
_cell_length_b 15.283815
_cell_length_c 14.986012
_cell_angle_alpha 141.242764
_cell_angle_beta 30.225390
_cell_angle_gamma 147.089843
_cell_volume 554.443504
_symmetry_space_group_name_H-M "P -1"
_symmetry_group_IT_number 2
_symmetry_cell_setting 'triclinic'
loop_
_space_group_symop_operation_xyz
x,y,z
-x,-y,-z
loop_
_atom_site_type_symbol
_atom_site_label
_atom_site_fract_x
_atom_site_fract_y
_atom_site_fract_z
Si Si1 0.200427 0.387987 0.997449
Si Si2 0.756989 0.554397 0.326149
Si Si3 0.658114 0.509504 0.693359
Si Si4 0.041720 0.887913 0.814411
Si Si5 0.754571 0.066972 0.659463
Si Si6 0.702114 0.018895 0.998850
O O1 0.966546 0.461823 0.149946
O O2 0.959296 0.212988 0.030236
O O3 0.500000 0.500000 0.000000
O O4 0.390764 0.383219 0.804883
O O5 0.500000 0.500000 0.500000
O O6 0.538606 0.517627 0.319391
O O7 0.030882 0.749060 0.341967
O O8 0.000000 0.500000 0.500000
O O9 0.794155 0.694621 0.803653
O O10 0.441234 0.946702 0.661345
O O11 0.000000 0.000000 0.000000
O O12 0.927140 0.934262 0.819627
O O13 0.576282 0.062447 0.842336
O O14 0.000000 0.000000 0.500000
O O15 0.500000 0.000000 0.000000
#
# Coordination Sequence:
#
# PCOD9028848 Si02
#       6
#     2   2   2   2   2   2
#     4  12  23  41  66  96 131 173 218 271 330 395
#     4  12  25  43  66  98 134 177 224 276 332 396
#     4  12  25  44  68 100 135 176 223 275 332 397
#     4  10  22  42  65  91 128 173 215 264 327 392
#     4  11  22  41  63  90 127 169 212 267 324 385
#     4  11  22  39  62  91 122 164 211 261 320 385
#
# _framework density 21.643325000000001
#
# number of rings (size 3 to 8) (size 9 to 14) (size 15 to 20)
#    0.000    0.667    0.000   10.500    0.000    0.000 
#    0.000    2.500    0.000    0.000    0.000    0.000 
#    0.000    0.000    0.000    0.000    0.000    0.000 
#
# Total GULP energy -67144.389121 kJ/mol
# GULP energy per Si atom -5595.365760 kJ/mol
# Density = 2.159406 g / cm^3
# Si number density = 21.643325 Si / 1000 Ang^3
#
#
#
# Elastic Constant Matrix: (Units=GPa)
#
#
# Indices 1 2 3 4 5 6 
#
# 1 137.7773 -14.1795 27.0032 -21.4332 -15.1148 7.4824
# 2 -14.1795 98.5514 -11.5606 -21.5106 8.1738 -8.8427
# 3 27.0032 -11.5606 92.3128 -22.7466 -14.7196 -12.0503
# 4 -21.4332 -21.5106 -22.7466 36.7366 -8.1875 -1.3186
# 5 -15.1148 8.1738 -14.7196 -8.1875 52.6249 -0.9164
# 6 7.4824 -8.8427 -12.0503 -1.3186 -0.9164 44.6932
#
#
#
# Elastic Compliance Matrix: (Units=1/GPa)
#
#
# Indices 1 2 3 4 5 6 
#
# 1 0.009117 0.002610 -0.000039 0.007546 0.003364 -0.000729
# 2 0.002610 0.014407 0.005412 0.013972 0.002275 0.004331
# 3 -0.000039 0.005412 0.017183 0.015453 0.006468 0.006299
# 4 0.007546 0.013972 0.015453 0.052451 0.012610 0.007473
# 5 0.003364 0.002275 0.006468 0.012610 0.023430 0.002483
# 6 -0.000729 0.004331 0.006299 0.007473 0.002483 0.025323
#
#
# Mechanical properties :
#
#
# Convention : Reuss Voigt Hill
#
# Bulk Modulus (GPa) = 17.64562 36.79642 27.22102
# Shear Modulus (GPa) = 34.52137 48.63618 41.57877
#
# Velocity S-wave (km/s) = 3.99809 4.74557 4.38778
# Velocity P-wave (km/s) = 5.42988 6.86043 6.18664
#
# Compressibility (1/GPa) = 0.05667130
#
# Stress axis : x y z
#
# Youngs Moduli (GPa) = 109.68602 69.41148 58.19594
#
# Poissons Ratio (x) = -0.18115 0.00229
# Poissons Ratio (y) = -0.28627 -0.31493
# Poissons Ratio (z) = 0.00432 -0.37563
#
# Static dielectric constant tensor:
#      x y z
#    x 1.838590 0.038280 -0.010460 
#    y 0.038280 1.807650 0.009990 
#    z -0.010460 0.009990 1.784120 
# 
# From -- ./inp_files/144513.got.cif
#   From: 2010.05.17/outbox.cif.g08.bks.cpg/sg2_73_cif.got.tgz:144513.got - 2010.06.03 11:33:40.
