data_PCOD9028500
_publ_section_title
;
Structure prediction by ZEFSAII (Michael W. Deem and Ramdas Pophale) SiO2 
 PCOD9028500
Probable space group: P -1
;
_chemical_formula_sum "Si O2"
_cell_formula_units_Z 16
_cell_length_a 11.960714
_cell_length_b 17.782418
_cell_length_c 6.896480
_cell_angle_alpha 132.085282
_cell_angle_beta 58.110360
_cell_angle_gamma 132.946708
_cell_volume 789.877990
_symmetry_space_group_name_H-M "P -1"
_symmetry_group_IT_number 2
_symmetry_cell_setting 'triclinic'
loop_
_space_group_symop_operation_xyz
x,y,z
-x,-y,-z
loop_
_atom_site_type_symbol
_atom_site_label
_atom_site_fract_x
_atom_site_fract_y
_atom_site_fract_z
Si Si1 0.654964 0.455752 0.233880
Si Si2 0.875165 0.635464 0.678369
Si Si3 0.552292 0.977457 0.118450
Si Si4 0.114427 0.603130 0.218589
Si Si5 0.955827 0.867472 0.758912
Si Si6 0.626337 0.769821 0.694491
Si Si7 0.248289 0.867378 0.460492
Si Si8 0.645699 0.599474 0.149691
O O1 0.753757 0.533602 0.464076
O O2 0.508603 0.333656 0.229189
O O3 0.631151 0.545701 0.283237
O O4 0.747389 0.420728 0.936598
O O5 0.924082 0.764933 0.769278
O O6 0.018897 0.614294 0.502757
O O7 0.795993 0.625324 0.938507
O O8 0.401097 0.935223 0.313027
O O9 0.695633 0.085723 0.289468
O O10 0.593149 0.875156 0.891550
O O11 0.500000 0.000000 0.000000
O O12 0.183171 0.728744 0.268064
O O13 0.000000 0.500000 0.000000
O O14 0.795573 0.814195 0.700559
O O15 0.110926 0.885745 0.549508
O O16 0.000000 0.000000 0.000000
O O17 0.628553 0.712680 0.388331
O O18 0.500000 0.500000 0.000000
#
# Coordination Sequence:
#
# PCOD9028500 Si02
#       8
#     2   2   2   2   2   2   2   2
#     4  11  21  42  68  94 130 175 213 271 334 384
#     4  10  22  42  62  98 134 167 223 266 324 396
#     4  11  25  45  70  96 128 173 228 274 321 392
#     4   9  20  39  69  92 129 172 210 265 326 388
#     4  11  22  42  70  92 132 182 214 268 332 388
#     4  12  23  43  68  99 133 174 224 271 333 394
#     4  10  22  46  67  94 132 173 216 272 332 387
#     4  12  24  38  64  99 132 167 214 276 328 387
#
# _framework density 20.256291000000001
#
# number of rings (size 3 to 8) (size 9 to 14) (size 15 to 20)
#    0.000    1.250    5.000    1.125    0.000    2.500 
#    4.500    1.250    0.000    0.000    0.000    0.000 
#    0.000    0.000    0.000    0.000    0.000    0.000 
#
# Total GULP energy -89182.192343 kJ/mol
# GULP energy per Si atom -5573.887021 kJ/mol
# Density = 2.021019 g / cm^3
# Si number density = 20.256291 Si / 1000 Ang^3
#
#
#
# Elastic Constant Matrix: (Units=GPa)
#
#
# Indices 1 2 3 4 5 6 
#
# 1 97.5221 38.8921 39.0123 4.7461 -21.8611 6.3920
# 2 38.8921 92.8543 52.5094 22.9908 -3.4452 12.9416
# 3 39.0123 52.5094 98.6262 6.4768 -14.6845 -0.8088
# 4 4.7461 22.9908 6.4768 40.3048 1.0026 -4.3788
# 5 -21.8611 -3.4452 -14.6845 1.0026 36.6502 3.0717
# 6 6.3920 12.9416 -0.8088 -4.3788 3.0717 35.3514
#
#
#
# Elastic Compliance Matrix: (Units=1/GPa)
#
#
# Indices 1 2 3 4 5 6 
#
# 1 0.014774 -0.004571 -0.002358 0.000885 0.007548 -0.001598
# 2 -0.004571 0.022109 -0.009817 -0.011340 -0.003552 -0.008588
# 3 -0.002358 -0.009817 0.016677 0.003591 0.003877 0.004510
# 4 0.000885 -0.011340 0.003591 0.031486 -0.000633 0.008029
# 5 0.007548 -0.003552 0.003877 -0.000633 0.033271 -0.002945
# 6 -0.001598 -0.008588 0.004510 0.008029 -0.002945 0.033074
#
#
# Mechanical properties :
#
#
# Convention : Reuss Voigt Hill
#
# Bulk Modulus (GPa) = 49.83196 61.09222 55.46209
# Shear Modulus (GPa) = 26.09984 33.03386 29.56685
#
# Velocity S-wave (km/s) = 3.59344 4.04269 3.82467
# Velocity P-wave (km/s) = 6.47079 7.21223 6.85155
#
# Compressibility (1/GPa) = 0.02006744
#
# Stress axis : x y z
#
# Youngs Moduli (GPa) = 67.68734 45.23048 59.96272
#
# Poissons Ratio (x) = 0.20676 0.14137
# Poissons Ratio (y) = 0.30942 0.58868
# Poissons Ratio (z) = 0.15958 0.44404
#
# Static dielectric constant tensor:
#      x y z
#    x 1.941440 0.019770 0.000560 
#    y 0.019770 1.712870 -0.008980 
#    z 0.000560 -0.008980 1.783030 
# 
# From -- ./inp_files/81663.got.cif
#   From: 2010.05.17/outbox.cif.g08.bks.cpg/sg2_41_cif.got.tgz:81663.got - 2010.06.03 11:33:40.
