data_PCOD9028393
_publ_section_title
;
Structure prediction by ZEFSAII (Michael W. Deem and Ramdas Pophale) SiO2 
 PCOD9028393
Probable space group: P -1
;
_chemical_formula_sum "Si O2"
_cell_formula_units_Z 14
_cell_length_a 12.824228
_cell_length_b 9.685645
_cell_length_c 12.020703
_cell_angle_alpha 39.453894
_cell_angle_beta 132.121295
_cell_angle_gamma 131.095642
_cell_volume 672.248366
_symmetry_space_group_name_H-M "P -1"
_symmetry_group_IT_number 2
_symmetry_cell_setting 'triclinic'
loop_
_space_group_symop_operation_xyz
x,y,z
-x,-y,-z
loop_
_atom_site_type_symbol
_atom_site_label
_atom_site_fract_x
_atom_site_fract_y
_atom_site_fract_z
Si Si1 0.565081 0.599042 0.603892
Si Si2 0.673666 0.478173 0.355748
Si Si3 0.141695 0.707214 0.222476
Si Si4 0.799776 0.425954 0.136280
Si Si5 0.709492 0.782541 0.979735
Si Si6 0.823731 0.411617 0.920065
Si Si7 0.590727 0.117183 0.337052
O O1 0.500000 0.500000 0.500000
O O2 0.456962 0.460850 0.709215
O O3 0.732431 0.593143 0.733376
O O4 0.558825 0.851850 0.463460
O O5 0.784020 0.434326 0.554703
O O6 0.616298 0.235646 0.401809
O O7 0.737582 0.661613 0.189541
O O8 0.207019 0.721756 0.134675
O O9 0.970023 0.569953 0.180464
O O10 0.178626 0.970382 0.118946
O O11 0.739474 0.234826 0.303222
O O12 0.715541 0.611807 0.989919
O O13 0.773643 0.309752 0.068990
O O14 0.548002 0.812611 0.853296
O O15 0.000000 0.500000 0.000000
#
# Coordination Sequence:
#
# PCOD9028393 Si02
#       7
#     2   2   2   2   2   2   2
#     4  12  22  40  67  96 127 167 216 268 318 376
#     4  11  23  40  66  95 133 159 222 264 316 382
#     4  11  23  43  61  96 130 169 212 270 313 383
#     4  10  23  42  64  90 133 167 216 256 328 383
#     4  11  22  41  66  94 125 172 212 264 324 373
#     4  10  22  42  61  88 130 169 211 259 317 384
#     4  11  23  40  66  96 125 170 212 268 321 379
#
# _framework density 20.825637
#
# number of rings (size 3 to 8) (size 9 to 14) (size 15 to 20)
#    0.000    1.143    2.857    4.286    2.000    3.429 
#    5.143    4.286    0.000    0.000    0.000    0.000 
#    0.000    0.000    0.000    0.000    0.000    0.000 
#
# Total GULP energy -78092.699886 kJ/mol
# GULP energy per Si atom -5578.049992 kJ/mol
# Density = 2.077824 g / cm^3
# Si number density = 20.825637 Si / 1000 Ang^3
#
#
#
# Elastic Constant Matrix: (Units=GPa)
#
#
# Indices 1 2 3 4 5 6 
#
# 1 109.8018 21.5706 24.9325 8.3960 -4.3258 -7.6153
# 2 21.5706 46.4968 20.5402 14.0061 -6.2610 1.7909
# 3 24.9325 20.5402 72.1666 14.6304 17.0910 4.2197
# 4 8.3960 14.0061 14.6304 25.6928 -2.5471 -6.3626
# 5 -4.3258 -6.2610 17.0910 -2.5471 29.3677 4.1236
# 6 -7.6153 1.7909 4.2197 -6.3626 4.1236 35.1147
#
#
#
# Elastic Compliance Matrix: (Units=1/GPa)
#
#
# Indices 1 2 3 4 5 6 
#
# 1 0.010891 -0.003531 -0.003942 0.001631 0.002869 0.002974
# 2 -0.003531 0.031634 -0.007483 -0.012020 0.010219 -0.004858
# 3 -0.003942 -0.007483 0.023523 -0.010457 -0.016312 -0.003279
# 4 0.001631 -0.012020 -0.010457 0.054369 0.006897 0.011265
# 5 0.002869 0.010219 -0.016312 0.006897 0.047055 -0.002215
# 6 0.002974 -0.004858 -0.003279 0.011265 -0.002215 0.032066
#
#
# Mechanical properties :
#
#
# Convention : Reuss Voigt Hill
#
# Bulk Modulus (GPa) = 27.67247 40.28354 33.97800
# Shear Modulus (GPa) = 20.70434 28.79649 24.75041
#
# Velocity S-wave (km/s) = 3.15648 3.72256 3.45114
# Velocity P-wave (km/s) = 5.15761 6.15320 5.67727
#
# Compressibility (1/GPa) = 0.03613700
#
# Stress axis : x y z
#
# Youngs Moduli (GPa) = 91.82272 31.61115 42.51069
#
# Poissons Ratio (x) = 0.11161 0.16757
# Poissons Ratio (y) = 0.32419 0.31812
# Poissons Ratio (z) = 0.36195 0.23655
#
# Static dielectric constant tensor:
#      x y z
#    x 1.778740 -0.003310 -0.009990 
#    y -0.003310 1.738040 0.029050 
#    z -0.009990 0.029050 1.752570 
# 
# From -- ./inp_files/159290.got.cif
#   From: 2010.05.17/outbox.cif.g08.bks.cpg/sg2_80_cif.got.tgz:159290.got - 2010.06.03 11:33:40.
