data_PCOD9028760
_publ_section_title
;
Structure prediction by ZEFSAII (Michael W. Deem and Ramdas Pophale) SiO2 
 PCOD9028760
Probable space group: P -1
;
_chemical_formula_sum "Si O2"
_cell_formula_units_Z 14
_cell_length_a 5.656728
_cell_length_b 12.279597
_cell_length_c 21.861611
_cell_angle_alpha 24.704693
_cell_angle_beta 58.836086
_cell_angle_gamma 59.750603
_cell_volume 540.671865
_symmetry_space_group_name_H-M "P -1"
_symmetry_group_IT_number 2
_symmetry_cell_setting 'triclinic'
loop_
_space_group_symop_operation_xyz
x,y,z
-x,-y,-z
loop_
_atom_site_type_symbol
_atom_site_label
_atom_site_fract_x
_atom_site_fract_y
_atom_site_fract_z
Si Si1 0.225913 0.105563 0.647823
Si Si2 0.827171 0.036495 0.940559
Si Si3 0.607924 0.373280 0.614025
Si Si4 0.664589 0.594254 0.678423
Si Si5 0.676640 0.103111 0.122707
Si Si6 0.432303 0.372802 0.184343
Si Si7 0.086088 0.887971 0.612029
O O1 0.380632 0.366176 0.479305
O O2 0.909567 0.222609 0.637544
O O3 0.318927 0.989170 0.761476
O O4 0.310983 0.845945 0.729956
O O5 0.819469 0.332882 0.764902
O O6 0.011295 0.857269 0.960098
O O7 0.500000 0.000000 0.000000
O O8 0.000000 0.000000 0.000000
O O9 0.500000 0.500000 0.500000
O O10 0.426892 0.141661 0.776107
O O11 0.677512 0.545387 0.775235
O O12 0.336930 0.667556 0.677805
O O13 0.807727 0.848508 0.508902
O O14 0.503588 0.374434 0.991004
O O15 0.180349 0.224439 0.265883
O O16 0.000000 0.000000 0.500000
#
# Coordination Sequence:
#
# PCOD9028760 Si02
#       7
#     2   2   2   2   2   2   2
#     4  10  23  43  67  96 131 180 229 291 347 424
#     4  12  27  46  73 105 145 187 232 291 352 425
#     4   9  22  45  62  93 133 176 233 278 351 415
#     4  10  22  42  64  98 133 184 229 287 347 417
#     4  11  24  42  68  98 137 179 227 291 350 420
#     4  11  22  40  68  98 134 172 231 291 348 418
#     4   9  21  41  62  93 133 174 232 284 345 407
#
# _framework density 25.893711
#
# number of rings (size 3 to 8) (size 9 to 14) (size 15 to 20)
#    0.000    1.714    1.429    1.286    6.000    4.000 
#   20.571    0.000    0.000    0.000    0.000    0.000 
#    0.000    0.000    0.000    0.000    0.000    0.000 
#
# Total GULP energy -78278.879469 kJ/mol
# GULP energy per Si atom -5591.348533 kJ/mol
# Density = 2.583478 g / cm^3
# Si number density = 25.893711 Si / 1000 Ang^3
#
#
#
# Elastic Constant Matrix: (Units=GPa)
#
#
# Indices 1 2 3 4 5 6 
#
# 1 94.4566 6.8380 53.3726 -3.8105 17.2737 -24.7709
# 2 6.8380 60.9101 30.8547 -23.5514 0.2194 -21.5996
# 3 53.3726 30.8547 186.5188 -19.4393 30.5691 -19.7839
# 4 -3.8105 -23.5514 -19.4393 43.2332 -15.7611 10.4253
# 5 17.2737 0.2194 30.5691 -15.7611 37.1716 1.3135
# 6 -24.7709 -21.5996 -19.7839 10.4253 1.3135 35.4226
#
#
#
# Elastic Compliance Matrix: (Units=1/GPa)
#
#
# Indices 1 2 3 4 5 6 
#
# 1 0.016826 0.002685 -0.003054 -0.004427 -0.007670 0.013286
# 2 0.002685 0.027391 -0.003730 0.012921 0.006697 0.012445
# 3 -0.003054 -0.003730 0.007653 -0.000835 -0.005217 0.000303
# 4 -0.004427 0.012921 -0.000835 0.038227 0.019147 -0.007644
# 5 -0.007670 0.006697 -0.005217 0.019147 0.043240 -0.011432
# 6 0.013286 0.012445 0.000303 -0.007644 -0.011432 0.047953
#
#
# Mechanical properties :
#
#
# Convention : Reuss Voigt Hill
#
# Bulk Modulus (GPa) = 22.89844 58.22402 40.56123
# Shear Modulus (GPa) = 24.50435 39.88683 32.19559
#
# Velocity S-wave (km/s) = 3.07961 3.92906 3.52998
# Velocity P-wave (km/s) = 4.63764 6.56642 5.68444
#
# Compressibility (1/GPa) = 0.04367110
#
# Stress axis : x y z
#
# Youngs Moduli (GPa) = 59.43021 36.50815 130.67580
#
# Poissons Ratio (x) = -0.09803 0.39912
# Poissons Ratio (y) = -0.15958 0.48748
# Poissons Ratio (z) = 0.18152 0.13619
#
# Static dielectric constant tensor:
#      x y z
#    x 2.207430 0.123670 -0.084930 
#    y 0.123670 2.044480 -0.008030 
#    z -0.084930 -0.008030 2.017060 
# 
# From -- ./inp_files/84304.got.cif
#   From: 2010.05.17/outbox.cif.g08.bks.cpg/sg2_43_cif.got.tgz:84304.got - 2010.06.03 11:33:40.
