data_PCOD9028085
_publ_section_title
;
Structure prediction by ZEFSAII (Michael W. Deem and Ramdas Pophale) SiO2 
 PCOD9028085
Probable space group: P -1
;
_chemical_formula_sum "Si O2"
_cell_formula_units_Z 14
_cell_length_a 12.013771
_cell_length_b 12.228645
_cell_length_c 11.343356
_cell_angle_alpha 81.442140
_cell_angle_beta 40.608261
_cell_angle_gamma 113.762501
_cell_volume 641.316048
_symmetry_space_group_name_H-M "P -1"
_symmetry_group_IT_number 2
_symmetry_cell_setting 'triclinic'
loop_
_space_group_symop_operation_xyz
x,y,z
-x,-y,-z
loop_
_atom_site_type_symbol
_atom_site_label
_atom_site_fract_x
_atom_site_fract_y
_atom_site_fract_z
Si Si1 0.747521 0.809279 0.804811
Si Si2 0.090743 0.334225 0.941503
Si Si3 0.126021 0.544268 0.263385
Si Si4 0.370674 0.254698 0.622404
Si Si5 0.174451 0.031581 0.036803
Si Si6 0.935100 0.227775 0.354866
Si Si7 0.714379 0.160859 0.055033
O O1 0.837215 0.729657 0.766780
O O2 0.450824 0.670912 0.998570
O O3 0.732740 0.856991 0.938957
O O4 0.000000 0.000000 0.500000
O O5 0.234812 0.296291 0.781608
O O6 0.321742 0.551744 0.704025
O O7 0.013279 0.275511 0.147543
O O8 0.819601 0.217554 0.096105
O O9 0.000000 0.500000 0.500000
O O10 0.942412 0.354291 0.379984
O O11 0.138262 0.663079 0.160483
O O12 0.361537 0.162014 0.750576
O O13 0.149342 0.105666 0.721607
O O14 0.189714 0.908213 0.062421
O O15 0.625895 0.012306 0.652944
#
# Coordination Sequence:
#
# PCOD9028085 Si02
#       7
#     2   2   2   2   2   2   2
#     4  12  26  46  73 101 140 185 237 289 337 410
#     4  10  22  41  71 103 139 173 231 290 349 411
#     4  12  30  48  71 102 141 191 236 279 346 421
#     4   9  20  40  69 108 133 179 227 283 352 416
#     4  10  22  42  74  98 141 182 227 286 350 413
#     4  12  26  48  71 101 139 183 235 291 345 406
#     4  11  26  46  69 105 140 182 225 289 355 413
#
# _framework density 21.830109
#
# number of rings (size 3 to 8) (size 9 to 14) (size 15 to 20)
#    0.000    1.143    2.857    1.714    8.000    2.857 
#    0.000    0.000    0.000    0.000    0.000    0.000 
#    0.000    0.000    0.000    0.000    0.000    0.000 
#
# Total GULP energy -78403.065566 kJ/mol
# GULP energy per Si atom -5600.218969 kJ/mol
# Density = 2.178042 g / cm^3
# Si number density = 21.830109 Si / 1000 Ang^3
#
#
#
# Elastic Constant Matrix: (Units=GPa)
#
#
# Indices 1 2 3 4 5 6 
#
# 1 90.9837 15.3848 2.7273 -1.4380 9.0070 -26.1443
# 2 15.3848 57.9644 -3.7396 -13.9866 13.0510 -19.6213
# 3 2.7273 -3.7396 52.3833 -10.8076 6.6970 -8.7394
# 4 -1.4380 -13.9866 -10.8076 26.8201 -1.7752 4.1393
# 5 9.0070 13.0510 6.6970 -1.7752 37.0609 -8.0302
# 6 -26.1443 -19.6213 -8.7394 4.1393 -8.0302 37.7752
#
#
#
# Elastic Compliance Matrix: (Units=1/GPa)
#
#
# Indices 1 2 3 4 5 6 
#
# 1 0.013845 -0.000244 0.000898 -0.000571 -0.001427 0.009423
# 2 -0.000244 0.027549 0.008218 0.015191 -0.007636 0.012754
# 3 0.000898 0.008218 0.024208 0.012509 -0.005148 0.008026
# 4 -0.000571 0.015191 0.012509 0.049307 -0.004223 0.004089
# 5 -0.001427 -0.007636 -0.005148 -0.004223 0.030940 0.000895
# 6 0.009423 0.012754 0.008026 0.004089 0.000895 0.041218
#
#
# Mechanical properties :
#
#
# Convention : Reuss Voigt Hill
#
# Bulk Modulus (GPa) = 11.99804 25.56403 18.78104
# Shear Modulus (GPa) = 25.36715 32.79517 29.08116
#
# Velocity S-wave (km/s) = 3.41255 3.88014 3.65383
# Velocity P-wave (km/s) = 4.58643 5.64003 5.14029
#
# Compressibility (1/GPa) = 0.08334696
#
# Stress axis : x y z
#
# Youngs Moduli (GPa) = 72.22754 36.29879 41.30864
#
# Poissons Ratio (x) = 0.00885 -0.03711
# Poissons Ratio (y) = 0.01760 -0.33946
# Poissons Ratio (z) = -0.06489 -0.29829
#
# Static dielectric constant tensor:
#      x y z
#    x 1.767970 -0.022730 -0.039060 
#    y -0.022730 1.795410 -0.000120 
#    z -0.039060 -0.000120 1.779960 
# 
# From -- ./inp_files/425752.got.cif
#   From: 2010.05.17/outbox.cif.g08.bks.cpg/sg2_213_cif.got.tgz:425752.got - 2010.06.03 11:33:40.
