data_PCOD9028525
_publ_section_title
;
Structure prediction by ZEFSAII (Michael W. Deem and Ramdas Pophale) SiO2 
 PCOD9028525
Probable space group: P -1
;
_chemical_formula_sum "Si O2"
_cell_formula_units_Z 14
_cell_length_a 9.944112
_cell_length_b 11.240742
_cell_length_c 9.370958
_cell_angle_alpha 102.208041
_cell_angle_beta 103.620591
_cell_angle_gamma 37.518506
_cell_volume 619.452518
_symmetry_space_group_name_H-M "P -1"
_symmetry_group_IT_number 2
_symmetry_cell_setting 'triclinic'
loop_
_space_group_symop_operation_xyz
x,y,z
-x,-y,-z
loop_
_atom_site_type_symbol
_atom_site_label
_atom_site_fract_x
_atom_site_fract_y
_atom_site_fract_z
Si Si1 0.516010 0.747337 0.045987
Si Si2 0.275070 0.683074 0.401482
Si Si3 0.047445 0.093788 0.366359
Si Si4 0.637379 0.984295 0.142116
Si Si5 0.809856 0.222061 0.059126
Si Si6 0.416181 0.011691 0.329934
Si Si7 0.876384 0.382412 0.897417
O O1 0.514367 0.834183 0.207203
O O2 0.349762 0.901233 0.914787
O O3 0.417978 0.680606 0.033085
O O4 0.748265 0.586071 0.979031
O O5 0.500000 0.500000 0.500000
O O6 0.214976 0.862189 0.374302
O O7 0.266612 0.596174 0.245695
O O8 0.066518 0.800734 0.484448
O O9 0.179192 0.116398 0.336332
O O10 0.847989 0.205577 0.233738
O O11 0.485986 0.079756 0.267551
O O12 0.886874 0.763956 0.155258
O O13 0.500000 0.000000 0.000000
O O14 0.883286 0.295311 0.018830
O O15 0.000000 0.000000 0.000000
O O16 0.500000 0.000000 0.500000
#
# Coordination Sequence:
#
# PCOD9028525 Si02
#       7
#     2   2   2   2   2   2   2
#     4  11  23  40  65  96 128 166 215 270 322 385
#     4  11  24  41  65  99 133 165 204 264 339 395
#     4  11  23  43  66  93 131 167 212 267 322 386
#     4  10  22  42  63  87 125 174 219 260 315 377
#     4  12  19  40  70  98 127 164 211 269 335 381
#     4  11  23  40  63  88 123 174 216 256 314 375
#     4  12  23  40  67  99 131 167 217 272 326 386
#
# _framework density 22.600601999999999
#
# number of rings (size 3 to 8) (size 9 to 14) (size 15 to 20)
#    0.000    0.857    4.286    3.000    0.000    6.857 
#    0.000    1.429    0.000   11.143    0.000    0.000 
#    0.000    0.000    0.000    0.000    0.000    0.000 
#
# Total GULP energy -77934.898351 kJ/mol
# GULP energy per Si atom -5566.778454 kJ/mol
# Density = 2.254916 g / cm^3
# Si number density = 22.600602 Si / 1000 Ang^3
#
#
#
# Elastic Constant Matrix: (Units=GPa)
#
#
# Indices 1 2 3 4 5 6 
#
# 1 92.6740 16.5081 27.8752 -0.8160 -4.5046 -16.4679
# 2 16.5081 69.1501 17.1780 2.5072 1.7375 -10.1561
# 3 27.8752 17.1780 156.2078 -0.1772 -2.7243 4.7819
# 4 -0.8160 2.5072 -0.1772 34.0825 -7.2361 0.9634
# 5 -4.5046 1.7375 -2.7243 -7.2361 44.9443 1.9742
# 6 -16.4679 -10.1561 4.7819 0.9634 1.9742 30.9723
#
#
#
# Elastic Compliance Matrix: (Units=1/GPa)
#
#
# Indices 1 2 3 4 5 6 
#
# 1 0.013016 -0.001587 -0.002335 0.000440 0.001002 0.006683
# 2 -0.001587 0.016052 -0.001655 -0.001652 -0.001357 0.004813
# 3 -0.002335 -0.001655 0.007097 0.000277 0.000433 -0.002916
# 4 0.000440 -0.001652 0.000277 0.030608 0.005124 -0.001629
# 5 0.001002 -0.001357 0.000433 0.005124 0.023325 -0.001626
# 6 0.006683 0.004813 -0.002916 -0.001629 -0.001626 0.038023
#
#
# Mechanical properties :
#
#
# Convention : Reuss Voigt Hill
#
# Bulk Modulus (GPa) = 39.98049 49.01718 44.49883
# Shear Modulus (GPa) = 33.87261 39.09786 36.48524
#
# Velocity S-wave (km/s) = 3.87557 4.16378 4.02225
# Velocity P-wave (km/s) = 6.14452 6.69713 6.42677
#
# Compressibility (1/GPa) = 0.02501220
#
# Stress axis : x y z
#
# Youngs Moduli (GPa) = 76.83131 62.29688 140.89494
#
# Poissons Ratio (x) = 0.09885 0.32895
# Poissons Ratio (y) = 0.12192 0.23318
# Poissons Ratio (z) = 0.17938 0.10310
#
# Static dielectric constant tensor:
#      x y z
#    x 1.790680 0.180950 0.379710 
#    y 0.180950 2.065610 -0.214970 
#    z 0.379710 -0.214970 1.312740 
# 
# From -- ./inp_files/273790.got.cif
#   From: 2010.05.17/outbox.cif.g08.bks.cpg/sg2_137_cif.got.tgz:273790.got - 2010.06.03 11:33:40.
