data_PCOD9028955
_publ_section_title
;
Structure prediction by ZEFSAII (Michael W. Deem and Ramdas Pophale) SiO2 
 PCOD9028955
Probable space group: P -1
;
_chemical_formula_sum "Si O2"
_cell_formula_units_Z 14
_cell_length_a 12.819489
_cell_length_b 8.481739
_cell_length_c 10.868190
_cell_angle_alpha 152.306007
_cell_angle_beta 91.816085
_cell_angle_gamma 94.037542
_cell_volume 536.449754
_symmetry_space_group_name_H-M "P -1"
_symmetry_group_IT_number 2
_symmetry_cell_setting 'triclinic'
loop_
_space_group_symop_operation_xyz
x,y,z
-x,-y,-z
loop_
_atom_site_type_symbol
_atom_site_label
_atom_site_fract_x
_atom_site_fract_y
_atom_site_fract_z
Si Si1 0.404612 0.299812 0.276359
Si Si2 0.838180 0.849462 0.830407
Si Si3 0.884281 0.993649 0.659867
Si Si4 0.608711 0.216316 0.599711
Si Si5 0.925209 0.314016 0.631809
Si Si6 0.261130 0.318778 0.869060
Si Si7 0.723051 0.390201 0.191443
O O1 0.500000 0.500000 0.500000
O O2 0.284345 0.354696 0.347323
O O3 0.421259 0.483467 0.274889
O O4 0.387526 0.882251 0.983921
O O5 0.902057 0.987569 0.803263
O O6 0.894635 0.629741 0.772711
O O7 0.803873 0.184608 0.120770
O O8 0.760746 0.788876 0.501317
O O9 0.957921 0.747270 0.434500
O O10 0.907267 0.302599 0.772461
O O11 0.500000 0.000000 0.500000
O O12 0.657563 0.933592 0.331929
O O13 0.695137 0.437984 0.847928
O O14 0.849235 0.963950 0.331557
O O15 0.259159 0.575502 0.931040
#
# Coordination Sequence:
#
# PCOD9028955 Si02
#       7
#     2   2   2   2   2   2   2
#     4  10  23  43  63 101 133 180 241 289 360 417
#     4  10  22  42  65  96 138 184 232 296 352 428
#     4  10  22  42  67 100 140 184 235 294 361 416
#     4  12  26  45  72 100 137 189 238 295 361 423
#     4  10  22  43  67 103 141 181 241 289 356 433
#     4  11  24  46  68 103 139 185 236 296 353 423
#     4   9  23  39  65  95 132 182 229 292 347 424
#
# _framework density 26.097505000000002
#
# number of rings (size 3 to 8) (size 9 to 14) (size 15 to 20)
#    0.857    0.857    1.429    1.714    6.000    0.571 
#    2.571    4.286    0.000    0.000    0.000    0.000 
#    0.000    0.000    0.000    0.000    0.000    0.000 
#
# Total GULP energy -78157.326994 kJ/mol
# GULP energy per Si atom -5582.666214 kJ/mol
# Density = 2.603811 g / cm^3
# Si number density = 26.097505 Si / 1000 Ang^3
#
#
#
# Elastic Constant Matrix: (Units=GPa)
#
#
# Indices 1 2 3 4 5 6 
#
# 1 92.8278 31.5588 40.1365 11.1493 11.9118 -12.1445
# 2 31.5588 192.5510 37.6591 21.9661 -3.1072 -14.0018
# 3 40.1365 37.6591 108.6221 17.8658 -0.0759 -3.8161
# 4 11.1493 21.9661 17.8658 41.5765 -4.7729 4.2859
# 5 11.9118 -3.1072 -0.0759 -4.7729 48.0483 12.4093
# 6 -12.1445 -14.0018 -3.8161 4.2859 12.4093 52.1179
#
#
#
# Elastic Compliance Matrix: (Units=1/GPa)
#
#
# Indices 1 2 3 4 5 6 
#
# 1 0.014531 -0.001004 -0.004475 -0.002448 -0.004997 0.004180
# 2 -0.001004 0.005997 -0.001241 -0.002520 -0.000001 0.001494
# 3 -0.004475 -0.001241 0.011777 -0.003057 0.000865 -0.000469
# 4 -0.002448 -0.002520 -0.003057 0.028375 0.004518 -0.004880
# 5 -0.004997 -0.000001 0.000865 0.004518 0.024381 -0.007278
# 6 0.004180 0.001494 -0.000469 -0.004880 -0.007278 0.022663
#
#
# Mechanical properties :
#
#
# Convention : Reuss Voigt Hill
#
# Bulk Modulus (GPa) = 53.01017 68.07886 60.54452
# Shear Modulus (GPa) = 39.23030 47.32497 43.27764
#
# Velocity S-wave (km/s) = 3.88134 4.26301 4.07665
# Velocity P-wave (km/s) = 6.35947 7.09747 6.73858
#
# Compressibility (1/GPa) = 0.01886430
#
# Stress axis : x y z
#
# Youngs Moduli (GPa) = 68.81857 166.75619 84.90981
#
# Poissons Ratio (x) = 0.16739 0.38000
# Poissons Ratio (y) = 0.06908 0.10539
# Poissons Ratio (z) = 0.30798 0.20698
#
# Static dielectric constant tensor:
#      x y z
#    x 2.217740 0.003730 -0.037950 
#    y 0.003730 2.078320 -0.056330 
#    z -0.037950 -0.056330 2.069670 
# 
# From -- ./inp_files/443811.got.cif
#   From: 2010.05.17/outbox.cif.g08.bks.cpg/sg2_222_cif.got.tgz:443811.got - 2010.06.03 11:33:40.
