data_PCOD9028188
_publ_section_title
;
Structure prediction by ZEFSAII (Michael W. Deem and Ramdas Pophale) SiO2 
 PCOD9028188
Probable space group: P -1
;
_chemical_formula_sum "Si O2"
_cell_formula_units_Z 16
_cell_length_a 9.739782
_cell_length_b 11.187353
_cell_length_c 22.060183
_cell_angle_alpha 26.313878
_cell_angle_beta 38.998789
_cell_angle_gamma 51.496414
_cell_volume 646.485789
_symmetry_space_group_name_H-M "P -1"
_symmetry_group_IT_number 2
_symmetry_cell_setting 'triclinic'
loop_
_space_group_symop_operation_xyz
x,y,z
-x,-y,-z
loop_
_atom_site_type_symbol
_atom_site_label
_atom_site_fract_x
_atom_site_fract_y
_atom_site_fract_z
Si Si1 0.130010 0.521262 0.087263
Si Si2 0.988154 0.774469 0.324319
Si Si3 0.582328 0.102120 0.804932
Si Si4 0.334703 0.672658 0.449987
Si Si5 0.471338 0.541143 0.858930
Si Si6 0.054429 0.400657 0.303447
Si Si7 0.879697 0.968942 0.961052
Si Si8 0.276467 0.861504 0.678589
O O1 0.110133 0.380147 0.223616
O O2 0.064160 0.810959 0.986200
O O3 0.932319 0.320818 0.205915
O O4 0.360803 0.582904 0.942359
O O5 0.844968 0.535989 0.437700
O O6 0.185875 0.724628 0.322069
O O7 0.819336 0.905242 0.360982
O O8 0.114884 0.994263 0.129601
O O9 0.567899 0.095554 0.739745
O O10 0.368733 0.203064 0.854673
O O11 0.555893 0.790673 0.980356
O O12 0.500000 0.500000 0.500000
O O13 0.190465 0.756915 0.515203
O O14 0.739308 0.670547 0.699772
O O15 0.340467 0.662378 0.797817
O O16 0.069823 0.728257 0.162390
O O17 0.500000 0.000000 0.500000
#
# Coordination Sequence:
#
# PCOD9028188 Si02
#       8
#     2   2   2   2   2   2   2   2
#     4  12  22  45  71  99 141 185 231 279 346 411
#     4  11  23  45  68 103 135 183 229 285 339 414
#     4  11  23  44  74 103 135 177 236 287 340 405
#     4  11  26  46  69 102 142 180 230 287 349 405
#     4  11  24  47  70 102 139 179 233 286 342 409
#     4  10  25  43  68 104 136 182 230 285 344 406
#     4  10  22  41  72 103 136 176 232 287 339 407
#     4  12  28  44  70 102 145 183 228 281 352 410
#
# _framework density 24.749191
#
# number of rings (size 3 to 8) (size 9 to 14) (size 15 to 20)
#    0.000    1.000    2.500    3.375    5.250    5.000 
#    2.250    1.250    0.000    0.000    0.000    0.000 
#    0.000    0.000    0.000    0.000    0.000    0.000 
#
# Total GULP energy -89584.138335 kJ/mol
# GULP energy per Si atom -5599.008646 kJ/mol
# Density = 2.469286 g / cm^3
# Si number density = 24.749191 Si / 1000 Ang^3
#
#
#
# Elastic Constant Matrix: (Units=GPa)
#
#
# Indices 1 2 3 4 5 6 
#
# 1 87.8201 -7.0637 16.6405 9.2450 23.3076 -2.8998
# 2 -7.0637 75.5846 14.2340 18.3189 -12.1329 6.0906
# 3 16.6405 14.2340 80.6321 29.7458 14.6594 3.6836
# 4 9.2450 18.3189 29.7458 56.9456 2.5558 1.1044
# 5 23.3076 -12.1329 14.6594 2.5558 35.1998 7.4393
# 6 -2.8998 6.0906 3.6836 1.1044 7.4393 30.5821
#
#
#
# Elastic Compliance Matrix: (Units=1/GPa)
#
#
# Indices 1 2 3 4 5 6 
#
# 1 0.014480 -0.000051 -0.000764 -0.001563 -0.010013 0.003967
# 2 -0.000051 0.016411 -0.002594 -0.004186 0.008084 -0.004776
# 3 -0.000764 -0.002594 0.017109 -0.007670 -0.007035 0.000372
# 4 -0.001563 -0.004186 -0.007670 0.023113 0.000996 0.000533
# 5 -0.010013 0.008084 -0.007035 0.000996 0.043278 -0.012276
# 6 0.003967 -0.004776 0.000372 0.000533 -0.012276 0.036948
#
#
# Mechanical properties :
#
#
# Convention : Reuss Voigt Hill
#
# Bulk Modulus (GPa) = 24.28131 32.40650 28.34390
# Shear Modulus (GPa) = 29.08937 39.22721 34.15829
#
# Velocity S-wave (km/s) = 3.43208 3.98551 3.71911
# Velocity P-wave (km/s) = 5.05350 5.85674 5.46989
#
# Compressibility (1/GPa) = 0.04118394
#
# Stress axis : x y z
#
# Youngs Moduli (GPa) = 69.05844 60.93475 58.44840
#
# Poissons Ratio (x) = 0.00311 0.04463
# Poissons Ratio (y) = 0.00353 0.15159
# Poissons Ratio (z) = 0.05273 0.15804
#
# Static dielectric constant tensor:
#      x y z
#    x 1.932550 0.038990 -0.040880 
#    y 0.038990 1.931690 -0.012650 
#    z -0.040880 -0.012650 2.174850 
# 
# From -- ./inp_files/216349.got.cif
#   From: 2010.05.17/outbox.cif.g08.bks.cpg/sg2_109_cif.got.tgz:216349.got - 2010.06.03 11:33:40.
