data_PCOD9028824
_publ_section_title
;
Structure prediction by ZEFSAII (Michael W. Deem and Ramdas Pophale) SiO2 
 PCOD9028824
Probable space group: P -1
;
_chemical_formula_sum "Si O2"
_cell_formula_units_Z 15
_cell_length_a 14.638761
_cell_length_b 8.195776
_cell_length_c 26.272926
_cell_angle_alpha 138.241464
_cell_angle_beta 157.550401
_cell_angle_gamma 51.602115
_cell_volume 772.200795
_symmetry_space_group_name_H-M "P -1"
_symmetry_group_IT_number 2
_symmetry_cell_setting 'triclinic'
loop_
_space_group_symop_operation_xyz
x,y,z
-x,-y,-z
loop_
_atom_site_type_symbol
_atom_site_label
_atom_site_fract_x
_atom_site_fract_y
_atom_site_fract_z
Si Si1 0.351632 0.226732 0.017837
Si Si2 0.662628 0.871446 0.483982
Si Si3 0.058642 0.739959 0.817281
Si Si4 0.500000 0.500000 0.000000
Si Si5 0.732605 0.362805 0.854169
Si Si6 0.534974 0.652965 0.479537
Si Si7 0.131516 0.118372 0.146930
Si Si8 0.235989 0.023024 0.803228
O O1 0.317718 0.468531 0.086060
O O2 0.624654 0.187147 0.157571
O O3 0.292154 0.223593 0.926558
O O4 0.166937 0.976410 0.889865
O O5 0.475094 0.677946 0.305576
O O6 0.635072 0.761836 0.501275
O O7 0.583464 0.135427 0.507417
O O8 0.945056 0.919918 0.623274
O O9 0.224732 0.544506 0.855309
O O10 0.770081 0.626816 0.627235
O O11 0.059470 0.844229 0.899358
O O12 0.377699 0.189403 0.868863
O O13 0.737381 0.086457 0.811279
O O14 0.000000 0.500000 0.000000
O O15 0.327535 0.390023 0.303979
O O16 0.000000 0.000000 0.000000
#
# Coordination Sequence:
#
# PCOD9028824 Si02
#       8
#     2   2   2   1   2   2   2   2
#     4  10  22  42  65  89 126 170 216 251 312 378
#     4  11  23  40  68  93 125 171 208 261 319 378
#     4  11  21  43  63  93 125 167 208 263 309 378
#     4  10  24  36  70  90 124 156 218 258 308 374
#     4  12  24  41  63  94 132 168 210 261 321 376
#     4  11  23  40  63  96 128 162 216 261 313 382
#     4  12  26  38  62  94 133 165 204 268 324 367
#     4  10  22  42  66  93 119 172 213 259 309 378
#
# _framework density 19.424997999999999
#
# number of rings (size 3 to 8) (size 9 to 14) (size 15 to 20)
#    0.000    1.067    4.000    2.000    7.467    0.533 
#    0.000    0.000    0.000    2.400    0.000    0.000 
#    0.000    0.000    0.000    0.000    0.000    0.000 
#
# Total GULP energy -83584.571823 kJ/mol
# GULP energy per Si atom -5572.304788 kJ/mol
# Density = 1.938079 g / cm^3
# Si number density = 19.424998 Si / 1000 Ang^3
#
#
#
# Elastic Constant Matrix: (Units=GPa)
#
#
# Indices 1 2 3 4 5 6 
#
# 1 34.5717 -0.1656 18.9596 -3.4262 -7.1346 -12.8445
# 2 -0.1656 66.9711 18.2796 2.3252 -1.3032 -6.0449
# 3 18.9596 18.2796 115.2392 -16.2656 6.0993 -13.4708
# 4 -3.4262 2.3252 -16.2656 32.4280 -1.6401 -2.6104
# 5 -7.1346 -1.3032 6.0993 -1.6401 34.9223 -0.7678
# 6 -12.8445 -6.0449 -13.4708 -2.6104 -0.7678 21.8520
#
#
#
# Elastic Compliance Matrix: (Units=1/GPa)
#
#
# Indices 1 2 3 4 5 6 
#
# 1 0.043235 0.003665 -0.004782 0.004402 0.010547 0.024376
# 2 0.003665 0.016279 -0.002997 -0.001812 0.001897 0.004660
# 3 -0.004782 -0.002997 0.011327 0.005569 -0.002720 0.003912
# 4 0.004402 -0.001812 0.005569 0.035100 0.001723 0.009773
# 5 0.010547 0.001897 -0.002720 0.001723 0.031556 0.006363
# 6 0.024376 0.004660 0.003912 0.009773 0.006363 0.065182
#
#
# Mechanical properties :
#
#
# Convention : Reuss Voigt Hill
#
# Bulk Modulus (GPa) = 15.97105 32.32545 24.14825
# Shear Modulus (GPa) = 21.57237 29.82102 25.69670
#
# Velocity S-wave (km/s) = 3.33610 3.92240 3.64107
# Velocity P-wave (km/s) = 4.80408 6.09843 5.48954
#
# Compressibility (1/GPa) = 0.06261330
#
# Stress axis : x y z
#
# Youngs Moduli (GPa) = 23.12955 61.42778 88.28509
#
# Poissons Ratio (x) = -0.22512 0.42218
# Poissons Ratio (y) = -0.08476 0.26456
# Poissons Ratio (z) = 0.11060 0.18407
#
# Static dielectric constant tensor:
#      x y z
#    x 1.738720 0.031070 0.014580 
#    y 0.031070 1.676500 -0.022370 
#    z 0.014580 -0.022370 1.664860 
# 
# From -- ./inp_files/169931.got.cif
#   From: 2010.05.17/outbox.cif.g08.bks.cpg/sg2_85_cif.got.tgz:169931.got - 2010.06.03 11:33:40.
