data_PCOD9028775
_publ_section_title
;
Structure prediction by ZEFSAII (Michael W. Deem and Ramdas Pophale) SiO2 
 PCOD9028775
Probable space group: P -1
;
_chemical_formula_sum "Si O2"
_cell_formula_units_Z 16
_cell_length_a 14.868833
_cell_length_b 14.171988
_cell_length_c 11.134247
_cell_angle_alpha 59.624496
_cell_angle_beta 40.271481
_cell_angle_gamma 29.794693
_cell_volume 658.137195
_symmetry_space_group_name_H-M "P -1"
_symmetry_group_IT_number 2
_symmetry_cell_setting 'triclinic'
loop_
_space_group_symop_operation_xyz
x,y,z
-x,-y,-z
loop_
_atom_site_type_symbol
_atom_site_label
_atom_site_fract_x
_atom_site_fract_y
_atom_site_fract_z
Si Si1 0.141229 0.676908 0.311314
Si Si2 0.524325 0.674028 0.213454
Si Si3 0.836987 0.718577 0.243423
Si Si4 0.229683 0.421398 0.757060
Si Si5 0.696401 0.816925 0.601887
Si Si6 0.648209 0.450165 0.549866
Si Si7 0.954156 0.035133 0.164863
Si Si8 0.525046 0.254085 0.050923
O O1 0.263669 0.612277 0.360510
O O2 0.370841 0.467697 0.121808
O O3 0.894404 0.756668 0.517980
O O4 0.016569 0.872812 0.258671
O O5 0.522043 0.747423 0.289385
O O6 0.390609 0.647125 0.391384
O O7 0.406203 0.792859 0.130114
O O8 0.854256 0.451096 0.991550
O O9 0.752193 0.649999 0.344381
O O10 0.790425 0.767697 0.399780
O O11 0.619380 0.928573 0.246149
O O12 0.162300 0.594168 0.689437
O O13 0.000000 0.500000 0.000000
O O14 0.681927 0.703440 0.734663
O O15 0.350651 0.710591 0.673216
O O16 0.189807 0.950364 0.037060
O O17 0.000000 0.000000 0.000000
#
# Coordination Sequence:
#
# PCOD9028775 Si02
#       8
#     2   2   2   2   2   2   2   2
#     4  12  24  40  64 105 139 172 220 276 341 405
#     4  11  23  43  68  93 134 178 231 269 326 402
#     4  10  22  42  64  99 129 177 226 272 334 404
#     4  10  24  44  72  93 127 183 231 271 330 396
#     4  11  24  37  67  98 139 169 218 281 342 393
#     4  12  24  44  71  97 134 177 223 280 339 391
#     4  12  25  40  67 102 143 174 213 276 343 405
#     4  12  23  40  61 101 136 179 220 274 335 398
#
# _framework density 24.311039999999998
#
# number of rings (size 3 to 8) (size 9 to 14) (size 15 to 20)
#    0.000    0.750    3.750    4.125    7.000    0.000 
#    0.000    1.250    8.250    0.000    0.000    0.000 
#    0.000    0.000    0.000    0.000    0.000    0.000 
#
# Total GULP energy -89526.477806 kJ/mol
# GULP energy per Si atom -5595.404863 kJ/mol
# Density = 2.425571 g / cm^3
# Si number density = 24.311040 Si / 1000 Ang^3
#
#
#
# Elastic Constant Matrix: (Units=GPa)
#
#
# Indices 1 2 3 4 5 6 
#
# 1 162.9975 31.9389 32.6271 -8.9516 -32.1771 -27.4704
# 2 31.9389 94.7238 28.9109 -9.7035 -19.1107 -20.0853
# 3 32.6271 28.9109 95.1865 -20.8933 -17.5104 -3.5861
# 4 -8.9516 -9.7035 -20.8933 38.3393 2.7062 -8.9276
# 5 -32.1771 -19.1107 -17.5104 2.7062 42.7026 -9.7537
# 6 -27.4704 -20.0853 -3.5861 -8.9276 -9.7537 44.1572
#
#
#
# Elastic Compliance Matrix: (Units=1/GPa)
#
#
# Indices 1 2 3 4 5 6 
#
# 1 0.009691 0.001236 -0.000811 0.003644 0.009426 0.009344
# 2 0.001236 0.015314 -0.001916 0.004944 0.009105 0.010590
# 3 -0.000811 -0.001916 0.013757 0.007012 0.004205 0.002087
# 4 0.003644 0.004944 0.007012 0.034652 0.008845 0.014045
# 5 0.009426 0.009105 0.004205 0.008845 0.040578 0.021099
# 6 0.009344 0.010590 0.002087 0.014045 0.021099 0.040946
#
#
# Mechanical properties :
#
#
# Convention : Reuss Voigt Hill
#
# Bulk Modulus (GPa) = 27.94874 59.98461 43.96667
# Shear Modulus (GPa) = 29.43837 42.33519 35.88678
#
# Velocity S-wave (km/s) = 3.48358 4.17753 3.84624
# Velocity P-wave (km/s) = 5.26324 6.92795 6.15216
#
# Compressibility (1/GPa) = 0.03577979
#
# Stress axis : x y z
#
# Youngs Moduli (GPa) = 103.18895 65.30078 72.69040
#
# Poissons Ratio (x) = -0.08074 0.05898
# Poissons Ratio (y) = -0.12759 0.13928
# Poissons Ratio (z) = 0.08373 0.12512
#
# Static dielectric constant tensor:
#      x y z
#    x 1.982330 0.063630 0.005650 
#    y 0.063630 1.955740 0.017340 
#    z 0.005650 0.017340 2.020900 
# 
# From -- ./inp_files/419193.got.cif
#   From: 2010.05.17/outbox.cif.g08.bks.cpg/sg2_210_cif.got.tgz:419193.got - 2010.06.03 11:33:40.
