data_PCOD9028582
_publ_section_title
;
Structure prediction by ZEFSAII (Michael W. Deem and Ramdas Pophale) SiO2 
 PCOD9028582
Probable space group: P -1
;
_chemical_formula_sum "Si O2"
_cell_formula_units_Z 15
_cell_length_a 10.050472
_cell_length_b 9.472000
_cell_length_c 7.512532
_cell_angle_alpha 105.249573
_cell_angle_beta 58.084995
_cell_angle_gamma 96.312946
_cell_volume 585.322414
_symmetry_space_group_name_H-M "P -1"
_symmetry_group_IT_number 2
_symmetry_cell_setting 'triclinic'
loop_
_space_group_symop_operation_xyz
x,y,z
-x,-y,-z
loop_
_atom_site_type_symbol
_atom_site_label
_atom_site_fract_x
_atom_site_fract_y
_atom_site_fract_z
Si Si1 0.882414 0.109709 0.014896
Si Si2 0.705003 0.915413 0.485399
Si Si3 0.161078 0.606746 0.019714
Si Si4 0.000000 0.500000 0.500000
Si Si5 0.148555 0.392922 0.628777
Si Si6 0.175014 0.785157 0.542672
Si Si7 0.383155 0.072956 0.867988
Si Si8 0.445381 0.664236 0.059934
O O1 0.793427 0.200656 0.265005
O O2 0.756672 0.014403 0.974003
O O3 0.943403 0.246082 0.905872
O O4 0.000000 0.000000 0.000000
O O5 0.768383 0.762554 0.465230
O O6 0.670985 0.897009 0.289831
O O7 0.830837 0.043843 0.460161
O O8 0.541919 0.972982 0.706708
O O9 0.328617 0.658371 0.973270
O O10 0.046350 0.553926 0.244315
O O11 0.175398 0.485497 0.818671
O O12 0.818351 0.533511 0.556390
O O13 0.974703 0.311307 0.411549
O O14 0.329455 0.724662 0.316080
O O15 0.419882 0.220056 0.992738
O O16 0.500000 0.500000 0.000000
#
# Coordination Sequence:
#
# PCOD9028582 Si02
#       8
#     2   2   2   1   2   2   2   2
#     4  11  23  43  67  96 130 171 212 276 330 379
#     4   9  19  41  67  90 124 174 214 264 323 382
#     4  11  23  40  62  95 134 165 225 265 322 398
#     4  12  22  42  64  96 138 160 224 282 312 392
#     4  11  23  41  66  94 129 177 213 273 330 379
#     4  10  22  42  63  96 130 167 222 265 316 391
#     4   9  20  40  65  92 128 164 221 262 316 397
#     4  11  23  42  65  91 132 179 212 271 326 380
#
# _framework density 25.626902999999999
#
# number of rings (size 3 to 8) (size 9 to 14) (size 15 to 20)
#    0.000    1.600    2.667    3.200    0.000    3.200 
#    7.200    1.333    0.000    0.000    0.000    0.000 
#    0.000    0.000    0.000    0.000    0.000    0.000 
#
# Total GULP energy -83623.446833 kJ/mol
# GULP energy per Si atom -5574.896456 kJ/mol
# Density = 2.556858 g / cm^3
# Si number density = 25.626903 Si / 1000 Ang^3
#
#
#
# Elastic Constant Matrix: (Units=GPa)
#
#
# Indices 1 2 3 4 5 6 
#
# 1 105.1130 86.2006 28.9532 18.7339 14.3464 10.2891
# 2 86.2006 195.7456 41.9556 35.1044 -6.1083 -7.2519
# 3 28.9532 41.9556 73.3614 19.7134 7.5395 -3.0991
# 4 18.7339 35.1044 19.7134 34.4149 7.0183 0.0003
# 5 14.3464 -6.1083 7.5395 7.0183 22.5091 6.0840
# 6 10.2891 -7.2519 -3.0991 0.0003 6.0840 70.8393
#
#
#
# Elastic Compliance Matrix: (Units=1/GPa)
#
#
# Indices 1 2 3 4 5 6 
#
# 1 0.019163 -0.009100 -0.001742 0.002758 -0.014267 -0.002566
# 2 -0.009100 0.011358 -0.001914 -0.007902 0.011608 0.001404
# 3 -0.001742 -0.001914 0.017557 -0.006423 -0.003594 0.001134
# 4 0.002758 -0.007902 -0.006423 0.042333 -0.014893 -0.000212
# 5 -0.014267 0.011608 -0.003594 -0.014893 0.063144 -0.002320
# 6 -0.002566 0.001404 0.001134 -0.000212 -0.002320 0.014882
#
#
# Mechanical properties :
#
#
# Convention : Reuss Voigt Hill
#
# Bulk Modulus (GPa) = 44.31726 76.49320 60.40523
# Shear Modulus (GPa) = 24.81746 40.02669 32.42208
#
# Velocity S-wave (km/s) = 3.11531 3.95638 3.56076
# Velocity P-wave (km/s) = 5.50191 7.12630 6.36613
#
# Compressibility (1/GPa) = 0.02256457
#
# Stress axis : x y z
#
# Youngs Moduli (GPa) = 52.18343 88.04368 56.95882
#
# Poissons Ratio (x) = 0.80124 0.09922
# Poissons Ratio (y) = 0.47489 0.10903
# Poissons Ratio (z) = 0.09090 0.16853
#
# Static dielectric constant tensor:
#      x y z
#    x 2.141800 -0.007050 0.032990 
#    y -0.007050 2.379930 -0.139900 
#    z 0.032990 -0.139900 2.116510 
# 
# From -- ./inp_files/235521.got.cif
#   From: 2010.05.17/outbox.cif.g08.bks.cpg/sg2_118_cif.got.tgz:235521.got - 2010.06.03 11:33:40.
