data_PCOD9028071
_publ_section_title
;
Structure prediction by ZEFSAII (Michael W. Deem and Ramdas Pophale) SiO2 
 PCOD9028071
Probable space group: P -1
;
_chemical_formula_sum "Si O2"
_cell_formula_units_Z 16
_cell_length_a 9.384466
_cell_length_b 9.123575
_cell_length_c 13.786853
_cell_angle_alpha 125.380836
_cell_angle_beta 80.814003
_cell_angle_gamma 65.443843
_cell_volume 736.918485
_symmetry_space_group_name_H-M "P -1"
_symmetry_group_IT_number 2
_symmetry_cell_setting 'triclinic'
loop_
_space_group_symop_operation_xyz
x,y,z
-x,-y,-z
loop_
_atom_site_type_symbol
_atom_site_label
_atom_site_fract_x
_atom_site_fract_y
_atom_site_fract_z
Si Si1 0.940161 0.754039 0.110511
Si Si2 0.687163 0.174964 0.423882
Si Si3 0.068817 0.427561 0.355275
Si Si4 0.177720 0.732874 0.375583
Si Si5 0.274557 0.545155 0.625492
Si Si6 0.581600 0.064072 0.934366
Si Si7 0.206335 0.896861 0.912502
Si Si8 0.320312 0.537824 0.070778
O O1 0.139792 0.693950 0.082692
O O2 0.815305 0.906630 0.276489
O O3 0.827406 0.918137 0.092682
O O4 0.000000 0.500000 0.000000
O O5 0.695011 0.255811 0.559788
O O6 0.469684 0.304061 0.479683
O O7 0.763741 0.278584 0.387823
O O8 0.121144 0.578621 0.360971
O O9 0.254970 0.161723 0.228135
O O10 0.000000 0.500000 0.500000
O O11 0.895549 0.456123 0.337265
O O12 0.259049 0.648118 0.226940
O O13 0.000000 0.000000 0.500000
O O14 0.299140 0.655759 0.756809
O O15 0.500000 0.000000 0.000000
O O16 0.680510 0.136916 0.018073
O O17 0.408304 0.270298 0.970296
O O18 0.000000 0.000000 0.000000
O O19 0.500000 0.500000 0.000000
#
# Coordination Sequence:
#
# PCOD9028071 Si02
#       8
#     2   2   2   2   2   2   2   2
#     4  11  25  44  66  99 141 181 225 286 353 412
#     4  10  22  44  68  99 135 180 224 287 347 412
#     4  12  26  43  73 105 139 179 239 293 341 419
#     4  12  25  46  72 100 144 183 228 290 357 417
#     4  10  22  41  71 101 132 174 235 284 348 402
#     4  12  25  44  71 106 136 182 244 290 338 417
#     4  11  22  41  71  95 133 178 230 288 342 406
#     4  12  27  45  70 102 142 188 229 284 358 418
#
# _framework density 21.712035
#
# number of rings (size 3 to 8) (size 9 to 14) (size 15 to 20)
#    0.000    0.750    5.000    2.250    3.500    2.000 
#    0.000    0.625    0.000    0.000    0.000    0.000 
#    0.000    0.000    0.000    0.000    0.000    0.000 
#
# Total GULP energy -89351.445888 kJ/mol
# GULP energy per Si atom -5584.465368 kJ/mol
# Density = 2.166262 g / cm^3
# Si number density = 21.712035 Si / 1000 Ang^3
#
#
#
# Elastic Constant Matrix: (Units=GPa)
#
#
# Indices 1 2 3 4 5 6 
#
# 1 52.5248 9.1020 46.8374 9.7211 -7.8214 -3.8225
# 2 9.1020 45.1112 35.6450 7.2854 -1.8367 -1.7056
# 3 46.8374 35.6450 170.0593 16.2930 -11.5639 2.8499
# 4 9.7211 7.2854 16.2930 40.7657 -3.5186 -8.8555
# 5 -7.8214 -1.8367 -11.5639 -3.5186 38.4515 0.8800
# 6 -3.8225 -1.7056 2.8499 -8.8555 0.8800 30.1200
#
#
#
# Elastic Compliance Matrix: (Units=1/GPa)
#
#
# Indices 1 2 3 4 5 6 
#
# 1 0.026325 0.000925 -0.007039 -0.002682 0.002964 0.003184
# 2 0.000925 0.026937 -0.005723 -0.002471 -0.000506 0.001473
# 3 -0.007039 -0.005723 0.009271 -0.001473 0.001007 -0.002557
# 4 -0.002682 -0.002471 -0.001473 0.028018 0.001278 0.007859
# 5 0.002964 -0.000506 0.001007 0.001278 0.027009 -0.000161
# 6 0.003184 0.001473 -0.002557 0.007859 -0.000161 0.036245
#
#
# Mechanical properties :
#
#
# Convention : Reuss Voigt Hill
#
# Bulk Modulus (GPa) = 25.73490 50.09600 37.91545
# Shear Modulus (GPa) = 26.25612 33.60818 29.93215
#
# Velocity S-wave (km/s) = 3.48126 3.93861 3.71697
# Velocity P-wave (km/s) = 5.29504 6.61865 5.99350
#
# Compressibility (1/GPa) = 0.03885774
#
# Stress axis : x y z
#
# Youngs Moduli (GPa) = 37.98738 37.12338 107.86400
#
# Poissons Ratio (x) = -0.03433 0.75925
# Poissons Ratio (y) = -0.03512 0.61732
# Poissons Ratio (z) = 0.26739 0.21246
#
# Static dielectric constant tensor:
#      x y z
#    x 1.596840 -0.186990 0.401260 
#    y -0.186990 1.857160 0.052540 
#    z 0.401260 0.052540 1.520510 
# 
# From -- ./inp_files/206858.got.cif
#   From: 2010.05.17/outbox.cif.g08.bks.cpg/sg2_104_cif.got.tgz:206858.got - 2010.06.03 11:33:40.
