data_PCOD9028402
_publ_section_title
;
Structure prediction by ZEFSAII (Michael W. Deem and Ramdas Pophale) SiO2 
 PCOD9028402
Probable space group: P -1
;
_chemical_formula_sum "Si O2"
_cell_formula_units_Z 16
_cell_length_a 6.060293
_cell_length_b 21.889316
_cell_length_c 7.744376
_cell_angle_alpha 108.545957
_cell_angle_beta 119.822965
_cell_angle_gamma 49.635242
_cell_volume 679.087544
_symmetry_space_group_name_H-M "P -1"
_symmetry_group_IT_number 2
_symmetry_cell_setting 'triclinic'
loop_
_space_group_symop_operation_xyz
x,y,z
-x,-y,-z
loop_
_atom_site_type_symbol
_atom_site_label
_atom_site_fract_x
_atom_site_fract_y
_atom_site_fract_z
Si Si1 0.275780 0.699063 0.734209
Si Si2 0.958713 0.776650 0.031811
Si Si3 0.438288 0.330344 0.630474
Si Si4 0.903284 0.588682 0.064604
Si Si5 0.874337 0.936787 0.051505
Si Si6 0.624303 0.195558 0.330627
Si Si7 0.583044 0.424468 0.575843
Si Si8 0.846697 0.971384 0.667183
O O1 0.187296 0.776103 0.666785
O O2 0.215259 0.647306 0.546190
O O3 0.119527 0.721284 0.877318
O O4 0.652625 0.644900 0.872234
O O5 0.603288 0.804609 0.898963
O O6 0.970927 0.851686 0.078455
O O7 0.182083 0.723850 0.228824
O O8 0.259667 0.369288 0.776433
O O9 0.431626 0.263316 0.464897
O O10 0.349644 0.404430 0.540291
O O11 0.228040 0.578598 0.188001
O O12 0.000000 0.500000 0.000000
O O13 0.900924 0.940142 0.858013
O O14 0.079910 0.963430 0.239363
O O15 0.500000 0.000000 0.000000
O O16 0.879945 0.104659 0.407099
O O17 0.500000 0.500000 0.500000
O O18 0.500000 0.000000 0.500000
#
# Coordination Sequence:
#
# PCOD9028402 Si02
#       8
#     2   2   2   2   2   2   2   2
#     4  10  22  42  61  91 126 169 215 264 331 384
#     4  11  22  43  67  92 129 173 219 274 322 392
#     4  10  26  40  64  99 124 173 222 260 336 395
#     4  11  22  42  63  92 126 166 215 270 324 384
#     4  11  24  44  67  95 133 175 224 271 332 393
#     4  11  22  43  65  92 133 171 215 274 327 392
#     4  11  22  42  63  91 128 165 211 269 323 395
#     4  11  26  43  66 101 136 174 222 276 334 394
#
# _framework density 23.561025999999998
#
# number of rings (size 3 to 8) (size 9 to 14) (size 15 to 20)
#    0.000    1.250    3.750    1.500    1.750    2.500 
#   11.250    0.000    0.000    0.000    0.000    0.000 
#    0.000    0.000    0.000    0.000    0.000    0.000 
#
# Total GULP energy -89323.735141 kJ/mol
# GULP energy per Si atom -5582.733446 kJ/mol
# Density = 2.350740 g / cm^3
# Si number density = 23.561026 Si / 1000 Ang^3
#
#
#
# Elastic Constant Matrix: (Units=GPa)
#
#
# Indices 1 2 3 4 5 6 
#
# 1 39.8175 19.9984 28.0260 10.2289 7.8997 9.9771
# 2 19.9984 111.8813 47.0882 21.1762 22.9218 29.8296
# 3 28.0260 47.0882 122.9988 19.1326 27.1340 11.1209
# 4 10.2289 21.1762 19.1326 39.7896 2.3110 5.5009
# 5 7.8997 22.9218 27.1340 2.3110 50.8762 3.9449
# 6 9.9771 29.8296 11.1209 5.5009 3.9449 38.5911
#
#
#
# Elastic Compliance Matrix: (Units=1/GPa)
#
#
# Indices 1 2 3 4 5 6 
#
# 1 0.032149 -0.000994 -0.005597 -0.004267 -0.000960 -0.005224
# 2 -0.000994 0.014387 -0.002909 -0.004536 -0.003874 -0.008983
# 3 -0.005597 -0.002909 0.011708 -0.002560 -0.004033 0.001099
# 4 -0.004267 -0.004536 -0.002560 0.029601 0.002660 0.000855
# 5 -0.000960 -0.003874 -0.004033 0.002660 0.023454 0.001628
# 6 -0.005224 -0.008983 0.001099 0.000855 0.001628 0.033602
#
#
# Mechanical properties :
#
#
# Convention : Reuss Voigt Hill
#
# Bulk Modulus (GPa) = 25.48167 51.65808 38.56988
# Shear Modulus (GPa) = 28.25143 37.82370 33.03757
#
# Velocity S-wave (km/s) = 3.46652 4.01103 3.74868
# Velocity P-wave (km/s) = 5.18276 6.58969 5.92811
#
# Compressibility (1/GPa) = 0.03924390
#
# Stress axis : x y z
#
# Youngs Moduli (GPa) = 31.10536 69.50607 85.41264
#
# Poissons Ratio (x) = 0.06907 0.47806
# Poissons Ratio (y) = 0.03091 0.24849
# Poissons Ratio (z) = 0.17410 0.20221
#
# Static dielectric constant tensor:
#      x y z
#    x 1.974430 -0.022740 0.024170 
#    y -0.022740 1.926420 -0.011220 
#    z 0.024170 -0.011220 1.891610 
# 
# From -- ./inp_files/48470.got.cif
#   From: 2010.05.17/outbox.cif.g08.bks.cpg/sg2_25_cif.got.tgz:48470.got - 2010.06.03 11:33:40.
