data_PCOD9028418
_publ_section_title
;
Structure prediction by ZEFSAII (Michael W. Deem and Ramdas Pophale) SiO2 
 PCOD9028418
Probable space group: P -1
;
_chemical_formula_sum "Si O2"
_cell_formula_units_Z 16
_cell_length_a 5.779993
_cell_length_b 10.923216
_cell_length_c 17.701187
_cell_angle_alpha 128.382555
_cell_angle_beta 71.857526
_cell_angle_gamma 76.205530
_cell_volume 678.384330
_symmetry_space_group_name_H-M "P -1"
_symmetry_group_IT_number 2
_symmetry_cell_setting 'triclinic'
loop_
_space_group_symop_operation_xyz
x,y,z
-x,-y,-z
loop_
_atom_site_type_symbol
_atom_site_label
_atom_site_fract_x
_atom_site_fract_y
_atom_site_fract_z
Si Si1 0.116796 0.031476 0.205018
Si Si2 0.618245 0.029950 0.612741
Si Si3 0.961653 0.849457 0.358920
Si Si4 0.748467 0.354088 0.978403
Si Si5 0.309900 0.418259 0.182090
Si Si6 0.302848 0.849582 0.823687
Si Si7 0.812136 0.729236 0.603532
Si Si8 0.816847 0.766482 0.996547
O O1 0.471212 0.896262 0.105172
O O2 0.026821 0.185805 0.337502
O O3 0.069296 0.863617 0.154958
O O4 0.960674 0.147108 0.188346
O O5 0.262546 0.136602 0.677023
O O6 0.772491 0.123300 0.674808
O O7 0.748710 0.999925 0.503125
O O8 0.728099 0.834567 0.571587
O O9 0.113385 0.642491 0.301528
O O10 0.551464 0.378599 0.080034
O O11 0.500000 0.500000 0.000000
O O12 0.995482 0.364647 0.001245
O O13 0.482214 0.299385 0.192641
O O14 0.131819 0.350742 0.128823
O O15 0.517455 0.807033 0.713599
O O16 0.142156 0.064266 0.954253
O O17 0.000000 0.500000 0.500000
#
# Coordination Sequence:
#
# PCOD9028418 Si02
#       8
#     2   2   2   2   2   2   2   2
#     4   9  22  41  61  90 131 168 211 275 330 395
#     4  10  24  47  68  96 138 174 223 278 343 397
#     4  10  24  45  69  99 134 179 220 281 337 406
#     4  10  23  38  61  94 130 171 216 268 332 403
#     4  11  23  37  66  96 127 173 224 273 330 405
#     4  10  22  42  61  95 130 171 218 275 338 395
#     4  11  24  41  68  96 125 173 223 278 333 399
#     4   9  21  40  62  90 131 169 214 272 332 396
#
# _framework density 23.585450000000002
#
# number of rings (size 3 to 8) (size 9 to 14) (size 15 to 20)
#    0.000    2.000    0.000    1.125    5.250   11.000 
#    6.750    0.000    0.000    0.000    0.000    0.000 
#    0.000    0.000    0.000    0.000    0.000    0.000 
#
# Total GULP energy -89210.812879 kJ/mol
# GULP energy per Si atom -5575.675805 kJ/mol
# Density = 2.353177 g / cm^3
# Si number density = 23.585450 Si / 1000 Ang^3
#
#
#
# Elastic Constant Matrix: (Units=GPa)
#
#
# Indices 1 2 3 4 5 6 
#
# 1 116.2616 69.6835 16.6955 -0.9115 3.8594 -39.3796
# 2 69.6835 171.9424 13.2068 15.0678 5.5284 -34.9302
# 3 16.6955 13.2068 49.6251 10.4161 11.4757 -5.9852
# 4 -0.9115 15.0678 10.4161 36.7711 5.6616 -9.4705
# 5 3.8594 5.5284 11.4757 5.6616 23.0827 -7.0000
# 6 -39.3796 -34.9302 -5.9852 -9.4705 -7.0000 43.8165
#
#
#
# Elastic Compliance Matrix: (Units=1/GPa)
#
#
# Indices 1 2 3 4 5 6 
#
# 1 0.015831 -0.004250 -0.004689 0.006109 0.002834 0.011973
# 2 -0.004250 0.008218 0.000107 -0.002968 0.000058 0.002114
# 3 -0.004689 0.000107 0.025234 -0.006567 -0.011364 -0.003916
# 4 0.006109 -0.002968 -0.006567 0.033116 -0.002440 0.008996
# 5 0.002834 0.000058 -0.011364 -0.002440 0.051746 0.008781
# 6 0.011973 0.002114 -0.003916 0.008996 0.008781 0.038080
#
#
# Mechanical properties :
#
#
# Convention : Reuss Voigt Hill
#
# Bulk Modulus (GPa) = 31.62583 59.66673 45.64628
# Shear Modulus (GPa) = 24.94674 36.61697 30.78185
#
# Velocity S-wave (km/s) = 3.25578 3.94448 3.61656
# Velocity P-wave (km/s) = 5.25087 6.78957 6.06918
#
# Compressibility (1/GPa) = 0.03161972
#
# Stress axis : x y z
#
# Youngs Moduli (GPa) = 63.16689 121.68834 39.62916
#
# Poissons Ratio (x) = 0.51717 0.18581
# Poissons Ratio (y) = 0.26846 -0.00425
# Poissons Ratio (z) = 0.29618 -0.01305
#
# Static dielectric constant tensor:
#      x y z
#    x 2.374730 0.005220 0.052050 
#    y 0.005220 1.915480 -0.024650 
#    z 0.052050 -0.024650 1.880710 
# 
# From -- ./inp_files/97570.got.cif
#   From: 2010.05.17/outbox.cif.g08.bks.cpg/sg2_49_cif.got.tgz:97570.got - 2010.06.03 11:33:40.
