data_PCOD9028814
_publ_section_title
;
Structure prediction by ZEFSAII (Michael W. Deem and Ramdas Pophale) SiO2 
 PCOD9028814
Probable space group: P -1
;
_chemical_formula_sum "Si O2"
_cell_formula_units_Z 13
_cell_length_a 12.507748
_cell_length_b 5.140649
_cell_length_c 7.104152
_cell_angle_alpha 99.006289
_cell_angle_beta 89.328924
_cell_angle_gamma 90.834131
_cell_volume 451.082371
_symmetry_space_group_name_H-M "P -1"
_symmetry_group_IT_number 2
_symmetry_cell_setting 'triclinic'
loop_
_space_group_symop_operation_xyz
x,y,z
-x,-y,-z
loop_
_atom_site_type_symbol
_atom_site_label
_atom_site_fract_x
_atom_site_fract_y
_atom_site_fract_z
Si Si1 0.736030 0.656309 0.532948
Si Si2 0.231232 0.240381 0.871502
Si Si3 0.000000 0.500000 0.000000
Si Si4 0.905579 0.989882 0.754796
Si Si5 0.467640 0.126025 0.317768
Si Si6 0.649737 0.230370 0.024847
Si Si7 0.916355 0.279333 0.409114
O O1 0.734093 0.807932 0.351203
O O2 0.616490 0.644293 0.608775
O O3 0.800916 0.405091 0.430476
O O4 0.806581 0.785442 0.715531
O O5 0.109001 0.335249 0.899115
O O6 0.308317 0.474325 0.969161
O O7 0.254316 0.963252 0.938677
O O8 0.919990 0.276561 0.872779
O O9 0.907246 0.057188 0.539841
O O10 0.012318 0.815863 0.782476
O O11 0.563913 0.221937 0.194537
O O12 0.500000 0.000000 0.500000
O O13 0.404852 0.902453 0.170837
O O14 0.000000 0.500000 0.500000
#
# Coordination Sequence:
#
# PCOD9028814 Si02
#       7
#     2   2   1   2   2   2   2
#     4  11  24  45  77 112 152 214 270 334 410 486
#     4  12  28  51  79 120 166 215 270 346 408 498
#     4  12  26  44  76 112 164 218 264 334 414 488
#     4  10  22  42  65 106 151 199 265 318 401 484
#     4  11  25  54  84 117 159 221 273 345 421 484
#     4  11  29  55  80 124 168 207 284 345 409 495
#     4   9  19  38  63  96 141 195 253 318 380 482
#
# _framework density 28.819569999999999
#
# number of rings (size 3 to 8) (size 9 to 14) (size 15 to 20)
#    0.000    1.231    1.538    3.692    6.462    3.692 
#    5.538    0.000    0.000    0.000    0.000    0.000 
#    0.000    0.000    0.000    0.000    0.000    0.000 
#
# Total GULP energy -72635.769753 kJ/mol
# GULP energy per Si atom -5587.366904 kJ/mol
# Density = 2.875398 g / cm^3
# Si number density = 28.819570 Si / 1000 Ang^3
#
#
#
# Elastic Constant Matrix: (Units=GPa)
#
#
# Indices 1 2 3 4 5 6 
#
# 1 172.1475 56.5748 47.8907 6.1536 -27.6230 -6.2526
# 2 56.5748 96.3477 15.2395 21.3480 3.0626 11.3941
# 3 47.8907 15.2395 136.7047 11.5073 -21.0231 4.7631
# 4 6.1536 21.3480 11.5073 60.6802 -0.0841 8.2231
# 5 -27.6230 3.0626 -21.0231 -0.0841 52.3390 17.1714
# 6 -6.2526 11.3941 4.7631 8.2231 17.1714 53.9900
#
#
#
# Elastic Compliance Matrix: (Units=1/GPa)
#
#
# Indices 1 2 3 4 5 6 
#
# 1 0.008709 -0.005300 -0.002012 0.001245 0.003803 0.000905
# 2 -0.005300 0.014783 0.000214 -0.004414 -0.002872 -0.002167
# 3 -0.002012 0.000214 0.008622 -0.001259 0.002975 -0.001793
# 4 0.001245 -0.004414 -0.001259 0.018413 0.001083 -0.001962
# 5 0.003803 -0.002872 0.002975 0.001083 0.024870 -0.007291
# 6 0.000905 -0.002167 -0.001793 -0.001962 -0.007291 0.021860
#
#
# Mechanical properties :
#
#
# Convention : Reuss Voigt Hill
#
# Bulk Modulus (GPa) = 55.80615 71.62333 63.71474
# Shear Modulus (GPa) = 42.58080 52.43483 47.50781
#
# Velocity S-wave (km/s) = 3.84799 4.27009 4.06452
# Velocity P-wave (km/s) = 6.25689 7.01554 6.64705
#
# Compressibility (1/GPa) = 0.01791917
#
# Stress axis : x y z
#
# Youngs Moduli (GPa) = 114.82520 67.64677 115.98337
#
# Poissons Ratio (x) = 0.35849 0.23331
# Poissons Ratio (y) = 0.60852 -0.02481
# Poissons Ratio (z) = 0.23098 -0.01447
#
# Static dielectric constant tensor:
#      x y z
#    x 2.301350 -0.023290 -0.004880 
#    y -0.023290 2.229880 -0.119400 
#    z -0.004880 -0.119400 2.342960 
# 
# From -- ./inp_files/229362.got.cif
#   From: 2010.05.17/outbox.cif.g08.bks.cpg/sg2_115_cif.got.tgz:229362.got - 2010.06.03 11:33:40.
