data_PCOD9028978
_publ_section_title
;
Structure prediction by ZEFSAII (Michael W. Deem and Ramdas Pophale) SiO2 
 PCOD9028978
Probable space group: P -1
;
_chemical_formula_sum "Si O2"
_cell_formula_units_Z 14
_cell_length_a 17.305332
_cell_length_b 12.072643
_cell_length_c 4.860493
_cell_angle_alpha 99.211411
_cell_angle_beta 81.428958
_cell_angle_gamma 146.937175
_cell_volume 546.639562
_symmetry_space_group_name_H-M "P -1"
_symmetry_group_IT_number 2
_symmetry_cell_setting 'triclinic'
loop_
_space_group_symop_operation_xyz
x,y,z
-x,-y,-z
loop_
_atom_site_type_symbol
_atom_site_label
_atom_site_fract_x
_atom_site_fract_y
_atom_site_fract_z
Si Si1 0.199318 0.893881 0.811582
Si Si2 0.818404 0.967080 0.624255
Si Si3 0.575386 0.364549 0.224206
Si Si4 0.887426 0.499838 0.700274
Si Si5 0.126144 0.364244 0.739469
Si Si6 0.416191 0.482823 0.239255
Si Si7 0.391981 0.960655 0.411256
O O1 0.199064 0.004221 0.659865
O O2 0.047079 0.650795 0.743227
O O3 0.323460 0.961309 0.675834
O O4 0.208819 0.956762 0.134564
O O5 0.981784 0.129816 0.648372
O O6 0.721324 0.749247 0.682946
O O7 0.729679 0.527895 0.336417
O O8 0.511930 0.384562 0.467355
O O9 0.483757 0.144370 0.226487
O O10 0.598199 0.430096 0.927722
O O11 0.876280 0.526732 0.402937
O O12 0.748361 0.261036 0.740024
O O13 0.877301 0.599239 0.930854
O O14 0.500000 0.500000 0.000000
O O15 0.500000 0.000000 0.500000
#
# Coordination Sequence:
#
# PCOD9028978 Si02
#       7
#     2   2   2   2   2   2   2
#     4  10  22  43  68 100 126 172 219 265 319 394
#     4  10  22  44  71  92 132 166 217 269 326 385
#     4  12  26  41  65  96 134 164 221 265 321 389
#     4  10  22  42  66  92 135 170 218 262 319 385
#     4  10  22  42  65  98 127 169 214 268 320 391
#     4  12  25  44  66  94 129 172 214 269 325 385
#     4  12  25  43  67  97 135 177 214 269 326 379
#
# _framework density 25.611024
#
# number of rings (size 3 to 8) (size 9 to 14) (size 15 to 20)
#    0.000    1.143    1.429    4.286    0.000    4.000 
#    0.000    4.286    0.000    0.000    0.000    0.000 
#    0.000    0.000    0.000    0.000    0.000    0.000 
#
# Total GULP energy -78481.577643 kJ/mol
# GULP energy per Si atom -5605.826974 kJ/mol
# Density = 2.555273 g / cm^3
# Si number density = 25.611024 Si / 1000 Ang^3
#
#
#
# Elastic Constant Matrix: (Units=GPa)
#
#
# Indices 1 2 3 4 5 6 
#
# 1 103.8971 61.6855 19.5930 -11.5708 6.6278 18.8112
# 2 61.6855 226.2291 17.6261 -20.6238 17.9026 -1.7380
# 3 19.5930 17.6261 99.2251 -11.9590 18.4480 -2.2202
# 4 -11.5708 -20.6238 -11.9590 34.6862 0.0647 2.2188
# 5 6.6278 17.9026 18.4480 0.0647 29.1072 -9.9352
# 6 18.8112 -1.7380 -2.2202 2.2188 -9.9352 34.5888
#
#
#
# Elastic Compliance Matrix: (Units=1/GPa)
#
#
# Indices 1 2 3 4 5 6 
#
# 1 0.013980 -0.003246 -0.001419 0.002827 -0.003368 -0.009006
# 2 -0.003246 0.005709 0.000435 0.002392 -0.002656 0.001164
# 3 -0.001419 0.000435 0.012249 0.004088 -0.008058 -0.000997
# 4 0.002827 0.002392 0.004088 0.032946 -0.006535 -0.005145
# 5 -0.003368 -0.002656 -0.008058 -0.006535 0.047035 0.015110
# 6 -0.009006 0.001164 -0.000997 -0.005145 0.015110 0.038474
#
#
# Mechanical properties :
#
#
# Convention : Reuss Voigt Hill
#
# Bulk Modulus (GPa) = 42.59244 69.68450 56.13847
# Shear Modulus (GPa) = 29.99787 41.70622 35.85204
#
# Velocity S-wave (km/s) = 3.42612 4.03978 3.74554
# Velocity P-wave (km/s) = 5.68486 7.00197 6.37751
#
# Compressibility (1/GPa) = 0.02347834
#
# Stress axis : x y z
#
# Youngs Moduli (GPa) = 71.53043 175.17010 81.63725
#
# Poissons Ratio (x) = 0.56867 0.11580
# Poissons Ratio (y) = 0.23222 -0.03551
# Poissons Ratio (z) = 0.10147 -0.07620
#
# Static dielectric constant tensor:
#      x y z
#    x 2.055300 0.021670 -0.043090 
#    y 0.021670 2.024490 0.011030 
#    z -0.043090 0.011030 1.969900 
# 
# From -- ./inp_files/109777.got.cif
#   From: 2010.05.17/outbox.cif.g08.bks.cpg/sg2_55_cif.got.tgz:109777.got - 2010.06.03 11:33:40.
