data_PCOD9028851
_publ_section_title
;
Structure prediction by ZEFSAII (Michael W. Deem and Ramdas Pophale) SiO2 
 PCOD9028851
Probable space group: P -1
;
_chemical_formula_sum "Si O2"
_cell_formula_units_Z 16
_cell_length_a 13.876567
_cell_length_b 9.355877
_cell_length_c 10.946748
_cell_angle_alpha 96.603427
_cell_angle_beta 145.475670
_cell_angle_gamma 75.130189
_cell_volume 766.335252
_symmetry_space_group_name_H-M "P -1"
_symmetry_group_IT_number 2
_symmetry_cell_setting 'triclinic'
loop_
_space_group_symop_operation_xyz
x,y,z
-x,-y,-z
loop_
_atom_site_type_symbol
_atom_site_label
_atom_site_fract_x
_atom_site_fract_y
_atom_site_fract_z
Si Si1 0.942134 0.341433 0.110905
Si Si2 0.855222 0.196397 0.473534
Si Si3 0.564677 0.381721 0.664790
Si Si4 0.172884 0.335131 0.871821
Si Si5 0.094674 0.890292 0.762023
Si Si6 0.518922 0.565210 0.891427
Si Si7 0.368979 0.032148 0.181178
Si Si8 0.677038 0.838606 0.594205
O O1 0.898923 0.519054 0.103620
O O2 0.945765 0.251588 0.232402
O O3 0.130756 0.269311 0.241926
O O4 0.776161 0.315030 0.862623
O O5 0.856544 0.143787 0.330496
O O6 0.659830 0.300885 0.308880
O O7 0.003199 0.286451 0.645715
O O8 0.933138 0.043761 0.617294
O O9 0.500000 0.500000 0.500000
O O10 0.539679 0.455215 0.783346
O O11 0.454218 0.263037 0.528982
O O12 0.302141 0.382102 0.915124
O O13 0.302025 0.191660 0.060681
O O14 0.262660 0.925536 0.003138
O O15 0.500000 0.500000 0.000000
O O16 0.315243 0.064965 0.269073
O O17 0.578853 0.950215 0.394753
#
# Coordination Sequence:
#
# PCOD9028851 Si02
#       8
#     2   2   2   2   2   2   2   2
#     4  11  23  40  67  95 128 169 215 274 327 388
#     4  10  22  42  65  91 130 177 211 271 331 389
#     4  11  24  43  66 101 135 171 222 275 324 394
#     4  10  23  42  64  96 128 165 219 272 321 396
#     4  10  22  43  62  93 134 165 221 275 324 390
#     4  11  24  40  69  98 133 173 220 270 332 391
#     4  10  23  44  62  93 135 166 223 273 321 394
#     4  11  23  40  68  92 128 179 215 268 334 387
#
# _framework density 20.878589000000002
#
# number of rings (size 3 to 8) (size 9 to 14) (size 15 to 20)
#    0.000    1.500    1.250    3.750    1.750    7.500 
#    0.000    1.875    0.000    0.000    0.000    0.000 
#    0.000    0.000    0.000    0.000    0.000    0.000 
#
# Total GULP energy -89360.399208 kJ/mol
# GULP energy per Si atom -5585.024951 kJ/mol
# Density = 2.083107 g / cm^3
# Si number density = 20.878589 Si / 1000 Ang^3
#
#
#
# Elastic Constant Matrix: (Units=GPa)
#
#
# Indices 1 2 3 4 5 6 
#
# 1 46.8443 44.2566 48.4050 3.7855 9.6545 -8.5260
# 2 44.2566 -20.8667 -5.8129 -6.3711 44.9174 39.6359
# 3 48.4050 -5.8129 111.0661 -4.4731 37.6221 5.4805
# 4 3.7855 -6.3711 -4.4731 35.6359 -7.0019 -0.3165
# 5 9.6545 44.9174 37.6221 -7.0019 36.4677 -22.0006
# 6 -8.5260 39.6359 5.4805 -0.3165 -22.0006 3.7838
#
#
#
# Elastic Compliance Matrix: (Units=1/GPa)
#
#
# Indices 1 2 3 4 5 6 
#
# 1 0.027457 0.001136 -0.006856 -0.006313 -0.013162 -0.017163
# 2 0.001136 0.004118 -0.003942 0.001976 0.008719 0.015988
# 3 -0.006856 -0.003942 0.011545 0.001493 -0.000250 0.007796
# 4 -0.006313 0.001976 0.001493 0.030672 0.006874 0.005448
# 5 -0.013162 0.008719 -0.000250 0.006874 0.020209 -0.002547
# 6 -0.017163 0.015988 0.007796 0.005448 -0.002547 0.032487
#
#
# Mechanical properties :
#
#
# Convention : Reuss Voigt Hill
#
# Bulk Modulus (GPa) = 42.02170 34.52680 38.27425
# Shear Modulus (GPa) = 32.52169 18.52382 25.52275
#
# Velocity S-wave (km/s) = 3.95100 2.98185 3.50013
# Velocity P-wave (km/s) = 6.40189 5.33180 5.89119
#
# Compressibility (1/GPa) = 0.02379723
#
# Stress axis : x y z
#
# Youngs Moduli (GPa) = 36.42080 242.81363 86.61534
#
# Poissons Ratio (x) = -0.27588 0.59380
# Poissons Ratio (y) = -0.04138 0.34146
# Poissons Ratio (z) = 0.24968 0.95724
#
# Static dielectric constant tensor:
#      x y z
#    x 1.734960 0.010120 0.000700 
#    y 0.010120 1.718330 -0.023680 
#    z 0.000700 -0.023680 1.756840 
# 
# From -- ./inp_files/447557.got.cif
#   From: 2010.05.17/outbox.cif.g08.bks.cpg/sg2_224_cif.got.tgz:447557.got - 2010.06.03 11:33:40.
