data_PCOD9028108
_publ_section_title
;
Structure prediction by ZEFSAII (Michael W. Deem and Ramdas Pophale) SiO2 
 PCOD9028108
Probable space group: P -1
;
_chemical_formula_sum "Si O2"
_cell_formula_units_Z 14
_cell_length_a 6.736614
_cell_length_b 7.194816
_cell_length_c 12.732360
_cell_angle_alpha 86.079309
_cell_angle_beta 74.314901
_cell_angle_gamma 79.967984
_cell_volume 584.909129
_symmetry_space_group_name_H-M "P -1"
_symmetry_group_IT_number 2
_symmetry_cell_setting 'triclinic'
loop_
_space_group_symop_operation_xyz
x,y,z
-x,-y,-z
loop_
_atom_site_type_symbol
_atom_site_label
_atom_site_fract_x
_atom_site_fract_y
_atom_site_fract_z
Si Si1 0.568127 0.109907 0.649980
Si Si2 0.040426 0.236587 0.877661
Si Si3 0.129283 0.788359 0.876677
Si Si4 0.645731 0.529695 0.260460
Si Si5 0.029733 0.574432 0.333120
Si Si6 0.840145 0.812797 0.731974
Si Si7 0.835939 0.943933 0.420025
O O1 0.555397 0.328861 0.675983
O O2 0.639458 0.972065 0.741795
O O3 0.343564 0.087643 0.635744
O O4 0.724184 0.033668 0.536313
O O5 0.240212 0.343313 0.841380
O O6 0.925251 0.309332 0.782909
O O7 0.116340 0.012716 0.873148
O O8 0.900205 0.279770 0.998603
O O9 0.327921 0.669796 0.793505
O O10 0.819040 0.623974 0.677679
O O11 0.925437 0.755671 0.838213
O O12 0.807021 0.506173 0.337002
O O13 0.972424 0.734882 0.422254
O O14 0.023567 0.916390 0.654787
#
# Coordination Sequence:
#
# PCOD9028108 Si02
#       7
#     2   2   2   2   2   2   2
#     4  10  21  37  59  82 117 142 189 228 281 319
#     4   9  17  32  58  80 107 150 182 223 275 336
#     4  10  17  31  61  80 106 150 185 219 287 318
#     4   8  17  33  49  77 110 143 176 228 266 333
#     4   8  18  33  56  79 113 143 190 217 277 327
#     4  11  20  35  59  86 108 149 188 227 271 337
#     4  10  20  41  56  77 119 150 176 241 268 329
#
# _framework density 23.935341000000001
#
# number of rings (size 3 to 8) (size 9 to 14) (size 15 to 20)
#    0.857    1.714    1.429    0.857    0.000    0.571 
#    0.000   19.286    0.000    1.714    0.000    1.000 
#    0.000    0.000    0.000    0.000    0.000    0.000 
#
# Total GULP energy -78102.675580 kJ/mol
# GULP energy per Si atom -5578.762541 kJ/mol
# Density = 2.388086 g / cm^3
# Si number density = 23.935341 Si / 1000 Ang^3
#
#
#
# Elastic Constant Matrix: (Units=GPa)
#
#
# Indices 1 2 3 4 5 6 
#
# 1 58.7152 18.0108 10.7102 11.2087 6.5890 -5.0652
# 2 18.0108 137.4758 12.4640 54.6862 3.1153 -3.8951
# 3 10.7102 12.4640 83.9849 27.0626 3.9009 -7.0325
# 4 11.2087 54.6862 27.0626 46.2917 -8.6929 -5.2130
# 5 6.5890 3.1153 3.9009 -8.6929 18.7695 2.9903
# 6 -5.0652 -3.8951 -7.0325 -5.2130 2.9903 44.0697
#
#
#
# Elastic Compliance Matrix: (Units=1/GPa)
#
#
# Indices 1 2 3 4 5 6 
#
# 1 0.019635 0.000899 0.000678 -0.008078 -0.011283 0.002255
# 2 0.000899 0.019539 0.008232 -0.031806 -0.020119 0.000747
# 3 0.000678 0.008232 0.019379 -0.024198 -0.017190 0.002202
# 4 -0.008078 -0.031806 -0.024198 0.085051 0.052713 -0.001117
# 5 -0.011283 -0.020119 -0.017190 0.052713 0.089465 -0.005653
# 6 0.002255 0.000747 0.002202 -0.001117 -0.005653 0.023619
#
#
# Mechanical properties :
#
#
# Convention : Reuss Voigt Hill
#
# Bulk Modulus (GPa) = 12.79254 40.28286 26.53770
# Shear Modulus (GPa) = 19.00221 37.75891 28.38056
#
# Velocity S-wave (km/s) = 2.82068 3.97613 3.44716
# Velocity P-wave (km/s) = 3.99556 6.16002 5.19184
#
# Compressibility (1/GPa) = 0.07817055
#
# Stress axis : x y z
#
# Youngs Moduli (GPa) = 50.93052 51.17909 51.60266
#
# Poissons Ratio (x) = -0.04600 -0.03501
# Poissons Ratio (y) = -0.04578 -0.42478
# Poissons Ratio (z) = -0.03455 -0.42129
#
# Static dielectric constant tensor:
#      x y z
#    x 2.013620 -0.021800 0.029730 
#    y -0.021800 1.957160 0.015520 
#    z 0.029730 0.015520 1.941660 
# 
# From -- ./inp_files/324785.got.cif
#   From: 2010.05.17/outbox.cif.g08.bks.cpg/sg2_163_cif.got.tgz:324785.got - 2010.06.03 11:33:40.
