data_PCOD9028839
_publ_section_title
;
Structure prediction by ZEFSAII (Michael W. Deem and Ramdas Pophale) SiO2 
 PCOD9028839
Probable space group: P -1
;
_chemical_formula_sum "Si O2"
_cell_formula_units_Z 12
_cell_length_a 4.878539
_cell_length_b 8.476191
_cell_length_c 12.026566
_cell_angle_alpha 70.090696
_cell_angle_beta 95.154555
_cell_angle_gamma 82.318545
_cell_volume 458.481055
_symmetry_space_group_name_H-M "P -1"
_symmetry_group_IT_number 2
_symmetry_cell_setting 'triclinic'
loop_
_space_group_symop_operation_xyz
x,y,z
-x,-y,-z
loop_
_atom_site_type_symbol
_atom_site_label
_atom_site_fract_x
_atom_site_fract_y
_atom_site_fract_z
Si Si1 0.749273 0.656424 0.453156
Si Si2 0.664221 0.842047 0.612929
Si Si3 0.172050 0.963379 0.696914
Si Si4 0.567654 0.338952 0.781012
Si Si5 0.883214 0.609182 0.077854
Si Si6 0.807757 0.963916 0.901211
O O1 0.647966 0.686467 0.569482
O O2 0.847752 0.836073 0.379987
O O3 0.521941 0.632684 0.357568
O O4 0.000000 0.500000 0.500000
O O5 0.487954 0.864622 0.714771
O O6 0.500000 0.000000 0.500000
O O7 0.978179 0.870552 0.632248
O O8 0.576106 0.132639 0.839090
O O9 0.020846 0.947321 0.810430
O O10 0.340895 0.443077 0.831987
O O11 0.863000 0.367847 0.834833
O O12 0.727224 0.785672 0.975188
O O13 0.000000 0.500000 0.000000
O O14 0.000000 0.000000 0.000000
#
# Coordination Sequence:
#
# PCOD9028839 Si02
#       6
#     2   2   2   2   2   2
#     4  11  24  45  69 100 138 180 230 287 334 390
#     4  10  22  42  65  90 130 174 221 272 327 396
#     4  11  23  43  66  96 132 176 224 270 332 406
#     4  11  24  45  69  99 137 181 227 273 338 413
#     4  11  25  46  71 104 138 172 222 285 344 402
#     4  10  22  43  72  99 132 177 223 275 335 409
#
# _framework density 26.173383999999999
#
# number of rings (size 3 to 8) (size 9 to 14) (size 15 to 20)
#    0.000    1.333    0.000    7.000    0.000    6.667 
#    0.000   30.833    0.000    0.000    0.000    0.000 
#    0.000    0.000    0.000    0.000    0.000    0.000 
#
# Total GULP energy -67166.841064 kJ/mol
# GULP energy per Si atom -5597.236755 kJ/mol
# Density = 2.611381 g / cm^3
# Si number density = 26.173384 Si / 1000 Ang^3
#
#
#
# Elastic Constant Matrix: (Units=GPa)
#
#
# Indices 1 2 3 4 5 6 
#
# 1 125.8743 26.9297 28.5180 7.7656 -0.0589 -8.4633
# 2 26.9297 130.7448 44.9611 10.2910 6.2524 -15.2967
# 3 28.5180 44.9611 124.6879 30.2897 14.4516 -2.4525
# 4 7.7656 10.2910 30.2897 33.6204 -13.1296 -7.4919
# 5 -0.0589 6.2524 14.4516 -13.1296 57.2464 9.0941
# 6 -8.4633 -15.2967 -2.4525 -7.4919 9.0941 47.5069
#
#
#
# Elastic Compliance Matrix: (Units=1/GPa)
#
#
# Indices 1 2 3 4 5 6 
#
# 1 0.008615 -0.001124 -0.001657 0.000252 0.000442 0.001043
# 2 -0.001124 0.009258 -0.003129 0.000673 -0.000517 0.002824
# 3 -0.001657 -0.003129 0.013435 -0.013414 -0.005874 -0.001600
# 4 0.000252 0.000673 -0.013414 0.047874 0.013575 0.004520
# 5 0.000442 -0.000517 -0.005874 0.013575 0.022529 -0.002563
# 6 0.001043 0.002824 -0.001600 0.004520 -0.002563 0.023265
#
#
# Mechanical properties :
#
#
# Convention : Reuss Voigt Hill
#
# Bulk Modulus (GPa) = 51.31240 64.68051 57.99646
# Shear Modulus (GPa) = 34.89344 46.40126 40.64735
#
# Velocity S-wave (km/s) = 3.65521 4.21508 3.94509
# Velocity P-wave (km/s) = 6.12058 6.96098 6.55426
#
# Compressibility (1/GPa) = 0.01948847
#
# Stress axis : x y z
#
# Youngs Moduli (GPa) = 116.07634 108.01145 74.42974
#
# Poissons Ratio (x) = 0.12136 0.12334
# Poissons Ratio (y) = 0.13042 0.23292
# Poissons Ratio (z) = 0.19236 0.33801
#
# Static dielectric constant tensor:
#      x y z
#    x 2.100450 0.104680 -0.063320 
#    y 0.104680 2.230080 0.004190 
#    z -0.063320 0.004190 2.119250 
# 
# From -- ./inp_files/360210.got.cif
#   From: 2010.05.17/outbox.cif.g08.bks.cpg/sg2_181_cif.got.tgz:360210.got - 2010.06.03 11:33:40.
