data_PCOD9028154
_publ_section_title
;
Structure prediction by ZEFSAII (Michael W. Deem and Ramdas Pophale) SiO2 
 PCOD9028154
Probable space group: P -1
;
_chemical_formula_sum "Si O2"
_cell_formula_units_Z 13
_cell_length_a 5.033068
_cell_length_b 12.463281
_cell_length_c 10.528320
_cell_angle_alpha 61.865655
_cell_angle_beta 83.320887
_cell_angle_gamma 73.542123
_cell_volume 558.414784
_symmetry_space_group_name_H-M "P -1"
_symmetry_group_IT_number 2
_symmetry_cell_setting 'triclinic'
loop_
_space_group_symop_operation_xyz
x,y,z
-x,-y,-z
loop_
_atom_site_type_symbol
_atom_site_label
_atom_site_fract_x
_atom_site_fract_y
_atom_site_fract_z
Si Si1 0.040814 0.354630 0.545153
Si Si2 0.196424 0.590894 0.959788
Si Si3 0.500000 0.000000 0.500000
Si Si4 0.972946 0.748993 0.127541
Si Si5 0.360982 0.888896 0.099159
Si Si6 0.441707 0.861137 0.388864
Si Si7 0.940633 0.217466 0.372272
O O1 0.362425 0.277867 0.558709
O O2 0.926578 0.310305 0.444643
O O3 0.000000 0.500000 0.500000
O O4 0.935708 0.301547 0.707967
O O5 0.157389 0.695924 0.792472
O O6 0.500000 0.500000 0.000000
O O7 0.111505 0.656426 0.062118
O O8 0.000000 0.500000 0.000000
O O9 0.388063 0.041544 0.631807
O O10 0.241542 0.123580 0.391909
O O11 0.107872 0.866974 0.045090
O O12 0.641019 0.774174 0.127666
O O13 0.287636 0.899990 0.246334
O O14 0.500000 0.000000 0.000000
O O15 0.268286 0.869245 0.526488
#
# Coordination Sequence:
#
# PCOD9028154 Si02
#       7
#     2   2   1   2   2   2   2
#     4  10  22  41  71  98 139 184 241 300 359 428
#     4  12  29  48  72 107 152 193 242 298 374 444
#     4  10  24  42  72 100 142 184 242 300 370 422
#     4  11  24  46  67 104 140 187 241 291 363 433
#     4  11  24  44  70  99 142 185 240 298 362 435
#     4  10  23  42  66 104 133 185 245 296 364 431
#     4  11  24  45  72 102 142 185 245 301 361 436
#
# _framework density 23.280186
#
# number of rings (size 3 to 8) (size 9 to 14) (size 15 to 20)
#    0.000    1.231    1.538    2.769    8.615    3.077 
#    0.000    0.000    0.000    0.000    0.000    0.000 
#    0.000    0.000    0.000    0.000    0.000    0.000 
#
# Total GULP energy -72373.629598 kJ/mol
# GULP energy per Si atom -5567.202277 kJ/mol
# Density = 2.322720 g / cm^3
# Si number density = 23.280186 Si / 1000 Ang^3
#
#
#
# Elastic Constant Matrix: (Units=GPa)
#
#
# Indices 1 2 3 4 5 6 
#
# 1 113.4453 21.7193 28.8233 -1.0456 -4.1608 -17.2492
# 2 21.7193 157.7049 34.8595 5.5726 4.2868 -18.9644
# 3 28.8233 34.8595 92.1204 -9.9005 -3.3290 -24.0852
# 4 -1.0456 5.5726 -9.9005 25.5087 -0.4027 -4.8187
# 5 -4.1608 4.2868 -3.3290 -0.4027 30.8029 -3.4329
# 6 -17.2492 -18.9644 -24.0852 -4.8187 -3.4329 38.9495
#
#
#
# Elastic Compliance Matrix: (Units=1/GPa)
#
#
# Indices 1 2 3 4 5 6 
#
# 1 0.009965 -0.000621 -0.001983 0.000379 0.001565 0.003069
# 2 -0.000621 0.007255 -0.002509 -0.002357 -0.001250 0.001304
# 3 -0.001983 -0.002509 0.015757 0.008314 0.002888 0.008927
# 4 0.000379 -0.002357 0.008314 0.044892 0.002977 0.009978
# 5 0.001565 -0.001250 0.002888 0.002977 0.033782 0.005216
# 6 0.003069 0.001304 0.008927 0.009978 0.005216 0.034883
#
#
# Mechanical properties :
#
#
# Convention : Reuss Voigt Hill
#
# Bulk Modulus (GPa) = 43.95240 59.34164 51.64702
# Shear Modulus (GPa) = 30.42404 37.57680 34.00042
#
# Velocity S-wave (km/s) = 3.61898 4.02196 3.82578
# Velocity P-wave (km/s) = 6.03187 6.86394 6.46131
#
# Compressibility (1/GPa) = 0.02275189
#
# Stress axis : x y z
#
# Youngs Moduli (GPa) = 100.34967 137.83360 63.46324
#
# Poissons Ratio (x) = 0.08558 0.12586
# Poissons Ratio (y) = 0.06230 0.15921
# Poissons Ratio (z) = 0.19902 0.34578
#
# Static dielectric constant tensor:
#      x y z
#    x 1.660300 -0.271640 -0.007380 
#    y -0.271640 1.602810 -0.071660 
#    z -0.007380 -0.071660 1.869780 
# 
# From -- ./inp_files/43709.got.cif
#   From: 2010.05.17/outbox.cif.g08.bks.cpg/sg2_22_cif.got.tgz:43709.got - 2010.06.03 11:33:40.
