data_PCOD9028809
_publ_section_title
;
Structure prediction by ZEFSAII (Michael W. Deem and Ramdas Pophale) SiO2 
 PCOD9028809
Probable space group: P -1
;
_chemical_formula_sum "Si O2"
_cell_formula_units_Z 16
_cell_length_a 5.249050
_cell_length_b 11.884662
_cell_length_c 11.812774
_cell_angle_alpha 65.644040
_cell_angle_beta 70.861717
_cell_angle_gamma 84.404509
_cell_volume 633.620018
_symmetry_space_group_name_H-M "P -1"
_symmetry_group_IT_number 2
_symmetry_cell_setting 'triclinic'
loop_
_space_group_symop_operation_xyz
x,y,z
-x,-y,-z
loop_
_atom_site_type_symbol
_atom_site_label
_atom_site_fract_x
_atom_site_fract_y
_atom_site_fract_z
Si Si1 0.903052 0.526287 0.747142
Si Si2 0.547250 0.843348 0.435078
Si Si3 0.291726 0.273835 0.142471
Si Si4 0.263253 0.886647 0.965170
Si Si5 0.122385 0.937739 0.619889
Si Si6 0.144236 0.302150 0.912175
Si Si7 0.455723 0.845326 0.201975
Si Si8 0.530286 0.569489 0.584128
O O1 0.728591 0.624040 0.800089
O O2 0.931508 0.394716 0.857915
O O3 0.743324 0.509078 0.660938
O O4 0.219223 0.574089 0.672703
O O5 0.378885 0.870045 0.561062
O O6 0.367605 0.839819 0.348022
O O7 0.652604 0.707970 0.489037
O O8 0.773173 0.954412 0.355217
O O9 0.552879 0.199162 0.103332
O O10 0.077667 0.164530 0.254909
O O11 0.234819 0.345414 0.004138
O O12 0.366802 0.025814 0.878286
O O13 0.969775 0.838190 0.990408
O O14 0.275799 0.855383 0.111228
O O15 0.000000 0.000000 0.500000
O O16 0.372269 0.275108 0.798831
O O17 0.500000 0.500000 0.500000
#
# Coordination Sequence:
#
# PCOD9028809 Si02
#       8
#     2   2   2   2   2   2   2   2
#     4  12  28  48  76 105 150 194 255 303 369 437
#     4  11  24  41  72  97 142 185 240 296 373 430
#     4  11  24  44  69 108 147 187 246 302 371 442
#     4  10  23  41  68 100 142 184 235 306 361 439
#     4  11  23  42  68 105 138 184 240 299 370 439
#     4  11  25  42  71  99 142 191 247 302 368 435
#     4  10  22  42  65 104 134 186 238 300 369 437
#     4  12  28  50  73 109 149 199 248 306 364 444
#
# _framework density 25.251729000000001
#
# number of rings (size 3 to 8) (size 9 to 14) (size 15 to 20)
#    0.000    1.000    1.250    4.125    7.000    5.500 
#    0.000    0.000    0.000    0.000    0.000    0.000 
#    0.000    0.000    0.000    0.000    0.000    0.000 
#
# Total GULP energy -89503.431781 kJ/mol
# GULP energy per Si atom -5593.964486 kJ/mol
# Density = 2.519426 g / cm^3
# Si number density = 25.251729 Si / 1000 Ang^3
#
#
#
# Elastic Constant Matrix: (Units=GPa)
#
#
# Indices 1 2 3 4 5 6 
#
# 1 53.8477 10.1655 13.4547 5.1376 12.9808 -2.6706
# 2 10.1655 115.4544 26.5803 -5.4153 3.1921 -0.9645
# 3 13.4547 26.5803 83.6942 9.3160 11.8286 -2.2753
# 4 5.1376 -5.4153 9.3160 37.9689 5.2591 0.3157
# 5 12.9808 3.1921 11.8286 5.2591 32.6962 -5.8511
# 6 -2.6706 -0.9645 -2.2753 0.3157 -5.8511 37.9052
#
#
#
# Elastic Compliance Matrix: (Units=1/GPa)
#
#
# Indices 1 2 3 4 5 6 
#
# 1 0.021199 -0.001332 -0.001761 -0.001610 -0.007348 0.000233
# 2 -0.001332 0.009597 -0.003138 0.002269 0.000362 -0.000001
# 3 -0.001761 -0.003138 0.014087 -0.003174 -0.003559 0.000119
# 4 -0.001610 0.002269 -0.003174 0.028098 -0.003126 -0.000963
# 5 -0.007348 0.000362 -0.003559 -0.003126 0.036131 0.004881
# 6 0.000233 -0.000001 0.000119 -0.000963 0.004881 0.027167
#
#
# Mechanical properties :
#
#
# Convention : Reuss Voigt Hill
#
# Bulk Modulus (GPa) = 30.84183 39.26639 35.05411
# Shear Modulus (GPa) = 31.33863 35.23377 33.28620
#
# Velocity S-wave (km/s) = 3.52667 3.73943 3.63461
# Velocity P-wave (km/s) = 5.36875 5.85048 5.61479
#
# Compressibility (1/GPa) = 0.03242350
#
# Stress axis : x y z
#
# Youngs Moduli (GPa) = 47.17217 104.19447 70.98563
#
# Poissons Ratio (x) = 0.13874 0.12500
# Poissons Ratio (y) = 0.06281 0.22273
# Poissons Ratio (z) = 0.08307 0.32693
#
# Static dielectric constant tensor:
#      x y z
#    x 2.046910 -0.009940 -0.044270 
#    y -0.009940 1.960950 -0.008680 
#    z -0.044270 -0.008680 2.027110 
# 
# From -- ./inp_files/111047.got.cif
#   From: 2010.05.17/outbox.cif.g08.bks.cpg/sg2_56_cif.got.tgz:111047.got - 2010.06.03 11:33:40.
