data_PCOD9028897
_publ_section_title
;
Structure prediction by ZEFSAII (Michael W. Deem and Ramdas Pophale) SiO2 
 PCOD9028897
Probable space group: P -1
;
_chemical_formula_sum "Si O2"
_cell_formula_units_Z 14
_cell_length_a 19.193964
_cell_length_b 16.229282
_cell_length_c 16.928088
_cell_angle_alpha 23.328200
_cell_angle_beta 158.701117
_cell_angle_gamma 158.894338
_cell_volume 639.368671
_symmetry_space_group_name_H-M "P -1"
_symmetry_group_IT_number 2
_symmetry_cell_setting 'triclinic'
loop_
_space_group_symop_operation_xyz
x,y,z
-x,-y,-z
loop_
_atom_site_type_symbol
_atom_site_label
_atom_site_fract_x
_atom_site_fract_y
_atom_site_fract_z
Si Si1 0.403364 0.805468 0.167254
Si Si2 0.290299 0.528035 0.452567
Si Si3 0.300350 0.551632 0.749595
Si Si4 0.525375 0.275885 0.985930
Si Si5 0.654771 0.014027 0.797719
Si Si6 0.007648 0.383499 0.738156
Si Si7 0.866142 0.093735 0.326533
O O1 0.635963 0.864038 0.321638
O O2 0.317005 0.607433 0.319347
O O3 0.468406 0.059514 0.055991
O O4 0.221506 0.766168 0.943848
O O5 0.473190 0.463365 0.725951
O O6 0.040040 0.281799 0.409877
O O7 0.327679 0.751015 0.349614
O O8 0.427247 0.835002 0.665249
O O9 0.122489 0.379865 0.780405
O O10 0.167029 0.536773 0.543040
O O11 0.500000 0.500000 0.000000
O O12 0.365984 0.154725 0.001784
O O13 0.783108 0.415514 0.165322
O O14 0.867319 0.129360 0.861753
O O15 0.000000 0.000000 0.500000
#
# Coordination Sequence:
#
# PCOD9028897 Si02
#       7
#     2   2   2   2   2   2   2
#     4  10  23  43  64  94 130 164 217 262 310 380
#     4  11  23  42  67  91 130 170 207 262 321 370
#     4  10  23  44  67  94 129 163 214 262 311 379
#     4  10  22  43  61  97 128 165 214 261 312 381
#     4  10  23  41  65  92 126 164 213 258 310 380
#     4  10  22  42  65  94 127 165 209 260 315 372
#     4  11  22  42  68  93 128 169 212 264 315 371
#
# _framework density 21.896599999999999
#
# number of rings (size 3 to 8) (size 9 to 14) (size 15 to 20)
#    0.000    1.714    1.429    1.714    4.000    2.286 
#   12.857    0.000    0.000    0.000    0.000    0.000 
#    0.000    0.000    0.000    0.000    0.000    0.000 
#
# Total GULP energy -78240.031618 kJ/mol
# GULP energy per Si atom -5588.573687 kJ/mol
# Density = 2.184676 g / cm^3
# Si number density = 21.896600 Si / 1000 Ang^3
#
#
#
# Elastic Constant Matrix: (Units=GPa)
#
#
# Indices 1 2 3 4 5 6 
#
# 1 75.5030 26.4614 16.5650 7.4354 0.3136 26.3234
# 2 26.4614 97.7811 31.4953 16.8327 0.8287 -0.2583
# 3 16.5650 31.4953 82.6064 29.9647 5.2114 -4.2534
# 4 7.4354 16.8327 29.9647 31.4662 -1.2458 -7.0273
# 5 0.3136 0.8287 5.2114 -1.2458 27.9822 3.5635
# 6 26.3234 -0.2583 -4.2534 -7.0273 3.5635 49.2795
#
#
#
# Elastic Compliance Matrix: (Units=1/GPa)
#
#
# Indices 1 2 3 4 5 6 
#
# 1 0.019213 -0.004132 -0.001873 -0.002936 0.001523 -0.010975
# 2 -0.004132 0.012768 -0.002989 -0.002643 -0.000103 0.001647
# 3 -0.001873 -0.002989 0.020182 -0.017222 -0.004492 0.000596
# 4 -0.002936 -0.002643 -0.017222 0.052073 0.004726 0.007152
# 5 0.001523 -0.000103 -0.004492 0.004726 0.037180 -0.003216
# 6 -0.010975 0.001647 0.000596 0.007152 -0.003216 0.027467
#
#
# Mechanical properties :
#
#
# Convention : Reuss Voigt Hill
#
# Bulk Modulus (GPa) = 29.26247 44.99263 37.12755
# Shear Modulus (GPa) = 25.21879 33.83682 29.52780
#
# Velocity S-wave (km/s) = 3.39738 3.93530 3.67619
# Velocity P-wave (km/s) = 5.36494 6.42192 5.91708
#
# Compressibility (1/GPa) = 0.03417346
#
# Stress axis : x y z
#
# Youngs Moduli (GPa) = 52.04813 78.31833 49.54848
#
# Poissons Ratio (x) = 0.32365 0.09282
# Poissons Ratio (y) = 0.21509 0.14812
# Poissons Ratio (z) = 0.09750 0.23412
#
# Static dielectric constant tensor:
#      x y z
#    x 1.845530 0.013490 -0.004920 
#    y 0.013490 1.789820 -0.009610 
#    z -0.004920 -0.009610 1.767400 
# 
# From -- ./inp_files/11465.got.cif
#   From: 2010.05.17/outbox.cif.g08.bks.cpg/sg2_6_cif.got.tgz:11465.got - 2010.06.03 11:33:40.
