data_PCOD9028434
_publ_section_title
;
Structure prediction by ZEFSAII (Michael W. Deem and Ramdas Pophale) SiO2 
 PCOD9028434
Probable space group: P -1
;
_chemical_formula_sum "Si O2"
_cell_formula_units_Z 12
_cell_length_a 9.035110
_cell_length_b 12.049948
_cell_length_c 8.705179
_cell_angle_alpha 128.270557
_cell_angle_beta 114.209735
_cell_angle_gamma 52.103124
_cell_volume 586.492966
_symmetry_space_group_name_H-M "P -1"
_symmetry_group_IT_number 2
_symmetry_cell_setting 'triclinic'
loop_
_space_group_symop_operation_xyz
x,y,z
-x,-y,-z
loop_
_atom_site_type_symbol
_atom_site_label
_atom_site_fract_x
_atom_site_fract_y
_atom_site_fract_z
Si Si1 0.945052 0.870398 0.925653
Si Si2 0.912591 0.261892 0.631513
Si Si3 0.507504 0.149175 0.552457
Si Si4 0.695856 0.342822 0.905230
Si Si5 0.758203 0.031139 0.284823
Si Si6 0.095619 0.347317 0.520939
O O1 0.879965 0.804462 0.700378
O O2 0.134011 0.723053 0.957816
O O3 0.787991 0.954725 0.063761
O O4 0.000000 0.000000 0.000000
O O5 0.772040 0.369201 0.798409
O O6 0.821764 0.167495 0.424606
O O7 0.972841 0.357593 0.623795
O O8 0.095145 0.117422 0.670787
O O9 0.655948 0.193221 0.727351
O O10 0.565280 0.109488 0.364059
O O11 0.302394 0.305459 0.619107
O O12 0.500000 0.000000 0.500000
O O13 0.500000 0.500000 0.000000
O O14 0.000000 0.500000 0.500000
#
# Coordination Sequence:
#
# PCOD9028434 Si02
#       6
#     2   2   2   2   2   2
#     4  11  21  39  64  87 117 153 202 244 283 350
#     4   9  18  38  63  81 117 161 197 227 292 366
#     4  11  21  39  64  87 117 153 202 244 283 350
#     4  10  22  42  62  84 113 163 204 228 282 369
#     4   9  18  37  64  86 106 162 208 228 276 360
#     4  12  24  39  57  94 128 148 182 258 314 324
#
# _framework density 20.460602999999999
#
# number of rings (size 3 to 8) (size 9 to 14) (size 15 to 20)
#    0.000    1.667    3.333    3.000    0.000    0.667 
#    6.000    5.000    0.000    0.000    0.000    0.000 
#    0.000    0.000    0.000    0.000    0.000    0.000 
#
# Total GULP energy -67032.329069 kJ/mol
# GULP energy per Si atom -5586.027422 kJ/mol
# Density = 2.041403 g / cm^3
# Si number density = 20.460603 Si / 1000 Ang^3
#
#
#
# Elastic Constant Matrix: (Units=GPa)
#
#
# Indices 1 2 3 4 5 6 
#
# 1 145.2708 34.4888 14.8817 -0.1698 -30.8195 12.0476
# 2 34.4888 61.1278 -13.4404 4.9982 -15.6277 4.2727
# 3 14.8817 -13.4404 53.6419 -4.1265 -12.1252 -1.3869
# 4 -0.1698 4.9982 -4.1265 22.9902 -6.5783 -1.1198
# 5 -30.8195 -15.6277 -12.1252 -6.5783 36.4826 1.0298
# 6 12.0476 4.2727 -1.3869 -1.1198 1.0298 32.1902
#
#
#
# Elastic Compliance Matrix: (Units=1/GPa)
#
#
# Indices 1 2 3 4 5 6 
#
# 1 0.009726 -0.004415 -0.002360 0.002172 0.006025 -0.003273
# 2 -0.004415 0.023347 0.009034 -0.000938 0.009144 -0.001383
# 3 -0.002360 0.009034 0.024494 0.005593 0.011009 0.000582
# 4 0.002172 -0.000938 0.005593 0.048183 0.011957 0.000846
# 5 0.006025 0.009144 0.011009 0.011957 0.042342 -0.003933
# 6 -0.003273 -0.001383 0.000582 0.000846 -0.003933 0.032654
#
#
# Mechanical properties :
#
#
# Convention : Reuss Voigt Hill
#
# Bulk Modulus (GPa) = 16.10708 36.87787 26.49248
# Shear Modulus (GPa) = 25.39049 33.27329 29.33189
#
# Velocity S-wave (km/s) = 3.52653 4.03701 3.79037
# Velocity P-wave (km/s) = 4.94684 6.30816 5.66851
#
# Compressibility (1/GPa) = 0.06208448
#
# Stress axis : x y z
#
# Youngs Moduli (GPa) = 102.82060 42.83150 40.82615
#
# Poissons Ratio (x) = 0.18910 0.09635
# Poissons Ratio (y) = 0.45394 -0.36881
# Poissons Ratio (z) = 0.24266 -0.38692
#
# Static dielectric constant tensor:
#      x y z
#    x 1.728870 -0.018520 0.001260 
#    y -0.018520 1.714350 0.022200 
#    z 0.001260 0.022200 1.756350 
# 
# From -- ./inp_files/145642.got.cif
#   From: 2010.05.17/outbox.cif.g08.bks.cpg/sg2_73_cif.got.tgz:145642.got - 2010.06.03 11:33:40.
