data_PCOD9028746
_publ_section_title
;
Structure prediction by ZEFSAII (Michael W. Deem and Ramdas Pophale) SiO2 
 PCOD9028746
Probable space group: P -1
;
_chemical_formula_sum "Si O2"
_cell_formula_units_Z 16
_cell_length_a 14.893295
_cell_length_b 22.482169
_cell_length_c 8.292502
_cell_angle_alpha 147.173837
_cell_angle_beta 53.043191
_cell_angle_gamma 150.275441
_cell_volume 655.446026
_symmetry_space_group_name_H-M "P -1"
_symmetry_group_IT_number 2
_symmetry_cell_setting 'triclinic'
loop_
_space_group_symop_operation_xyz
x,y,z
-x,-y,-z
loop_
_atom_site_type_symbol
_atom_site_label
_atom_site_fract_x
_atom_site_fract_y
_atom_site_fract_z
Si Si1 0.092848 0.459193 0.320113
Si Si2 0.701532 0.208920 0.666662
Si Si3 0.539355 0.155363 0.374202
Si Si4 0.279823 0.156344 0.745392
Si Si5 0.244722 0.217021 0.261525
Si Si6 0.068591 0.390706 0.543003
Si Si7 0.138145 0.294000 0.772037
Si Si8 0.634511 0.532849 0.746871
O O1 0.329955 0.682124 0.540224
O O2 0.004022 0.340000 0.309871
O O3 0.000000 0.500000 0.500000
O O4 0.034610 0.327469 0.941855
O O5 0.651104 0.221945 0.576503
O O6 0.867918 0.246864 0.541843
O O7 0.500000 0.000000 0.500000
O O8 0.801180 0.391074 0.073590
O O9 0.378027 0.120876 0.508853
O O10 0.500000 0.000000 0.000000
O O11 0.339872 0.242826 0.058802
O O12 0.332260 0.309160 0.939790
O O13 0.033937 0.933194 0.505195
O O14 0.240366 0.340693 0.602784
O O15 0.399667 0.304862 0.438347
O O16 0.000000 0.000000 0.000000
O O17 0.216860 0.405345 0.405743
O O18 0.289326 0.432399 0.076265
#
# Coordination Sequence:
#
# PCOD9028746 Si02
#       8
#     2   2   2   2   2   2   2   2
#     4  11  21  42  69  98 141 187 241 301 350 422
#     4  11  24  47  69 104 146 190 239 298 365 432
#     4  12  25  42  72 101 139 186 245 296 359 433
#     4  11  24  43  65 103 144 183 242 298 363 434
#     4  10  22  42  64  97 134 183 235 286 362 430
#     4  10  24  45  70 105 143 191 244 292 370 431
#     4  10  23  41  67 102 139 190 238 294 363 431
#     4  11  22  43  70  98 147 183 237 307 360 429
#
# _framework density 24.410855000000002
#
# number of rings (size 3 to 8) (size 9 to 14) (size 15 to 20)
#    0.000    1.250    1.250    4.125    1.750    2.000 
#   11.250    0.000    0.000    0.000    0.000    0.000 
#    0.000    0.000    0.000    0.000    0.000    0.000 
#
# Total GULP energy -89100.824116 kJ/mol
# GULP energy per Si atom -5568.801507 kJ/mol
# Density = 2.435530 g / cm^3
# Si number density = 24.410855 Si / 1000 Ang^3
#
#
#
# Elastic Constant Matrix: (Units=GPa)
#
#
# Indices 1 2 3 4 5 6 
#
# 1 74.5249 27.3376 42.8189 -6.9129 -0.2991 17.0608
# 2 27.3376 167.0194 73.9478 -12.8240 -9.0346 31.3241
# 3 42.8189 73.9478 139.8560 -28.9227 -16.5403 14.3162
# 4 -6.9129 -12.8240 -28.9227 56.5163 6.5498 -8.6695
# 5 -0.2991 -9.0346 -16.5403 6.5498 44.3600 -5.9795
# 6 17.0608 31.3241 14.3162 -8.6695 -5.9795 33.8520
#
#
#
# Elastic Compliance Matrix: (Units=1/GPa)
#
#
# Indices 1 2 3 4 5 6 
#
# 1 0.018220 0.000923 -0.005846 -0.001527 -0.002782 -0.008446
# 2 0.000923 0.009183 -0.004726 -0.001279 -0.000696 -0.007414
# 3 -0.005846 -0.004726 0.012436 0.004774 0.003455 0.003893
# 4 -0.001527 -0.001279 0.004774 0.020531 -0.000842 0.005043
# 5 -0.002782 -0.000696 0.003455 -0.000842 0.024426 0.004684
# 6 -0.008446 -0.007414 0.003893 0.005043 0.004684 0.041130
#
#
# Mechanical properties :
#
#
# Convention : Reuss Voigt Hill
#
# Bulk Modulus (GPa) = 48.68525 74.40101 61.54313
# Shear Modulus (GPa) = 32.87883 42.76539 37.82211
#
# Velocity S-wave (km/s) = 3.67399 4.19011 3.94051
# Velocity P-wave (km/s) = 6.16319 7.34535 6.78009
#
# Compressibility (1/GPa) = 0.02054010
#
# Stress axis : x y z
#
# Youngs Moduli (GPa) = 54.88571 108.89135 80.40991
#
# Poissons Ratio (x) = -0.10046 0.47010
# Poissons Ratio (y) = -0.05064 0.38001
# Poissons Ratio (z) = 0.32088 0.51461
#
# Static dielectric constant tensor:
#      x y z
#    x 2.099220 0.086100 -0.027990 
#    y 0.086100 2.073030 0.036540 
#    z -0.027990 0.036540 2.030830 
# 
# From -- ./inp_files/320353.got.cif
#   From: 2010.05.17/outbox.cif.g08.bks.cpg/sg2_161_cif.got.tgz:320353.got - 2010.06.03 11:33:40.
