data_PCOD9028248
_publ_section_title
;
Structure prediction by ZEFSAII (Michael W. Deem and Ramdas Pophale) SiO2 
 PCOD9028248
Probable space group: P -1
;
_chemical_formula_sum "Si O2"
_cell_formula_units_Z 13
_cell_length_a 11.639749
_cell_length_b 18.583210
_cell_length_c 8.372786
_cell_angle_alpha 143.795072
_cell_angle_beta 48.773288
_cell_angle_gamma 148.672625
_cell_volume 553.491908
_symmetry_space_group_name_H-M "P -1"
_symmetry_group_IT_number 2
_symmetry_cell_setting 'triclinic'
loop_
_space_group_symop_operation_xyz
x,y,z
-x,-y,-z
loop_
_atom_site_type_symbol
_atom_site_label
_atom_site_fract_x
_atom_site_fract_y
_atom_site_fract_z
Si Si1 0.652732 0.850507 0.945928
Si Si2 0.179660 0.498505 0.836605
Si Si3 0.091939 0.211827 0.253451
Si Si4 0.293029 0.225142 0.773258
Si Si5 0.798384 0.610614 0.047828
Si Si6 0.000000 0.500000 0.500000
Si Si7 0.487813 0.137381 0.251226
O O1 0.420248 0.699024 0.978117
O O2 0.771383 0.787505 0.740973
O O3 0.597885 0.863788 0.843065
O O4 0.828244 0.044224 0.212186
O O5 0.162874 0.393483 0.517995
O O6 0.134934 0.390026 0.837150
O O7 0.000000 0.500000 0.000000
O O8 0.152196 0.179006 0.974317
O O9 0.193314 0.245142 0.754151
O O10 0.332671 0.109571 0.478671
O O11 0.539294 0.421412 0.933257
O O12 0.946324 0.612243 0.800948
O O13 0.736378 0.328821 0.394407
O O14 0.500000 0.000000 0.000000
#
# Coordination Sequence:
#
# PCOD9028248 Si02
#       7
#     2   2   2   2   2   1   2
#     4  11  26  48  71 106 140 189 238 288 354 428
#     4  12  26  45  72 103 144 189 230 292 358 421
#     4  11  26  48  72 103 147 184 238 293 348 424
#     4  10  23  43  73 101 136 185 237 292 346 415
#     4  10  22  41  73 103 133 185 239 284 350 419
#     4  10  24  46  72 102 140 178 238 288 354 408
#     4  11  26  47  70 104 141 182 238 292 350 419
#
# _framework density 23.487244
#
# number of rings (size 3 to 8) (size 9 to 14) (size 15 to 20)
#    0.000    1.231    1.538    2.308   10.769    2.462 
#   11.077    0.000    0.000    0.000    0.000    0.000 
#    0.000    0.000    0.000    0.000    0.000    0.000 
#
# Total GULP energy -72481.831661 kJ/mol
# GULP energy per Si atom -5575.525512 kJ/mol
# Density = 2.343379 g / cm^3
# Si number density = 23.487244 Si / 1000 Ang^3
#
#
#
# Elastic Constant Matrix: (Units=GPa)
#
#
# Indices 1 2 3 4 5 6 
#
# 1 133.7529 58.9636 69.0294 -15.1097 -5.8209 0.8320
# 2 58.9636 93.4007 24.0609 4.4086 -9.1456 32.5590
# 3 69.0294 24.0609 114.7527 -14.9032 -33.0013 -5.6753
# 4 -15.1097 4.4086 -14.9032 20.3081 5.0834 5.9958
# 5 -5.8209 -9.1456 -33.0013 5.0834 24.9329 0.5335
# 6 0.8320 32.5590 -5.6753 5.9958 0.5335 44.3883
#
#
#
# Elastic Compliance Matrix: (Units=1/GPa)
#
#
# Indices 1 2 3 4 5 6 
#
# 1 0.022607 -0.016140 -0.014748 0.012866 -0.022958 0.008068
# 2 -0.016140 0.027737 0.006586 -0.012479 0.018047 -0.017732
# 3 -0.014748 0.006586 0.025403 -0.001567 0.032948 -0.001491
# 4 0.012866 -0.012479 -0.001567 0.064522 -0.016807 0.000199
# 5 -0.022958 0.018047 0.032948 -0.016807 0.088562 -0.007389
# 6 0.008068 -0.017732 -0.001491 0.000199 -0.007389 0.035255
#
#
# Mechanical properties :
#
#
# Convention : Reuss Voigt Hill
#
# Bulk Modulus (GPa) = 36.84275 71.77936 54.31105
# Shear Modulus (GPa) = 15.54067 30.58268 23.06167
#
# Velocity S-wave (km/s) = 2.57507 3.61237 3.13690
# Velocity P-wave (km/s) = 4.95597 6.93010 6.02445
#
# Compressibility (1/GPa) = 0.02714238
#
# Stress axis : x y z
#
# Youngs Moduli (GPa) = 44.23389 36.05342 39.36568
#
# Poissons Ratio (x) = 0.58192 0.58055
# Poissons Ratio (y) = 0.71395 -0.25926
# Poissons Ratio (z) = 0.65234 -0.23744
#
# Static dielectric constant tensor:
#      x y z
#    x 1.885010 -0.042810 0.054590 
#    y -0.042810 1.894340 -0.001720 
#    z 0.054590 -0.001720 1.914000 
# 
# From -- ./inp_files/262648.got.cif
#   From: 2010.05.17/outbox.cif.g08.bks.cpg/sg2_132_cif.got.tgz:262648.got - 2010.06.03 11:33:40.
