data_PCOD9028728
_publ_section_title
;
Structure prediction by ZEFSAII (Michael W. Deem and Ramdas Pophale) SiO2 
 PCOD9028728
Probable space group: P -1
;
_chemical_formula_sum "Si O2"
_cell_formula_units_Z 15
_cell_length_a 12.245074
_cell_length_b 12.383567
_cell_length_c 11.367204
_cell_angle_alpha 77.506735
_cell_angle_beta 125.947182
_cell_angle_gamma 57.705845
_cell_volume 746.291120
_symmetry_space_group_name_H-M "P -1"
_symmetry_group_IT_number 2
_symmetry_cell_setting 'triclinic'
loop_
_space_group_symop_operation_xyz
x,y,z
-x,-y,-z
loop_
_atom_site_type_symbol
_atom_site_label
_atom_site_fract_x
_atom_site_fract_y
_atom_site_fract_z
Si Si1 0.946710 0.823113 0.533218
Si Si2 0.500000 0.500000 0.000000
Si Si3 0.005518 0.524076 0.635930
Si Si4 0.902239 0.199649 0.620267
Si Si5 0.646254 0.515286 0.788089
Si Si6 0.830322 0.149192 0.967748
Si Si7 0.698077 0.539685 0.546602
Si Si8 0.544094 0.715509 0.890811
O O1 0.926269 0.705568 0.561504
O O2 0.198819 0.692932 0.780728
O O3 0.988895 0.821069 0.422262
O O4 0.701079 0.054551 0.360213
O O5 0.475141 0.652610 0.934387
O O6 0.833604 0.557199 0.589086
O O7 0.000000 0.500000 0.500000
O O8 0.282563 0.328265 0.908185
O O9 0.626657 0.344200 0.384703
O O10 0.863785 0.320841 0.665142
O O11 0.065548 0.990052 0.824382
O O12 0.817999 0.289173 0.948075
O O13 0.641112 0.568228 0.641804
O O14 0.696535 0.570085 0.907036
O O15 0.554492 0.301835 0.723012
O O16 0.000000 0.000000 0.000000
#
# Coordination Sequence:
#
# PCOD9028728 Si02
#       8
#     2   1   2   2   2   2   2   2
#     4  11  24  42  67  98 130 168 218 267 330 388
#     4  10  22  42  64  96 132 164 208 272 324 378
#     4  11  26  46  63  92 131 177 223 270 317 388
#     4  11  21  37  66 100 126 165 214 269 332 377
#     4  11  23  41  64  98 136 162 216 275 325 391
#     4  11  21  38  67 103 125 168 217 266 331 381
#     4  11  23  43  63  94 134 170 219 269 322 380
#     4  11  26  41  63 100 131 175 215 261 337 388
#
# _framework density 20.099397
#
# number of rings (size 3 to 8) (size 9 to 14) (size 15 to 20)
#    0.000    1.067    5.333    1.200    3.733    3.200 
#    0.000    0.667    0.000    0.000    0.000    0.000 
#    0.000    0.000    0.000    0.000    0.000    0.000 
#
# Total GULP energy -83599.727943 kJ/mol
# GULP energy per Si atom -5573.315196 kJ/mol
# Density = 2.005365 g / cm^3
# Si number density = 20.099397 Si / 1000 Ang^3
#
#
#
# Elastic Constant Matrix: (Units=GPa)
#
#
# Indices 1 2 3 4 5 6 
#
# 1 39.2907 11.5416 -0.3847 -8.5737 21.7851 10.5553
# 2 11.5416 88.5552 40.2529 -8.6590 12.3334 -4.8929
# 3 -0.3847 40.2529 87.0775 -21.5487 5.7304 12.8899
# 4 -8.5737 -8.6590 -21.5487 37.4874 8.1335 -7.9912
# 5 21.7851 12.3334 5.7304 8.1335 20.6457 5.8810
# 6 10.5553 -4.8929 12.8899 -7.9912 5.8810 28.6795
#
#
#
# Elastic Compliance Matrix: (Units=1/GPa)
#
#
# Indices 1 2 3 4 5 6 
#
# 1 0.354115 0.004813 0.092371 0.242842 -0.497456 -0.001351
# 2 0.004813 0.017755 -0.006411 0.008122 -0.020103 0.010525
# 3 0.092371 -0.006411 0.042069 0.070674 -0.131041 -0.007435
# 4 0.242842 0.008122 0.070674 0.206853 -0.365880 0.012910
# 5 -0.497456 -0.020103 -0.131041 -0.365880 0.772054 -0.021714
# 6 -0.001351 0.010525 -0.007435 0.012910 -0.021714 0.048552
#
#
# Mechanical properties :
#
#
# Convention : Reuss Voigt Hill
#
# Bulk Modulus (GPa) = 1.67930 35.30480 18.49205
# Shear Modulus (GPa) = 3.42854 28.26343 15.84598
#
# Velocity S-wave (km/s) = 1.30748 3.75398 2.81086
# Velocity P-wave (km/s) = 1.76540 6.03266 4.44464
#
# Compressibility (1/GPa) = 0.59548521
#
# Stress axis : x y z
#
# Youngs Moduli (GPa) = 2.82394 56.32250 23.77027
#
# Poissons Ratio (x) = -0.27109 -2.19569
# Poissons Ratio (y) = -0.01359 0.15240
# Poissons Ratio (z) = -0.26085 0.36110
#
# Static dielectric constant tensor:
#      x y z
#    x 1.686130 -0.018960 -0.031400 
#    y -0.018960 1.740150 0.020230 
#    z -0.031400 0.020230 1.742080 
# 
# From -- ./inp_files/118135.got.cif
#   From: 2010.05.17/outbox.cif.g08.bks.cpg/sg2_60_cif.got.tgz:118135.got - 2010.06.03 11:33:40.
