data_PCOD9028394
_publ_section_title
;
Structure prediction by ZEFSAII (Michael W. Deem and Ramdas Pophale) SiO2 
 PCOD9028394
Probable space group: P -1
;
_chemical_formula_sum "Si O2"
_cell_formula_units_Z 16
_cell_length_a 8.294592
_cell_length_b 13.346364
_cell_length_c 6.848332
_cell_angle_alpha 94.681988
_cell_angle_beta 96.044319
_cell_angle_gamma 71.689047
_cell_volume 714.792953
_symmetry_space_group_name_H-M "P -1"
_symmetry_group_IT_number 2
_symmetry_cell_setting 'triclinic'
loop_
_space_group_symop_operation_xyz
x,y,z
-x,-y,-z
loop_
_atom_site_type_symbol
_atom_site_label
_atom_site_fract_x
_atom_site_fract_y
_atom_site_fract_z
Si Si1 0.420981 0.857380 0.060664
Si Si2 0.163638 0.538953 0.018664
Si Si3 0.974392 0.261289 0.691854
Si Si4 0.371148 0.400767 0.334961
Si Si5 0.663110 0.777433 0.421869
Si Si6 0.307295 0.106658 0.190887
Si Si7 0.254463 0.608818 0.623258
Si Si8 0.051120 0.874977 0.008773
O O1 0.503795 0.796084 0.259044
O O2 0.360806 0.982314 0.127100
O O3 0.568618 0.845497 0.915645
O O4 0.250552 0.830802 0.966782
O O5 0.307842 0.441607 0.118234
O O6 0.122005 0.644553 0.159590
O O7 0.206416 0.570311 0.816333
O O8 0.000000 0.500000 0.000000
O O9 0.171690 0.249653 0.697286
O O10 0.891615 0.296748 0.477780
O O11 0.953836 0.157207 0.770374
O O12 0.312242 0.314481 0.429836
O O13 0.299390 0.506099 0.472997
O O14 0.573288 0.361329 0.346506
O O15 0.660042 0.876158 0.574934
O O16 0.105764 0.155302 0.117894
O O17 0.000000 0.000000 0.000000
#
# Coordination Sequence:
#
# PCOD9028394 Si02
#       8
#     2   2   2   2   2   2   2   2
#     4  10  22  44  64  91 129 169 217 268 322 385
#     4  11  23  39  63  90 126 167 208 257 321 378
#     4  11  24  39  63  93 127 167 211 265 316 384
#     4  10  23  39  61  94 122 169 209 266 316 379
#     4  12  23  39  67  95 130 165 220 267 325 386
#     4  10  23  42  65  93 128 170 213 271 326 382
#     4  10  22  42  61  88 133 161 215 262 314 384
#     4  10  22  44  66  91 131 171 212 270 324 380
#
# _framework density 22.384105000000002
#
# number of rings (size 3 to 8) (size 9 to 14) (size 15 to 20)
#    0.000    1.500    1.250    3.000    3.500    4.000 
#    2.250    1.250    0.000    0.000    0.000    0.000 
#    0.000    0.000    0.000    0.000    0.000    0.000 
#
# Total GULP energy -89410.684414 kJ/mol
# GULP energy per Si atom -5588.167776 kJ/mol
# Density = 2.233316 g / cm^3
# Si number density = 22.384105 Si / 1000 Ang^3
#
#
#
# Elastic Constant Matrix: (Units=GPa)
#
#
# Indices 1 2 3 4 5 6 
#
# 1 130.7464 22.9374 39.2633 -12.6741 -2.5023 -8.3797
# 2 22.9374 58.6326 31.1522 -23.8120 -7.5094 -2.3332
# 3 39.2633 31.1522 111.7587 -28.9132 -10.0081 -10.1701
# 4 -12.6741 -23.8120 -28.9132 32.2708 7.8071 -5.5638
# 5 -2.5023 -7.5094 -10.0081 7.8071 34.7227 -14.8288
# 6 -8.3797 -2.3332 -10.1701 -5.5638 -14.8288 29.2785
#
#
#
# Elastic Compliance Matrix: (Units=1/GPa)
#
#
# Indices 1 2 3 4 5 6 
#
# 1 0.008834 -0.002095 -0.002329 0.000075 0.000210 0.001673
# 2 -0.002095 0.026507 -0.001037 0.017965 0.004075 0.006631
# 3 -0.002329 -0.001037 0.014265 0.011436 0.004941 0.008881
# 4 0.000075 0.017965 0.011436 0.057067 0.001664 0.017113
# 5 0.000210 0.004075 0.004941 0.001664 0.040549 0.022954
# 6 0.001673 0.006631 0.008881 0.017113 0.022954 0.053125
#
#
# Mechanical properties :
#
#
# Convention : Reuss Voigt Hill
#
# Bulk Modulus (GPa) = 25.85026 54.20483 40.02754
# Shear Modulus (GPa) = 22.30517 33.10672 27.70594
#
# Velocity S-wave (km/s) = 3.16012 3.84999 3.52198
# Velocity P-wave (km/s) = 4.98886 6.63562 5.87027
#
# Compressibility (1/GPa) = 0.03868433
#
# Stress axis : x y z
#
# Youngs Moduli (GPa) = 113.20147 37.72523 70.10347
#
# Poissons Ratio (x) = 0.07902 0.16330
# Poissons Ratio (y) = 0.23710 0.07269
# Poissons Ratio (z) = 0.26369 0.03912
#
# Static dielectric constant tensor:
#      x y z
#    x 1.841430 -0.014180 0.042970 
#    y -0.014180 1.839030 0.031030 
#    z 0.042970 0.031030 1.800590 
# 
# From -- ./inp_files/38003.got.cif
#   From: 2010.05.17/outbox.cif.g08.bks.cpg/sg2_20_cif.got.tgz:38003.got - 2010.06.03 11:33:40.
