data_PCOD9028499
_publ_section_title
;
Structure prediction by ZEFSAII (Michael W. Deem and Ramdas Pophale) SiO2 
 PCOD9028499
Probable space group: P -1
;
_chemical_formula_sum "Si O2"
_cell_formula_units_Z 10
_cell_length_a 12.292452
_cell_length_b 7.853645
_cell_length_c 6.423834
_cell_angle_alpha 124.383850
_cell_angle_beta 93.283785
_cell_angle_gamma 116.252006
_cell_volume 417.644711
_symmetry_space_group_name_H-M "P -1"
_symmetry_group_IT_number 2
_symmetry_cell_setting 'triclinic'
loop_
_space_group_symop_operation_xyz
x,y,z
-x,-y,-z
loop_
_atom_site_type_symbol
_atom_site_label
_atom_site_fract_x
_atom_site_fract_y
_atom_site_fract_z
Si Si1 0.344619 0.335618 0.426075
Si Si2 0.957501 0.420470 0.707048
Si Si3 0.454065 0.233843 0.726153
Si Si4 0.097432 0.935414 0.865784
Si Si5 0.669577 0.270703 0.467076
O O1 0.500000 0.500000 0.500000
O O2 0.337574 0.168439 0.502097
O O3 0.321303 0.556819 0.601739
O O4 0.243618 0.162543 0.112029
O O5 0.937291 0.163610 0.444507
O O6 0.817372 0.383597 0.634315
O O7 0.930716 0.322337 0.221610
O O8 0.000000 0.500000 0.000000
O O9 0.578331 0.271535 0.640210
O O10 0.403583 0.029050 0.761983
O O11 0.500000 0.500000 0.000000
O O12 0.000000 0.000000 0.000000
#
# Coordination Sequence:
#
# PCOD9028499 Si02
#       5
#     2   2   2   2   2
#     4  10  22  43  65  95 138 178 217 286 346 401
#     4  11  25  43  71  98 137 185 232 288 347 411
#     4  10  23  40  64  99 135 176 233 279 339 421
#     4  11  24  45  67 103 138 177 238 283 343 422
#     4  10  22  42  62  98 132 177 231 274 347 408
#
# _framework density 23.943795000000001
#
# number of rings (size 3 to 8) (size 9 to 14) (size 15 to 20)
#    0.000    1.600    2.000    1.200    5.600    3.200 
#    7.200    0.000    0.000    0.000    0.000    0.000 
#    0.000    0.000    0.000    0.000    0.000    0.000 
#
# Total GULP energy -55780.534491 kJ/mol
# GULP energy per Si atom -5578.053449 kJ/mol
# Density = 2.388930 g / cm^3
# Si number density = 23.943795 Si / 1000 Ang^3
#
#
#
# Elastic Constant Matrix: (Units=GPa)
#
#
# Indices 1 2 3 4 5 6 
#
# 1 133.5859 17.7607 61.1993 7.4778 4.7483 -15.9339
# 2 17.7607 86.2842 17.0204 31.7524 -0.0321 -3.7835
# 3 61.1993 17.0204 147.8896 31.6199 -2.7998 -3.6760
# 4 7.4778 31.7524 31.6199 38.4574 3.6920 -1.0429
# 5 4.7483 -0.0321 -2.7998 3.6920 36.3681 11.3494
# 6 -15.9339 -3.7835 -3.6760 -1.0429 11.3494 30.7017
#
#
#
# Elastic Compliance Matrix: (Units=1/GPa)
#
#
# Indices 1 2 3 4 5 6 
#
# 1 0.010871 -0.002789 -0.005176 0.005037 -0.004346 0.006456
# 2 -0.002789 0.017695 0.002684 -0.016514 0.002384 -0.000387
# 3 -0.005176 0.002684 0.010844 -0.010526 0.003417 -0.002678
# 4 0.005037 -0.016514 -0.010526 0.048137 -0.007536 0.003740
# 5 -0.004346 0.002384 0.003417 -0.007536 0.033527 -0.014202
# 6 0.006456 -0.000387 -0.002678 0.003740 -0.014202 0.040931
#
#
# Mechanical properties :
#
#
# Convention : Reuss Voigt Hill
#
# Bulk Modulus (GPa) = 34.66579 62.19119 48.42849
# Shear Modulus (GPa) = 27.44510 39.22405 33.33458
#
# Velocity S-wave (km/s) = 3.38928 4.05182 3.73527
# Velocity P-wave (km/s) = 5.46129 6.92242 6.23480
#
# Compressibility (1/GPa) = 0.02884688
#
# Stress axis : x y z
#
# Youngs Moduli (GPa) = 91.99148 56.51275 92.22065
#
# Poissons Ratio (x) = 0.15760 0.47736
# Poissons Ratio (y) = 0.25653 -0.24750
# Poissons Ratio (z) = 0.47617 -0.15167
#
# Static dielectric constant tensor:
#      x y z
#    x 1.936170 -0.013450 -0.045870 
#    y -0.013450 2.050150 0.001110 
#    z -0.045870 0.001110 1.867860 
# 
# From -- ./inp_files/91216.got.cif
#   From: 2010.05.17/outbox.cif.g08.bks.cpg/sg2_46_cif.got.tgz:91216.got - 2010.06.03 11:33:40.
