data_PCOD9028722
_publ_section_title
;
Structure prediction by ZEFSAII (Michael W. Deem and Ramdas Pophale) SiO2 
 PCOD9028722
Probable space group: P -1
;
_chemical_formula_sum "Si O2"
_cell_formula_units_Z 14
_cell_length_a 5.457306
_cell_length_b 11.780590
_cell_length_c 21.571728
_cell_angle_alpha 34.794030
_cell_angle_beta 98.756114
_cell_angle_gamma 74.011924
_cell_volume 550.759014
_symmetry_space_group_name_H-M "P -1"
_symmetry_group_IT_number 2
_symmetry_cell_setting 'triclinic'
loop_
_space_group_symop_operation_xyz
x,y,z
-x,-y,-z
loop_
_atom_site_type_symbol
_atom_site_label
_atom_site_fract_x
_atom_site_fract_y
_atom_site_fract_z
Si Si1 0.243114 0.986256 0.106084
Si Si2 0.471195 0.342682 0.617302
Si Si3 0.291549 0.070625 0.668558
Si Si4 0.690991 0.663241 0.966621
Si Si5 0.646999 0.131611 0.465576
Si Si6 0.853200 0.227376 0.260534
Si Si7 0.453258 0.625345 0.174795
O O1 0.296094 0.808426 0.245469
O O2 0.515498 0.769416 0.159993
O O3 0.270943 0.186723 0.047460
O O4 0.878405 0.161686 0.978583
O O5 0.500000 0.500000 0.500000
O O6 0.537280 0.108599 0.683503
O O7 0.065839 0.606870 0.505133
O O8 0.352485 0.866902 0.710812
O O9 0.326094 0.917175 0.802000
O O10 0.743561 0.425407 0.110064
O O11 0.000000 0.500000 0.000000
O O12 0.400463 0.455679 0.290273
O O13 0.500000 0.000000 0.500000
O O14 0.000000 0.000000 0.500000
O O15 0.752795 0.062616 0.573722
O O16 0.757164 0.416753 0.230649
#
# Coordination Sequence:
#
# PCOD9028722 Si02
#       7
#     2   2   2   2   2   2   2
#     4  10  22  42  64  95 137 181 236 287 354 428
#     4  10  23  42  67  96 137 182 230 288 349 419
#     4  10  23  41  63 100 134 177 231 283 350 416
#     4  11  24  40  67  98 139 182 235 290 357 426
#     4  10  22  43  68 101 141 185 239 291 358 427
#     4  11  23  40  70  99 140 179 233 295 362 426
#     4  10  22  42  66  98 140 182 234 293 355 428
#
# _framework density 25.419464999999999
#
# number of rings (size 3 to 8) (size 9 to 14) (size 15 to 20)
#    0.000    1.714    0.000    3.000    6.000    1.714 
#    5.143    1.429    0.000    0.000    0.000    0.000 
#    0.000    0.000    0.000    0.000    0.000    0.000 
#
# Total GULP energy -78090.589841 kJ/mol
# GULP energy per Si atom -5577.899274 kJ/mol
# Density = 2.536161 g / cm^3
# Si number density = 25.419465 Si / 1000 Ang^3
#
#
#
# Elastic Constant Matrix: (Units=GPa)
#
#
# Indices 1 2 3 4 5 6 
#
# 1 41.5652 29.5076 21.7819 -9.8940 -19.7045 15.8553
# 2 29.5076 171.4229 34.2395 -21.2515 -16.7552 31.4680
# 3 21.7819 34.2395 199.7716 33.5927 -22.3574 14.8286
# 4 -9.8940 -21.2515 33.5927 52.2050 4.8276 2.1607
# 5 -19.7045 -16.7552 -22.3574 4.8276 37.6897 -3.4471
# 6 15.8553 31.4680 14.8286 2.1607 -3.4471 34.5534
#
#
#
# Elastic Compliance Matrix: (Units=1/GPa)
#
#
# Indices 1 2 3 4 5 6 
#
# 1 0.042900 -0.001058 -0.002724 0.008485 0.017763 -0.016311
# 2 -0.001058 0.008093 -0.001364 0.004135 0.001117 -0.006447
# 3 -0.002724 -0.001364 0.006787 -0.005701 0.002745 0.000210
# 4 0.008485 0.004135 -0.005701 0.026510 -0.001142 -0.006985
# 5 0.017763 0.001117 0.002745 -0.001142 0.037493 -0.006534
# 6 -0.016311 -0.006447 0.000210 -0.006985 -0.006534 0.041992
#
#
# Mechanical properties :
#
#
# Convention : Reuss Voigt Hill
#
# Bulk Modulus (GPa) = 21.05783 64.86864 42.96323
# Shear Modulus (GPa) = 26.33025 46.70499 36.51762
#
# Velocity S-wave (km/s) = 3.22192 4.29111 3.79436
# Velocity P-wave (km/s) = 4.70565 7.07998 6.01121
#
# Compressibility (1/GPa) = 0.04748828
#
# Stress axis : x y z
#
# Youngs Moduli (GPa) = 23.30994 123.55940 147.34594
#
# Poissons Ratio (x) = 0.13072 0.40142
# Poissons Ratio (y) = 0.02466 0.20092
# Poissons Ratio (z) = 0.06350 0.16849
#
# Static dielectric constant tensor:
#      x y z
#    x 2.143870 -0.104490 0.124830 
#    y -0.104490 2.042770 -0.080050 
#    z 0.124830 -0.080050 2.235110 
# 
# From -- ./inp_files/101629.got.cif
#   From: 2010.05.17/outbox.cif.g08.bks.cpg/sg2_51_cif.got.tgz:101629.got - 2010.06.03 11:33:40.
