data_PCOD9028044
_publ_section_title
;
Structure prediction by ZEFSAII (Michael W. Deem and Ramdas Pophale) SiO2 
 PCOD9028044
Probable space group: P -1
;
_chemical_formula_sum "Si O2"
_cell_formula_units_Z 12
_cell_length_a 6.229242
_cell_length_b 10.918032
_cell_length_c 8.306122
_cell_angle_alpha 63.002704
_cell_angle_beta 75.514486
_cell_angle_gamma 78.040752
_cell_volume 484.466941
_symmetry_space_group_name_H-M "P -1"
_symmetry_group_IT_number 2
_symmetry_cell_setting 'triclinic'
loop_
_space_group_symop_operation_xyz
x,y,z
-x,-y,-z
loop_
_atom_site_type_symbol
_atom_site_label
_atom_site_fract_x
_atom_site_fract_y
_atom_site_fract_z
Si Si1 0.746559 0.043447 0.927001
Si Si2 0.613850 0.366682 0.792812
Si Si3 0.513805 0.782300 0.655874
Si Si4 0.734449 0.432550 0.378520
Si Si5 0.170486 0.434373 0.139466
Si Si6 0.162681 0.025114 0.695952
O O1 0.705308 0.207620 0.867368
O O2 0.892721 0.020800 0.746713
O O3 0.500000 0.000000 0.000000
O O4 0.832411 0.957554 0.121913
O O5 0.705513 0.432893 0.573641
O O6 0.353376 0.419759 0.775988
O O7 0.705933 0.443357 0.881081
O O8 0.412037 0.676331 0.615820
O O9 0.644537 0.696996 0.827213
O O10 0.697661 0.864733 0.482732
O O11 0.305286 0.883146 0.701066
O O12 0.992006 0.388514 0.327150
O O13 0.000000 0.500000 0.000000
#
# Coordination Sequence:
#
# PCOD9028044 Si02
#       6
#     2   2   2   2   2   2
#     4  11  24  42  69  99 139 181 231 281 354 407
#     4  10  23  42  67  98 137 174 235 283 344 415
#     4  10  23  45  69 101 142 178 238 279 352 412
#     4  10  22  41  70  99 134 181 225 289 351 402
#     4  11  25  40  70 102 137 181 226 292 346 403
#     4  10  24  43  67 100 138 185 226 289 333 426
#
# _framework density 24.769492
#
# number of rings (size 3 to 8) (size 9 to 14) (size 15 to 20)
#    0.000    1.667    0.000    2.500    4.667    8.000 
#    0.000    4.167    0.000    0.000    0.000    0.000 
#    0.000    0.000    0.000    0.000    0.000    0.000 
#
# Total GULP energy -66971.470474 kJ/mol
# GULP energy per Si atom -5580.955873 kJ/mol
# Density = 2.471312 g / cm^3
# Si number density = 24.769492 Si / 1000 Ang^3
#
#
#
# Elastic Constant Matrix: (Units=GPa)
#
#
# Indices 1 2 3 4 5 6 
#
# 1 75.8833 44.7893 43.2758 1.5377 -23.7841 -23.9472
# 2 44.7893 142.0507 42.1133 -15.2048 -14.6209 -41.5954
# 3 43.2758 42.1133 107.2294 -3.3452 -17.9173 -8.6610
# 4 1.5377 -15.2048 -3.3452 35.5114 -14.6037 -4.0342
# 5 -23.7841 -14.6209 -17.9173 -14.6037 53.6036 13.5708
# 6 -23.9472 -41.5954 -8.6610 -4.0342 13.5708 37.0768
#
#
#
# Elastic Compliance Matrix: (Units=1/GPa)
#
#
# Indices 1 2 3 4 5 6 
#
# 1 0.022620 -0.001819 -0.006788 0.000765 0.005156 0.009179
# 2 -0.001819 0.013376 -0.003138 0.007183 0.000259 0.013784
# 3 -0.006788 -0.003138 0.013208 0.000413 0.002059 -0.005528
# 4 0.000765 0.007183 0.000413 0.036407 0.010099 0.008914
# 5 0.005156 0.000259 0.002059 0.010099 0.025500 -0.004132
# 6 0.009179 0.013784 -0.005528 0.008914 -0.004132 0.049555
#
#
# Mechanical properties :
#
#
# Convention : Reuss Voigt Hill
#
# Bulk Modulus (GPa) = 38.89000 65.05779 51.97390
# Shear Modulus (GPa) = 25.94337 38.23737 32.09037
#
# Velocity S-wave (km/s) = 3.23985 3.93329 3.60329
# Velocity P-wave (km/s) = 5.45256 6.85201 6.19195
#
# Compressibility (1/GPa) = 0.02571355
#
# Stress axis : x y z
#
# Youngs Moduli (GPa) = 44.20771 74.76351 75.71078
#
# Poissons Ratio (x) = 0.13603 0.51391
# Poissons Ratio (y) = 0.08043 0.23759
# Poissons Ratio (z) = 0.30007 0.23461
#
# Static dielectric constant tensor:
#      x y z
#    x -29.971060 4.461390 -5.409350 
#    y 4.461390 1.357460 0.848720 
#    z -5.409350 0.848720 1.264740 
# 
# From -- ./inp_files/61201.got.cif
#   From: 2010.05.17/outbox.cif.g08.bks.cpg/sg2_31_cif.got.tgz:61201.got - 2010.06.03 11:33:40.
