data_PCOD9028072
_publ_section_title
;
Structure prediction by ZEFSAII (Michael W. Deem and Ramdas Pophale) SiO2 
 PCOD9028072
Probable space group: P -1
;
_chemical_formula_sum "Si O2"
_cell_formula_units_Z 14
_cell_length_a 10.749408
_cell_length_b 9.255033
_cell_length_c 9.248605
_cell_angle_alpha 46.965940
_cell_angle_beta 127.018899
_cell_angle_gamma 118.984319
_cell_volume 532.691719
_symmetry_space_group_name_H-M "P -1"
_symmetry_group_IT_number 2
_symmetry_cell_setting 'triclinic'
loop_
_space_group_symop_operation_xyz
x,y,z
-x,-y,-z
loop_
_atom_site_type_symbol
_atom_site_label
_atom_site_fract_x
_atom_site_fract_y
_atom_site_fract_z
Si Si1 0.490337 0.190713 0.704182
Si Si2 0.923950 0.466877 0.194014
Si Si3 0.739357 0.703185 0.072877
Si Si4 0.690280 0.107880 0.392691
Si Si5 0.756665 0.006787 0.115931
Si Si6 0.912885 0.771756 0.718366
Si Si7 0.471994 0.651621 0.679455
O O1 0.493323 0.345646 0.469050
O O2 0.464031 0.977474 0.745659
O O3 0.351958 0.150079 0.751630
O O4 0.656527 0.190986 0.896081
O O5 0.903203 0.617775 0.207102
O O6 0.781312 0.296732 0.247615
O O7 0.071532 0.349906 0.338364
O O8 0.899557 0.600185 0.946761
O O9 0.628293 0.550614 0.200978
O O10 0.785205 0.905099 0.053611
O O11 0.628922 0.698050 0.855578
O O12 0.637635 0.180577 0.461444
O O13 0.792311 0.925974 0.569853
O O14 0.919303 0.093222 0.241610
#
# Coordination Sequence:
#
# PCOD9028072 Si02
#       7
#     2   2   2   2   2   2   2
#     4  11  23  41  68  99 137 178 227 276 343 405
#     4  10  23  42  67  98 132 185 231 267 330 423
#     4  10  22  43  68 104 138 171 230 289 334 401
#     4  11  21  43  73  98 128 183 236 275 320 432
#     4  11  25  42  65 105 144 169 216 298 348 383
#     4  11  24  44  70  97 138 182 229 277 342 402
#     4  10  22  41  71 101 132 183 231 269 336 425
#
# _framework density 26.281618999999999
#
# number of rings (size 3 to 8) (size 9 to 14) (size 15 to 20)
#    0.000    1.429    2.857    1.714    2.000    1.143 
#    2.571    1.429    0.000    0.000    0.000    0.000 
#    0.000    0.000    0.000    0.000    0.000    0.000 
#
# Total GULP energy -78236.568868 kJ/mol
# GULP energy per Si atom -5588.326348 kJ/mol
# Density = 2.622180 g / cm^3
# Si number density = 26.281619 Si / 1000 Ang^3
#
#
#
# Elastic Constant Matrix: (Units=GPa)
#
#
# Indices 1 2 3 4 5 6 
#
# 1 129.7309 41.6577 56.3607 -7.7291 -1.8802 -27.6438
# 2 41.6577 52.9988 22.8828 -5.8435 7.9347 -27.7282
# 3 56.3607 22.8828 121.5000 -10.7310 -5.4387 -12.4193
# 4 -7.7291 -5.8435 -10.7310 34.8144 -0.3964 -3.2184
# 5 -1.8802 7.9347 -5.4387 -0.3964 57.3346 -9.1166
# 6 -27.6438 -27.7282 -12.4193 -3.2184 -9.1166 33.4048
#
#
#
# Elastic Compliance Matrix: (Units=1/GPa)
#
#
# Indices 1 2 3 4 5 6 
#
# 1 0.012332 -0.005753 -0.004030 0.000958 0.001531 0.004442
# 2 -0.005753 0.039658 -0.001325 0.007548 -0.001292 0.028040
# 3 -0.004030 -0.001325 0.010588 0.002159 0.001071 0.000002
# 4 0.000958 0.007548 0.002159 0.031924 0.001204 0.011265
# 5 0.001531 -0.001292 0.001071 0.001204 0.018705 0.005814
# 6 0.004442 0.028040 0.000002 0.011265 0.005814 0.059559
#
#
# Mechanical properties :
#
#
# Convention : Reuss Voigt Hill
#
# Bulk Modulus (GPa) = 24.77567 60.67023 42.72295
# Shear Modulus (GPa) = 23.98805 37.33268 30.66036
#
# Velocity S-wave (km/s) = 3.02442 3.77302 3.41927
# Velocity P-wave (km/s) = 4.65227 6.48966 5.64621
#
# Compressibility (1/GPa) = 0.04036217
#
# Stress axis : x y z
#
# Youngs Moduli (GPa) = 81.08905 25.21544 94.44466
#
# Poissons Ratio (x) = 0.14506 0.38060
# Poissons Ratio (y) = 0.46649 0.12519
# Poissons Ratio (z) = 0.32678 0.03342
#
# Static dielectric constant tensor:
#      x y z
#    x 2.067970 -0.044730 0.038270 
#    y -0.044730 2.040300 0.005560 
#    z 0.038270 0.005560 2.149500 
# 
# From -- ./inp_files/242276.got.cif
#   From: 2010.05.17/outbox.cif.g08.bks.cpg/sg2_122_cif.got.tgz:242276.got - 2010.06.03 11:33:40.
