data_PCOD9028070
_publ_section_title
;
Structure prediction by ZEFSAII (Michael W. Deem and Ramdas Pophale) SiO2 
 PCOD9028070
Probable space group: P -1
;
_chemical_formula_sum "Si O2"
_cell_formula_units_Z 14
_cell_length_a 9.193481
_cell_length_b 5.171286
_cell_length_c 12.688939
_cell_angle_alpha 96.415531
_cell_angle_beta 91.962740
_cell_angle_gamma 89.781115
_cell_volume 599.129537
_symmetry_space_group_name_H-M "P -1"
_symmetry_group_IT_number 2
_symmetry_cell_setting 'triclinic'
loop_
_space_group_symop_operation_xyz
x,y,z
-x,-y,-z
loop_
_atom_site_type_symbol
_atom_site_label
_atom_site_fract_x
_atom_site_fract_y
_atom_site_fract_z
Si Si1 0.097475 0.673816 0.433830
Si Si2 0.465093 0.229379 0.932413
Si Si3 0.581680 0.458803 0.610190
Si Si4 0.142078 0.315987 0.959351
Si Si5 0.126228 0.970876 0.657690
Si Si6 0.469096 0.993082 0.709329
Si Si7 0.008776 0.792427 0.858912
O O1 0.243129 0.533370 0.391524
O O2 0.147350 0.885470 0.532251
O O3 0.000000 0.500000 0.500000
O O4 0.992986 0.799310 0.348711
O O5 0.293772 0.230435 0.915497
O O6 0.529599 0.147252 0.819196
O O7 0.500000 0.500000 0.000000
O O8 0.500000 0.000000 0.000000
O O9 0.500000 0.500000 0.500000
O O10 0.519316 0.693249 0.691818
O O11 0.537283 0.167283 0.627534
O O12 0.111736 0.597678 0.920890
O O13 0.137976 0.295953 0.086522
O O14 0.032859 0.095655 0.902172
O O15 0.292964 0.010703 0.699524
O O16 0.050373 0.783209 0.735946
#
# Coordination Sequence:
#
# PCOD9028070 Si02
#       7
#     2   2   2   2   2   2   2
#     4  11  27  46  71 111 151 192 245 313 364 435
#     4  12  26  46  72 104 147 186 244 309 359 438
#     4  12  26  47  76 108 153 194 247 302 366 451
#     4  10  22  42  69 100 137 174 243 288 361 421
#     4  11  25  44  76 105 148 193 253 301 368 445
#     4  12  27  47  77 109 142 206 246 294 383 443
#     4  10  22  41  71 101 130 187 231 297 351 435
#
# _framework density 23.367235999999998
#
# number of rings (size 3 to 8) (size 9 to 14) (size 15 to 20)
#    0.000    0.857    2.857    3.000    8.000    1.143 
#    2.571    0.000    0.000    0.000    0.000    0.000 
#    0.000    0.000    0.000    0.000    0.000    0.000 
#
# Total GULP energy -78071.120625 kJ/mol
# GULP energy per Si atom -5576.508616 kJ/mol
# Density = 2.331405 g / cm^3
# Si number density = 23.367236 Si / 1000 Ang^3
#
#
#
# Elastic Constant Matrix: (Units=GPa)
#
#
# Indices 1 2 3 4 5 6 
#
# 1 101.9699 36.9377 16.6834 -0.9371 -7.5650 -24.5336
# 2 36.9377 128.2655 36.1828 -7.9027 12.0431 -14.6186
# 3 16.6834 36.1828 88.0997 -3.1509 -9.9811 -5.8137
# 4 -0.9371 -7.9027 -3.1509 44.9850 7.9316 -5.8336
# 5 -7.5650 12.0431 -9.9811 7.9316 23.4568 -2.0873
# 6 -24.5336 -14.6186 -5.8137 -5.8336 -2.0873 31.9564
#
#
#
# Elastic Compliance Matrix: (Units=1/GPa)
#
#
# Indices 1 2 3 4 5 6 
#
# 1 0.013954 -0.003792 0.000385 -0.000463 0.007609 0.009461
# 2 -0.003792 0.011691 -0.005040 0.003664 -0.010474 0.001505
# 3 0.000385 -0.005040 0.014428 -0.001400 0.009411 0.000974
# 4 -0.000463 0.003664 -0.001400 0.025305 -0.010739 0.004984
# 5 0.007609 -0.010474 0.009411 -0.010739 0.058510 0.004623
# 6 0.009461 0.001505 0.000974 0.004984 0.004623 0.040633
#
#
# Mechanical properties :
#
#
# Convention : Reuss Voigt Hill
#
# Bulk Modulus (GPa) = 43.14232 55.32697 49.23465
# Shear Modulus (GPa) = 26.43536 35.31506 30.87521
#
# Velocity S-wave (km/s) = 3.36713 3.89177 3.63892
# Velocity P-wave (km/s) = 5.79824 6.62745 6.22666
#
# Compressibility (1/GPa) = 0.02317910
#
# Stress axis : x y z
#
# Youngs Moduli (GPa) = 71.66523 85.53913 69.30910
#
# Poissons Ratio (x) = 0.32433 -0.02665
# Poissons Ratio (y) = 0.27172 0.34929
# Poissons Ratio (z) = -0.02756 0.43109
#
# Static dielectric constant tensor:
#      x y z
#    x 1.902820 -0.011610 -0.037610 
#    y -0.011610 1.797440 -0.012030 
#    z -0.037610 -0.012030 1.921340 
# 
# From -- ./inp_files/373052.got.cif
#   From: 2010.05.17/outbox.cif.g08.bks.cpg/sg2_187_cif.got.tgz:373052.got - 2010.06.03 11:33:40.
