data_PCOD9028150
_publ_section_title
;
Structure prediction by ZEFSAII (Michael W. Deem and Ramdas Pophale) SiO2 
 PCOD9028150
Probable space group: P -1
;
_chemical_formula_sum "Si O2"
_cell_formula_units_Z 15
_cell_length_a 13.915622
_cell_length_b 9.614101
_cell_length_c 5.906911
_cell_angle_alpha 93.417819
_cell_angle_beta 68.967543
_cell_angle_gamma 61.517964
_cell_volume 622.160639
_symmetry_space_group_name_H-M "P -1"
_symmetry_group_IT_number 2
_symmetry_cell_setting 'triclinic'
loop_
_space_group_symop_operation_xyz
x,y,z
-x,-y,-z
loop_
_atom_site_type_symbol
_atom_site_label
_atom_site_fract_x
_atom_site_fract_y
_atom_site_fract_z
Si Si1 0.271126 0.462391 0.626146
Si Si2 0.000000 0.500000 0.500000
Si Si3 0.106257 0.896898 0.221856
Si Si4 0.588960 0.869321 0.229708
Si Si5 0.171303 0.163952 0.077591
Si Si6 0.641578 0.378908 0.104079
Si Si7 0.460282 0.310981 0.081848
Si Si8 0.970948 0.330922 0.937618
O O1 0.329418 0.308578 0.732985
O O2 0.310670 0.586417 0.700564
O O3 0.332949 0.389539 0.328761
O O4 0.124698 0.557895 0.769338
O O5 0.102659 0.303035 0.339828
O O6 0.055092 0.558731 0.249218
O O7 0.053304 0.814192 0.099031
O O8 0.141939 0.022028 0.111135
O O9 0.238499 0.737169 0.161003
O O10 0.000000 0.000000 0.500000
O O11 0.500000 0.000000 0.500000
O O12 0.687336 0.905772 0.056754
O O13 0.515560 0.845972 0.090360
O O14 0.105661 0.254764 0.907418
O O15 0.560089 0.299320 0.169756
O O16 0.558768 0.556726 0.077935
#
# Coordination Sequence:
#
# PCOD9028150 Si02
#       8
#     2   1   2   2   2   2   2   2
#     4  10  22  41  71  98 132 176 239 289 345 414
#     4  12  24  46  74 100 142 174 240 278 352 418
#     4  11  24  45  68 101 143 177 229 291 352 416
#     4  11  27  45  62 103 141 181 237 283 347 426
#     4  12  27  45  71 101 143 187 230 287 353 416
#     4   9  22  43  66 104 128 183 234 287 350 411
#     4  10  22  44  72  92 136 185 234 291 341 407
#     4  11  25  45  72 106 134 185 231 293 349 420
#
# _framework density 24.109529999999999
#
# number of rings (size 3 to 8) (size 9 to 14) (size 15 to 20)
#    0.000    1.333    2.667    1.200    5.600    1.600 
#    4.800    0.000    0.000    0.000    0.000    0.000 
#    0.000    0.000    0.000    0.000    0.000    0.000 
#
# Total GULP energy -83651.209704 kJ/mol
# GULP energy per Si atom -5576.747314 kJ/mol
# Density = 2.405466 g / cm^3
# Si number density = 24.109530 Si / 1000 Ang^3
#
#
#
# Elastic Constant Matrix: (Units=GPa)
#
#
# Indices 1 2 3 4 5 6 
#
# 1 115.0641 45.9061 26.4650 8.4791 -20.7916 18.5997
# 2 45.9061 111.3542 21.6265 15.7057 -1.4661 31.4750
# 3 26.4650 21.6265 105.6077 28.8026 -18.2952 20.3294
# 4 8.4791 15.7057 28.8026 41.5607 -4.6606 -3.6706
# 5 -20.7916 -1.4661 -18.2952 -4.6606 23.3417 -0.4302
# 6 18.5997 31.4750 20.3294 -3.6706 -0.4302 41.0038
#
#
#
# Elastic Compliance Matrix: (Units=1/GPa)
#
#
# Indices 1 2 3 4 5 6 
#
# 1 0.012873 -0.004553 0.000044 0.000122 0.011198 -0.002238
# 2 -0.004553 0.014425 0.001421 -0.006825 -0.003589 -0.010361
# 3 0.000044 0.001421 0.015922 -0.011316 0.010166 -0.009911
# 4 0.000122 -0.006825 -0.011316 0.035482 -0.001847 0.013950
# 5 0.011198 -0.003589 0.010166 -0.001847 0.060063 -0.006900
# 6 -0.002238 -0.010361 -0.009911 0.013950 -0.006900 0.039446
#
#
# Mechanical properties :
#
#
# Convention : Reuss Voigt Hill
#
# Bulk Modulus (GPa) = 26.99448 57.78013 42.38730
# Shear Modulus (GPa) = 25.41467 37.04982 31.23224
#
# Velocity S-wave (km/s) = 3.25026 3.92437 3.60311
# Velocity P-wave (km/s) = 5.03056 6.67472 5.91010
#
# Compressibility (1/GPa) = 0.03704462
#
# Stress axis : x y z
#
# Youngs Moduli (GPa) = 77.67960 69.32354 62.80555
#
# Poissons Ratio (x) = 0.31561 -0.00276
# Poissons Ratio (y) = 0.35365 -0.08924
# Poissons Ratio (z) = -0.00341 -0.09850
#
# Static dielectric constant tensor:
#      x y z
#    x 1.021020 -0.069720 -0.422750 
#    y -0.069720 1.950850 -0.054800 
#    z -0.422750 -0.054800 1.664760 
# 
# From -- ./inp_files/90269.got.cif
#   From: 2010.05.17/outbox.cif.g08.bks.cpg/sg2_46_cif.got.tgz:90269.got - 2010.06.03 11:33:40.
