data_PCOD9028061
_publ_section_title
;
Structure prediction by ZEFSAII (Michael W. Deem and Ramdas Pophale) SiO2 
 PCOD9028061
Probable space group: P -1
;
_chemical_formula_sum "Si O2"
_cell_formula_units_Z 16
_cell_length_a 12.299395
_cell_length_b 9.301832
_cell_length_c 8.825004
_cell_angle_alpha 100.821885
_cell_angle_beta 95.083706
_cell_angle_gamma 127.370227
_cell_volume 761.121713
_symmetry_space_group_name_H-M "P -1"
_symmetry_group_IT_number 2
_symmetry_cell_setting 'triclinic'
loop_
_space_group_symop_operation_xyz
x,y,z
-x,-y,-z
loop_
_atom_site_type_symbol
_atom_site_label
_atom_site_fract_x
_atom_site_fract_y
_atom_site_fract_z
Si Si1 0.882019 0.796095 0.021498
Si Si2 0.846566 0.708619 0.674848
Si Si3 0.086843 0.725210 0.568545
Si Si4 0.386770 0.034893 0.170031
Si Si5 0.611011 0.984276 0.198268
Si Si6 0.624494 0.671485 0.152135
Si Si7 0.588259 0.462503 0.400619
Si Si8 0.113244 0.906386 0.283769
O O1 0.813197 0.663847 0.839914
O O2 0.765574 0.789381 0.092873
O O3 0.965731 0.768720 0.146015
O O4 0.000000 0.000000 0.000000
O O5 0.722719 0.528566 0.527441
O O6 0.994380 0.756791 0.666409
O O7 0.854005 0.889147 0.667200
O O8 0.103117 0.822783 0.429217
O O9 0.000000 0.500000 0.500000
O O10 0.241690 0.830773 0.679801
O O11 0.484603 0.250493 0.283691
O O12 0.474962 0.966479 0.211577
O O13 0.235799 0.932096 0.207914
O O14 0.375754 0.022126 0.983768
O O15 0.589510 0.804376 0.224542
O O16 0.646697 0.593194 0.285914
O O17 0.500000 0.500000 0.000000
O O18 0.500000 0.500000 0.500000
#
# Coordination Sequence:
#
# PCOD9028061 Si02
#       8
#     2   2   2   2   2   2   2   2
#     4  10  22  41  71 100 135 173 230 285 338 403
#     4  11  21  41  70  96 133 175 224 285 339 401
#     4  12  26  45  65 100 138 179 229 284 348 413
#     4  11  24  45  66  97 138 186 220 281 347 406
#     4  11  24  45  68  95 142 176 224 283 343 410
#     4  12  23  42  70 106 136 179 235 279 344 406
#     4  12  23  41  66 104 140 173 233 285 334 410
#     4  11  22  44  68  96 133 178 231 276 347 406
#
# _framework density 21.021604
#
# number of rings (size 3 to 8) (size 9 to 14) (size 15 to 20)
#    0.000    0.750    2.500    7.125    0.000    0.500 
#    4.500    1.250    0.000    0.000    0.000    0.000 
#    0.000    0.000    0.000    0.000    0.000    0.000 
#
# Total GULP energy -89496.174536 kJ/mol
# GULP energy per Si atom -5593.510909 kJ/mol
# Density = 2.097376 g / cm^3
# Si number density = 21.021604 Si / 1000 Ang^3
#
#
#
# Elastic Constant Matrix: (Units=GPa)
#
#
# Indices 1 2 3 4 5 6 
#
# 1 128.8618 19.8284 15.3392 5.0588 -3.6353 -4.2732
# 2 19.8284 51.9413 18.2456 19.7539 -0.9854 -1.3986
# 3 15.3392 18.2456 101.5029 12.8132 20.7494 -10.9584
# 4 5.0588 19.7539 12.8132 30.4864 12.0194 -2.7881
# 5 -3.6353 -0.9854 20.7494 12.0194 46.3209 6.9870
# 6 -4.2732 -1.3986 -10.9584 -2.7881 6.9870 17.0297
#
#
#
# Elastic Compliance Matrix: (Units=1/GPa)
#
#
# Indices 1 2 3 4 5 6 
#
# 1 0.008370 -0.003252 -0.000760 0.000968 0.000480 0.001306
# 2 -0.003252 0.030550 -0.005256 -0.021755 0.009792 -0.009269
# 3 -0.000760 -0.005256 0.013724 0.002333 -0.008763 0.012186
# 4 0.000968 -0.021755 0.002333 0.054328 -0.017977 0.016227
# 5 0.000480 0.009792 -0.008763 -0.017977 0.033663 -0.021468
# 6 0.001306 -0.009269 0.012186 0.016227 -0.021468 0.077594
#
#
# Mechanical properties :
#
#
# Convention : Reuss Voigt Hill
#
# Bulk Modulus (GPa) = 29.31864 43.23695 36.27779
# Shear Modulus (GPa) = 20.15041 34.02691 27.08866
#
# Velocity S-wave (km/s) = 3.09942 4.02763 3.59362
# Velocity P-wave (km/s) = 5.17549 6.49935 5.87483
#
# Compressibility (1/GPa) = 0.03410799
#
# Stress axis : x y z
#
# Youngs Moduli (GPa) = 119.47509 32.73307 72.86543
#
# Poissons Ratio (x) = 0.10646 0.05534
# Poissons Ratio (y) = 0.38856 0.38300
# Poissons Ratio (z) = 0.09075 0.17205
#
# Static dielectric constant tensor:
#      x y z
#    x 1.703740 0.114340 -0.023030 
#    y 0.114340 1.451890 0.138360 
#    z -0.023030 0.138360 1.745950 
# 
# From -- ./inp_files/244588.got.cif
#   From: 2010.05.17/outbox.cif.g08.bks.cpg/sg2_123_cif.got.tgz:244588.got - 2010.06.03 11:33:40.
