data_PCOD9028794
_publ_section_title
;
Structure prediction by ZEFSAII (Michael W. Deem and Ramdas Pophale) SiO2 
 PCOD9028794
Probable space group: P -1
;
_chemical_formula_sum "Si O2"
_cell_formula_units_Z 16
_cell_length_a 8.541530
_cell_length_b 20.761699
_cell_length_c 6.768782
_cell_angle_alpha 123.096246
_cell_angle_beta 81.541469
_cell_angle_gamma 130.896540
_cell_volume 716.944157
_symmetry_space_group_name_H-M "P -1"
_symmetry_group_IT_number 2
_symmetry_cell_setting 'triclinic'
loop_
_space_group_symop_operation_xyz
x,y,z
-x,-y,-z
loop_
_atom_site_type_symbol
_atom_site_label
_atom_site_fract_x
_atom_site_fract_y
_atom_site_fract_z
Si Si1 0.246406 0.000073 0.995686
Si Si2 0.448288 0.549570 0.245404
Si Si3 0.911460 0.620473 0.703758
Si Si4 0.248181 0.740373 0.201755
Si Si5 0.408476 0.194543 0.069144
Si Si6 0.855095 0.756972 0.716256
Si Si7 0.487491 0.961176 0.654015
Si Si8 0.211363 0.625300 0.394677
O O1 0.449553 0.024941 0.895128
O O2 0.042421 0.875172 0.795161
O O3 0.244153 0.079882 0.016469
O O4 0.312761 0.018313 0.245590
O O5 0.335622 0.476566 0.339892
O O6 0.679424 0.668204 0.442348
O O7 0.273523 0.557497 0.236742
O O8 0.500000 0.500000 0.000000
O O9 0.939241 0.709700 0.731705
O O10 0.996799 0.578757 0.481163
O O11 0.057493 0.676973 0.968969
O O12 0.288669 0.833655 0.464636
O O13 0.208110 0.664381 0.249555
O O14 0.468534 0.797692 0.130309
O O15 0.285182 0.231853 0.101834
O O16 0.593407 0.275228 0.335654
O O17 0.500000 0.000000 0.500000
#
# Coordination Sequence:
#
# PCOD9028794 Si02
#       8
#     2   2   2   2   2   2   2   2
#     4  11  22  39  65  96 135 179 216 263 340 390
#     4  11  27  47  70 100 132 178 226 281 342 393
#     4  11  25  45  71  99 131 179 226 276 342 385
#     4  11  22  41  71  99 132 173 230 270 326 401
#     4  10  22  42  65 101 137 179 211 273 337 397
#     4  11  25  45  67  93 144 172 220 279 334 400
#     4  11  21  36  64  97 131 170 223 274 314 392
#     4  10  23  46  72  97 135 173 224 279 330 405
#
# _framework density 22.316939999999999
#
# number of rings (size 3 to 8) (size 9 to 14) (size 15 to 20)
#    0.000    1.250    2.500    2.625    8.750    0.500 
#    2.250    0.625    0.000    0.000    0.000    0.000 
#    0.000    0.000    0.000    0.000    0.000    0.000 
#
# Total GULP energy -89343.740177 kJ/mol
# GULP energy per Si atom -5583.983761 kJ/mol
# Density = 2.226615 g / cm^3
# Si number density = 22.316940 Si / 1000 Ang^3
#
#
#
# Elastic Constant Matrix: (Units=GPa)
#
#
# Indices 1 2 3 4 5 6 
#
# 1 101.3077 31.5764 49.7240 -11.3985 -16.3609 -21.1916
# 2 31.5764 124.4028 40.1011 19.0091 -24.9225 6.2525
# 3 49.7240 40.1011 85.9138 5.7411 -21.4984 -0.8323
# 4 -11.3985 19.0091 5.7411 48.7897 -17.8539 11.1805
# 5 -16.3609 -24.9225 -21.4984 -17.8539 52.1679 -7.6007
# 6 -21.1916 6.2525 -0.8323 11.1805 -7.6007 45.1704
#
#
#
# Elastic Compliance Matrix: (Units=1/GPa)
#
#
# Indices 1 2 3 4 5 6 
#
# 1 0.017605 -0.002183 -0.008461 0.005683 0.004056 0.007682
# 2 -0.002183 0.010478 -0.002980 -0.003269 0.001767 -0.001423
# 3 -0.008461 -0.002980 0.018698 -0.001450 0.002784 -0.002385
# 4 0.005683 -0.003269 -0.001450 0.026869 0.008509 -0.002127
# 5 0.004056 0.001767 0.002784 0.008509 0.025922 0.003965
# 6 0.007682 -0.001423 -0.002385 -0.002127 0.003965 0.027089
#
#
# Mechanical properties :
#
#
# Convention : Reuss Voigt Hill
#
# Bulk Modulus (GPa) = 51.19611 61.60304 56.39958
# Shear Modulus (GPa) = 31.16773 41.90714 36.53743
#
# Velocity S-wave (km/s) = 3.74116 4.33808 4.05063
# Velocity P-wave (km/s) = 6.45383 7.26330 6.87050
#
# Compressibility (1/GPa) = 0.01953273
#
# Stress axis : x y z
#
# Youngs Moduli (GPa) = 56.80052 95.43488 53.48140
#
# Poissons Ratio (x) = 0.20836 0.45249
# Poissons Ratio (y) = 0.12401 0.15940
# Poissons Ratio (z) = 0.48058 0.28444
#
# Static dielectric constant tensor:
#      x y z
#    x 1.924580 -0.017480 0.002170 
#    y -0.017480 1.875660 0.024370 
#    z 0.002170 0.024370 1.826750 
# 
# From -- ./inp_files/53738.got.cif
#   From: 2010.05.17/outbox.cif.g08.bks.cpg/sg2_27_cif.got.tgz:53738.got - 2010.06.03 11:33:40.
