data_PCOD9028702
_publ_section_title
;
Structure prediction by ZEFSAII (Michael W. Deem and Ramdas Pophale) SiO2 
 PCOD9028702
Probable space group: P -1
;
_chemical_formula_sum "Si O2"
_cell_formula_units_Z 15
_cell_length_a 6.359544
_cell_length_b 11.763693
_cell_length_c 17.107036
_cell_angle_alpha 45.894976
_cell_angle_beta 120.059295
_cell_angle_gamma 90.685887
_cell_volume 668.598224
_symmetry_space_group_name_H-M "P -1"
_symmetry_group_IT_number 2
_symmetry_cell_setting 'triclinic'
loop_
_space_group_symop_operation_xyz
x,y,z
-x,-y,-z
loop_
_atom_site_type_symbol
_atom_site_label
_atom_site_fract_x
_atom_site_fract_y
_atom_site_fract_z
Si Si1 0.817272 0.601157 0.596500
Si Si2 0.383154 0.542126 0.779809
Si Si3 0.000000 0.500000 0.500000
Si Si4 0.225808 0.972407 0.287926
Si Si5 0.522817 0.525828 0.348808
Si Si6 0.294292 0.938237 0.129609
Si Si7 0.691290 0.689796 0.864835
Si Si8 0.573924 0.171991 0.081761
O O1 0.911699 0.583444 0.533549
O O2 0.498863 0.782294 0.462715
O O3 0.774877 0.433140 0.691957
O O4 0.049876 0.608728 0.688295
O O5 0.460559 0.538340 0.705395
O O6 0.465423 0.664968 0.786082
O O7 0.552612 0.327174 0.944668
O O8 0.794965 0.409238 0.511569
O O9 0.235141 0.954538 0.203535
O O10 0.280929 0.137919 0.236963
O O11 0.911531 0.032290 0.229982
O O12 0.531641 0.717237 0.260809
O O13 0.430768 0.060617 0.077303
O O14 0.000000 0.000000 0.000000
O O15 0.597782 0.721314 0.922850
O O16 0.000000 0.500000 0.000000
#
# Coordination Sequence:
#
# PCOD9028702 Si02
#       8
#     2   2   1   2   2   2   2   2
#     4  11  25  43  69 101 143 181 226 273 342 409
#     4  11  25  43  71 100 132 184 229 280 346 408
#     4  10  22  42  64  94 132 192 214 260 330 412
#     4  11  25  43  68 105 133 178 226 287 341 403
#     4  11  24  40  67  97 140 178 222 270 337 406
#     4  11  24  40  65 101 138 171 228 278 336 405
#     4  11  25  46  74  97 134 175 236 289 344 402
#     4  11  25  44  72  98 135 179 231 285 345 401
#
# _framework density 22.434999999999999
#
# number of rings (size 3 to 8) (size 9 to 14) (size 15 to 20)
#    0.000    1.067    2.667    2.400    5.600    4.800 
#    0.000    1.333    0.000    0.000    0.000    0.000 
#    0.000    0.000    0.000    0.000    0.000    0.000 
#
# Total GULP energy -83670.149928 kJ/mol
# GULP energy per Si atom -5578.009995 kJ/mol
# Density = 2.238394 g / cm^3
# Si number density = 22.435000 Si / 1000 Ang^3
#
#
#
# Elastic Constant Matrix: (Units=GPa)
#
#
# Indices 1 2 3 4 5 6 
#
# 1 85.1185 31.8620 10.8343 7.8349 28.5249 19.8652
# 2 31.8620 111.4733 26.7606 12.1803 10.5873 38.1827
# 3 10.8343 26.7606 64.6544 0.2555 22.3306 6.3479
# 4 7.8349 12.1803 0.2555 36.1757 1.9805 14.4944
# 5 28.5249 10.5873 22.3306 1.9805 34.8481 4.0189
# 6 19.8652 38.1827 6.3479 14.4944 4.0189 43.2968
#
#
#
# Elastic Compliance Matrix: (Units=1/GPa)
#
#
# Indices 1 2 3 4 5 6 
#
# 1 0.019314 -0.003239 0.004514 -0.000176 -0.017129 -0.005018
# 2 -0.003239 0.014673 -0.005482 0.000017 0.002966 -0.010931
# 3 0.004514 -0.005482 0.022696 0.001417 -0.016712 0.000513
# 4 -0.000176 0.000017 0.001417 0.032044 -0.001351 -0.010744
# 5 -0.017129 0.002966 -0.016712 -0.001351 0.052221 0.003299
# 6 -0.005018 -0.010931 0.000513 -0.010744 0.003299 0.038254
#
#
# Mechanical properties :
#
#
# Convention : Reuss Voigt Hill
#
# Bulk Modulus (GPa) = 20.71756 44.46221 32.58989
# Shear Modulus (GPa) = 24.54521 35.65008 30.09765
#
# Velocity S-wave (km/s) = 3.31124 3.99060 3.66669
# Velocity P-wave (km/s) = 4.88607 6.41049 5.69948
#
# Compressibility (1/GPa) = 0.04826823
#
# Stress axis : x y z
#
# Youngs Moduli (GPa) = 51.77644 68.15134 44.06145
#
# Poissons Ratio (x) = 0.22075 -0.19888
# Poissons Ratio (y) = 0.16771 0.24153
# Poissons Ratio (z) = -0.23370 0.37358
#
# Static dielectric constant tensor:
#      x y z
#    x 1.875900 0.069000 -0.065450 
#    y 0.069000 1.819380 -0.120940 
#    z -0.065450 -0.120940 1.766860 
# 
# From -- ./inp_files/76257.got.cif
#   From: 2010.05.17/outbox.cif.g08.bks.cpg/sg2_39_cif.got.tgz:76257.got - 2010.06.03 11:33:40.
