data_PCOD9028825
_publ_section_title
;
Structure prediction by ZEFSAII (Michael W. Deem and Ramdas Pophale) SiO2 
 PCOD9028825
Probable space group: P -1
;
_chemical_formula_sum "Si O2"
_cell_formula_units_Z 16
_cell_length_a 15.756020
_cell_length_b 22.545184
_cell_length_c 9.080395
_cell_angle_alpha 134.558160
_cell_angle_beta 137.626178
_cell_angle_gamma 19.293743
_cell_volume 718.148039
_symmetry_space_group_name_H-M "P -1"
_symmetry_group_IT_number 2
_symmetry_cell_setting 'triclinic'
loop_
_space_group_symop_operation_xyz
x,y,z
-x,-y,-z
loop_
_atom_site_type_symbol
_atom_site_label
_atom_site_fract_x
_atom_site_fract_y
_atom_site_fract_z
Si Si1 0.870375 0.435552 0.594908
Si Si2 0.984428 0.102705 0.218711
Si Si3 0.362773 0.032029 0.518157
Si Si4 0.603672 0.496410 0.760773
Si Si5 0.635917 0.366990 0.815724
Si Si6 0.979236 0.006036 0.308961
Si Si7 0.342734 0.361175 0.053291
Si Si8 0.862714 0.644417 0.466584
O O1 0.600511 0.538081 0.418291
O O2 0.794064 0.554754 0.814673
O O3 0.139736 0.228490 0.633907
O O4 0.924347 0.426340 0.477183
O O5 0.060059 0.041140 0.381194
O O6 0.174803 0.059340 0.310880
O O7 0.674484 0.313039 0.183738
O O8 0.000000 0.000000 0.000000
O O9 0.500000 0.000000 0.500000
O O10 0.637889 0.831464 0.588407
O O11 0.500000 0.500000 0.500000
O O12 0.777872 0.343698 0.837009
O O13 0.734741 0.504214 0.883277
O O14 0.829139 0.184108 0.812548
O O15 0.500000 0.500000 0.000000
O O16 0.666345 0.172705 0.160499
O O17 0.000000 0.000000 0.500000
O O18 0.270960 0.330062 0.794996
O O19 0.000000 0.500000 0.500000
#
# Coordination Sequence:
#
# PCOD9028825 Si02
#       8
#     2   2   2   2   2   2   2   2
#     4  11  23  45  65  92 132 174 213 266 324 392
#     4  11  21  37  63  92 127 165 212 262 324 374
#     4  10  22  42  65  89 126 173 216 263 323 383
#     4  11  20  39  62  92 128 166 204 259 325 388
#     4  12  24  36  63  99 135 161 213 262 328 386
#     4  11  23  39  63 102 134 168 206 271 328 394
#     4  11  23  44  67  92 133 171 214 264 329 387
#     4  11  27  44  67  93 124 172 228 270 314 383
#
# _framework density 22.279530000000001
#
# number of rings (size 3 to 8) (size 9 to 14) (size 15 to 20)
#    0.000    1.000    3.750    3.375    5.250    0.000 
#    0.000    0.625    0.000    0.000    0.000    0.000 
#    0.000    0.000    0.000    0.000    0.000    0.000 
#
# Total GULP energy -89289.649445 kJ/mol
# GULP energy per Si atom -5580.603090 kJ/mol
# Density = 2.222882 g / cm^3
# Si number density = 22.279530 Si / 1000 Ang^3
#
#
#
# Elastic Constant Matrix: (Units=GPa)
#
#
# Indices 1 2 3 4 5 6 
#
# 1 87.7652 18.5533 5.4891 -3.7996 4.8379 4.7364
# 2 18.5533 133.5775 3.0952 20.8998 -9.2915 6.5773
# 3 5.4891 3.0952 68.7901 12.1627 -6.8315 -7.0983
# 4 -3.7996 20.8998 12.1627 31.9016 0.1749 -5.5108
# 5 4.8379 -9.2915 -6.8315 0.1749 31.4754 -0.4101
# 6 4.7364 6.5773 -7.0983 -5.5108 -0.4101 42.6109
#
#
#
# Elastic Compliance Matrix: (Units=1/GPa)
#
#
# Indices 1 2 3 4 5 6 
#
# 1 0.012401 -0.002421 -0.001924 0.003661 -0.003070 -0.000881
# 2 -0.002421 0.009236 0.001182 -0.007127 0.003371 -0.001849
# 3 -0.001924 0.001182 0.016496 -0.006985 0.004289 0.001917
# 4 0.003661 -0.007127 -0.006985 0.039943 -0.004344 0.004654
# 5 -0.003070 0.003371 0.004289 -0.004344 0.034197 0.000303
# 6 -0.000881 -0.001849 0.001917 0.004654 0.000303 0.024776
#
#
# Mechanical properties :
#
#
# Convention : Reuss Voigt Hill
#
# Bulk Modulus (GPa) = 31.43929 38.26757 34.85343
# Shear Modulus (GPa) = 32.47246 38.73058 35.60152
#
# Velocity S-wave (km/s) = 3.82187 4.17393 4.00177
# Velocity P-wave (km/s) = 5.79806 6.35943 6.08522
#
# Compressibility (1/GPa) = 0.03180733
#
# Stress axis : x y z
#
# Youngs Moduli (GPa) = 80.63582 108.27401 60.62060
#
# Poissons Ratio (x) = 0.26212 0.11662
# Poissons Ratio (y) = 0.19521 -0.07164
# Poissons Ratio (z) = 0.15513 -0.12795
#
# Static dielectric constant tensor:
#      x y z
#    x 1.911200 0.010650 -0.022140 
#    y 0.010650 1.824710 0.030240 
#    z -0.022140 0.030240 1.877990 
# 
# From -- ./inp_files/319486.got.cif
#   From: 2010.05.17/outbox.cif.g08.bks.cpg/sg2_160_cif.got.tgz:319486.got - 2010.06.03 11:33:40.
