data_PCOD9028888
_publ_section_title
;
Structure prediction by ZEFSAII (Michael W. Deem and Ramdas Pophale) SiO2 
 PCOD9028888
Probable space group: P -1
;
_chemical_formula_sum "Si O2"
_cell_formula_units_Z 14
_cell_length_a 11.460616
_cell_length_b 14.759500
_cell_length_c 9.892607
_cell_angle_alpha 75.189915
_cell_angle_beta 141.317302
_cell_angle_gamma 131.079547
_cell_volume 660.378681
_symmetry_space_group_name_H-M "P -1"
_symmetry_group_IT_number 2
_symmetry_cell_setting 'triclinic'
loop_
_space_group_symop_operation_xyz
x,y,z
-x,-y,-z
loop_
_atom_site_type_symbol
_atom_site_label
_atom_site_fract_x
_atom_site_fract_y
_atom_site_fract_z
Si Si1 0.211464 0.459301 0.478374
Si Si2 0.464368 0.089101 0.276198
Si Si3 0.418973 0.283944 0.123995
Si Si4 0.362573 0.321644 0.756908
Si Si5 0.222576 0.502046 0.172842
Si Si6 0.236597 0.849858 0.750680
Si Si7 0.064537 0.782095 0.130004
O O1 0.285672 0.580348 0.581093
O O2 0.361215 0.435032 0.712859
O O3 0.333807 0.515793 0.416982
O O4 0.896094 0.294160 0.244168
O O5 0.346006 0.148472 0.134490
O O6 0.665999 0.144624 0.310454
O O7 0.672291 0.157442 0.566665
O O8 0.210637 0.917102 0.118193
O O9 0.456229 0.317164 0.985980
O O10 0.168833 0.253767 0.973115
O O11 0.547154 0.370501 0.773406
O O12 0.026366 0.176982 0.484636
O O13 0.000000 0.500000 0.000000
O O14 0.073617 0.355568 0.025131
O O15 0.500000 0.000000 0.000000
#
# Coordination Sequence:
#
# PCOD9028888 Si02
#       7
#     2   2   2   2   2   2   2
#     4  10  23  41  68  96 137 177 223 286 349 386
#     4  11  25  40  69 101 133 189 229 276 348 419
#     4  12  23  44  72 105 133 181 237 284 346 412
#     4  10  24  41  70  99 140 179 222 292 349 396
#     4  12  25  42  70 105 135 184 233 285 350 414
#     4  10  22  42  65  93 137 186 221 277 350 399
#     4  11  23  46  66  96 148 173 230 292 339 408
#
# _framework density 21.199957999999999
#
# number of rings (size 3 to 8) (size 9 to 14) (size 15 to 20)
#    0.857    0.286    2.857    3.000    4.000    0.571 
#    0.000    3.571    0.000    0.000    0.000    0.000 
#    0.000    0.000    0.000    0.000    0.000    0.000 
#
# Total GULP energy -78123.597920 kJ/mol
# GULP energy per Si atom -5580.256994 kJ/mol
# Density = 2.115171 g / cm^3
# Si number density = 21.199958 Si / 1000 Ang^3
#
#
#
# Elastic Constant Matrix: (Units=GPa)
#
#
# Indices 1 2 3 4 5 6 
#
# 1 95.4026 55.3977 40.8803 2.0687 -6.4739 20.3076
# 2 55.3977 99.8788 49.1808 -4.1821 -0.5326 1.0612
# 3 40.8803 49.1808 79.9440 8.4817 -16.0803 -4.3433
# 4 2.0687 -4.1821 8.4817 38.6376 6.1140 2.5311
# 5 -6.4739 -0.5326 -16.0803 6.1140 28.4367 -2.6757
# 6 20.3076 1.0612 -4.3433 2.5311 -2.6757 32.8540
#
#
#
# Elastic Compliance Matrix: (Units=1/GPa)
#
#
# Indices 1 2 3 4 5 6 
#
# 1 0.020894 -0.008246 -0.006470 0.000363 -0.000410 -0.013565
# 2 -0.008246 0.019774 -0.010159 0.006005 -0.008357 0.001972
# 3 -0.006470 -0.010159 0.027034 -0.009990 0.016716 0.010032
# 4 0.000363 0.006005 -0.009990 0.031039 -0.012613 -0.005157
# 5 -0.000410 -0.008357 0.016716 -0.012613 0.047795 0.007598
# 6 -0.013565 0.001972 0.010032 -0.005157 0.007598 0.041101
#
#
# Mechanical properties :
#
#
# Convention : Reuss Voigt Hill
#
# Bulk Modulus (GPa) = 55.70165 62.90476 59.30320
# Shear Modulus (GPa) = 20.54468 28.63677 24.59073
#
# Velocity S-wave (km/s) = 3.11640 3.67930 3.40949
# Velocity P-wave (km/s) = 6.26743 6.91276 6.59799
#
# Compressibility (1/GPa) = 0.01795279
#
# Stress axis : x y z
#
# Youngs Moduli (GPa) = 47.85975 50.57085 36.99037
#
# Poissons Ratio (x) = 0.41702 0.23931
# Poissons Ratio (y) = 0.39467 0.37579
# Poissons Ratio (z) = 0.30963 0.51375
#
# Static dielectric constant tensor:
#      x y z
#    x 1.762980 0.020270 0.047310 
#    y 0.020270 1.769320 -0.008030 
#    z 0.047310 -0.008030 1.814130 
# 
# From -- ./inp_files/272741.got.cif
#   From: 2010.05.17/outbox.cif.g08.bks.cpg/sg2_137_cif.got.tgz:272741.got - 2010.06.03 11:33:40.
