data_PCOD9028570
_publ_section_title
;
Structure prediction by ZEFSAII (Michael W. Deem and Ramdas Pophale) SiO2 
 PCOD9028570
Probable space group: P -1
;
_chemical_formula_sum "Si O2"
_cell_formula_units_Z 16
_cell_length_a 11.163610
_cell_length_b 12.116580
_cell_length_c 12.506617
_cell_angle_alpha 47.845048
_cell_angle_beta 56.107847
_cell_angle_gamma 94.075097
_cell_volume 718.486704
_symmetry_space_group_name_H-M "P -1"
_symmetry_group_IT_number 2
_symmetry_cell_setting 'triclinic'
loop_
_space_group_symop_operation_xyz
x,y,z
-x,-y,-z
loop_
_atom_site_type_symbol
_atom_site_label
_atom_site_fract_x
_atom_site_fract_y
_atom_site_fract_z
Si Si1 0.568227 0.089090 0.240867
Si Si2 0.318352 0.203823 0.328380
Si Si3 0.051923 0.065165 0.167951
Si Si4 0.959878 0.665147 0.144292
Si Si5 0.351698 0.821482 0.100783
Si Si6 0.910210 0.637963 0.438523
Si Si7 0.658771 0.617812 0.015382
Si Si8 0.775369 0.395718 0.211573
O O1 0.478625 0.188095 0.238732
O O2 0.415440 0.862278 0.526942
O O3 0.810499 0.236598 0.051878
O O4 0.567861 0.065954 0.127813
O O5 0.254122 0.236936 0.228790
O O6 0.112453 0.992313 0.626852
O O7 0.430204 0.404431 0.222065
O O8 0.272235 0.231250 0.014484
O O9 0.963467 0.841964 0.319956
O O10 0.046902 0.171994 0.001598
O O11 0.902604 0.623146 0.323603
O O12 0.798328 0.460030 0.282178
O O13 0.294896 0.603039 0.262198
O O14 0.123913 0.714282 0.313635
O O15 0.500000 0.000000 0.000000
O O16 0.736506 0.512999 0.083717
O O17 0.000000 0.500000 0.000000
#
# Coordination Sequence:
#
# PCOD9028570 Si02
#       8
#     2   2   2   2   2   2   2   2
#     4  11  23  40  66  92 127 171 209 263 315 379
#     4  11  24  40  61  94 131 164 211 259 325 378
#     4  11  23  40  66  90 130 166 211 263 321 377
#     4  10  22  42  63  95 129 167 215 262 315 376
#     4  10  23  42  63  91 126 168 215 260 315 375
#     4  10  23  41  64  93 124 170 216 262 313 378
#     4  10  24  40  57  93 128 164 209 258 318 381
#     4  11  22  40  66  95 129 168 211 260 321 382
#
# _framework density 22.269027000000001
#
# number of rings (size 3 to 8) (size 9 to 14) (size 15 to 20)
#    0.000    1.500    0.000    4.500    5.250    1.500 
#    2.250    0.000    0.000    8.250    0.000    0.000 
#    0.000    0.000    0.000    0.000    0.000    0.000 
#
# Total GULP energy -89304.823105 kJ/mol
# GULP energy per Si atom -5581.551444 kJ/mol
# Density = 2.221834 g / cm^3
# Si number density = 22.269027 Si / 1000 Ang^3
#
#
#
# Elastic Constant Matrix: (Units=GPa)
#
#
# Indices 1 2 3 4 5 6 
#
# 1 100.9451 49.5985 23.5717 -9.1832 15.0054 22.0155
# 2 49.5985 100.3705 12.7708 -30.1706 0.2299 9.3711
# 3 23.5717 12.7708 74.4961 -17.8672 18.5355 -7.0916
# 4 -9.1832 -30.1706 -17.8672 24.0760 -6.2237 -3.1581
# 5 15.0054 0.2299 18.5355 -6.2237 28.0243 2.0020
# 6 22.0155 9.3711 -7.0916 -3.1581 2.0020 34.1855
#
#
#
# Elastic Compliance Matrix: (Units=1/GPa)
#
#
# Indices 1 2 3 4 5 6 
#
# 1 0.020948 -0.013997 -0.007719 -0.019348 -0.009400 -0.012492
# 2 -0.013997 0.026270 0.006459 0.035871 0.010556 0.005849
# 3 -0.007719 0.006459 0.022590 0.021499 -0.006820 0.010272
# 4 -0.019348 0.035871 0.021499 0.101560 0.017297 0.015456
# 5 -0.009400 0.010556 -0.006820 0.017297 0.048948 0.000477
# 6 -0.012492 0.005849 0.010272 0.015456 0.000477 0.039225
#
#
# Mechanical properties :
#
#
# Convention : Reuss Voigt Hill
#
# Bulk Modulus (GPa) = 25.44977 49.74375 37.59676
# Shear Modulus (GPa) = 16.49330 29.91520 23.20425
#
# Velocity S-wave (km/s) = 2.72442 3.66916 3.23150
# Velocity P-wave (km/s) = 4.62058 6.35110 5.55365
#
# Compressibility (1/GPa) = 0.03929309
#
# Stress axis : x y z
#
# Youngs Moduli (GPa) = 47.73723 38.06568 44.26785
#
# Poissons Ratio (x) = 0.53282 0.34172
# Poissons Ratio (y) = 0.66819 -0.28593
# Poissons Ratio (z) = 0.36850 -0.24587
#
# Static dielectric constant tensor:
#      x y z
#    x 1.828750 -0.042050 -0.004240 
#    y -0.042050 1.870650 -0.013420 
#    z -0.004240 -0.013420 1.789960 
# 
# From -- ./inp_files/427551.got.cif
#   From: 2010.05.17/outbox.cif.g08.bks.cpg/sg2_214_cif.got.tgz:427551.got - 2010.06.03 11:33:40.
