data_PCOD9028171
_publ_section_title
;
Structure prediction by ZEFSAII (Michael W. Deem and Ramdas Pophale) SiO2 
 PCOD9028171
Probable space group: P -1
;
_chemical_formula_sum "Si O2"
_cell_formula_units_Z 14
_cell_length_a 10.476876
_cell_length_b 14.199999
_cell_length_c 7.586616
_cell_angle_alpha 52.307145
_cell_angle_beta 59.589022
_cell_angle_gamma 37.990439
_cell_volume 549.055487
_symmetry_space_group_name_H-M "P -1"
_symmetry_group_IT_number 2
_symmetry_cell_setting 'triclinic'
loop_
_space_group_symop_operation_xyz
x,y,z
-x,-y,-z
loop_
_atom_site_type_symbol
_atom_site_label
_atom_site_fract_x
_atom_site_fract_y
_atom_site_fract_z
Si Si1 0.615253 0.812531 0.581924
Si Si2 0.275346 0.164886 0.897182
Si Si3 0.114524 0.852711 0.414650
Si Si4 0.956160 0.681358 0.770757
Si Si5 0.279705 0.566625 0.448187
Si Si6 0.965283 0.160373 0.974785
Si Si7 0.624030 0.263451 0.310332
O O1 0.697187 0.773396 0.368471
O O2 0.798733 0.707090 0.716423
O O3 0.455606 0.792528 0.703990
O O4 0.500000 0.000000 0.500000
O O5 0.126176 0.300263 0.998598
O O6 0.165174 0.107334 0.977968
O O7 0.500000 0.000000 0.000000
O O8 0.321065 0.669834 0.397604
O O9 0.208194 0.865132 0.506961
O O10 0.969020 0.820645 0.600318
O O11 0.016342 0.992353 0.174369
O O12 0.187595 0.531903 0.702713
O O13 0.432370 0.422689 0.369841
O O14 0.083217 0.728637 0.284945
O O15 0.750478 0.291889 0.083647
#
# Coordination Sequence:
#
# PCOD9028171 Si02
#       7
#     2   2   2   2   2   2   2
#     4  12  25  44  68 106 140 186 240 298 349 422
#     4  12  23  41  72 102 140 183 238 295 351 416
#     4  10  22  41  72 100 136 183 241 288 347 412
#     4  10  23  44  68  99 148 184 233 293 357 417
#     4  10  24  44  71 104 147 187 232 292 362 424
#     4  12  22  42  70 107 139 186 237 297 345 421
#     4  12  25  44  74 103 145 188 239 290 361 421
#
# _framework density 25.498335999999998
#
# number of rings (size 3 to 8) (size 9 to 14) (size 15 to 20)
#    0.857    0.000    4.286    3.429    0.000    1.714 
#    2.571    0.714    0.000    0.000    0.000    0.000 
#    0.000    0.000    0.000    0.000    0.000    0.000 
#
# Total GULP energy -78047.742137 kJ/mol
# GULP energy per Si atom -5574.838724 kJ/mol
# Density = 2.544030 g / cm^3
# Si number density = 25.498336 Si / 1000 Ang^3
#
#
#
# Elastic Constant Matrix: (Units=GPa)
#
#
# Indices 1 2 3 4 5 6 
#
# 1 120.0072 -5.9474 -1.8261 -20.2730 -24.2759 7.1762
# 2 -5.9474 84.1213 11.6941 8.3897 -10.2651 -0.0190
# 3 -1.8261 11.6941 93.0608 10.6897 -0.1038 9.5791
# 4 -20.2730 8.3897 10.6897 37.3629 -1.2528 -4.8146
# 5 -24.2759 -10.2651 -0.1038 -1.2528 38.3494 10.2741
# 6 7.1762 -0.0190 9.5791 -4.8146 10.2741 21.8093
#
#
#
# Elastic Compliance Matrix: (Units=1/GPa)
#
#
# Indices 1 2 3 4 5 6 
#
# 1 0.011805 0.001496 0.000213 0.005376 0.010068 -0.007533
# 2 0.001496 0.012964 -0.001071 -0.001990 0.005115 -0.002859
# 3 0.000213 -0.001071 0.012060 -0.003943 0.001629 -0.007006
# 4 0.005376 -0.001990 -0.003943 0.032102 0.002312 0.005959
# 5 0.010068 0.005115 0.001629 0.002312 0.039872 -0.022296
# 6 -0.007533 -0.002859 -0.007006 0.005959 -0.022296 0.063224
#
#
# Mechanical properties :
#
#
# Convention : Reuss Voigt Hill
#
# Bulk Modulus (GPa) = 26.24352 33.89229 30.06791
# Shear Modulus (GPa) = 27.25481 39.05556 33.15519
#
# Velocity S-wave (km/s) = 3.27293 3.91793 3.60986
# Velocity P-wave (km/s) = 4.95957 5.81272 5.40301
#
# Compressibility (1/GPa) = 0.03810465
#
# Stress axis : x y z
#
# Youngs Moduli (GPa) = 84.70763 77.13511 82.91691
#
# Poissons Ratio (x) = -0.11537 -0.01764
# Poissons Ratio (y) = -0.12670 0.08881
# Poissons Ratio (z) = -0.01802 0.08262
#
# Static dielectric constant tensor:
#      x y z
#    x 2.095060 0.030090 0.065570 
#    y 0.030090 2.203930 0.021350 
#    z 0.065570 0.021350 2.107110 
# 
# From -- ./inp_files/264111.got.cif
#   From: 2010.05.17/outbox.cif.g08.bks.cpg/sg2_133_cif.got.tgz:264111.got - 2010.06.03 11:33:40.
