data_PCOD9028433
_publ_section_title
;
Structure prediction by ZEFSAII (Michael W. Deem and Ramdas Pophale) SiO2 
 PCOD9028433
Probable space group: P -1
;
_chemical_formula_sum "Si O2"
_cell_formula_units_Z 16
_cell_length_a 6.818403
_cell_length_b 27.199246
_cell_length_c 5.045040
_cell_angle_alpha 113.020638
_cell_angle_beta 69.344301
_cell_angle_gamma 126.135251
_cell_volume 686.010214
_symmetry_space_group_name_H-M "P -1"
_symmetry_group_IT_number 2
_symmetry_cell_setting 'triclinic'
loop_
_space_group_symop_operation_xyz
x,y,z
-x,-y,-z
loop_
_atom_site_type_symbol
_atom_site_label
_atom_site_fract_x
_atom_site_fract_y
_atom_site_fract_z
Si Si1 0.698690 0.760505 0.798509
Si Si2 0.048298 0.938656 0.561888
Si Si3 0.535114 0.218556 0.543293
Si Si4 0.272774 0.078406 0.820630
Si Si5 0.520244 0.540876 0.325951
Si Si6 0.070725 0.639118 0.342966
Si Si7 0.767774 0.151092 0.509522
Si Si8 0.707368 0.381375 0.298667
O O1 0.553987 0.777856 0.695829
O O2 0.553260 0.685089 0.715434
O O3 0.967159 0.792984 0.608027
O O4 0.660437 0.782779 0.152035
O O5 0.159589 0.900070 0.556768
O O6 0.909261 0.916622 0.297397
O O7 0.246961 0.012817 0.605801
O O8 0.849111 0.931389 0.856928
O O9 0.779972 0.286587 0.624545
O O10 0.600733 0.165404 0.422810
O O11 0.560679 0.131738 0.798109
O O12 0.500000 0.500000 0.500000
O O13 0.324826 0.562312 0.479526
O O14 0.786276 0.604109 0.341345
O O15 0.500000 0.500000 0.000000
O O16 0.120791 0.626981 0.592901
O O17 0.187283 0.611071 0.029491
#
# Coordination Sequence:
#
# PCOD9028433 Si02
#       8
#     2   2   2   2   2   2   2   2
#     4  10  23  40  60  88 118 152 196 240 287 350
#     4  10  23  41  59  85 120 156 197 240 287 350
#     4  10  23  40  60  88 118 152 196 240 287 350
#     4  10  23  41  59  85 120 156 197 240 287 350
#     4  12  25  38  60  93 118 148 199 244 283 342
#     4  10  22  42  62  83 119 159 191 235 294 346
#     4  12  22  38  64  89 118 154 194 244 300 336
#     4  10  22  42  62  83 119 159 191 235 294 346
#
# _framework density 23.323269
#
# number of rings (size 3 to 8) (size 9 to 14) (size 15 to 20)
#    0.000    1.500    0.000    4.125    0.000    7.000 
#    0.000   11.250    0.000    0.000    0.000    0.000 
#    0.000    0.000    0.000    0.000    0.000    0.000 
#
# Total GULP energy -89181.089984 kJ/mol
# GULP energy per Si atom -5573.818124 kJ/mol
# Density = 2.327018 g / cm^3
# Si number density = 23.323269 Si / 1000 Ang^3
#
#
#
# Elastic Constant Matrix: (Units=GPa)
#
#
# Indices 1 2 3 4 5 6 
#
# 1 43.4180 19.4503 17.8412 8.0811 -18.3088 -8.1105
# 2 19.4503 40.2350 20.0388 1.5529 -5.1733 -4.5417
# 3 17.8412 20.0388 68.8254 -4.7616 14.4537 0.3691
# 4 8.0811 1.5529 -4.7616 37.2434 -1.8297 -15.5560
# 5 -18.3088 -5.1733 14.4537 -1.8297 34.7821 -3.4782
# 6 -8.1105 -4.5417 0.3691 -15.5560 -3.4782 54.1010
#
#
#
# Elastic Compliance Matrix: (Units=1/GPa)
#
#
# Indices 1 2 3 4 5 6 
#
# 1 0.052535 -0.010891 -0.018191 -0.008800 0.033803 0.006728
# 2 -0.010891 0.034526 -0.007783 0.000791 0.002851 0.001730
# 3 -0.018191 -0.007783 0.026464 0.005126 -0.021809 -0.003489
# 4 -0.008800 0.000791 0.005126 0.032422 -0.004162 0.007767
# 5 0.033803 0.002851 -0.021809 -0.004162 0.056601 0.007898
# 6 0.006728 0.001730 -0.003489 0.007767 0.007898 0.022403
#
#
# Mechanical properties :
#
#
# Convention : Reuss Voigt Hill
#
# Bulk Modulus (GPa) = 25.12781 29.68210 27.40496
# Shear Modulus (GPa) = 16.02846 31.56851 23.79849
#
# Velocity S-wave (km/s) = 2.62435 3.68301 3.19780
# Velocity P-wave (km/s) = 4.46991 5.55339 5.04084
#
# Compressibility (1/GPa) = 0.03979654
#
# Stress axis : x y z
#
# Youngs Moduli (GPa) = 19.03510 28.96359 37.78657
#
# Poissons Ratio (x) = 0.31544 0.68737
# Poissons Ratio (y) = 0.20731 0.29408
# Poissons Ratio (z) = 0.34627 0.22541
#
# Static dielectric constant tensor:
#      x y z
#    x 1.859210 0.022490 -0.015330 
#    y 0.022490 1.986600 0.004020 
#    z -0.015330 0.004020 1.856280 
# 
# From -- ./inp_files/14644.got.cif
#   From: 2010.05.17/outbox.cif.g08.bks.cpg/sg2_8_cif.got.tgz:14644.got - 2010.06.03 11:33:40.
