data_PCOD9028101
_publ_section_title
;
Structure prediction by ZEFSAII (Michael W. Deem and Ramdas Pophale) SiO2 
 PCOD9028101
Probable space group: P -1
;
_chemical_formula_sum "Si O2"
_cell_formula_units_Z 14
_cell_length_a 23.373884
_cell_length_b 16.552399
_cell_length_c 13.275149
_cell_angle_alpha 27.317181
_cell_angle_beta 27.576242
_cell_angle_gamma 14.987083
_cell_volume 592.149170
_symmetry_space_group_name_H-M "P -1"
_symmetry_group_IT_number 2
_symmetry_cell_setting 'triclinic'
loop_
_space_group_symop_operation_xyz
x,y,z
-x,-y,-z
loop_
_atom_site_type_symbol
_atom_site_label
_atom_site_fract_x
_atom_site_fract_y
_atom_site_fract_z
Si Si1 0.900332 0.953743 0.489837
Si Si2 0.227825 0.403128 0.755115
Si Si3 0.530747 0.729683 0.949710
Si Si4 0.762610 0.748785 0.872469
Si Si5 0.967500 0.368331 0.767243
Si Si6 0.735564 0.301827 0.539951
Si Si7 0.294318 0.674009 0.062274
O O1 0.029729 0.699004 0.661621
O O2 0.092515 0.824936 0.272190
O O3 0.778332 0.942762 0.633487
O O4 0.746569 0.281634 0.424088
O O5 0.371936 0.402846 0.563231
O O6 0.372960 0.085706 0.821614
O O7 0.150882 0.425050 0.960794
O O8 0.752664 0.507922 0.913965
O O9 0.613196 0.585479 0.869419
O O10 0.393913 0.719509 0.205533
O O11 0.912252 0.496284 0.826112
O O12 0.500000 0.000000 0.000000
O O13 0.000000 0.500000 0.500000
O O14 0.180998 0.983025 0.849037
O O15 0.000000 0.000000 0.500000
O O16 0.500000 0.500000 0.000000
#
# Coordination Sequence:
#
# PCOD9028101 Si02
#       7
#     2   2   2   2   2   2   2
#     4  11  24  45  72 109 152 197 248 320 375 443
#     4  11  24  43  77 108 151 195 250 307 383 437
#     4  12  26  48  75 107 155 199 251 315 381 446
#     4  12  24  45  74 113 147 197 254 303 380 457
#     4  12  29  51  76 110 155 205 256 313 380 456
#     4  10  22  41  71 107 144 192 247 305 369 444
#     4  12  29  49  76 112 151 200 260 312 379 457
#
# _framework density 23.642690999999999
#
# number of rings (size 3 to 8) (size 9 to 14) (size 15 to 20)
#    0.000    0.571    2.857    4.286    8.000    1.714 
#    0.000    2.857    0.000    0.000    0.000    0.000 
#    0.000    0.000    0.000    0.000    0.000    0.000 
#
# Total GULP energy -78332.098089 kJ/mol
# GULP energy per Si atom -5595.149863 kJ/mol
# Density = 2.358888 g / cm^3
# Si number density = 23.642691 Si / 1000 Ang^3
#
#
#
# Elastic Constant Matrix: (Units=GPa)
#
#
# Indices 1 2 3 4 5 6 
#
# 1 121.5732 42.1566 35.6199 -14.7043 -32.2981 24.5926
# 2 42.1566 71.5652 36.8035 -6.0173 -17.3597 5.1356
# 3 35.6199 36.8035 135.5340 6.6199 -29.5780 -6.9153
# 4 -14.7043 -6.0173 6.6199 36.6101 3.8610 -7.9336
# 5 -32.2981 -17.3597 -29.5780 3.8610 62.7073 -1.3362
# 6 24.5926 5.1356 -6.9153 -7.9336 -1.3362 48.6789
#
#
#
# Elastic Compliance Matrix: (Units=1/GPa)
#
#
# Indices 1 2 3 4 5 6 
#
# 1 0.013154 -0.005259 -0.001530 0.003008 0.004291 -0.005700
# 2 -0.005259 0.019309 -0.003760 0.001745 0.000764 0.000391
# 3 -0.001530 -0.003760 0.009697 -0.002829 0.002965 0.002168
# 4 0.003008 0.001745 -0.002829 0.030035 -0.001092 0.002759
# 5 0.004291 0.000764 0.002965 -0.001092 0.019804 -0.001462
# 6 -0.005700 0.000391 0.002168 0.002759 -0.001462 0.024099
#
#
# Mechanical properties :
#
#
# Convention : Reuss Voigt Hill
#
# Bulk Modulus (GPa) = 47.47800 61.98136 54.72968
# Shear Modulus (GPa) = 34.67031 43.87208 39.27120
#
# Velocity S-wave (km/s) = 3.83355 4.31238 4.07999
# Velocity P-wave (km/s) = 6.30237 7.14620 6.73751
#
# Compressibility (1/GPa) = 0.02106239
#
# Stress axis : x y z
#
# Youngs Moduli (GPa) = 76.02082 51.79046 103.12206
#
# Poissons Ratio (x) = 0.27236 0.15782
# Poissons Ratio (y) = 0.39978 0.38769
# Poissons Ratio (z) = 0.11634 0.19471
#
# Static dielectric constant tensor:
#      x y z
#    x 1.912610 0.020320 -0.017780 
#    y 0.020320 2.036290 -0.018330 
#    z -0.017780 -0.018330 1.970230 
# 
# From -- ./inp_files/471835.got.cif
#   From: 2010.05.17/outbox.cif.g08.bks.cpg/sg2_236_cif.got.tgz:471835.got - 2010.06.03 11:33:40.
