data_PCOD9028868
_publ_section_title
;
Structure prediction by ZEFSAII (Michael W. Deem and Ramdas Pophale) SiO2 
 PCOD9028868
Probable space group: P -1
;
_chemical_formula_sum "Si O2"
_cell_formula_units_Z 16
_cell_length_a 15.256297
_cell_length_b 15.900577
_cell_length_c 11.458080
_cell_angle_alpha 140.247545
_cell_angle_beta 129.413805
_cell_angle_gamma 27.643170
_cell_volume 814.634617
_symmetry_space_group_name_H-M "P -1"
_symmetry_group_IT_number 2
_symmetry_cell_setting 'triclinic'
loop_
_space_group_symop_operation_xyz
x,y,z
-x,-y,-z
loop_
_atom_site_type_symbol
_atom_site_label
_atom_site_fract_x
_atom_site_fract_y
_atom_site_fract_z
Si Si1 0.476665 0.026420 0.650711
Si Si2 0.040432 0.741599 0.948925
Si Si3 0.117691 0.177133 0.529942
Si Si4 0.898342 0.219879 0.586149
Si Si5 0.288044 0.734847 0.731751
Si Si6 0.648425 0.565030 0.938904
Si Si7 0.047965 0.818095 0.788471
Si Si8 0.104012 0.402655 0.357619
O O1 0.308693 0.082546 0.603487
O O2 0.500000 0.000000 0.500000
O O3 0.673715 0.805253 0.644220
O O4 0.421987 0.223881 0.859958
O O5 0.077382 0.699669 0.797372
O O6 0.959919 0.673544 0.840120
O O7 0.235747 0.593805 0.020584
O O8 0.881913 0.998173 0.118768
O O9 0.039707 0.171574 0.570112
O O10 0.129792 0.058851 0.310249
O O11 0.963483 0.419163 0.596209
O O12 0.733434 0.310349 0.461140
O O13 0.804392 0.406434 0.798467
O O14 0.000000 0.000000 0.500000
O O15 0.476038 0.633380 0.824443
O O16 0.229408 0.673934 0.706704
O O17 0.000000 0.000000 0.000000
O O18 0.000000 0.500000 0.500000
#
# Coordination Sequence:
#
# PCOD9028868 Si02
#       8
#     2   2   2   2   2   2   2   2
#     4  12  24  41  69 105 137 172 219 277 337 414
#     4  11  19  38  64  96 132 173 212 276 346 383
#     4  11  24  44  67  98 134 178 225 272 341 392
#     4  11  25  50  69  91 138 183 230 282 321 389
#     4  10  22  42  65  92 130 176 225 274 327 393
#     4  12  24  41  70  96 131 183 223 271 334 392
#     4   9  20  37  61  93 134 170 214 275 329 397
#     4  12  21  41  66  97 141 172 211 278 340 399
#
# _framework density 19.640706999999999
#
# number of rings (size 3 to 8) (size 9 to 14) (size 15 to 20)
#    0.000    1.000    6.250    0.375    1.750    1.000 
#    6.750    0.625    0.000    0.000    0.000    0.000 
#    0.000    0.000    0.000    0.000    0.000    0.000 
#
# Total GULP energy -89241.240962 kJ/mol
# GULP energy per Si atom -5577.577560 kJ/mol
# Density = 1.959600 g / cm^3
# Si number density = 19.640707 Si / 1000 Ang^3
#
#
#
# Elastic Constant Matrix: (Units=GPa)
#
#
# Indices 1 2 3 4 5 6 
#
# 1 109.9581 51.7031 37.6468 -5.2150 12.3252 4.3404
# 2 51.7031 116.4154 15.6088 -5.9377 3.5865 -15.8309
# 3 37.6468 15.6088 102.3737 -6.8459 0.4045 -2.9885
# 4 -5.2150 -5.9377 -6.8459 34.3818 -1.3497 8.9230
# 5 12.3252 3.5865 0.4045 -1.3497 34.0248 -7.1371
# 6 4.3404 -15.8309 -2.9885 8.9230 -7.1371 31.2850
#
#
#
# Elastic Compliance Matrix: (Units=1/GPa)
#
#
# Indices 1 2 3 4 5 6 
#
# 1 0.014966 -0.006826 -0.004536 0.002009 -0.006238 -0.007960
# 2 -0.006826 0.012508 0.000782 -0.000739 0.002838 0.008209
# 3 -0.004536 0.000782 0.011456 0.001230 0.001937 0.002210
# 4 0.002009 -0.000739 0.001230 0.032048 -0.001494 -0.010016
# 5 -0.006238 0.002838 0.001937 -0.001494 0.033482 0.010551
# 6 -0.007960 0.008209 0.002210 -0.010016 0.010551 0.042698
#
#
# Mechanical properties :
#
#
# Convention : Reuss Voigt Hill
#
# Bulk Modulus (GPa) = 56.27570 59.85160 58.06365
# Shear Modulus (GPa) = 28.69585 34.85754 31.77669
#
# Velocity S-wave (km/s) = 3.82650 4.21736 4.02668
# Velocity P-wave (km/s) = 6.94533 7.36575 7.15863
#
# Compressibility (1/GPa) = 0.01776966
#
# Stress axis : x y z
#
# Youngs Moduli (GPa) = 66.81855 79.94853 87.28951
#
# Poissons Ratio (x) = 0.54576 0.39596
# Poissons Ratio (y) = 0.45613 -0.06828
# Poissons Ratio (z) = 0.30310 -0.06254
#
# Static dielectric constant tensor:
#      x y z
#    x 1.737250 0.032100 0.044760 
#    y 0.032100 1.715740 0.051700 
#    z 0.044760 0.051700 1.840830 
# 
# From -- ./inp_files/455967.got.cif
#   From: 2010.05.17/outbox.cif.g08.bks.cpg/sg2_228_cif.got.tgz:455967.got - 2010.06.03 11:33:40.
