data_PCOD9028870
_publ_section_title
;
Structure prediction by ZEFSAII (Michael W. Deem and Ramdas Pophale) SiO2 
 PCOD9028870
Probable space group: P -1
;
_chemical_formula_sum "Si O2"
_cell_formula_units_Z 16
_cell_length_a 14.367254
_cell_length_b 9.899117
_cell_length_c 9.344270
_cell_angle_alpha 54.216810
_cell_angle_beta 66.069834
_cell_angle_gamma 36.179987
_cell_volume 630.296324
_symmetry_space_group_name_H-M "P -1"
_symmetry_group_IT_number 2
_symmetry_cell_setting 'triclinic'
loop_
_space_group_symop_operation_xyz
x,y,z
-x,-y,-z
loop_
_atom_site_type_symbol
_atom_site_label
_atom_site_fract_x
_atom_site_fract_y
_atom_site_fract_z
Si Si1 0.281325 0.167872 0.529275
Si Si2 0.025792 0.858408 0.805382
Si Si3 0.894589 0.864060 0.480082
Si Si4 0.690304 0.211837 0.649025
Si Si5 0.627299 0.608306 0.590045
Si Si6 0.249453 0.501829 0.133578
Si Si7 0.112157 0.450070 0.841389
Si Si8 0.546168 0.112011 0.981395
O O1 0.153404 0.182234 0.599872
O O2 0.300715 0.299453 0.542660
O O3 0.251391 0.310675 0.312089
O O4 0.451919 0.867140 0.596751
O O5 0.142723 0.596926 0.796179
O O6 0.037304 0.039947 0.654825
O O7 0.092065 0.739182 0.995790
O O8 0.855612 0.010424 0.761327
O O9 0.009153 0.611002 0.664944
O O10 0.741176 0.094150 0.532436
O O11 0.629873 0.474914 0.545215
O O12 0.571768 0.232321 0.783266
O O13 0.725724 0.423529 0.783136
O O14 0.406557 0.326331 0.047681
O O15 0.275542 0.144749 0.910770
O O16 0.000000 0.500000 0.000000
O O17 0.500000 0.000000 0.000000
#
# Coordination Sequence:
#
# PCOD9028870 Si02
#       8
#     2   2   2   2   2   2   2   2
#     4   9  21  45  66  90 132 174 211 267 327 375
#     4  11  23  41  64 100 133 170 213 275 323 382
#     4  11  23  40  69  97 129 170 216 275 321 376
#     4  11  24  42  65  97 132 169 218 265 333 376
#     4   9  23  44  67  90 136 173 212 266 328 384
#     4  10  22  42  65  92 135 167 221 255 322 391
#     4  11  20  40  63  91 139 164 211 268 323 378
#     4  12  23  36  67 102 124 171 218 262 325 381
#
# _framework density 25.384885000000001
#
# number of rings (size 3 to 8) (size 9 to 14) (size 15 to 20)
#    0.750    0.750    3.750    3.000    1.750    3.500 
#    0.000    0.625    0.000    0.000    0.000    0.000 
#    0.000    0.000    0.000    0.000    0.000    0.000 
#
# Total GULP energy -89498.502963 kJ/mol
# GULP energy per Si atom -5593.656435 kJ/mol
# Density = 2.532711 g / cm^3
# Si number density = 25.384885 Si / 1000 Ang^3
#
#
#
# Elastic Constant Matrix: (Units=GPa)
#
#
# Indices 1 2 3 4 5 6 
#
# 1 125.1035 14.6865 38.6178 -5.3519 -23.2597 5.8553
# 2 14.6865 98.0631 6.5409 0.2908 -11.8368 8.5991
# 3 38.6178 6.5409 89.8943 -7.9731 1.2442 -14.1446
# 4 -5.3519 0.2908 -7.9731 39.0689 -14.2615 -3.7759
# 5 -23.2597 -11.8368 1.2442 -14.2615 51.5711 -9.2119
# 6 5.8553 8.5991 -14.1446 -3.7759 -9.2119 44.8655
#
#
#
# Elastic Compliance Matrix: (Units=1/GPa)
#
#
# Indices 1 2 3 4 5 6 
#
# 1 0.010602 -0.000536 -0.004624 0.002237 0.005121 -0.001499
# 2 -0.000536 0.010733 -0.000846 0.000218 0.001975 -0.001830
# 3 -0.004624 -0.000846 0.014225 0.002411 -0.001019 0.005244
# 4 0.002237 0.000218 0.002411 0.030689 0.010407 0.005146
# 5 0.005121 0.001975 -0.001019 0.010407 0.025919 0.004829
# 6 -0.001499 -0.001830 0.005244 0.005146 0.004829 0.025913
#
#
# Mechanical properties :
#
#
# Convention : Reuss Voigt Hill
#
# Bulk Modulus (GPa) = 42.46952 48.08348 45.27650
# Shear Modulus (GPa) = 36.24730 43.98214 40.11472
#
# Velocity S-wave (km/s) = 3.78287 4.16698 3.97956
# Velocity P-wave (km/s) = 5.98721 6.49111 6.24425
#
# Compressibility (1/GPa) = 0.02354630
#
# Stress axis : x y z
#
# Youngs Moduli (GPa) = 94.32592 93.17436 70.29858
#
# Poissons Ratio (x) = 0.04998 0.32503
# Poissons Ratio (y) = 0.05060 0.05950
# Poissons Ratio (z) = 0.43612 0.07886
#
# Static dielectric constant tensor:
#      x y z
#    x 2.013660 -0.007870 0.032840 
#    y -0.007870 2.093340 -0.020750 
#    z 0.032840 -0.020750 1.985290 
# 
# From -- ./inp_files/452137.got.cif
#   From: 2010.05.17/outbox.cif.g08.bks.cpg/sg2_227_cif.got.tgz:452137.got - 2010.06.03 11:33:40.
