data_PCOD9028781
_publ_section_title
;
Structure prediction by ZEFSAII (Michael W. Deem and Ramdas Pophale) SiO2 
 PCOD9028781
Probable space group: P -1
;
_chemical_formula_sum "Si O2"
_cell_formula_units_Z 16
_cell_length_a 9.492620
_cell_length_b 7.886500
_cell_length_c 12.415957
_cell_angle_alpha 76.391395
_cell_angle_beta 63.120575
_cell_angle_gamma 48.231796
_cell_volume 615.326200
_symmetry_space_group_name_H-M "P -1"
_symmetry_group_IT_number 2
_symmetry_cell_setting 'triclinic'
loop_
_space_group_symop_operation_xyz
x,y,z
-x,-y,-z
loop_
_atom_site_type_symbol
_atom_site_label
_atom_site_fract_x
_atom_site_fract_y
_atom_site_fract_z
Si Si1 0.458386 0.877501 0.795827
Si Si2 0.665489 0.692025 0.142216
Si Si3 0.919010 0.603564 0.863320
Si Si4 0.023461 0.134178 0.824627
Si Si5 0.794177 0.067343 0.434841
Si Si6 0.385783 0.262728 0.464559
Si Si7 0.981798 0.734218 0.611116
Si Si8 0.599492 0.257391 0.953234
O O1 0.861309 0.742039 0.753454
O O2 0.416533 0.113172 0.771801
O O3 0.493118 0.812772 0.918434
O O4 0.238163 0.939177 0.839227
O O5 0.488414 0.710611 0.140875
O O6 0.861473 0.465783 0.166261
O O7 0.776450 0.715024 0.000727
O O8 0.951434 0.374029 0.859858
O O9 0.843610 0.118613 0.893760
O O10 0.090740 0.097647 0.683197
O O11 0.556682 0.269443 0.455737
O O12 0.901078 0.172732 0.410236
O O13 0.833835 0.902217 0.541541
O O14 0.158764 0.469927 0.554249
O O15 0.394281 0.279933 0.329240
O O16 0.500000 0.000000 0.500000
O O17 0.500000 0.500000 0.000000
#
# Coordination Sequence:
#
# PCOD9028781 Si02
#       8
#     2   2   2   2   2   2   2   2
#     4  10  24  43  65  95 133 182 217 275 344 409
#     4  10  22  42  64  99 135 169 232 272 337 414
#     4  10  22  43  69  94 133 184 219 277 347 403
#     4  10  22  44  66  94 138 174 225 278 345 406
#     4  10  25  45  67 107 135 177 233 282 345 408
#     4  11  24  46  72 101 136 182 232 281 342 409
#     4  11  24  45  73 100 137 182 226 289 341 405
#     4  12  24  39  64 103 131 172 225 281 333 403
#
# _framework density 26.002469999999999
#
# number of rings (size 3 to 8) (size 9 to 14) (size 15 to 20)
#    0.000    1.500    1.250    3.375    3.500    5.000 
#    9.000    0.000    0.000    0.000    0.000    0.000 
#    0.000    0.000    0.000    0.000    0.000    0.000 
#
# Total GULP energy -89589.733341 kJ/mol
# GULP energy per Si atom -5599.358334 kJ/mol
# Density = 2.594329 g / cm^3
# Si number density = 26.002470 Si / 1000 Ang^3
#
#
#
# Elastic Constant Matrix: (Units=GPa)
#
#
# Indices 1 2 3 4 5 6 
#
# 1 127.3455 1.5003 20.8200 6.9590 6.7462 -16.5008
# 2 1.5003 70.1521 40.3505 7.7165 3.2965 4.1464
# 3 20.8200 40.3505 119.7462 -5.9959 -0.8751 -11.8478
# 4 6.9590 7.7165 -5.9959 49.0991 -4.1164 5.6390
# 5 6.7462 3.2965 -0.8751 -4.1164 47.4958 -5.0993
# 6 -16.5008 4.1464 -11.8478 5.6390 -5.0993 28.7381
#
#
#
# Elastic Compliance Matrix: (Units=1/GPa)
#
#
# Indices 1 2 3 4 5 6 
#
# 1 0.008848 0.000627 -0.001404 -0.002143 -0.001012 0.004652
# 2 0.000627 0.019262 -0.007308 -0.003620 -0.002428 -0.005153
# 3 -0.001404 -0.007308 0.011672 0.002349 0.001651 0.004892
# 4 -0.002143 -0.003620 0.002349 0.022130 0.002119 -0.003706
# 5 -0.001012 -0.002428 0.001651 0.002119 0.022004 0.003938
# 6 0.004652 -0.005153 0.004892 -0.003706 0.003938 0.041654
#
#
# Mechanical properties :
#
#
# Convention : Reuss Voigt Hill
#
# Bulk Modulus (GPa) = 42.35441 49.17616 45.76528
# Shear Modulus (GPa) = 33.41991 42.03813 37.72902
#
# Velocity S-wave (km/s) = 3.58894 4.02518 3.81330
# Velocity P-wave (km/s) = 5.78774 6.36835 6.08498
#
# Compressibility (1/GPa) = 0.02361029
#
# Stress axis : x y z
#
# Youngs Moduli (GPa) = 113.01500 51.91599 85.67861
#
# Poissons Ratio (x) = -0.03254 0.12030
# Poissons Ratio (y) = -0.07083 0.62617
# Poissons Ratio (z) = 0.15868 0.37942
#
# Static dielectric constant tensor:
#      x y z
#    x 2.134510 -0.005470 -0.038640 
#    y -0.005470 2.137340 -0.042090 
#    z -0.038640 -0.042090 1.972180 
# 
# From -- ./inp_files/495208.got.cif
#   From: 2010.05.17/outbox.cif.g08.bks.cpg/sg2_248_cif.got.tgz:495208.got - 2010.06.03 11:33:40.
