data_PCOD9028346
_publ_section_title
;
Structure prediction by ZEFSAII (Michael W. Deem and Ramdas Pophale) SiO2 
 PCOD9028346
Probable space group: P -1
;
_chemical_formula_sum "Si O2"
_cell_formula_units_Z 12
_cell_length_a 7.801995
_cell_length_b 11.219889
_cell_length_c 17.229258
_cell_angle_alpha 32.200453
_cell_angle_beta 54.468000
_cell_angle_gamma 45.254669
_cell_volume 570.399948
_symmetry_space_group_name_H-M "P -1"
_symmetry_group_IT_number 2
_symmetry_cell_setting 'triclinic'
loop_
_space_group_symop_operation_xyz
x,y,z
-x,-y,-z
loop_
_atom_site_type_symbol
_atom_site_label
_atom_site_fract_x
_atom_site_fract_y
_atom_site_fract_z
Si Si1 0.732757 0.197236 0.848692
Si Si2 0.106112 0.118096 0.667147
Si Si3 0.673258 0.780423 0.181220
Si Si4 0.471630 0.748945 0.664922
Si Si5 0.793807 0.284258 0.395833
Si Si6 0.329186 0.390749 0.552830
O O1 0.539490 0.208023 0.826535
O O2 0.692735 0.458077 0.759384
O O3 0.971732 0.098119 0.789407
O O4 0.727281 0.002491 0.019840
O O5 0.252750 0.260508 0.576504
O O6 0.893283 0.314190 0.556001
O O7 0.298771 0.846391 0.731314
O O8 0.882657 0.491576 0.266144
O O9 0.634332 0.765262 0.291457
O O10 0.318336 0.710586 0.659880
O O11 0.500000 0.000000 0.500000
O O12 0.585357 0.356093 0.476137
O O13 0.000000 0.000000 0.500000
#
# Coordination Sequence:
#
# PCOD9028346 Si02
#       6
#     2   2   2   2   2   2
#     4  10  23  42  62  89 128 165 197 251 315 360
#     4  11  21  39  66  90 121 161 206 252 303 360
#     4  10  22  42  59  88 130 160 202 252 307 367
#     4  11  20  39  63  92 121 159 207 250 298 367
#     4  11  22  37  62  95 120 158 210 254 300 359
#     4  11  21  39  63  93 120 162 207 253 303 357
#
# _framework density 21.037870999999999
#
# number of rings (size 3 to 8) (size 9 to 14) (size 15 to 20)
#    0.000    1.333    5.000    2.500    2.333    0.667 
#    3.000    3.333    0.000    0.000    0.000    0.000 
#    0.000    0.000    0.000    0.000    0.000    0.000 
#
# Total GULP energy -66801.367688 kJ/mol
# GULP energy per Si atom -5566.780641 kJ/mol
# Density = 2.098999 g / cm^3
# Si number density = 21.037871 Si / 1000 Ang^3
#
#
#
# Elastic Constant Matrix: (Units=GPa)
#
#
# Indices 1 2 3 4 5 6 
#
# 1 57.7152 7.9786 18.6269 -0.7263 -5.9616 9.8847
# 2 7.9786 151.4779 62.0683 2.7801 -11.7741 14.7671
# 3 18.6269 62.0683 120.9939 4.5677 -10.6085 12.8946
# 4 -0.7263 2.7801 4.5677 25.8471 10.1460 -5.4411
# 5 -5.9616 -11.7741 -10.6085 10.1460 32.6106 0.1966
# 6 9.8847 14.7671 12.8946 -5.4411 0.1966 24.9123
#
#
#
# Elastic Compliance Matrix: (Units=1/GPa)
#
#
# Indices 1 2 3 4 5 6 
#
# 1 0.019632 0.001007 -0.002274 -0.002355 0.003992 -0.007756
# 2 0.001007 0.008807 -0.003908 -0.002189 0.002798 -0.004097
# 3 -0.002274 -0.003908 0.011389 -0.003570 0.003010 -0.003480
# 4 -0.002355 -0.002189 -0.003570 0.049704 -0.017938 0.015078
# 5 0.003992 0.002798 0.003010 -0.017938 0.039020 -0.009027
# 6 -0.007756 -0.004097 -0.003480 0.015078 -0.009027 0.050812
#
#
# Mechanical properties :
#
#
# Convention : Reuss Voigt Hill
#
# Bulk Modulus (GPa) = 33.92227 56.39272 45.15749
# Shear Modulus (GPa) = 25.05753 32.77488 28.91621
#
# Velocity S-wave (km/s) = 3.45493 3.95131 3.71142
# Velocity P-wave (km/s) = 5.66346 6.90511 6.31488
#
# Compressibility (1/GPa) = 0.02947916
#
# Stress axis : x y z
#
# Youngs Moduli (GPa) = 50.93722 113.54399 87.80110
#
# Poissons Ratio (x) = -0.11435 0.19962
# Poissons Ratio (y) = -0.05130 0.34315
# Poissons Ratio (z) = 0.11581 0.44377
#
# Static dielectric constant tensor:
#      x y z
#    x 2.315090 -0.571540 0.439260 
#    y -0.571540 2.448690 -0.539440 
#    z 0.439260 -0.539440 2.203740 
# 
# From -- ./inp_files/151722.got.cif
#   From: 2010.05.17/outbox.cif.g08.bks.cpg/sg2_76_cif.got.tgz:151722.got - 2010.06.03 11:33:40.
