data_PCOD9028856
_publ_section_title
;
Structure prediction by ZEFSAII (Michael W. Deem and Ramdas Pophale) SiO2 
 PCOD9028856
Probable space group: P -1
;
_chemical_formula_sum "Si O2"
_cell_formula_units_Z 16
_cell_length_a 17.986870
_cell_length_b 8.496083
_cell_length_c 10.297270
_cell_angle_alpha 44.095404
_cell_angle_beta 145.945532
_cell_angle_gamma 116.610127
_cell_volume 567.809825
_symmetry_space_group_name_H-M "P -1"
_symmetry_group_IT_number 2
_symmetry_cell_setting 'triclinic'
loop_
_space_group_symop_operation_xyz
x,y,z
-x,-y,-z
loop_
_atom_site_type_symbol
_atom_site_label
_atom_site_fract_x
_atom_site_fract_y
_atom_site_fract_z
Si Si1 0.030761 0.292134 0.494961
Si Si2 0.760199 0.567065 0.600331
Si Si3 0.529203 0.905178 0.879274
Si Si4 0.741518 0.766272 0.813700
Si Si5 0.886795 0.949002 0.526506
Si Si6 0.847260 0.167345 0.738802
Si Si7 0.305898 0.418950 0.897175
Si Si8 0.347562 0.707161 0.181056
O O1 0.060659 0.181784 0.459328
O O2 0.163823 0.353845 0.701356
O O3 0.992410 0.084541 0.641033
O O4 0.891765 0.544044 0.140434
O O5 0.849260 0.736199 0.667408
O O6 0.834481 0.379856 0.698698
O O7 0.735245 0.400098 0.775252
O O8 0.609138 0.753617 0.210378
O O9 0.369319 0.103006 0.539399
O O10 0.622037 0.057945 0.870752
O O11 0.558402 0.712293 0.920219
O O12 0.774339 0.988189 0.790538
O O13 0.656795 0.666896 0.852445
O O14 0.744631 0.181892 0.146528
O O15 0.753912 0.301945 0.397813
O O16 0.000000 0.000000 0.000000
O O17 0.500000 0.500000 0.500000
#
# Coordination Sequence:
#
# PCOD9028856 Si02
#       8
#     2   2   2   2   2   2   2   2
#     4  11  21  42  65  95 132 176 219 270 329 392
#     4  10  22  42  67  94 134 177 217 273 338 389
#     4  10  23  42  60  96 132 170 220 271 330 396
#     4  12  24  38  67  96 130 170 225 272 325 393
#     4  10  22  42  65  91 135 169 222 275 322 397
#     4  11  22  38  64  97 132 172 219 266 325 401
#     4  11  22  42  63  92 134 176 216 270 335 385
#     4  11  22  41  68  94 128 175 224 277 332 391
#
# _framework density 28.178446000000001
#
# number of rings (size 3 to 8) (size 9 to 14) (size 15 to 20)
#    0.000    1.250    5.000    2.250    0.000    5.000 
#    0.000    6.250    0.000    0.000    0.000    0.000 
#    0.000    0.000    0.000    0.000    0.000    0.000 
#
# Total GULP energy -89630.401595 kJ/mol
# GULP energy per Si atom -5601.900100 kJ/mol
# Density = 2.811431 g / cm^3
# Si number density = 28.178446 Si / 1000 Ang^3
#
#
#
# Elastic Constant Matrix: (Units=GPa)
#
#
# Indices 1 2 3 4 5 6 
#
# 1 98.0493 26.6884 24.6212 -13.2793 -10.9038 19.9603
# 2 26.6884 156.2476 34.4096 -26.7888 -14.4248 22.8569
# 3 24.6212 34.4096 188.4110 -8.0812 -0.3252 -6.2040
# 4 -13.2793 -26.7888 -8.0812 48.5564 8.3977 -13.5965
# 5 -10.9038 -14.4248 -0.3252 8.3977 41.0304 -11.0538
# 6 19.9603 22.8569 -6.2040 -13.5965 -11.0538 37.1143
#
#
#
# Elastic Compliance Matrix: (Units=1/GPa)
#
#
# Indices 1 2 3 4 5 6 
#
# 1 0.012211 -0.000612 -0.001633 0.000897 0.001284 -0.005752
# 2 -0.000612 0.007883 -0.001348 0.002816 0.001108 -0.003389
# 3 -0.001633 -0.001348 0.005888 0.000628 -0.000220 0.002857
# 4 0.000897 0.002816 0.000628 0.024622 -0.002114 0.006278
# 5 0.001284 0.001108 -0.000220 -0.002114 0.027122 0.005893
# 6 -0.005752 -0.003389 0.002857 0.006278 0.005893 0.036657
#
#
# Mechanical properties :
#
#
# Convention : Reuss Voigt Hill
#
# Bulk Modulus (GPa) = 53.20761 68.23847 60.72304
# Shear Modulus (GPa) = 39.11351 49.13947 44.12649
#
# Velocity S-wave (km/s) = 3.72972 4.18049 3.96152
# Velocity P-wave (km/s) = 6.12136 6.89719 6.52082
#
# Compressibility (1/GPa) = 0.01879430
#
# Stress axis : x y z
#
# Youngs Moduli (GPa) = 81.89495 126.86196 169.84395
#
# Poissons Ratio (x) = 0.07770 0.27727
# Poissons Ratio (y) = 0.05016 0.22902
# Poissons Ratio (z) = 0.13370 0.17107
#
# Static dielectric constant tensor:
#      x y z
#    x 2.223860 -0.026750 -0.048200 
#    y -0.026750 2.225080 0.047630 
#    z -0.048200 0.047630 2.170360 
# 
# From -- ./inp_files/541062.got.cif
#   From: 2010.05.17/outbox.cif.g08.bks.cpg/sg2_271_cif.got.tgz:541062.got - 2010.06.03 11:33:40.
