data_PCOD9028710
_publ_section_title
;
Structure prediction by ZEFSAII (Michael W. Deem and Ramdas Pophale) SiO2 
 PCOD9028710
Probable space group: P -1
;
_chemical_formula_sum "Si O2"
_cell_formula_units_Z 15
_cell_length_a 9.703812
_cell_length_b 11.759603
_cell_length_c 9.105017
_cell_angle_alpha 109.167281
_cell_angle_beta 140.026056
_cell_angle_gamma 70.358200
_cell_volume 624.344487
_symmetry_space_group_name_H-M "P -1"
_symmetry_group_IT_number 2
_symmetry_cell_setting 'triclinic'
loop_
_space_group_symop_operation_xyz
x,y,z
-x,-y,-z
loop_
_atom_site_type_symbol
_atom_site_label
_atom_site_fract_x
_atom_site_fract_y
_atom_site_fract_z
Si Si1 0.912583 0.840728 0.531211
Si Si2 0.119241 0.375078 0.801913
Si Si3 0.500000 0.500000 0.000000
Si Si4 0.685870 0.467991 0.385428
Si Si5 0.406506 0.313811 0.267259
Si Si6 0.441358 0.955829 0.774124
Si Si7 0.449283 0.270939 0.625700
Si Si8 0.799184 0.074877 0.953452
O O1 0.940637 0.745872 0.379448
O O2 0.741891 0.785335 0.475010
O O3 0.785827 0.969539 0.426778
O O4 0.111851 0.869511 0.803086
O O5 0.324982 0.421492 0.916744
O O6 0.914050 0.475668 0.647209
O O7 0.182365 0.342056 0.007342
O O8 0.291225 0.591972 0.780627
O O9 0.548225 0.414924 0.373801
O O10 0.545049 0.591334 0.250080
O O11 0.539031 0.187903 0.266210
O O12 0.394516 0.299113 0.424315
O O13 0.622719 0.989386 0.821665
O O14 0.500000 0.000000 0.000000
O O15 0.668723 0.181620 0.793853
O O16 0.000000 0.000000 0.000000
#
# Coordination Sequence:
#
# PCOD9028710 Si02
#       8
#     2   2   1   2   2   2   2   2
#     4  11  24  42  72 101 133 177 233 282 339 411
#     4  11  24  41  68 105 131 182 228 278 343 402
#     4  10  22  42  64  94 142 170 220 286 324 402
#     4  11  25  40  69 101 136 180 227 274 345 405
#     4  11  25  44  67  94 147 176 223 285 335 412
#     4  11  24  45  67 103 138 179 228 286 349 396
#     4  11  25  46  68 101 137 180 225 282 345 408
#     4  11  26  45  73 102 136 183 235 283 347 408
#
# _framework density 24.025199000000001
#
# number of rings (size 3 to 8) (size 9 to 14) (size 15 to 20)
#    0.000    1.067    2.667    2.400    3.733    7.467 
#    0.000    0.000    0.000    0.000    0.000    0.000 
#    0.000    0.000    0.000    0.000    0.000    0.000 
#
# Total GULP energy -83763.674054 kJ/mol
# GULP energy per Si atom -5584.244937 kJ/mol
# Density = 2.397052 g / cm^3
# Si number density = 24.025199 Si / 1000 Ang^3
#
#
#
# Elastic Constant Matrix: (Units=GPa)
#
#
# Indices 1 2 3 4 5 6 
#
# 1 69.6033 23.4768 32.3444 -18.0722 -23.1756 -1.4979
# 2 23.4768 115.3072 39.7986 -24.7272 2.1285 -3.9168
# 3 32.3444 39.7986 153.6341 -34.4260 -25.1460 9.7612
# 4 -18.0722 -24.7272 -34.4260 47.1824 7.1627 -9.1640
# 5 -23.1756 2.1285 -25.1460 7.1627 43.9642 -3.0270
# 6 -1.4979 -3.9168 9.7612 -9.1640 -3.0270 28.2229
#
#
#
# Elastic Compliance Matrix: (Units=1/GPa)
#
#
# Indices 1 2 3 4 5 6 
#
# 1 0.020385 -0.002789 -0.001151 0.004747 0.009702 0.003675
# 2 -0.002789 0.011082 -0.002110 0.004373 -0.003710 0.003142
# 3 -0.001151 -0.002110 0.008945 0.004065 0.003831 -0.001717
# 4 0.004747 0.004373 0.004065 0.030009 0.000362 0.009236
# 5 0.009702 -0.003710 0.003831 0.000362 0.030313 0.002044
# 6 0.003675 0.003142 -0.001717 0.009236 0.002044 0.039875
#
#
# Mechanical properties :
#
#
# Convention : Reuss Voigt Hill
#
# Bulk Modulus (GPa) = 35.32267 58.86494 47.09381
# Shear Modulus (GPa) = 30.83620 40.06889 35.45255
#
# Velocity S-wave (km/s) = 3.58648 4.08828 3.84557
# Velocity P-wave (km/s) = 5.64665 6.84397 6.27394
#
# Compressibility (1/GPa) = 0.02831043
#
# Stress axis : x y z
#
# Youngs Moduli (GPa) = 49.05561 90.23785 111.79535
#
# Poissons Ratio (x) = 0.25172 0.12864
# Poissons Ratio (y) = 0.13684 0.23594
# Poissons Ratio (z) = 0.05645 0.19045
#
# Static dielectric constant tensor:
#      x y z
#    x 1.930510 -0.102900 -0.093280 
#    y -0.102900 2.049620 0.074140 
#    z -0.093280 0.074140 2.015540 
# 
# From -- ./inp_files/72609.got.cif
#   From: 2010.05.17/outbox.cif.g08.bks.cpg/sg2_37_cif.got.tgz:72609.got - 2010.06.03 11:33:40.
