data_PCOD9028520
_publ_section_title
;
Structure prediction by ZEFSAII (Michael W. Deem and Ramdas Pophale) SiO2 
 PCOD9028520
Probable space group: P -1
;
_chemical_formula_sum "Si O2"
_cell_formula_units_Z 14
_cell_length_a 11.651043
_cell_length_b 9.136574
_cell_length_c 9.642992
_cell_angle_alpha 55.220487
_cell_angle_beta 78.807215
_cell_angle_gamma 49.821507
_cell_volume 618.947146
_symmetry_space_group_name_H-M "P -1"
_symmetry_group_IT_number 2
_symmetry_cell_setting 'triclinic'
loop_
_space_group_symop_operation_xyz
x,y,z
-x,-y,-z
loop_
_atom_site_type_symbol
_atom_site_label
_atom_site_fract_x
_atom_site_fract_y
_atom_site_fract_z
Si Si1 0.205447 0.484019 0.462669
Si Si2 0.854318 0.843685 0.232259
Si Si3 0.547832 0.756613 0.719466
Si Si4 0.812769 0.211681 0.456759
Si Si5 0.735268 0.342150 0.088096
Si Si6 0.968169 0.425605 0.908674
Si Si7 0.706585 0.940674 0.602057
O O1 0.212180 0.276005 0.631499
O O2 0.328779 0.389435 0.359520
O O3 0.223466 0.604818 0.518799
O O4 0.029635 0.688356 0.336908
O O5 0.879172 0.788218 0.092944
O O6 0.774575 0.110597 0.140745
O O7 0.588132 0.906991 0.699695
O O8 0.382233 0.918987 0.594696
O O9 0.583483 0.577821 0.923577
O O10 0.739287 0.332771 0.258754
O O11 0.744421 0.088280 0.585237
O O12 0.000000 0.000000 0.500000
O O13 0.867567 0.352616 0.005671
O O14 0.869265 0.667166 0.707042
O O15 0.000000 0.500000 0.000000
#
# Coordination Sequence:
#
# PCOD9028520 Si02
#       7
#     2   2   2   2   2   2   2
#     4  11  22  38  61  89 122 164 205 244 311 362
#     4  11  21  37  62  91 122 160 202 253 305 365
#     4  10  23  42  64  87 119 173 205 241 297 379
#     4  12  23  37  63  94 124 157 200 263 307 352
#     4  11  22  36  61  93 124 155 206 253 303 357
#     4  11  22  37  62  97 122 152 201 265 308 348
#     4  10  22  42  63  86 124 166 205 241 305 376
#
# _framework density 22.619053999999998
#
# number of rings (size 3 to 8) (size 9 to 14) (size 15 to 20)
#    0.000    1.143    4.286    3.857    0.000    1.143 
#    0.000    1.429    0.000    9.429    0.000    0.000 
#    0.000    0.000    0.000    0.000    0.000    0.000 
#
# Total GULP energy -78214.773559 kJ/mol
# GULP energy per Si atom -5586.769540 kJ/mol
# Density = 2.256757 g / cm^3
# Si number density = 22.619054 Si / 1000 Ang^3
#
#
#
# Elastic Constant Matrix: (Units=GPa)
#
#
# Indices 1 2 3 4 5 6 
#
# 1 112.5638 68.3962 43.7115 -8.8168 -16.6179 29.7382
# 2 68.3962 136.1180 58.3403 4.2701 1.9988 44.4105
# 3 43.7115 58.3403 123.7684 -11.7859 2.2933 19.1734
# 4 -8.8168 4.2701 -11.7859 43.8753 0.7345 -3.4664
# 5 -16.6179 1.9988 2.2933 0.7345 40.4040 -4.8433
# 6 29.7382 44.4105 19.1734 -3.4664 -4.8433 41.6458
#
#
#
# Elastic Compliance Matrix: (Units=1/GPa)
#
#
# Indices 1 2 3 4 5 6 
#
# 1 0.015190 -0.006230 -0.001910 0.002854 0.006330 -0.002350
# 2 -0.006230 0.016347 -0.004011 -0.004798 -0.004502 -0.012061
# 3 -0.001910 -0.004011 0.010833 0.002997 -0.001164 0.000767
# 4 0.002854 -0.004798 0.002997 0.024926 0.001258 0.003920
# 5 0.006330 -0.004502 -0.001164 0.001258 0.028122 0.004192
# 6 -0.002350 -0.012061 0.000767 0.003920 0.004192 0.039012
#
#
# Mechanical properties :
#
#
# Convention : Reuss Voigt Hill
#
# Bulk Modulus (GPa) = 55.34013 79.26070 67.30042
# Shear Modulus (GPa) = 30.34855 38.65185 34.50020
#
# Velocity S-wave (km/s) = 3.66693 4.13827 3.90971
# Velocity P-wave (km/s) = 6.51520 7.61258 7.08516
#
# Compressibility (1/GPa) = 0.01807007
#
# Stress axis : x y z
#
# Youngs Moduli (GPa) = 65.83385 61.17206 92.31472
#
# Poissons Ratio (x) = 0.38108 0.17628
# Poissons Ratio (y) = 0.41013 0.37023
# Poissons Ratio (z) = 0.12571 0.24533
#
# Static dielectric constant tensor:
#      x y z
#    x 1.884500 -0.031720 0.000860 
#    y -0.031720 1.851680 0.004690 
#    z 0.000860 0.004690 1.883480 
# 
# From -- ./inp_files/233816.got.cif
#   From: 2010.05.17/outbox.cif.g08.bks.cpg/sg2_117_cif.got.tgz:233816.got - 2010.06.03 11:33:40.
