data_PCOD9028361
_publ_section_title
;
Structure prediction by ZEFSAII (Michael W. Deem and Ramdas Pophale) SiO2 
 PCOD9028361
Probable space group: P -1
;
_chemical_formula_sum "Si O2"
_cell_formula_units_Z 16
_cell_length_a 17.097218
_cell_length_b 19.815041
_cell_length_c 7.919674
_cell_angle_alpha 123.916083
_cell_angle_beta 115.265027
_cell_angle_gamma 19.510769
_cell_volume 694.434926
_symmetry_space_group_name_H-M "P -1"
_symmetry_group_IT_number 2
_symmetry_cell_setting 'triclinic'
loop_
_space_group_symop_operation_xyz
x,y,z
-x,-y,-z
loop_
_atom_site_type_symbol
_atom_site_label
_atom_site_fract_x
_atom_site_fract_y
_atom_site_fract_z
Si Si1 0.687973 0.445728 0.152560
Si Si2 0.584450 0.081237 0.481715
Si Si3 0.588366 0.106337 0.917846
Si Si4 0.849885 0.033194 0.205244
Si Si5 0.066181 0.594842 0.621665
Si Si6 0.023100 0.573245 0.169808
Si Si7 0.792360 0.062681 0.562753
Si Si8 0.742458 0.291922 0.316534
O O1 0.810171 0.423402 0.296699
O O2 0.416004 0.706959 0.198328
O O3 0.688200 0.380995 0.213333
O O4 0.872238 0.247653 0.907987
O O5 0.626972 0.068335 0.698329
O O6 0.281945 0.348339 0.561046
O O7 0.693186 0.059400 0.441039
O O8 0.761250 0.850210 0.269613
O O9 0.681951 0.108723 0.084024
O O10 0.293967 0.359161 0.042496
O O11 0.790092 0.857573 0.813705
O O12 0.778946 0.118966 0.448956
O O13 0.849404 0.106482 0.174402
O O14 0.039543 0.579114 0.391579
O O15 0.000000 0.500000 0.000000
O O16 0.054112 0.832039 0.573560
O O17 0.500000 0.500000 0.500000
#
# Coordination Sequence:
#
# PCOD9028361 Si02
#       8
#     2   2   2   2   2   2   2   2
#     4  10  22  42  60  85 121 161 209 253 299 352
#     4  10  23  41  68  91 125 163 202 256 302 362
#     4  10  22  42  64  91 122 161 207 249 308 364
#     4  11  23  40  64  88 118 165 206 256 300 358
#     4   9  21  43  62  91 127 161 205 257 299 359
#     4  11  24  41  66  96 127 160 197 247 308 374
#     4  11  23  42  59  87 123 159 205 254 303 351
#     4  12  24  39  58  87 126 164 202 256 307 347
#
# _framework density 23.040313999999999
#
# number of rings (size 3 to 8) (size 9 to 14) (size 15 to 20)
#    0.000    1.500    1.250    4.500    1.750    7.000 
#    2.250    1.250    0.000    0.000    0.000    0.000 
#    0.000    0.000    0.000    0.000    0.000    0.000 
#
# Total GULP energy -89314.838450 kJ/mol
# GULP energy per Si atom -5582.177403 kJ/mol
# Density = 2.298787 g / cm^3
# Si number density = 23.040314 Si / 1000 Ang^3
#
#
#
# Elastic Constant Matrix: (Units=GPa)
#
#
# Indices 1 2 3 4 5 6 
#
# 1 2.9062 -6.8986 5.0696 7.2916 6.1625 7.2708
# 2 -6.8986 71.2190 15.9641 33.3973 0.5092 14.5260
# 3 5.0696 15.9641 78.2193 27.7621 15.7575 -2.9245
# 4 7.2916 33.3973 27.7621 44.9664 5.8179 1.8729
# 5 6.1625 0.5092 15.7575 5.8179 23.9833 8.8969
# 6 7.2708 14.5260 -2.9245 1.8729 8.8969 19.4995
#
#
#
# Elastic Compliance Matrix: (Units=1/GPa)
#
#
# Indices 1 2 3 4 5 6 
#
# 1 -0.111291 -0.055387 0.006736 0.053998 -0.020347 0.087865
# 2 -0.055387 0.003496 0.000204 0.004681 0.007642 0.014142
# 3 0.006736 0.000204 0.019860 -0.011914 -0.014968 0.008289
# 4 0.053998 0.004681 -0.011914 0.018569 -0.000678 -0.026882
# 5 -0.020347 0.007642 -0.014968 -0.000678 0.068453 -0.031518
# 6 0.087865 0.014142 0.008289 -0.026882 -0.031518 0.026192
#
#
# Mechanical properties :
#
#
# Convention : Reuss Voigt Hill
#
# Bulk Modulus (GPa) = -5.41042 20.06831 7.32895
# Shear Modulus (GPa) = 82.55819 26.90382 54.73101
#
# Velocity S-wave (km/s) = 5.99248 3.42085 4.87914
# Velocity P-wave (km/s) = 6.74733 4.93274 5.91009
#
# Compressibility (1/GPa) = -0.18482856
#
# Stress axis : x y z
#
# Youngs Moduli (GPa) = -8.98546 286.03539 50.35166
#
# Poissons Ratio (x) = 15.84271 -0.33917
# Poissons Ratio (y) = -0.49768 -0.01028
# Poissons Ratio (z) = 0.06053 -0.05840
#
# Static dielectric constant tensor:
#      x y z
#    x 1.874310 0.016050 0.010270 
#    y 0.016050 1.949750 0.080540 
#    z 0.010270 0.080540 1.855770 
# 
# From -- ./inp_files/337846.got.cif
#   From: 2010.05.17/outbox.cif.g08.bks.cpg/sg2_169_cif.got.tgz:337846.got - 2010.06.03 11:33:40.
