data_PCOD9028833
_publ_section_title
;
Structure prediction by ZEFSAII (Michael W. Deem and Ramdas Pophale) SiO2 
 PCOD9028833
Probable space group: P -1
;
_chemical_formula_sum "Si O2"
_cell_formula_units_Z 16
_cell_length_a 17.891933
_cell_length_b 14.132767
_cell_length_c 12.364122
_cell_angle_alpha 150.776803
_cell_angle_beta 132.747057
_cell_angle_gamma 31.401382
_cell_volume 767.926200
_symmetry_space_group_name_H-M "P -1"
_symmetry_group_IT_number 2
_symmetry_cell_setting 'triclinic'
loop_
_space_group_symop_operation_xyz
x,y,z
-x,-y,-z
loop_
_atom_site_type_symbol
_atom_site_label
_atom_site_fract_x
_atom_site_fract_y
_atom_site_fract_z
Si Si1 0.176990 0.853890 0.136104
Si Si2 0.918018 0.449155 0.937533
Si Si3 0.440160 0.964933 0.070801
Si Si4 0.586048 0.808684 0.287865
Si Si5 0.344765 0.435617 0.297384
Si Si6 0.839491 0.725433 0.359597
Si Si7 0.081653 0.104896 0.059728
Si Si8 0.222356 0.932310 0.814243
O O1 0.177545 0.021846 0.392740
O O2 0.143810 0.010153 0.146886
O O3 0.323624 0.518373 0.935855
O O4 0.042427 0.891768 0.064792
O O5 0.831816 0.669111 0.171540
O O6 0.808688 0.461691 0.778284
O O7 0.000000 0.500000 0.000000
O O8 0.053526 0.146694 0.822849
O O9 0.481982 0.930703 0.202307
O O10 0.428904 0.182565 0.213709
O O11 0.565527 0.675892 0.837662
O O12 0.287636 0.057725 0.001372
O O13 0.709520 0.797718 0.368378
O O14 0.500000 0.000000 0.500000
O O15 0.317170 0.673004 0.567632
O O16 0.994896 0.423224 0.259070
O O17 0.212009 0.885902 0.883004
#
# Coordination Sequence:
#
# PCOD9028833 Si02
#       8
#     2   2   2   2   2   2   2   2
#     4  10  22  42  65  90 126 172 210 265 329 372
#     4  11  22  42  65 100 126 163 213 266 327 376
#     4  11  25  45  61  95 131 170 216 262 318 382
#     4  11  26  43  64  93 131 170 221 266 312 387
#     4  11  24  44  67  90 134 171 208 267 320 382
#     4  10  22  42  66  91 130 165 211 274 320 385
#     4   9  22  40  62 100 122 158 219 269 321 381
#     4  11  24  39  69  96 125 166 216 262 321 388
#
# _framework density 20.835335000000001
#
# number of rings (size 3 to 8) (size 9 to 14) (size 15 to 20)
#    0.000    1.500    2.500    1.125    5.250    2.500 
#    2.250    0.000    0.000    0.000    0.000    0.000 
#    0.000    0.000    0.000    0.000    0.000    0.000 
#
# Total GULP energy -89385.391968 kJ/mol
# GULP energy per Si atom -5586.586998 kJ/mol
# Density = 2.078791 g / cm^3
# Si number density = 20.835335 Si / 1000 Ang^3
#
#
#
# Elastic Constant Matrix: (Units=GPa)
#
#
# Indices 1 2 3 4 5 6 
#
# 1 61.0913 3.9859 19.8149 -6.7703 -24.8747 4.2764
# 2 3.9859 66.0683 20.6899 -8.4472 0.2473 -1.2067
# 3 19.8149 20.6899 126.0758 -7.5921 -10.0824 6.7627
# 4 -6.7703 -8.4472 -7.5921 17.3985 1.3185 -4.1557
# 5 -24.8747 0.2473 -10.0824 1.3185 37.4747 -1.1621
# 6 4.2764 -1.2067 6.7627 -4.1557 -1.1621 24.1082
#
#
#
# Elastic Compliance Matrix: (Units=1/GPa)
#
#
# Indices 1 2 3 4 5 6 
#
# 1 0.024092 -0.000015 -0.002063 0.006896 0.015139 -0.001777
# 2 -0.000015 0.017001 -0.002546 0.007901 -0.000996 0.002882
# 3 -0.002063 -0.002546 0.008935 0.001312 0.000944 -0.001996
# 4 0.006896 0.007901 0.001312 0.066852 0.002850 0.010465
# 5 0.015139 -0.000996 0.000944 0.002850 0.036871 -0.000731
# 6 -0.001777 0.002882 -0.001996 0.010465 -0.000731 0.044268
#
#
# Mechanical properties :
#
#
# Convention : Reuss Voigt Hill
#
# Bulk Modulus (GPa) = 24.52170 38.02408 31.27289
# Shear Modulus (GPa) = 22.63893 29.71261 26.17577
#
# Velocity S-wave (km/s) = 3.29988 3.78043 3.54830
# Velocity P-wave (km/s) = 5.12970 6.11105 5.64175
#
# Compressibility (1/GPa) = 0.04078021
#
# Stress axis : x y z
#
# Youngs Moduli (GPa) = 41.50822 58.82150 111.91581
#
# Poissons Ratio (x) = 0.00088 0.23085
# Poissons Ratio (y) = 0.00062 0.28494
# Poissons Ratio (z) = 0.08562 0.14976
#
# Static dielectric constant tensor:
#      x y z
#    x 1.741970 0.036280 -0.018200 
#    y 0.036280 1.810630 0.005440 
#    z -0.018200 0.005440 1.747540 
# 
# From -- ./inp_files/99868.got.cif
#   From: 2010.05.17/outbox.cif.g08.bks.cpg/sg2_50_cif.got.tgz:99868.got - 2010.06.03 11:33:40.
