data_PCOD9028744
_publ_section_title
;
Structure prediction by ZEFSAII (Michael W. Deem and Ramdas Pophale) SiO2 
 PCOD9028744
Probable space group: P -1
;
_chemical_formula_sum "Si O2"
_cell_formula_units_Z 13
_cell_length_a 12.150817
_cell_length_b 8.180816
_cell_length_c 12.743053
_cell_angle_alpha 85.789049
_cell_angle_beta 132.338926
_cell_angle_gamma 56.323693
_cell_volume 535.427279
_symmetry_space_group_name_H-M "P -1"
_symmetry_group_IT_number 2
_symmetry_cell_setting 'triclinic'
loop_
_space_group_symop_operation_xyz
x,y,z
-x,-y,-z
loop_
_atom_site_type_symbol
_atom_site_label
_atom_site_fract_x
_atom_site_fract_y
_atom_site_fract_z
Si Si1 0.738224 0.905377 0.673880
Si Si2 0.000000 0.500000 0.500000
Si Si3 0.253570 0.603730 0.579007
Si Si4 0.086734 0.913711 0.244569
Si Si5 0.788920 0.662190 0.122153
Si Si6 0.202121 0.071423 0.059181
Si Si7 0.537375 0.565420 0.914069
O O1 0.945169 0.660511 0.733136
O O2 0.500000 0.000000 0.500000
O O3 0.699885 0.136009 0.625366
O O4 0.832739 0.805202 0.859348
O O5 0.095212 0.604538 0.534583
O O6 0.164821 0.349558 0.725850
O O7 0.123323 0.781432 0.380666
O O8 0.316255 0.704193 0.686779
O O9 0.530912 0.270636 0.744893
O O10 0.042209 0.825296 0.126829
O O11 0.812709 0.257016 0.058519
O O12 0.758217 0.846321 0.018796
O O13 0.566482 0.730239 0.949471
O O14 0.500000 0.500000 0.000000
#
# Coordination Sequence:
#
# PCOD9028744 Si02
#       7
#     2   1   2   2   2   2   2
#     4  11  25  45  67  99 131 177 224 274 331 384
#     4  12  22  42  70  98 136 168 224 268 330 402
#     4  11  24  42  66 101 132 177 218 267 335 391
#     4  10  24  44  67  97 133 173 223 270 326 394
#     4  11  24  44  67 100 133 172 223 276 328 393
#     4  11  24  45  69  94 136 175 221 271 330 391
#     4  10  22  42  64  97 134 175 216 268 333 390
#
# _framework density 24.279672999999999
#
# number of rings (size 3 to 8) (size 9 to 14) (size 15 to 20)
#    0.000    1.231    3.077    1.846    2.154    3.077 
#    2.769    0.000    0.000    0.000    0.000    0.000 
#    0.000    0.000    0.000    0.000    0.000    0.000 
#
# Total GULP energy -72536.454884 kJ/mol
# GULP energy per Si atom -5579.727299 kJ/mol
# Density = 2.422441 g / cm^3
# Si number density = 24.279673 Si / 1000 Ang^3
#
#
#
# Elastic Constant Matrix: (Units=GPa)
#
#
# Indices 1 2 3 4 5 6 
#
# 1 150.5556 53.9701 61.5764 22.9245 -2.8827 30.4962
# 2 53.9701 154.9299 127.8357 42.5647 16.9891 -30.0205
# 3 61.5764 127.8357 181.3227 57.5351 2.7428 -26.7327
# 4 22.9245 42.5647 57.5351 48.0220 9.3425 -7.1432
# 5 -2.8827 16.9891 2.7428 9.3425 58.1609 2.8808
# 6 30.4962 -30.0205 -26.7327 -7.1432 2.8808 71.8079
#
#
#
# Elastic Compliance Matrix: (Units=1/GPa)
#
#
# Indices 1 2 3 4 5 6 
#
# 1 0.010031 -0.003178 -0.001762 -0.001213 0.002023 -0.006447
# 2 -0.003178 0.018023 -0.010931 0.000408 -0.005223 0.005065
# 3 -0.001762 -0.010931 0.017434 -0.010918 0.003967 0.001424
# 4 -0.001213 0.000408 -0.010918 0.035210 -0.005337 0.000338
# 5 0.002023 -0.005223 0.003967 -0.005337 0.019633 -0.002885
# 6 -0.006447 0.005065 0.001424 0.000338 -0.002885 0.019461
#
#
# Mechanical properties :
#
#
# Convention : Reuss Voigt Hill
#
# Bulk Modulus (GPa) = 72.74868 108.17474 90.46171
# Shear Modulus (GPa) = 32.02713 51.82656 41.92685
#
# Velocity S-wave (km/s) = 3.63587 4.62515 4.16002
# Velocity P-wave (km/s) = 6.90318 8.55412 7.77261
#
# Compressibility (1/GPa) = 0.01374595
#
# Stress axis : x y z
#
# Youngs Moduli (GPa) = 99.68794 55.48372 57.35836
#
# Poissons Ratio (x) = 0.17635 0.10106
# Poissons Ratio (y) = 0.31684 0.62699
# Poissons Ratio (z) = 0.17565 0.60650
#
# Static dielectric constant tensor:
#      x y z
#    x 1.924820 -0.003770 0.055360 
#    y -0.003770 1.981940 -0.019330 
#    z 0.055360 -0.019330 1.917440 
# 
# From -- ./inp_files/23271.got.cif
#   From: 2010.05.17/outbox.cif.g08.bks.cpg/sg2_12_cif.got.tgz:23271.got - 2010.06.03 11:33:40.
