data_PCOD9028664
_publ_section_title
;
Structure prediction by ZEFSAII (Michael W. Deem and Ramdas Pophale) SiO2 
 PCOD9028664
Probable space group: P -1
;
_chemical_formula_sum "Si O2"
_cell_formula_units_Z 16
_cell_length_a 8.405773
_cell_length_b 16.014153
_cell_length_c 8.090865
_cell_angle_alpha 60.887429
_cell_angle_beta 54.403008
_cell_angle_gamma 89.334520
_cell_volume 714.946662
_symmetry_space_group_name_H-M "P -1"
_symmetry_group_IT_number 2
_symmetry_cell_setting 'triclinic'
loop_
_space_group_symop_operation_xyz
x,y,z
-x,-y,-z
loop_
_atom_site_type_symbol
_atom_site_label
_atom_site_fract_x
_atom_site_fract_y
_atom_site_fract_z
Si Si1 0.961514 0.807918 0.626751
Si Si2 0.130656 0.316224 0.520163
Si Si3 0.370154 0.411446 0.971375
Si Si4 0.451712 0.226012 0.498768
Si Si5 0.732065 0.346092 0.729285
Si Si6 0.235191 0.573708 0.739420
Si Si7 0.420906 0.138177 0.232791
Si Si8 0.561115 0.056010 0.733491
O O1 0.984784 0.776759 0.451942
O O2 0.730307 0.728208 0.410385
O O3 0.817875 0.875948 0.656358
O O4 0.193283 0.866374 0.498918
O O5 0.283936 0.403301 0.218666
O O6 0.954810 0.353513 0.663036
O O7 0.193033 0.305249 0.102244
O O8 0.591471 0.398076 0.855998
O O9 0.373059 0.507074 0.770652
O O10 0.668819 0.320003 0.320222
O O11 0.453049 0.190813 0.342859
O O12 0.425682 0.125311 0.715935
O O13 0.765103 0.393758 0.480999
O O14 0.581691 0.225063 0.933697
O O15 0.000000 0.500000 0.000000
O O16 0.464890 0.034954 0.292884
O O17 0.500000 0.000000 0.000000
#
# Coordination Sequence:
#
# PCOD9028664 Si02
#       8
#     2   2   2   2   2   2   2   2
#     4   8  18  39  60  92 126 163 208 263 312 378
#     4   9  19  41  62  87 136 162 206 266 321 365
#     4   9  20  39  67  91 130 165 215 264 317 373
#     4  11  24  42  61  92 133 166 216 271 321 384
#     4  11  20  42  66  93 130 168 219 263 315 389
#     4  12  22  40  68  96 127 176 216 267 321 378
#     4  10  22  42  64  91 132 168 214 268 327 380
#     4  12  22  38  68  97 124 174 215 263 328 386
#
# _framework density 22.379294000000002
#
# number of rings (size 3 to 8) (size 9 to 14) (size 15 to 20)
#    0.750    1.000    2.500    4.125    0.000    0.500 
#    0.000   14.375    0.000    0.000    0.000    0.000 
#    0.000    0.000    0.000    0.000    0.000    0.000 
#
# Total GULP energy -89340.765055 kJ/mol
# GULP energy per Si atom -5583.797816 kJ/mol
# Density = 2.232836 g / cm^3
# Si number density = 22.379294 Si / 1000 Ang^3
#
#
#
# Elastic Constant Matrix: (Units=GPa)
#
#
# Indices 1 2 3 4 5 6 
#
# 1 96.6277 48.9504 48.0571 -7.2470 2.4188 -46.2167
# 2 48.9504 102.3152 37.0149 -22.3155 -10.5451 -21.5552
# 3 48.0571 37.0149 90.2414 -3.7116 -3.1129 -24.9670
# 4 -7.2470 -22.3155 -3.7116 28.8755 -15.7092 2.3053
# 5 2.4188 -10.5451 -3.1129 -15.7092 36.7792 -1.3328
# 6 -46.2167 -21.5552 -24.9670 2.3053 -1.3328 37.7871
#
#
#
# Elastic Compliance Matrix: (Units=1/GPa)
#
#
# Indices 1 2 3 4 5 6 
#
# 1 0.031637 -0.008510 -0.005364 -0.005028 -0.006021 0.030391
# 2 -0.008510 0.021374 -0.003025 0.022870 0.016162 -0.001040
# 3 -0.005364 -0.003025 0.015724 -0.001761 0.000145 0.002216
# 4 -0.005028 0.022870 -0.001761 0.070763 0.037062 0.002723
# 5 -0.006021 0.016162 0.000145 0.037062 0.048112 0.001387
# 6 0.030391 -0.001040 0.002216 0.002723 0.001387 0.064388
#
#
# Mechanical properties :
#
#
# Convention : Reuss Voigt Hill
#
# Bulk Modulus (GPa) = 28.62185 61.91435 45.26810
# Shear Modulus (GPa) = 16.81000 31.03248 23.92124
#
# Velocity S-wave (km/s) = 2.74367 3.72783 3.27295
# Velocity P-wave (km/s) = 4.78060 6.80110 5.87831
#
# Compressibility (1/GPa) = 0.03493834
#
# Stress axis : x y z
#
# Youngs Moduli (GPa) = 31.60834 46.78520 63.59646
#
# Poissons Ratio (x) = 0.39816 0.34111
# Poissons Ratio (y) = 0.26900 0.19236
# Poissons Ratio (z) = 0.16954 0.14151
#
# Static dielectric constant tensor:
#      x y z
#    x 1.884630 -0.007840 -0.002520 
#    y -0.007840 1.863080 0.000630 
#    z -0.002520 0.000630 1.814610 
# 
# From -- ./inp_files/216962.got.cif
#   From: 2010.05.17/outbox.cif.g08.bks.cpg/sg2_109_cif.got.tgz:216962.got - 2010.06.03 11:33:40.
