data_PCOD9028491
_publ_section_title
;
Structure prediction by ZEFSAII (Michael W. Deem and Ramdas Pophale) SiO2 
 PCOD9028491
Probable space group: P -1
;
_chemical_formula_sum "Si O2"
_cell_formula_units_Z 15
_cell_length_a 5.138500
_cell_length_b 10.269466
_cell_length_c 16.858950
_cell_angle_alpha 44.351651
_cell_angle_beta 119.078534
_cell_angle_gamma 117.166292
_cell_volume 534.795059
_symmetry_space_group_name_H-M "P -1"
_symmetry_group_IT_number 2
_symmetry_cell_setting 'triclinic'
loop_
_space_group_symop_operation_xyz
x,y,z
-x,-y,-z
loop_
_atom_site_type_symbol
_atom_site_label
_atom_site_fract_x
_atom_site_fract_y
_atom_site_fract_z
Si Si1 0.186876 0.998990 0.865026
Si Si2 0.289754 0.605188 0.756224
Si Si3 0.719127 0.830398 0.036444
Si Si4 0.796652 0.283005 0.480758
Si Si5 0.231792 0.370890 0.062833
Si Si6 0.375077 0.832466 0.335824
Si Si7 0.989923 0.070932 0.376597
Si Si8 0.500000 0.500000 0.500000
O O1 0.945390 0.806511 0.934672
O O2 0.357834 0.141302 0.893619
O O3 0.453903 0.896905 0.915734
O O4 0.948762 0.108844 0.739801
O O5 0.235562 0.384095 0.864252
O O6 0.320443 0.650486 0.647937
O O7 0.607751 0.692108 0.807795
O O8 0.031609 0.709767 0.710272
O O9 0.000000 0.000000 0.000000
O O10 0.618852 0.314850 0.522185
O O11 0.139160 0.384332 0.494192
O O12 0.783325 0.054110 0.575075
O O13 0.500000 0.500000 0.000000
O O14 0.000000 0.500000 0.000000
O O15 0.412828 0.674367 0.347459
O O16 0.668565 0.988612 0.322723
O O17 0.000000 0.000000 0.500000
#
# Coordination Sequence:
#
# PCOD9028491 Si02
#       8
#     2   2   2   2   2   2   2   1
#     4  11  25  44  68 106 143 190 251 313 378 451
#     4  11  22  46  69 105 146 190 252 308 379 449
#     4  11  25  46  71 100 143 194 255 314 380 450
#     4  10  23  41  68 103 143 191 239 299 367 450
#     4  12  26  49  75 112 151 195 257 315 382 455
#     4  11  22  42  68 100 145 185 241 299 373 449
#     4   9  21  40  60  98 141 179 237 292 358 442
#     4  10  22  42  62  96 144 186 246 278 368 442
#
# _framework density 28.04813
#
# number of rings (size 3 to 8) (size 9 to 14) (size 15 to 20)
#    0.000    1.333    2.667    2.000    0.000    6.400 
#    7.200    2.667    0.000    0.000    0.000    0.000 
#    0.000    0.000    0.000    0.000    0.000    0.000 
#
# Total GULP energy -83704.130204 kJ/mol
# GULP energy per Si atom -5580.275347 kJ/mol
# Density = 2.798429 g / cm^3
# Si number density = 28.048130 Si / 1000 Ang^3
#
#
#
# Elastic Constant Matrix: (Units=GPa)
#
#
# Indices 1 2 3 4 5 6 
#
# 1 111.6104 19.0906 37.3000 -7.1918 31.4644 10.0048
# 2 19.0906 150.5275 63.8881 -31.4218 17.3513 -4.9449
# 3 37.3000 63.8881 186.6821 -16.0401 35.4198 -9.5204
# 4 -7.1918 -31.4218 -16.0401 68.5085 -15.4130 10.5161
# 5 31.4644 17.3513 35.4198 -15.4130 44.9416 6.7791
# 6 10.0048 -4.9449 -9.5204 10.5161 6.7791 45.9098
#
#
#
# Elastic Compliance Matrix: (Units=1/GPa)
#
#
# Indices 1 2 3 4 5 6 
#
# 1 0.011438 -0.000407 -0.000931 -0.000556 -0.007073 -0.001558
# 2 -0.000407 0.008450 -0.002590 0.003337 0.000260 -0.000341
# 3 -0.000931 -0.002590 0.007392 -0.001026 -0.004890 0.002414
# 4 -0.000556 0.003337 -0.001026 0.018125 0.006864 -0.004897
# 5 -0.007073 0.000260 -0.004890 0.006864 0.034226 -0.006071
# 6 -0.001558 -0.000341 0.002414 -0.004897 -0.006071 0.024603
#
#
# Mechanical properties :
#
#
# Convention : Reuss Voigt Hill
#
# Bulk Modulus (GPa) = 51.48856 76.59749 64.04303
# Shear Modulus (GPa) = 42.17048 53.77472 47.97260
#
# Velocity S-wave (km/s) = 3.88171 4.38337 4.14015
# Velocity P-wave (km/s) = 6.20381 7.27923 6.76293
#
# Compressibility (1/GPa) = 0.01942179
#
# Stress axis : x y z
#
# Youngs Moduli (GPa) = 87.42510 118.34550 135.28158
#
# Poissons Ratio (x) = 0.04821 0.12599
# Poissons Ratio (y) = 0.03562 0.35044
# Poissons Ratio (z) = 0.08142 0.30657
#
# Static dielectric constant tensor:
#      x y z
#    x 2.494810 -0.378060 0.018610 
#    y -0.378060 2.626630 -0.179690 
#    z 0.018610 -0.179690 2.355790 
# 
# From -- ./inp_files/80301.got.cif
#   From: 2010.05.17/outbox.cif.g08.bks.cpg/sg2_41_cif.got.tgz:80301.got - 2010.06.03 11:33:40.
