data_PCOD9028341
_publ_section_title
;
Structure prediction by ZEFSAII (Michael W. Deem and Ramdas Pophale) SiO2 
 PCOD9028341
Probable space group: P -1
;
_chemical_formula_sum "Si O2"
_cell_formula_units_Z 15
_cell_length_a 9.246264
_cell_length_b 15.259609
_cell_length_c 8.874699
_cell_angle_alpha 38.210018
_cell_angle_beta 103.531166
_cell_angle_gamma 94.082189
_cell_volume 739.694708
_symmetry_space_group_name_H-M "P -1"
_symmetry_group_IT_number 2
_symmetry_cell_setting 'triclinic'
loop_
_space_group_symop_operation_xyz
x,y,z
-x,-y,-z
loop_
_atom_site_type_symbol
_atom_site_label
_atom_site_fract_x
_atom_site_fract_y
_atom_site_fract_z
Si Si1 0.198364 0.205964 0.330791
Si Si2 0.731815 0.428487 0.720681
Si Si3 0.862887 0.227388 0.290031
Si Si4 0.508192 0.081967 0.738251
Si Si5 0.794091 0.478238 0.182550
Si Si6 0.000000 0.500000 0.500000
Si Si7 0.450768 0.610032 0.564268
Si Si8 0.329849 0.020066 0.364066
O O1 0.342879 0.117990 0.571870
O O2 0.042921 0.168640 0.404697
O O3 0.228591 0.159977 0.224962
O O4 0.194981 0.376399 0.102014
O O5 0.616832 0.529707 0.666284
O O6 0.637340 0.369421 0.644728
O O7 0.846754 0.507881 0.553800
O O8 0.822407 0.304501 0.015545
O O9 0.830476 0.343800 0.259374
O O10 0.757306 0.109406 0.444105
O O11 0.551659 0.236550 0.568538
O O12 0.634459 0.985348 0.795715
O O13 0.500000 0.000000 0.000000
O O14 0.630054 0.482637 0.214006
O O15 0.906756 0.465997 0.368483
O O16 0.500000 0.000000 0.500000
#
# Coordination Sequence:
#
# PCOD9028341 Si02
#       8
#     2   2   2   2   2   1   2   2
#     4  11  25  43  69 101 133 182 220 282 344 401
#     4  10  23  38  69  96 138 169 219 278 337 396
#     4  12  23  44  70 101 134 176 226 280 340 406
#     4  11  25  45  65  94 134 180 233 273 329 407
#     4  11  23  42  71 103 138 168 227 278 339 403
#     4  10  22  42  58 106 142 168 202 284 344 398
#     4  10  23  41  64 102 129 181 221 280 331 395
#     4  10  25  45  66  95 134 180 225 276 331 402
#
# _framework density 20.278638000000001
#
# number of rings (size 3 to 8) (size 9 to 14) (size 15 to 20)
#    0.000    1.333    2.667    1.600    9.333    3.200 
#    0.000    0.667    0.000    0.000    0.000    0.000 
#    0.000    0.000    0.000    0.000    0.000    0.000 
#
# Total GULP energy -83518.006350 kJ/mol
# GULP energy per Si atom -5567.867090 kJ/mol
# Density = 2.023248 g / cm^3
# Si number density = 20.278638 Si / 1000 Ang^3
#
#
#
# Elastic Constant Matrix: (Units=GPa)
#
#
# Indices 1 2 3 4 5 6 
#
# 1 149.9031 48.6638 15.5467 -4.0612 -13.6882 -8.3982
# 2 48.6638 86.7929 7.3784 -0.2631 -0.5642 -6.8349
# 3 15.5467 7.3784 28.6109 7.1656 -3.4472 11.3132
# 4 -4.0612 -0.2631 7.1656 25.6447 -0.7775 -4.7428
# 5 -13.6882 -0.5642 -3.4472 -0.7775 17.2549 1.8402
# 6 -8.3982 -6.8349 11.3132 -4.7428 1.8402 32.3146
#
#
#
# Elastic Compliance Matrix: (Units=1/GPa)
#
#
# Indices 1 2 3 4 5 6 
#
# 1 0.009634 -0.004552 -0.005842 0.004004 0.006099 0.003827
# 2 -0.004552 0.014610 -0.003382 0.000888 -0.004138 0.003457
# 3 -0.005842 -0.003382 0.055032 -0.020718 0.007981 -0.024996
# 4 0.004004 0.000888 -0.020718 0.048298 -0.000420 0.015594
# 5 0.006099 -0.004138 0.007981 -0.000420 0.064856 -0.005839
# 6 0.003827 0.003457 -0.024996 0.015594 -0.005839 0.044044
#
#
# Mechanical properties :
#
#
# Convention : Reuss Voigt Hill
#
# Bulk Modulus (GPa) = 19.33356 45.38719 32.36037
# Shear Modulus (GPa) = 17.77664 27.95739 22.86702
#
# Velocity S-wave (km/s) = 2.96399 3.71706 3.36168
# Velocity P-wave (km/s) = 4.61175 6.39159 5.57318
#
# Compressibility (1/GPa) = 0.05172354
#
# Stress axis : x y z
#
# Youngs Moduli (GPa) = 103.79367 68.44846 18.17108
#
# Poissons Ratio (x) = 0.31159 0.10616
# Poissons Ratio (y) = 0.47248 0.06145
# Poissons Ratio (z) = 0.60641 0.23149
#
# Static dielectric constant tensor:
#      x y z
#    x 1.722690 0.011030 0.040740 
#    y 0.011030 1.744350 -0.021910 
#    z 0.040740 -0.021910 1.803610 
# 
# From -- ./inp_files/181383.got.cif
#   From: 2010.05.17/outbox.cif.g08.bks.cpg/sg2_91_cif.got.tgz:181383.got - 2010.06.03 11:33:40.
