data_PCOD9028322
_publ_section_title
;
Structure prediction by ZEFSAII (Michael W. Deem and Ramdas Pophale) SiO2 
 PCOD9028322
Probable space group: P -1
;
_chemical_formula_sum "Si O2"
_cell_formula_units_Z 14
_cell_length_a 11.945103
_cell_length_b 8.824989
_cell_length_c 8.574546
_cell_angle_alpha 79.691540
_cell_angle_beta 126.436795
_cell_angle_gamma 67.120791
_cell_volume 558.232747
_symmetry_space_group_name_H-M "P -1"
_symmetry_group_IT_number 2
_symmetry_cell_setting 'triclinic'
loop_
_space_group_symop_operation_xyz
x,y,z
-x,-y,-z
loop_
_atom_site_type_symbol
_atom_site_label
_atom_site_fract_x
_atom_site_fract_y
_atom_site_fract_z
Si Si1 0.648015 0.398787 0.004907
Si Si2 0.941983 0.901077 0.612108
Si Si3 0.424624 0.365120 0.589200
Si Si4 0.651226 0.903626 0.275705
Si Si5 0.107079 0.273426 0.089760
Si Si6 0.555495 0.773799 0.693336
Si Si7 0.907353 0.183283 0.766748
O O1 0.574641 0.327558 0.832678
O O2 0.646925 0.568243 0.895552
O O3 0.500000 0.500000 0.000000
O O4 0.852575 0.221526 0.243980
O O5 0.881745 0.105712 0.601258
O O6 0.830337 0.878716 0.396764
O O7 0.931116 0.802255 0.776443
O O8 0.329583 0.283758 0.608534
O O9 0.510488 0.249316 0.520068
O O10 0.279156 0.599602 0.391481
O O11 0.576190 0.061616 0.323537
O O12 0.500000 0.000000 0.000000
O O13 0.306216 0.190456 0.244732
O O14 0.000000 0.500000 0.000000
O O15 0.042719 0.232408 0.888061
O O16 0.000000 0.000000 0.000000
#
# Coordination Sequence:
#
# PCOD9028322 Si02
#       7
#     2   2   2   2   2   2   2
#     4  12  28  50  76 116 162 210 258 322 398 475
#     4  11  24  47  77 108 158 205 263 320 392 472
#     4  12  25  48  78 116 156 203 264 327 389 463
#     4  12  28  51  76 117 159 209 263 325 400 469
#     4  11  19  41  74 121 147 197 260 329 387 456
#     4  12  24  46  78 111 161 196 268 327 387 468
#     4  10  22  41  76 119 154 190 253 323 393 454
#
# _framework density 25.079145
#
# number of rings (size 3 to 8) (size 9 to 14) (size 15 to 20)
#    0.000    0.571    4.286    3.429    2.000    2.286 
#    2.571    5.000    0.000    0.000    0.000    0.000 
#    0.000    0.000    0.000    0.000    0.000    0.000 
#
# Total GULP energy -78355.934693 kJ/mol
# GULP energy per Si atom -5596.852478 kJ/mol
# Density = 2.502206 g / cm^3
# Si number density = 25.079145 Si / 1000 Ang^3
#
#
#
# Elastic Constant Matrix: (Units=GPa)
#
#
# Indices 1 2 3 4 5 6 
#
# 1 103.8267 49.3244 45.9057 26.5667 13.2200 2.2967
# 2 49.3244 175.8142 73.7071 5.6190 9.3874 14.2523
# 3 45.9057 73.7071 132.2012 32.7101 16.8711 1.2281
# 4 26.5667 5.6190 32.7101 42.7629 12.0036 9.4327
# 5 13.2200 9.3874 16.8711 12.0036 52.7118 2.6214
# 6 2.2967 14.2523 1.2281 9.4327 2.6214 44.1523
#
#
#
# Elastic Compliance Matrix: (Units=1/GPa)
#
#
# Indices 1 2 3 4 5 6 
#
# 1 0.013602 -0.003304 -0.000927 -0.007499 -0.000920 0.002041
# 2 -0.003304 0.008923 -0.005185 0.005741 -0.000221 -0.003778
# 3 -0.000927 -0.005185 0.013180 -0.009259 -0.001123 0.003400
# 4 -0.007499 0.005741 -0.009259 0.037553 -0.004284 -0.008974
# 5 -0.000920 -0.000221 -0.001123 -0.004284 0.020584 -0.000157
# 6 0.002041 -0.003778 0.003400 -0.008974 -0.000157 0.025594
#
#
# Mechanical properties :
#
#
# Convention : Reuss Voigt Hill
#
# Bulk Modulus (GPa) = 59.26920 83.30183 71.28552
# Shear Modulus (GPa) = 34.74838 44.11906 39.43372
#
# Velocity S-wave (km/s) = 3.72633 4.19882 3.96962
# Velocity P-wave (km/s) = 6.49602 7.53621 7.03537
#
# Compressibility (1/GPa) = 0.01687217
#
# Stress axis : x y z
#
# Youngs Moduli (GPa) = 73.52017 112.07038 75.87503
#
# Poissons Ratio (x) = 0.37028 0.07035
# Poissons Ratio (y) = 0.24291 0.39341
# Poissons Ratio (z) = 0.06816 0.58108
#
# Static dielectric constant tensor:
#      x y z
#    x 2.117570 -0.019890 0.067140 
#    y -0.019890 1.970360 -0.047180 
#    z 0.067140 -0.047180 2.100580 
# 
# From -- ./inp_files/295314.got.cif
#   From: 2010.05.17/outbox.cif.g08.bks.cpg/sg2_148_cif.got.tgz:295314.got - 2010.06.03 11:33:40.
