data_PCOD9028082
_publ_section_title
;
Structure prediction by ZEFSAII (Michael W. Deem and Ramdas Pophale) SiO2 
 PCOD9028082
Probable space group: P -1
;
_chemical_formula_sum "Si O2"
_cell_formula_units_Z 14
_cell_length_a 11.645443
_cell_length_b 12.932710
_cell_length_c 5.476948
_cell_angle_alpha 93.406915
_cell_angle_beta 67.903989
_cell_angle_gamma 52.277881
_cell_volume 555.350587
_symmetry_space_group_name_H-M "P -1"
_symmetry_group_IT_number 2
_symmetry_cell_setting 'triclinic'
loop_
_space_group_symop_operation_xyz
x,y,z
-x,-y,-z
loop_
_atom_site_type_symbol
_atom_site_label
_atom_site_fract_x
_atom_site_fract_y
_atom_site_fract_z
Si Si1 0.040546 0.647923 0.584970
Si Si2 0.698053 0.853472 0.172164
Si Si3 0.295895 0.660827 0.888447
Si Si4 0.466906 0.643185 0.252285
Si Si5 0.010209 0.115617 0.569611
Si Si6 0.857575 0.606273 0.330510
Si Si7 0.393338 0.924382 0.353887
O O1 0.083529 0.739858 0.488796
O O2 0.947493 0.634509 0.447086
O O3 0.181670 0.484407 0.537553
O O4 0.888664 0.749985 0.912650
O O5 0.707017 0.756939 0.354130
O O6 0.555967 0.890852 0.108969
O O7 0.645429 0.990585 0.354885
O O8 0.366642 0.652172 0.566392
O O9 0.344537 0.513029 0.882936
O O10 0.394672 0.658498 0.039801
O O11 0.098014 0.806128 0.084709
O O12 0.446324 0.776234 0.315550
O O13 0.208502 0.031986 0.390472
O O14 0.000000 0.000000 0.500000
O O15 0.000000 0.500000 0.000000
#
# Coordination Sequence:
#
# PCOD9028082 Si02
#       7
#     2   2   2   2   2   2   2
#     4  10  22  41  71 102 136 188 236 293 363 431
#     4  10  23  44  67 100 140 180 241 299 359 440
#     4  10  24  46  72 103 146 193 253 293 364 445
#     4  10  23  48  71 103 144 197 243 303 364 443
#     4  12  25  44  71 107 147 190 239 302 365 447
#     4   9  19  42  67  99 134 176 236 295 357 419
#     4  11  24  44  68 103 143 184 237 299 374 428
#
# _framework density 25.209301
#
# number of rings (size 3 to 8) (size 9 to 14) (size 15 to 20)
#    0.000    1.714    2.857    0.000    2.000    5.714 
#   10.286    0.000    0.000    0.000    0.000    0.000 
#    0.000    0.000    0.000    0.000    0.000    0.000 
#
# Total GULP energy -78161.607041 kJ/mol
# GULP energy per Si atom -5582.971931 kJ/mol
# Density = 2.515192 g / cm^3
# Si number density = 25.209301 Si / 1000 Ang^3
#
#
#
# Elastic Constant Matrix: (Units=GPa)
#
#
# Indices 1 2 3 4 5 6 
#
# 1 97.5031 46.2423 1.6082 1.1503 20.4999 2.1362
# 2 46.2423 198.6511 37.9193 25.0648 23.3050 35.1135
# 3 1.6082 37.9193 53.7194 17.8410 16.1284 -2.6004
# 4 1.1503 25.0648 17.8410 48.6257 -1.4015 1.1318
# 5 20.4999 23.3050 16.1284 -1.4015 27.9564 5.9307
# 6 2.1362 35.1135 -2.6004 1.1318 5.9307 24.7157
#
#
#
# Elastic Compliance Matrix: (Units=1/GPa)
#
#
# Indices 1 2 3 4 5 6 
#
# 1 0.015297 -0.005157 0.008350 -0.001411 -0.013992 0.010305
# 2 -0.005157 0.010537 -0.008443 -0.001745 0.003196 -0.016099
# 3 0.008350 -0.008443 0.036401 -0.010431 -0.025196 0.021626
# 4 -0.001411 -0.001745 -0.010431 0.025670 0.010246 -0.002131
# 5 -0.013992 0.003196 -0.025196 0.010246 0.062991 -0.021567
# 6 0.010305 -0.016099 0.021626 -0.002131 -0.021567 0.069990
#
#
# Mechanical properties :
#
#
# Convention : Reuss Voigt Hill
#
# Bulk Modulus (GPa) = 19.32894 57.93480 38.63187
# Shear Modulus (GPa) = 20.11040 37.86647 28.98843
#
# Velocity S-wave (km/s) = 2.82749 3.87988 3.39471
# Velocity P-wave (km/s) = 4.28294 6.56526 5.54285
#
# Compressibility (1/GPa) = 0.05173590
#
# Stress axis : x y z
#
# Youngs Moduli (GPa) = 65.37349 94.90558 27.47213
#
# Poissons Ratio (x) = 0.48940 -0.22940
# Poissons Ratio (y) = 0.33711 0.23194
# Poissons Ratio (z) = -0.54589 0.80126
#
# Static dielectric constant tensor:
#      x y z
#    x 2.071860 -0.100700 -0.034820 
#    y -0.100700 2.109920 -0.065800 
#    z -0.034820 -0.065800 2.047770 
# 
# From -- ./inp_files/71077.got.cif
#   From: 2010.05.17/outbox.cif.g08.bks.cpg/sg2_36_cif.got.tgz:71077.got - 2010.06.03 11:33:40.
