data_PCOD9028119
_publ_section_title
;
Structure prediction by ZEFSAII (Michael W. Deem and Ramdas Pophale) SiO2 
 PCOD9028119
Probable space group: P -1
;
_chemical_formula_sum "Si O2"
_cell_formula_units_Z 14
_cell_length_a 15.392410
_cell_length_b 18.139243
_cell_length_c 11.504330
_cell_angle_alpha 135.353733
_cell_angle_beta 27.839100
_cell_angle_gamma 152.024612
_cell_volume 667.317207
_symmetry_space_group_name_H-M "P -1"
_symmetry_group_IT_number 2
_symmetry_cell_setting 'triclinic'
loop_
_space_group_symop_operation_xyz
x,y,z
-x,-y,-z
loop_
_atom_site_type_symbol
_atom_site_label
_atom_site_fract_x
_atom_site_fract_y
_atom_site_fract_z
Si Si1 0.468350 0.222520 0.434967
Si Si2 0.792915 0.173526 0.595638
Si Si3 0.746430 0.666089 0.320969
Si Si4 0.742948 0.212168 0.276155
Si Si5 0.272434 0.692538 0.363572
Si Si6 0.801769 0.191265 0.868279
Si Si7 0.921413 0.902686 0.866427
O O1 0.390990 0.296106 0.543534
O O2 0.640478 0.279247 0.417236
O O3 0.692207 0.253223 0.122913
O O4 0.147593 0.035102 0.643074
O O5 0.767493 0.271349 0.671903
O O6 0.902585 0.241164 0.672545
O O7 0.019691 0.193579 0.289979
O O8 0.482700 0.973763 0.718887
O O9 0.500000 0.500000 0.500000
O O10 0.989666 0.785990 0.269688
O O11 0.930464 0.676007 0.023240
O O12 0.714255 0.210627 0.445310
O O13 0.000000 0.500000 0.500000
O O14 0.587472 0.775565 0.086571
O O15 0.500000 0.000000 0.000000
O O16 0.000000 0.000000 0.000000
#
# Coordination Sequence:
#
# PCOD9028119 Si02
#       7
#     2   2   2   2   2   2   2
#     4  10  22  41  71  92 126 168 214 266 310 382
#     4  11  23  43  71  91 131 174 214 270 306 388
#     4  11  25  40  66  96 129 171 208 261 328 383
#     4  10  22  44  64  95 131 167 221 262 318 382
#     4  12  27  41  63 101 133 166 211 272 330 372
#     4  11  22  44  62  99 127 159 219 265 313 371
#     4  11  22  41  69  94 118 172 223 253 316 386
#
# _framework density 20.979527000000001
#
# number of rings (size 3 to 8) (size 9 to 14) (size 15 to 20)
#    0.000    1.143    7.143    1.286    2.000    8.000 
#    0.000    0.000    0.000    0.000    0.000    0.000 
#    0.000    0.000    0.000    0.000    0.000    0.000 
#
# Total GULP energy -78001.165904 kJ/mol
# GULP energy per Si atom -5571.511850 kJ/mol
# Density = 2.093178 g / cm^3
# Si number density = 20.979527 Si / 1000 Ang^3
#
#
#
# Elastic Constant Matrix: (Units=GPa)
#
#
# Indices 1 2 3 4 5 6 
#
# 1 92.5884 7.3937 -3.6607 14.0783 -18.6651 -16.3872
# 2 7.3937 25.7042 1.6711 -5.4148 -7.4234 -16.5071
# 3 -3.6607 1.6711 67.9992 18.4391 -10.2617 -17.9767
# 4 14.0783 -5.4148 18.4391 12.6535 -5.1374 11.1282
# 5 -18.6651 -7.4234 -10.2617 -5.1374 34.7066 20.2331
# 6 -16.3872 -16.5071 -17.9767 11.1282 20.2331 30.1490
#
#
#
# Elastic Compliance Matrix: (Units=1/GPa)
#
#
# Indices 1 2 3 4 5 6 
#
# 1 0.008814 -0.005138 -0.005232 0.014070 0.012928 -0.015011
# 2 -0.005138 0.055829 -0.004002 0.024343 0.003344 0.014160
# 3 -0.005232 -0.004002 0.002407 0.029128 0.015967 -0.025066
# 4 0.014070 0.024343 0.029128 -0.048861 -0.030741 0.077009
# 5 0.012928 0.003344 0.015967 -0.030741 0.031741 0.008424
# 6 -0.015011 0.014160 -0.025066 0.077009 0.008424 -0.016262
#
#
# Mechanical properties :
#
#
# Convention : Reuss Voigt Hill
#
# Bulk Modulus (GPa) = 26.10465 21.89998 24.00231
# Shear Modulus (GPa) = 66.50703 27.56101 47.03402
#
# Velocity S-wave (km/s) = 5.63647 3.62845 4.74001
# Velocity P-wave (km/s) = 7.40470 5.29297 6.43604
#
# Compressibility (1/GPa) = 0.03830736
#
# Stress axis : x y z
#
# Youngs Moduli (GPa) = 113.45685 17.91178 415.45263
#
# Poissons Ratio (x) = 0.09203 2.17365
# Poissons Ratio (y) = 0.58291 1.66250
# Poissons Ratio (z) = 0.59361 0.07168
#
# Static dielectric constant tensor:
#      x y z
#    x 1.836160 0.024350 0.081120 
#    y 0.024350 1.788340 0.016670 
#    z 0.081120 0.016670 1.658080 
# 
# From -- ./inp_files/188265.got.cif
#   From: 2010.05.17/outbox.cif.g08.bks.cpg/sg2_95_cif.got.tgz:188265.got - 2010.06.03 11:33:40.
