data_PCOD9028333
_publ_section_title
;
Structure prediction by ZEFSAII (Michael W. Deem and Ramdas Pophale) SiO2 
 PCOD9028333
Probable space group: P -1
;
_chemical_formula_sum "Si O2"
_cell_formula_units_Z 16
_cell_length_a 15.090223
_cell_length_b 8.352574
_cell_length_c 11.443338
_cell_angle_alpha 142.558175
_cell_angle_beta 82.777151
_cell_angle_gamma 105.491030
_cell_volume 835.801153
_symmetry_space_group_name_H-M "P -1"
_symmetry_group_IT_number 2
_symmetry_cell_setting 'triclinic'
loop_
_space_group_symop_operation_xyz
x,y,z
-x,-y,-z
loop_
_atom_site_type_symbol
_atom_site_label
_atom_site_fract_x
_atom_site_fract_y
_atom_site_fract_z
Si Si1 0.934200 0.823640 0.508081
Si Si2 0.251867 0.436476 0.970327
Si Si3 0.056905 0.035399 0.826461
Si Si4 0.592833 0.724147 0.297231
Si Si5 0.780105 0.998432 0.779589
Si Si6 0.090345 0.771834 0.911346
Si Si7 0.596546 0.248318 0.722782
Si Si8 0.585544 0.723351 0.559843
O O1 0.849793 0.933003 0.633374
O O2 0.895560 0.522850 0.286171
O O3 0.000000 0.000000 0.500000
O O4 0.999230 0.841883 0.622722
O O5 0.157283 0.201461 0.861392
O O6 0.329247 0.342150 0.831208
O O7 0.305192 0.542991 0.144123
O O8 0.229785 0.700107 0.070289
O O9 0.069373 0.879505 0.851691
O O10 0.997416 0.242604 0.997223
O O11 0.487262 0.619790 0.208545
O O12 0.394283 0.948642 0.500219
O O13 0.601526 0.623129 0.368850
O O14 0.678963 0.787946 0.657884
O O15 0.825914 0.019152 0.911881
O O16 0.570955 0.023510 0.703493
O O17 0.500000 0.500000 0.500000
#
# Coordination Sequence:
#
# PCOD9028333 Si02
#       8
#     2   2   2   2   2   2   2   2
#     4  11  22  38  64  85 116 155 191 234 291 342
#     4  11  20  35  60  86 112 145 199 236 282 343
#     4  10  23  38  58  89 112 155 190 234 293 339
#     4   9  19  36  56  78 113 150 185 241 283 330
#     4  10  23  37  57  89 114 152 196 236 280 349
#     4  10  22  42  56  80 128 147 188 242 282 348
#     4   8  19  37  54  80 115 148 189 235 278 345
#     4   9  19  37  57  80 115 150 186 236 284 335
#
# _framework density 19.14331
#
# number of rings (size 3 to 8) (size 9 to 14) (size 15 to 20)
#    0.750    1.500    0.000    2.250    3.500    4.000 
#    2.250    2.500    0.000    0.000    0.000    0.000 
#    0.000    0.000    0.000    0.000    0.000    0.000 
#
# Total GULP energy -89133.066763 kJ/mol
# GULP energy per Si atom -5570.816673 kJ/mol
# Density = 1.909974 g / cm^3
# Si number density = 19.143310 Si / 1000 Ang^3
#
#
#
# Elastic Constant Matrix: (Units=GPa)
#
#
# Indices 1 2 3 4 5 6 
#
# 1 104.7502 12.2465 36.5446 -0.1537 11.9653 -0.4038
# 2 12.2465 25.5467 11.0162 -2.8748 5.2986 -0.5332
# 3 36.5446 11.0162 69.8595 -7.4066 0.2566 -4.4383
# 4 -0.1537 -2.8748 -7.4066 21.8707 -4.8330 12.2372
# 5 11.9653 5.2986 0.2566 -4.8330 42.6920 -0.0446
# 6 -0.4038 -0.5332 -4.4383 12.2372 -0.0446 17.2092
#
#
#
# Elastic Compliance Matrix: (Units=1/GPa)
#
#
# Indices 1 2 3 4 5 6 
#
# 1 0.012537 -0.002926 -0.006423 -0.004056 -0.003570 0.001422
# 2 -0.002926 0.044091 -0.005088 0.005274 -0.004028 -0.003776
# 3 -0.006423 -0.005088 0.019149 0.006390 0.003040 0.000094
# 4 -0.004056 0.005274 0.006390 0.082588 0.009734 -0.056985
# 5 -0.003570 -0.004028 0.003040 0.009734 0.026001 -0.006279
# 6 0.001422 -0.003776 0.000094 -0.056985 -0.006279 0.098554
#
#
# Mechanical properties :
#
#
# Convention : Reuss Voigt Hill
#
# Bulk Modulus (GPa) = 21.32105 35.53013 28.42559
# Shear Modulus (GPa) = 15.27046 25.71097 20.49071
#
# Velocity S-wave (km/s) = 2.82741 3.66878 3.27522
# Velocity P-wave (km/s) = 4.67127 6.04541 5.40221
#
# Compressibility (1/GPa) = 0.04690201
#
# Stress axis : x y z
#
# Youngs Moduli (GPa) = 79.76461 22.68030 52.22143
#
# Poissons Ratio (x) = 0.06637 0.33544
# Poissons Ratio (y) = 0.23343 0.26569
# Poissons Ratio (z) = 0.51236 0.11539
#
# Static dielectric constant tensor:
#      x y z
#    x 1.684120 -0.035180 0.023580 
#    y -0.035180 1.643780 -0.011610 
#    z 0.023580 -0.011610 1.699530 
# 
# From -- ./inp_files/446473.got.cif
#   From: 2010.05.17/outbox.cif.g08.bks.cpg/sg2_224_cif.got.tgz:446473.got - 2010.06.03 11:33:40.
