data_PCOD9028539
_publ_section_title
;
Structure prediction by ZEFSAII (Michael W. Deem and Ramdas Pophale) SiO2 
 PCOD9028539
Probable space group: P -1
;
_chemical_formula_sum "Si O2"
_cell_formula_units_Z 16
_cell_length_a 19.470953
_cell_length_b 6.852247
_cell_length_c 17.061610
_cell_angle_alpha 59.643487
_cell_angle_beta 25.617632
_cell_angle_gamma 67.800070
_cell_volume 830.574717
_symmetry_space_group_name_H-M "P -1"
_symmetry_group_IT_number 2
_symmetry_cell_setting 'triclinic'
loop_
_space_group_symop_operation_xyz
x,y,z
-x,-y,-z
loop_
_atom_site_type_symbol
_atom_site_label
_atom_site_fract_x
_atom_site_fract_y
_atom_site_fract_z
Si Si1 0.093052 0.681548 0.182315
Si Si2 0.283002 0.614385 0.840281
Si Si3 0.400612 0.374106 0.392623
Si Si4 0.022008 0.190241 0.149174
Si Si5 0.598439 0.361921 0.034391
Si Si6 0.856519 0.054529 0.191599
Si Si7 0.818065 0.282551 0.490019
Si Si8 0.409315 0.136138 0.125633
O O1 0.937887 0.469620 0.382395
O O2 0.185464 0.660310 0.009541
O O3 0.223892 0.669278 0.117300
O O4 0.043292 0.927508 0.187188
O O5 0.462470 0.605378 0.685696
O O6 0.260667 0.814708 0.762891
O O7 0.191563 0.371242 0.947473
O O8 0.481965 0.313243 0.240338
O O9 0.335254 0.605841 0.396627
O O10 0.248489 0.178616 0.615834
O O11 0.940472 0.210295 0.145292
O O12 0.909854 0.246263 0.323260
O O13 0.517116 0.203939 0.078818
O O14 0.612491 0.626439 0.939420
O O15 0.000000 0.000000 0.000000
O O16 0.756102 0.038040 0.644823
O O17 0.500000 0.000000 0.000000
#
# Coordination Sequence:
#
# PCOD9028539 Si02
#       8
#     2   2   2   2   2   2   2   2
#     4  10  22  42  63  91 129 165 207 255 308 370
#     4  10  23  39  62  93 124 167 213 256 305 364
#     4  11  22  42  64  92 129 164 209 257 311 370
#     4  11  22  41  64  89 128 169 206 254 314 367
#     4  10  24  42  66  94 126 166 203 258 315 365
#     4  12  21  41  64  90 130 166 209 261 306 364
#     4  11  23  40  65  94 123 167 207 253 316 371
#     4  11  23  41  67  96 127 158 209 257 310 375
#
# _framework density 19.263767999999999
#
# number of rings (size 3 to 8) (size 9 to 14) (size 15 to 20)
#    0.000    1.250    3.750    2.250    1.750    1.500 
#    0.000    2.500    0.000    0.000    0.000    0.000 
#    0.000    0.000    0.000    0.000    0.000    0.000 
#
# Total GULP energy -89413.606054 kJ/mol
# GULP energy per Si atom -5588.350378 kJ/mol
# Density = 1.921992 g / cm^3
# Si number density = 19.263768 Si / 1000 Ang^3
#
#
#
# Elastic Constant Matrix: (Units=GPa)
#
#
# Indices 1 2 3 4 5 6 
#
# 1 92.2542 14.8126 31.4618 -3.1545 -5.9105 -8.7285
# 2 14.8126 68.7535 24.6294 -11.7204 -6.6030 2.6713
# 3 31.4618 24.6294 80.4489 -8.9084 1.6855 -0.6233
# 4 -3.1545 -11.7204 -8.9084 28.1936 -8.6844 -0.9123
# 5 -5.9105 -6.6030 1.6855 -8.6844 24.8245 3.4668
# 6 -8.7285 2.6713 -0.6233 -0.9123 3.4668 24.5924
#
#
#
# Elastic Compliance Matrix: (Units=1/GPa)
#
#
# Indices 1 2 3 4 5 6 
#
# 1 0.013254 -0.000905 -0.004868 0.000586 0.002850 0.004299
# 2 -0.000905 0.018881 -0.004655 0.008844 0.008690 -0.003387
# 3 -0.004868 -0.004655 0.016003 0.001689 -0.002844 -0.000353
# 4 0.000586 0.008844 0.001689 0.045385 0.018482 -0.001632
# 5 0.002850 0.008690 -0.002844 0.018482 0.050837 -0.006485
# 6 0.004299 -0.003387 -0.000353 -0.001632 -0.006485 0.043402
#
#
# Mechanical properties :
#
#
# Convention : Reuss Voigt Hill
#
# Bulk Modulus (GPa) = 36.65485 42.58492 39.61989
# Shear Modulus (GPa) = 22.96593 26.89228 24.92911
#
# Velocity S-wave (km/s) = 3.45655 3.74037 3.60125
# Velocity P-wave (km/s) = 5.91603 6.38811 6.15660
#
# Compressibility (1/GPa) = 0.02728152
#
# Stress axis : x y z
#
# Youngs Moduli (GPa) = 75.44613 52.96268 62.48769
#
# Poissons Ratio (x) = 0.04795 0.30419
# Poissons Ratio (y) = 0.06830 0.29091
# Poissons Ratio (z) = 0.36727 0.24656
#
# Static dielectric constant tensor:
#      x y z
#    x 1.667730 -0.005160 0.000180 
#    y -0.005160 1.645200 -0.012010 
#    z 0.000180 -0.012010 1.678700 
# 
# From -- ./inp_files/37277.got.cif
#   From: 2010.05.17/outbox.cif.g08.bks.cpg/sg2_19_cif.got.tgz:37277.got - 2010.06.03 11:33:40.
