data_PCOD9028272
_publ_section_title
;
Structure prediction by ZEFSAII (Michael W. Deem and Ramdas Pophale) SiO2 
 PCOD9028272
Probable space group: P -1
;
_chemical_formula_sum "Si O2"
_cell_formula_units_Z 14
_cell_length_a 12.966674
_cell_length_b 8.626043
_cell_length_c 9.395721
_cell_angle_alpha 119.192932
_cell_angle_beta 129.377948
_cell_angle_gamma 59.750456
_cell_volume 679.117239
_symmetry_space_group_name_H-M "P -1"
_symmetry_group_IT_number 2
_symmetry_cell_setting 'triclinic'
loop_
_space_group_symop_operation_xyz
x,y,z
-x,-y,-z
loop_
_atom_site_type_symbol
_atom_site_label
_atom_site_fract_x
_atom_site_fract_y
_atom_site_fract_z
Si Si1 0.128423 0.819665 0.056384
Si Si2 0.359596 0.536406 0.655531
Si Si3 0.409504 0.900992 0.968991
Si Si4 0.864143 0.228310 0.634904
Si Si5 0.567241 0.143073 0.696946
Si Si6 0.845606 0.866003 0.308509
Si Si7 0.852201 0.503438 0.301117
O O1 0.114883 0.745639 0.169607
O O2 0.271919 0.875875 0.202272
O O3 0.131544 0.665133 0.870465
O O4 0.000000 0.000000 0.000000
O O5 0.425383 0.696700 0.833133
O O6 0.266472 0.614272 0.471058
O O7 0.477818 0.345722 0.658986
O O8 0.254326 0.514217 0.677623
O O9 0.251026 0.023574 0.853496
O O10 0.444081 0.883748 0.156388
O O11 0.500000 0.000000 0.000000
O O12 0.999971 0.220803 0.656735
O O13 0.843324 0.025162 0.494367
O O14 0.500000 0.000000 0.500000
O O15 0.797911 0.699585 0.260008
O O16 0.000000 0.500000 0.500000
#
# Coordination Sequence:
#
# PCOD9028272 Si02
#       7
#     2   2   2   2   2   2   2
#     4  12  28  45  71 104 143 181 237 293 350 411
#     4  11  25  47  70 103 140 184 239 279 356 428
#     4  11  24  44  72  99 135 186 235 286 341 426
#     4  10  23  44  70 101 138 179 234 291 339 418
#     4  12  29  46  70 104 146 184 229 299 355 413
#     4  10  22  41  73  99 135 182 235 281 350 410
#     4  12  24  44  75 102 140 186 229 291 351 424
#
# _framework density 20.614996999999999
#
# number of rings (size 3 to 8) (size 9 to 14) (size 15 to 20)
#    0.000    0.857    2.857    3.000   12.000    2.286 
#    0.000    0.000    0.000    0.000    0.000    0.000 
#    0.000    0.000    0.000    0.000    0.000    0.000 
#
# Total GULP energy -78363.229933 kJ/mol
# GULP energy per Si atom -5597.373567 kJ/mol
# Density = 2.056808 g / cm^3
# Si number density = 20.614997 Si / 1000 Ang^3
#
#
#
# Elastic Constant Matrix: (Units=GPa)
#
#
# Indices 1 2 3 4 5 6 
#
# 1 74.6515 39.6834 19.6559 3.7377 15.9203 0.0041
# 2 39.6834 146.2011 56.4141 -5.6171 11.6912 -0.1138
# 3 19.6559 56.4141 115.2388 -7.2323 6.7735 -7.7726
# 4 3.7377 -5.6171 -7.2323 25.3566 15.1185 10.3097
# 5 15.9203 11.6912 6.7735 15.1185 34.3617 -4.4768
# 6 0.0041 -0.1138 -7.7726 10.3097 -4.4768 35.2018
#
#
#
# Elastic Compliance Matrix: (Units=1/GPa)
#
#
# Indices 1 2 3 4 5 6 
#
# 1 0.017044 -0.003729 -0.000661 0.001472 -0.007345 -0.001525
# 2 -0.003729 0.009760 -0.003843 0.004539 -0.003165 -0.002548
# 3 -0.000661 -0.003843 0.011035 0.002774 -0.001598 0.001408
# 4 0.001472 0.004539 0.002774 0.075165 -0.039281 -0.026383
# 5 -0.007345 -0.003165 -0.001598 -0.039281 0.053518 0.017949
# 6 -0.001525 -0.002548 0.001408 -0.026383 0.017949 0.038720
#
#
# Mechanical properties :
#
#
# Convention : Reuss Voigt Hill
#
# Bulk Modulus (GPa) = 46.78475 63.06646 54.92560
# Shear Modulus (GPa) = 21.85006 33.67322 27.76164
#
# Velocity S-wave (km/s) = 3.25916 4.04596 3.67368
# Velocity P-wave (km/s) = 6.07508 7.24468 6.68550
#
# Compressibility (1/GPa) = 0.02137449
#
# Stress axis : x y z
#
# Youngs Moduli (GPa) = 58.67055 102.45507 90.62310
#
# Poissons Ratio (x) = 0.38203 0.05986
# Poissons Ratio (y) = 0.21877 0.34828
# Poissons Ratio (z) = 0.03876 0.39375
#
# Static dielectric constant tensor:
#      x y z
#    x 1.727400 -0.010250 0.035200 
#    y -0.010250 1.722620 -0.021840 
#    z 0.035200 -0.021840 1.751020 
# 
# From -- ./inp_files/157975.got.cif
#   From: 2010.05.17/outbox.cif.g08.bks.cpg/sg2_79_cif.got.tgz:157975.got - 2010.06.03 11:33:40.
