data_PCOD9028495
_publ_section_title
;
Structure prediction by ZEFSAII (Michael W. Deem and Ramdas Pophale) SiO2 
 PCOD9028495
Probable space group: P -1
;
_chemical_formula_sum "Si O2"
_cell_formula_units_Z 16
_cell_length_a 6.361765
_cell_length_b 17.244023
_cell_length_c 7.689694
_cell_angle_alpha 96.897408
_cell_angle_beta 78.509132
_cell_angle_gamma 53.696136
_cell_volume 635.220287
_symmetry_space_group_name_H-M "P -1"
_symmetry_group_IT_number 2
_symmetry_cell_setting 'triclinic'
loop_
_space_group_symop_operation_xyz
x,y,z
-x,-y,-z
loop_
_atom_site_type_symbol
_atom_site_label
_atom_site_fract_x
_atom_site_fract_y
_atom_site_fract_z
Si Si1 0.196910 0.446219 0.231819
Si Si2 0.227359 0.593176 0.473085
Si Si3 0.345761 0.250352 0.729300
Si Si4 0.823258 0.974194 0.621811
Si Si5 0.767150 0.104700 0.924922
Si Si6 0.625758 0.749431 0.680749
Si Si7 0.838506 0.865177 0.288687
Si Si8 0.656832 0.569786 0.168624
O O1 0.120866 0.537452 0.387167
O O2 0.378606 0.339213 0.271562
O O3 0.917131 0.472545 0.203607
O O4 0.353223 0.444269 0.037377
O O5 0.500000 0.500000 0.500000
O O6 0.371270 0.617851 0.320686
O O7 0.954061 0.693838 0.629090
O O8 0.566236 0.180263 0.822680
O O9 0.444185 0.225206 0.504737
O O10 0.112882 0.237316 0.780562
O O11 0.268293 0.356412 0.807424
O O12 0.851683 0.997189 0.822641
O O13 0.494038 0.052435 0.658907
O O14 0.908678 0.876125 0.477892
O O15 0.000000 0.000000 0.500000
O O16 0.015460 0.109252 0.861367
O O17 0.581914 0.153502 0.140112
#
# Coordination Sequence:
#
# PCOD9028495 Si02
#       8
#     2   2   2   2   2   2   2   2
#     4  11  23  44  61  86 121 168 226 271 317 381
#     4  12  24  41  63  86 119 173 221 268 326 373
#     4  11  23  40  60  93 129 160 211 266 312 375
#     4   8  16  38  71  97 126 163 207 246 306 386
#     4  10  22  42  62  97 129 164 206 259 316 379
#     4  12  24  42  60  90 132 163 214 270 316 374
#     4   9  19  39  70  96 125 169 202 251 317 376
#     4  11  23  42  64  86 123 168 220 275 319 375
#
# _framework density 25.188113999999999
#
# number of rings (size 3 to 8) (size 9 to 14) (size 15 to 20)
#    0.000    1.500    3.750    1.500    1.750    0.000 
#   15.750    0.625    0.000   25.500    0.000    0.000 
#    0.000    0.000    0.000    0.000    0.000    0.000 
#
# Total GULP energy -89328.162446 kJ/mol
# GULP energy per Si atom -5583.010153 kJ/mol
# Density = 2.513078 g / cm^3
# Si number density = 25.188114 Si / 1000 Ang^3
#
#
#
# Elastic Constant Matrix: (Units=GPa)
#
#
# Indices 1 2 3 4 5 6 
#
# 1 116.6604 24.3430 35.2305 4.3169 -24.5637 1.8405
# 2 24.3430 73.2829 15.2962 -19.0196 1.9079 -19.0470
# 3 35.2305 15.2962 152.0107 10.6143 -11.0629 -4.4112
# 4 4.3169 -19.0196 10.6143 33.9585 -3.6435 8.6534
# 5 -24.5637 1.9079 -11.0629 -3.6435 30.2877 9.7518
# 6 1.8405 -19.0470 -4.4112 8.6534 9.7518 46.1312
#
#
#
# Elastic Compliance Matrix: (Units=1/GPa)
#
#
# Indices 1 2 3 4 5 6 
#
# 1 0.012987 -0.006217 -0.001537 -0.002017 0.011845 -0.005358
# 2 -0.006217 0.021193 -0.001768 0.010051 -0.008637 0.008770
# 3 -0.001537 -0.001768 0.007419 -0.003099 0.001075 0.000395
# 4 -0.002017 0.010051 -0.003099 0.037453 0.002254 -0.003568
# 5 0.011845 -0.008637 0.001075 0.002254 0.048538 -0.014619
# 6 -0.005358 0.008770 0.000395 -0.003568 -0.014619 0.029309
#
#
# Mechanical properties :
#
#
# Convention : Reuss Voigt Hill
#
# Bulk Modulus (GPa) = 44.33705 54.63259 49.48482
# Shear Modulus (GPa) = 27.25388 39.88108 33.56748
#
# Velocity S-wave (km/s) = 3.29297 3.98342 3.65454
# Velocity P-wave (km/s) = 5.66558 6.54934 6.12342
#
# Compressibility (1/GPa) = 0.02255450
#
# Stress axis : x y z
#
# Youngs Moduli (GPa) = 77.00271 47.18582 134.79697
#
# Poissons Ratio (x) = 0.29337 0.20715
# Poissons Ratio (y) = 0.47876 0.23826
# Poissons Ratio (z) = 0.11834 0.08340
#
# Static dielectric constant tensor:
#      x y z
#    x 1.992320 -0.014020 0.013400 
#    y -0.014020 2.130540 0.005170 
#    z 0.013400 0.005170 2.053180 
# 
# From -- ./inp_files/56708.got.cif
#   From: 2010.05.17/outbox.cif.g08.bks.cpg/sg2_29_cif.got.tgz:56708.got - 2010.06.03 11:33:40.
