data_PCOD9028524
_publ_section_title
;
Structure prediction by ZEFSAII (Michael W. Deem and Ramdas Pophale) SiO2 
 PCOD9028524
Probable space group: P -1
;
_chemical_formula_sum "Si O2"
_cell_formula_units_Z 14
_cell_length_a 15.986038
_cell_length_b 9.363768
_cell_length_c 19.653363
_cell_angle_alpha 136.362067
_cell_angle_beta 160.880726
_cell_angle_gamma 42.943073
_cell_volume 649.645838
_symmetry_space_group_name_H-M "P -1"
_symmetry_group_IT_number 2
_symmetry_cell_setting 'triclinic'
loop_
_space_group_symop_operation_xyz
x,y,z
-x,-y,-z
loop_
_atom_site_type_symbol
_atom_site_label
_atom_site_fract_x
_atom_site_fract_y
_atom_site_fract_z
Si Si1 0.144445 0.786663 0.574634
Si Si2 0.406279 0.281968 0.846470
Si Si3 0.359923 0.142242 0.611325
Si Si4 0.528465 0.295014 0.530602
Si Si5 0.554746 0.398616 0.731063
Si Si6 0.799116 0.065432 0.184010
Si Si7 0.051780 0.581167 0.192990
O O1 0.369707 0.628590 0.653690
O O2 0.261620 0.842293 0.755648
O O3 0.903596 0.674294 0.364901
O O4 0.000000 0.000000 0.500000
O O5 0.451994 0.178785 0.771068
O O6 0.500000 0.500000 0.000000
O O7 0.563486 0.129123 0.972208
O O8 0.446935 0.307382 0.684147
O O9 0.047291 0.158031 0.380283
O O10 0.472491 0.909084 0.587058
O O11 0.539918 0.252035 0.604372
O O12 0.273728 0.471801 0.378099
O O13 0.783924 0.382325 0.735037
O O14 0.845037 0.434987 0.975107
O O15 0.902099 0.813652 0.181177
#
# Coordination Sequence:
#
# PCOD9028524 Si02
#       7
#     2   2   2   2   2   2   2
#     4  11  24  39  61  95 125 154 200 248 297 358
#     4  11  23  41  64  88 122 162 199 244 298 357
#     4  10  24  41  61  91 121 157 203 246 296 358
#     4  10  23  43  61  86 124 158 198 250 301 356
#     4  12  23  38  63  91 121 158 201 249 298 353
#     4  10  22  42  63  87 125 163 194 244 305 353
#     4  10  23  40  63  88 117 159 204 245 299 356
#
# _framework density 21.550204999999998
#
# number of rings (size 3 to 8) (size 9 to 14) (size 15 to 20)
#    0.000    1.429    0.000    4.286    0.000   16.571 
#    0.000    0.000    0.000    0.000    0.000    0.000 
#    0.000    0.000    0.000    0.000    0.000    0.000 
#
# Total GULP energy -78317.503370 kJ/mol
# GULP energy per Si atom -5594.107384 kJ/mol
# Density = 2.150116 g / cm^3
# Si number density = 21.550205 Si / 1000 Ang^3
#
#
#
# Elastic Constant Matrix: (Units=GPa)
#
#
# Indices 1 2 3 4 5 6 
#
# 1 90.0605 12.2205 55.3604 2.2191 -21.5834 -8.1006
# 2 12.2205 57.2086 30.1667 3.5545 5.8458 -1.4067
# 3 55.3604 30.1667 100.8002 4.7368 -10.6035 -10.7585
# 4 2.2191 3.5545 4.7368 27.2877 -1.0728 4.4725
# 5 -21.5834 5.8458 -10.6035 -1.0728 29.1627 5.2633
# 6 -8.1006 -1.4067 -10.7585 4.4725 5.2633 26.9242
#
#
#
# Elastic Compliance Matrix: (Units=1/GPa)
#
#
# Indices 1 2 3 4 5 6 
#
# 1 0.019698 -0.000341 -0.009586 0.000582 0.011221 -0.000212
# 2 -0.000341 0.022188 -0.007142 -0.001905 -0.007360 -0.000042
# 3 -0.009586 -0.007142 0.017872 -0.002086 -0.000005 0.004232
# 4 0.000582 -0.001905 -0.002086 0.038589 0.002869 -0.007729
# 5 0.011221 -0.007360 -0.000005 0.002869 0.045320 -0.006346
# 6 -0.000212 -0.000042 0.004232 -0.007729 -0.006346 0.041291
#
#
# Mechanical properties :
#
#
# Convention : Reuss Voigt Hill
#
# Bulk Modulus (GPa) = 39.03196 49.28494 44.15845
# Shear Modulus (GPa) = 21.96488 26.69638 24.33063
#
# Velocity S-wave (km/s) = 3.19602 3.52348 3.36374
# Velocity P-wave (km/s) = 5.63656 6.28273 5.96839
#
# Compressibility (1/GPa) = 0.02562003
#
# Stress axis : x y z
#
# Youngs Moduli (GPa) = 50.76584 45.06891 55.95376
#
# Poissons Ratio (x) = 0.01537 0.53637
# Poissons Ratio (y) = 0.01731 0.39963
# Poissons Ratio (z) = 0.48664 0.32189
#
# Static dielectric constant tensor:
#      x y z
#    x 1.784680 0.025720 0.004270 
#    y 0.025720 1.785380 0.021180 
#    z 0.004270 0.021180 1.753260 
# 
# From -- ./inp_files/27298.got.cif
#   From: 2010.05.17/outbox.cif.g08.bks.cpg/sg2_14_cif.got.tgz:27298.got - 2010.06.03 11:33:40.
