data_PCOD9029866
_publ_section_title
;
Structure prediction by ZEFSAII (Michael W. Deem and Ramdas Pophale) SiO2 
 PCOD9029866
Probable space group: P -1
;
_chemical_formula_sum "Si O2"
_cell_formula_units_Z 16
_cell_length_a 8.014103
_cell_length_b 9.310254
_cell_length_c 12.081045
_cell_angle_alpha 96.904598
_cell_angle_beta 127.029325
_cell_angle_gamma 83.255593
_cell_volume 713.244317
_symmetry_space_group_name_H-M "P -1"
_symmetry_group_IT_number 2
_symmetry_cell_setting 'triclinic'
loop_
_space_group_symop_operation_xyz
x,y,z
-x,-y,-z
loop_
_atom_site_type_symbol
_atom_site_label
_atom_site_fract_x
_atom_site_fract_y
_atom_site_fract_z
Si Si1 0.135090 0.951508 0.872469
Si Si2 0.046505 0.191408 0.999972
Si Si3 0.700737 0.631744 0.183304
Si Si4 0.486894 0.834199 0.513016
Si Si5 0.982834 0.112012 0.609481
Si Si6 0.623914 0.322307 0.747739
Si Si7 0.345535 0.358053 0.247183
Si Si8 0.601028 0.323524 0.132867
O O1 0.295789 0.825012 0.886504
O O2 0.997872 0.889157 0.910374
O O3 0.022144 0.010516 0.723235
O O4 0.207741 0.092676 0.980584
O O5 0.140216 0.336670 0.091181
O O6 0.836394 0.228279 0.850747
O O7 0.859891 0.753845 0.297137
O O8 0.498974 0.651550 0.185214
O O9 0.755444 0.458014 0.197584
O O10 0.604523 0.646790 0.023323
O O11 0.517678 0.758622 0.400607
O O12 0.635518 0.751513 0.653356
O O13 0.252921 0.820304 0.466488
O O14 0.500000 0.000000 0.500000
O O15 0.000000 0.000000 0.500000
O O16 0.658601 0.473037 0.714597
O O17 0.533831 0.317557 0.233043
#
# Coordination Sequence:
#
# PCOD9029866 Si02
#       8
#     2   2   2   2   2   2   2   2
#     4  11  23  41  64  98 131 172 226 273 333 393
#     4  11  23  41  69 100 132 168 227 282 330 393
#     4  10  23  43  67  99 135 175 216 281 335 396
#     4  12  26  45  66  95 140 178 223 275 332 400
#     4  12  25  42  65  98 136 181 226 268 336 405
#     4  11  23  46  67  96 136 172 223 274 338 396
#     4  11  25  42  70  99 129 180 222 273 336 401
#     4  10  22  42  68  97 137 168 221 279 340 389
#
# _framework density 22.432707000000001
#
# number of rings (size 3 to 8) (size 9 to 14) (size 15 to 20)
#    0.000    1.000    2.500    3.750    1.750    4.000 
#    0.000    6.875    0.000    0.000    0.000    0.000 
#    0.000    0.000    0.000    0.000    0.000    0.000 
#
# Total GULP energy -89251.938673 kJ/mol
# GULP energy per Si atom -5578.246167 kJ/mol
# Density = 2.238165 g / cm^3
# Si number density = 22.432707 Si / 1000 Ang^3
#
#
#
# Elastic Constant Matrix: (Units=GPa)
#
#
# Indices 1 2 3 4 5 6 
#
# 1 33.5031 21.6441 15.8284 -1.9550 -10.4650 8.2688
# 2 21.6441 112.7298 39.9513 4.0199 -10.0921 12.7863
# 3 15.8284 39.9513 107.3646 -7.5947 -21.0212 14.9458
# 4 -1.9550 4.0199 -7.5947 41.3035 6.7268 -3.5862
# 5 -10.4650 -10.0921 -21.0212 6.7268 38.5245 1.9308
# 6 8.2688 12.7863 14.9458 -3.5862 1.9308 23.8927
#
#
#
# Elastic Compliance Matrix: (Units=1/GPa)
#
#
# Indices 1 2 3 4 5 6 
#
# 1 0.039222 -0.005231 -0.000374 -0.000269 0.009696 -0.011364
# 2 -0.005231 0.011422 -0.003197 -0.002236 0.000350 -0.002666
# 3 -0.000374 -0.003197 0.012738 0.001073 0.006148 -0.006463
# 4 -0.000269 -0.002236 0.001073 0.025823 -0.004827 0.004884
# 5 0.009696 0.000350 0.006148 -0.004827 0.033423 -0.010814
# 6 -0.011364 -0.002666 -0.006463 0.004884 -0.010814 0.052863
#
#
# Mechanical properties :
#
#
# Convention : Reuss Voigt Hill
#
# Bulk Modulus (GPa) = 21.84539 45.38278 33.61409
# Shear Modulus (GPa) = 23.99728 32.48908 28.24318
#
# Velocity S-wave (km/s) = 3.27424 3.80977 3.55211
# Velocity P-wave (km/s) = 4.90444 6.29500 5.64272
#
# Compressibility (1/GPa) = 0.04577625
#
# Stress axis : x y z
#
# Youngs Moduli (GPa) = 25.49576 87.55209 78.50262
#
# Poissons Ratio (x) = 0.45801 0.02939
# Poissons Ratio (y) = 0.13338 0.25100
# Poissons Ratio (z) = 0.00955 0.27993
#
# Static dielectric constant tensor:
#      x y z
#    x 1.855220 0.049100 0.035090 
#    y 0.049100 1.873630 0.046520 
#    z 0.035090 0.046520 1.815890 
# 
# From -- ./inp_files/382777.got.cif
#   From: 2010.05.17/outbox.cif.g08.bks.cpg/sg2_192_cif.got.tgz:382777.got - 2010.06.03 11:33:40.
