data_PCOD9029977
_publ_section_title
;
Structure prediction by ZEFSAII (Michael W. Deem and Ramdas Pophale) SiO2 
 PCOD9029977
Probable space group: P -1
;
_chemical_formula_sum "Si O2"
_cell_formula_units_Z 15
_cell_length_a 8.986456
_cell_length_b 7.664759
_cell_length_c 14.800876
_cell_angle_alpha 110.445116
_cell_angle_beta 135.300627
_cell_angle_gamma 94.405048
_cell_volume 584.482013
_symmetry_space_group_name_H-M "P -1"
_symmetry_group_IT_number 2
_symmetry_cell_setting 'triclinic'
loop_
_space_group_symop_operation_xyz
x,y,z
-x,-y,-z
loop_
_atom_site_type_symbol
_atom_site_label
_atom_site_fract_x
_atom_site_fract_y
_atom_site_fract_z
Si Si1 0.438143 0.898424 0.240950
Si Si2 0.730837 0.645792 0.563657
Si Si3 0.075629 0.204661 0.005713
Si Si4 0.956114 0.109609 0.731819
Si Si5 0.263078 0.764668 0.861544
Si Si6 0.556718 0.707882 0.118273
Si Si7 0.500000 0.000000 0.500000
Si Si8 0.395908 0.651518 0.709491
O O1 0.552972 0.757045 0.229717
O O2 0.484683 0.968231 0.376182
O O3 0.543907 0.117344 0.265566
O O4 0.148313 0.754627 0.076951
O O5 0.500000 0.500000 0.500000
O O6 0.747359 0.530017 0.459447
O O7 0.995262 0.734330 0.739022
O O8 0.719243 0.865578 0.580554
O O9 0.351959 0.352939 0.177003
O O10 0.071643 0.158427 0.888895
O O11 0.000000 0.000000 0.000000
O O12 0.166158 0.130691 0.761649
O O13 0.797647 0.218014 0.658716
O O14 0.291702 0.641188 0.763713
O O15 0.327749 0.717990 0.979397
O O16 0.500000 0.000000 0.000000
O O17 0.500000 0.500000 0.000000
#
# Coordination Sequence:
#
# PCOD9029977 Si02
#       8
#     2   2   2   2   2   2   1   2
#     4  10  22  42  69 102 144 195 244 298 370 445
#     4  12  25  38  70 113 143 181 246 308 367 423
#     4   9  18  37  69 100 136 182 239 299 361 428
#     4  11  23  47  66 100 147 196 244 296 367 443
#     4  12  23  46  73  99 147 193 241 305 357 436
#     4  12  27  44  72 106 144 201 255 292 363 448
#     4  10  24  44  68  94 150 196 232 302 380 432
#     4  11  21  39  71 106 138 180 242 308 367 426
#
# _framework density 25.66375
#
# number of rings (size 3 to 8) (size 9 to 14) (size 15 to 20)
#    0.000    1.067    4.000    2.800    3.733    3.733 
#    0.000    1.333    0.000    0.000    0.000    0.000 
#    0.000    0.000    0.000    0.000    0.000    0.000 
#
# Total GULP energy -83549.883385 kJ/mol
# GULP energy per Si atom -5569.992226 kJ/mol
# Density = 2.560534 g / cm^3
# Si number density = 25.663750 Si / 1000 Ang^3
#
#
#
# Elastic Constant Matrix: (Units=GPa)
#
#
# Indices 1 2 3 4 5 6 
#
# 1 189.2965 16.4642 47.2718 -2.9778 -19.2181 8.3059
# 2 16.4642 40.6177 15.8556 8.4417 -4.2414 6.7214
# 3 47.2718 15.8556 141.8080 -15.0278 16.2698 -8.3631
# 4 -2.9778 8.4417 -15.0278 40.0464 -9.8426 -5.8547
# 5 -19.2181 -4.2414 16.2698 -9.8426 62.0628 6.0664
# 6 8.3059 6.7214 -8.3631 -5.8547 6.0664 20.6490
#
#
#
# Elastic Compliance Matrix: (Units=1/GPa)
#
#
# Indices 1 2 3 4 5 6 
#
# 1 0.006535 -0.000361 -0.002817 -0.000411 0.003130 -0.004688
# 2 -0.000361 0.032592 -0.006094 -0.010776 0.003672 -0.017066
# 3 -0.002817 -0.006094 0.010308 0.005398 -0.004115 0.010031
# 4 -0.000411 -0.010776 0.005398 0.031678 0.001332 0.014450
# 5 0.003130 0.003672 -0.004115 0.001332 0.019551 -0.009487
# 6 -0.004688 -0.017066 0.010031 0.014450 -0.009487 0.066817
#
#
# Mechanical properties :
#
#
# Convention : Reuss Voigt Hill
#
# Bulk Modulus (GPa) = 32.37154 58.98950 45.68052
# Shear Modulus (GPa) = 25.46859 44.02699 34.74779
#
# Velocity S-wave (km/s) = 3.15365 4.14639 3.68362
# Velocity P-wave (km/s) = 5.08938 6.77930 5.99419
#
# Compressibility (1/GPa) = 0.03089133
#
# Stress axis : x y z
#
# Youngs Moduli (GPa) = 153.02932 30.68240 97.01132
#
# Poissons Ratio (x) = 0.01107 0.27330
# Poissons Ratio (y) = 0.05523 0.59115
# Poissons Ratio (z) = 0.43112 0.18697
#
# Static dielectric constant tensor:
#      x y z
#    x 3.421960 -1.558260 0.700230 
#    y -1.558260 3.825140 -0.522300 
#    z 0.700230 -0.522300 2.100880 
# 
# From -- ./inp_files/495518.got.cif
#   From: 2010.05.17/outbox.cif.g08.bks.cpg/sg2_248_cif.got.tgz:495518.got - 2010.06.03 11:33:40.
