data_PCOD9029656
_publ_section_title
;
Structure prediction by ZEFSAII (Michael W. Deem and Ramdas Pophale) SiO2 
 PCOD9029656
Probable space group: P -1
;
_chemical_formula_sum "Si O2"
_cell_formula_units_Z 13
_cell_length_a 6.720089
_cell_length_b 5.598941
_cell_length_c 14.818622
_cell_angle_alpha 93.670901
_cell_angle_beta 97.074799
_cell_angle_gamma 72.729726
_cell_volume 528.143253
_symmetry_space_group_name_H-M "P -1"
_symmetry_group_IT_number 2
_symmetry_cell_setting 'triclinic'
loop_
_space_group_symop_operation_xyz
x,y,z
-x,-y,-z
loop_
_atom_site_type_symbol
_atom_site_label
_atom_site_fract_x
_atom_site_fract_y
_atom_site_fract_z
Si Si1 0.272400 0.278256 0.837078
Si Si2 0.977391 0.561709 0.683201
Si Si3 0.402015 0.076659 0.257989
Si Si4 0.285140 0.735939 0.595568
Si Si5 0.061203 0.737238 0.049446
Si Si6 0.665273 0.264545 0.594308
Si Si7 0.500000 0.500000 0.000000
O O1 0.331317 0.473060 0.911687
O O2 0.185626 0.394710 0.739436
O O3 0.079935 0.198889 0.867081
O O4 0.478785 0.044729 0.827996
O O5 0.817131 0.707682 0.755816
O O6 0.839801 0.411629 0.620584
O O7 0.064363 0.733961 0.624764
O O8 0.576410 0.169818 0.322483
O O9 0.340928 0.887590 0.319178
O O10 0.429682 0.452636 0.578145
O O11 0.281600 0.871447 0.502614
O O12 0.309438 0.633882 0.062561
O O13 0.000000 0.500000 0.000000
O O14 0.000000 0.000000 0.000000
#
# Coordination Sequence:
#
# PCOD9029656 Si02
#       7
#     2   2   2   2   2   2   1
#     4  11  26  46  71 104 140 175 240 294 362 434
#     4  11  25  42  68 104 139 189 234 292 348 420
#     4  11  25  41  70 103 140 188 234 291 353 421
#     4  10  22  42  68 101 143 187 239 287 343 417
#     4  10  25  48  75 107 138 184 236 300 372 445
#     4  10  22  43  66 101 144 189 234 285 348 421
#     4  10  26  48  76 100 140 184 234 300 370 440
#
# _framework density 24.614533000000002
#
# number of rings (size 3 to 8) (size 9 to 14) (size 15 to 20)
#    0.000    1.538    1.538    0.923    4.308    9.231 
#    0.000    0.000    0.000    0.000    0.000    0.000 
#    0.000    0.000    0.000    0.000    0.000    0.000 
#
# Total GULP energy -72369.093233 kJ/mol
# GULP energy per Si atom -5566.853326 kJ/mol
# Density = 2.455851 g / cm^3
# Si number density = 24.614533 Si / 1000 Ang^3
#
#
#
# Elastic Constant Matrix: (Units=GPa)
#
#
# Indices 1 2 3 4 5 6 
#
# 1 194.3115 32.7481 39.5399 18.6724 -16.5006 -6.0685
# 2 32.7481 54.2631 4.7383 7.3081 -7.7300 -0.1978
# 3 39.5399 4.7383 66.3897 21.1976 -13.1047 4.5921
# 4 18.6724 7.3081 21.1976 47.7316 6.7616 -8.1837
# 5 -16.5006 -7.7300 -13.1047 6.7616 55.9016 3.7776
# 6 -6.0685 -0.1978 4.5921 -8.1837 3.7776 32.2506
#
#
#
# Elastic Compliance Matrix: (Units=1/GPa)
#
#
# Indices 1 2 3 4 5 6 
#
# 1 0.006597 -0.003554 -0.003608 -0.000233 0.000529 0.001612
# 2 -0.003554 0.021302 0.002599 -0.003855 0.003125 -0.002252
# 3 -0.003608 0.002599 0.022331 -0.011074 0.006369 -0.007399
# 4 -0.000233 -0.003855 -0.011074 0.029280 -0.007402 0.009806
# 5 0.000529 0.003125 0.006369 -0.007402 0.021213 -0.005151
# 6 0.001612 -0.002252 -0.007399 0.009806 -0.005151 0.035442
#
#
# Mechanical properties :
#
#
# Convention : Reuss Voigt Hill
#
# Bulk Modulus (GPa) = 24.32769 52.11298 38.22034
# Shear Modulus (GPa) = 31.44806 43.03928 37.24367
#
# Velocity S-wave (km/s) = 3.57826 4.18608 3.89405
# Velocity P-wave (km/s) = 5.19393 6.67697 5.98159
#
# Compressibility (1/GPa) = 0.04110542
#
# Stress axis : x y z
#
# Youngs Moduli (GPa) = 151.57960 46.94289 44.78120
#
# Poissons Ratio (x) = 0.16682 0.16158
# Poissons Ratio (y) = 0.53868 -0.11640
# Poissons Ratio (z) = 0.54693 -0.12202
#
# Static dielectric constant tensor:
#      x y z
#    x 1.835600 -0.053210 -0.032840 
#    y -0.053210 2.062570 0.001140 
#    z -0.032840 0.001140 1.972680 
# 
# From -- ./inp_files/6848.got.cif
#   From: 2010.05.17/outbox.cif.g08.bks.cpg/sg2_4_cif.got.tgz:6848.got - 2010.06.03 11:33:40.
