data_PCOD9029917
_publ_section_title
;
Structure prediction by ZEFSAII (Michael W. Deem and Ramdas Pophale) SiO2 
 PCOD9029917
Probable space group: P -1
;
_chemical_formula_sum "Si O2"
_cell_formula_units_Z 16
_cell_length_a 22.985779
_cell_length_b 19.461486
_cell_length_c 13.383696
_cell_angle_alpha 154.076875
_cell_angle_beta 154.219580
_cell_angle_gamma 15.453655
_cell_volume 667.761470
_symmetry_space_group_name_H-M "P -1"
_symmetry_group_IT_number 2
_symmetry_cell_setting 'triclinic'
loop_
_space_group_symop_operation_xyz
x,y,z
-x,-y,-z
loop_
_atom_site_type_symbol
_atom_site_label
_atom_site_fract_x
_atom_site_fract_y
_atom_site_fract_z
Si Si1 0.211023 0.712096 0.591294
Si Si2 0.880053 0.863380 0.564103
Si Si3 0.255861 0.746625 0.995625
Si Si4 0.758066 0.038564 0.921322
Si Si5 0.751861 0.773349 0.428774
Si Si6 0.925506 0.461870 0.742996
Si Si7 0.702099 0.951875 0.920051
Si Si8 0.264527 0.765699 0.532063
O O1 0.218783 0.543752 0.441704
O O2 0.244608 0.667051 0.466412
O O3 0.357394 0.712252 0.866640
O O4 0.951066 0.029660 0.607444
O O5 0.799184 0.799763 0.427250
O O6 0.135497 0.693014 0.751578
O O7 0.878398 0.805893 0.372284
O O8 0.747023 0.142180 0.765365
O O9 0.500000 0.500000 0.000000
O O10 0.119718 0.977016 0.998904
O O11 0.835277 0.860792 0.903679
O O12 0.643033 0.016111 0.645645
O O13 0.570481 0.806835 0.198548
O O14 0.000000 0.500000 0.500000
O O15 0.788574 0.707199 0.779647
O O16 0.000000 0.500000 0.000000
O O17 0.740620 0.056515 0.193930
O O18 0.500000 0.500000 0.500000
#
# Coordination Sequence:
#
# PCOD9029917 Si02
#       8
#     2   2   2   2   2   2   2   2
#     4  10  22  44  69  98 136 183 234 298 358 407
#     4  10  24  42  65 101 134 187 232 289 356 423
#     4  10  22  42  70  99 138 176 239 299 354 425
#     4  10  22  42  68  99 130 184 229 289 362 422
#     4  11  25  41  65 102 142 181 230 298 362 431
#     4  12  24  46  68 100 148 190 237 301 356 425
#     4  11  25  43  68 104 141 190 235 289 367 426
#     4  10  23  45  70  98 133 186 245 293 344 429
#
# _framework density 23.960652
#
# number of rings (size 3 to 8) (size 9 to 14) (size 15 to 20)
#    0.000    1.500    2.500    1.125    7.000    1.000 
#    6.750    1.250    0.000    0.000    0.000    0.000 
#    0.000    0.000    0.000    0.000    0.000    0.000 
#
# Total GULP energy -89206.864623 kJ/mol
# GULP energy per Si atom -5575.429039 kJ/mol
# Density = 2.390612 g / cm^3
# Si number density = 23.960652 Si / 1000 Ang^3
#
#
#
# Elastic Constant Matrix: (Units=GPa)
#
#
# Indices 1 2 3 4 5 6 
#
# 1 130.5480 38.3153 48.2411 19.1642 6.4609 11.8360
# 2 38.3153 82.7306 15.4808 6.5124 -6.5083 -15.4195
# 3 48.2411 15.4808 131.4404 3.8538 -10.2897 -10.9558
# 4 19.1642 6.5124 3.8538 27.5536 -4.1586 4.1659
# 5 6.4609 -6.5083 -10.2897 -4.1586 49.8605 8.3266
# 6 11.8360 -15.4195 -10.9558 4.1659 8.3266 42.8951
#
#
#
# Elastic Compliance Matrix: (Units=1/GPa)
#
#
# Indices 1 2 3 4 5 6 
#
# 1 0.012554 -0.005733 -0.004430 -0.006368 -0.002906 -0.005474
# 2 -0.005733 0.016135 0.000979 -0.000813 0.001752 0.007371
# 3 -0.004430 0.000979 0.009540 0.001326 0.002204 0.003454
# 4 -0.006368 -0.000813 0.001326 0.041981 0.005037 -0.003251
# 5 -0.002906 0.001752 0.002204 0.005037 0.021998 -0.002765
# 6 -0.005474 0.007371 0.003454 -0.003251 -0.002765 0.029207
#
#
# Mechanical properties :
#
#
# Convention : Reuss Voigt Hill
#
# Bulk Modulus (GPa) = 50.34568 60.97704 55.66136
# Shear Modulus (GPa) = 31.96862 40.24061 36.10462
#
# Velocity S-wave (km/s) = 3.65665 4.10255 3.88600
# Velocity P-wave (km/s) = 6.23583 6.92425 6.58904
#
# Compressibility (1/GPa) = 0.01986268
#
# Stress axis : x y z
#
# Youngs Moduli (GPa) = 79.65300 61.97705 104.82164
#
# Poissons Ratio (x) = 0.35532 0.46431
# Poissons Ratio (y) = 0.45665 -0.10264
# Poissons Ratio (z) = 0.35283 -0.06069
#
# Static dielectric constant tensor:
#      x y z
#    x 1.950100 0.050930 -0.004960 
#    y 0.050930 2.069180 0.002240 
#    z -0.004960 0.002240 1.905750 
# 
# From -- ./inp_files/472527.got.cif
#   From: 2010.05.17/outbox.cif.g08.bks.cpg/sg2_237_cif.got.tgz:472527.got - 2010.06.03 11:33:40.
