data_PCOD9029487
_publ_section_title
;
Structure prediction by ZEFSAII (Michael W. Deem and Ramdas Pophale) SiO2 
 PCOD9029487
Probable space group: P -1
;
_chemical_formula_sum "Si O2"
_cell_formula_units_Z 13
_cell_length_a 12.295150
_cell_length_b 9.684480
_cell_length_c 8.824133
_cell_angle_alpha 44.825645
_cell_angle_beta 52.296611
_cell_angle_gamma 57.945193
_cell_volume 577.106758
_symmetry_space_group_name_H-M "P -1"
_symmetry_group_IT_number 2
_symmetry_cell_setting 'triclinic'
loop_
_space_group_symop_operation_xyz
x,y,z
-x,-y,-z
loop_
_atom_site_type_symbol
_atom_site_label
_atom_site_fract_x
_atom_site_fract_y
_atom_site_fract_z
Si Si1 0.500000 0.500000 0.000000
Si Si2 0.872179 0.839734 0.351988
Si Si3 0.918201 0.128872 0.603494
Si Si4 0.266667 0.395318 0.084846
Si Si5 0.390869 0.952568 0.753870
Si Si6 0.283863 0.141233 0.983405
Si Si7 0.961636 0.577652 0.192126
O O1 0.624359 0.481768 0.035718
O O2 0.438832 0.726629 0.934739
O O3 0.785827 0.733117 0.632484
O O4 0.939932 0.676820 0.299084
O O5 0.991729 0.921076 0.280269
O O6 0.761820 0.997460 0.231690
O O7 0.915738 0.361981 0.401879
O O8 0.000000 0.000000 0.500000
O O9 0.767173 0.067881 0.782859
O O10 0.124334 0.537934 0.042709
O O11 0.325571 0.245720 0.016377
O O12 0.500000 0.000000 0.500000
O O13 0.386506 0.102064 0.784096
O O14 0.141544 0.281326 0.939171
#
# Coordination Sequence:
#
# PCOD9029487 Si02
#       7
#     1   2   2   2   2   2   2
#     4  12  28  42  72  88 128 184 222 260 332 382
#     4  10  22  42  67  95 137 168 213 274 327 389
#     4  11  21  36  65 104 132 165 203 271 339 380
#     4  11  22  44  64 100 134 170 217 270 318 399
#     4  11  26  47  66  91 133 176 229 270 318 388
#     4  11  25  41  71 100 130 172 219 273 332 386
#     4  10  23  40  68  99 141 162 214 271 331 387
#
# _framework density 22.526161999999999
#
# number of rings (size 3 to 8) (size 9 to 14) (size 15 to 20)
#    0.000    1.231    4.615    2.308    6.462    1.846 
#    0.000    0.769    0.000    0.000    0.000    0.000 
#    0.000    0.000    0.000    0.000    0.000    0.000 
#
# Total GULP energy -72458.310613 kJ/mol
# GULP energy per Si atom -5573.716201 kJ/mol
# Density = 2.247489 g / cm^3
# Si number density = 22.526162 Si / 1000 Ang^3
#
#
#
# Elastic Constant Matrix: (Units=GPa)
#
#
# Indices 1 2 3 4 5 6 
#
# 1 78.3822 50.7264 10.5486 0.0201 -4.0132 31.5270
# 2 50.7264 167.1878 35.1564 16.6499 4.2406 22.6823
# 3 10.5486 35.1564 36.6240 22.2244 -0.2139 15.8748
# 4 0.0201 16.6499 22.2244 42.0120 2.0887 20.7659
# 5 -4.0132 4.2406 -0.2139 2.0887 22.5097 -5.5058
# 6 31.5270 22.6823 15.8748 20.7659 -5.5058 55.0832
#
#
#
# Elastic Compliance Matrix: (Units=1/GPa)
#
#
# Indices 1 2 3 4 5 6 
#
# 1 0.021920 -0.005628 -0.000645 0.009147 0.000834 -0.013408
# 2 -0.005628 0.009200 -0.007784 -0.000139 -0.002434 0.001485
# 3 -0.000645 -0.007784 0.049292 -0.022213 0.003412 -0.001916
# 4 0.009147 -0.000139 -0.022213 0.043809 -0.006519 -0.015944
# 5 0.000834 -0.002434 0.003412 -0.006519 0.047316 0.006729
# 6 -0.013408 0.001485 -0.001916 -0.015944 0.006729 0.032452
#
#
# Mechanical properties :
#
#
# Convention : Reuss Voigt Hill
#
# Bulk Modulus (GPa) = 19.12121 52.78410 35.95266
# Shear Modulus (GPa) = 20.03712 36.30515 28.17113
#
# Velocity S-wave (km/s) = 2.98569 4.01894 3.54021
# Velocity P-wave (km/s) = 4.51583 6.70962 5.71890
#
# Compressibility (1/GPa) = 0.05229795
#
# Stress axis : x y z
#
# Youngs Moduli (GPa) = 45.61941 108.69747 20.28715
#
# Poissons Ratio (x) = 0.61178 0.01309
# Poissons Ratio (y) = 0.25676 0.15791
# Poissons Ratio (z) = 0.02943 0.84609
#
# Static dielectric constant tensor:
#      x y z
#    x 1.837460 -0.025310 0.012660 
#    y -0.025310 1.805450 0.015020 
#    z 0.012660 0.015020 1.914360 
# 
# From -- ./inp_files/173940.got.cif
#   From: 2010.05.17/outbox.cif.g08.bks.cpg/sg2_87_cif.got.tgz:173940.got - 2010.06.03 11:33:40.
