data_PCOD9029062
_publ_section_title
;
Structure prediction by ZEFSAII (Michael W. Deem and Ramdas Pophale) SiO2 
 PCOD9029062
Probable space group: P -1
;
_chemical_formula_sum "Si O2"
_cell_formula_units_Z 14
_cell_length_a 13.409515
_cell_length_b 6.785298
_cell_length_c 12.608169
_cell_angle_alpha 141.625218
_cell_angle_beta 58.510204
_cell_angle_gamma 99.287459
_cell_volume 536.463213
_symmetry_space_group_name_H-M "P -1"
_symmetry_group_IT_number 2
_symmetry_cell_setting 'triclinic'
loop_
_space_group_symop_operation_xyz
x,y,z
-x,-y,-z
loop_
_atom_site_type_symbol
_atom_site_label
_atom_site_fract_x
_atom_site_fract_y
_atom_site_fract_z
Si Si1 0.300246 0.422324 0.508350
Si Si2 0.708389 0.339394 0.981828
Si Si3 0.150659 0.939285 0.002569
Si Si4 0.614910 0.085483 0.428106
Si Si5 0.823999 0.377729 0.736597
Si Si6 0.076599 0.726411 0.585671
Si Si7 0.595496 0.337905 0.765158
O O1 0.401482 0.580899 0.492174
O O2 0.206977 0.492589 0.486277
O O3 0.376487 0.011939 0.328978
O O4 0.208830 0.657294 0.756484
O O5 0.559651 0.423776 0.070703
O O6 0.704588 0.725953 0.163937
O O7 0.745390 0.160048 0.000031
O O8 0.816223 0.169469 0.757097
O O9 0.126411 0.332292 0.145978
O O10 0.021860 0.972340 0.150235
O O11 0.665918 0.159252 0.540638
O O12 0.500000 0.000000 0.500000
O O13 0.894444 0.164671 0.500834
O O14 0.668138 0.550122 0.862592
O O15 0.000000 0.500000 0.500000
#
# Coordination Sequence:
#
# PCOD9029062 Si02
#       7
#     2   2   2   2   2   2   2
#     4  12  23  47  73  99 142 181 231 292 340 410
#     4  11  24  43  68 105 140 176 234 276 357 417
#     4  11  25  45  71  99 138 185 233 290 336 411
#     4  10  22  42  66 105 140 176 227 275 346 420
#     4  11  24  45  66 101 144 181 229 287 343 411
#     4  10  25  47  68 101 137 184 238 287 345 398
#     4  11  25  42  70 107 137 183 228 282 354 415
#
# _framework density 26.096851000000001
#
# number of rings (size 3 to 8) (size 9 to 14) (size 15 to 20)
#    0.000    1.143    4.286    0.857    4.000    5.714 
#    2.571    1.429    0.000    0.000    0.000    0.000 
#    0.000    0.000    0.000    0.000    0.000    0.000 
#
# Total GULP energy -78175.242021 kJ/mol
# GULP energy per Si atom -5583.945859 kJ/mol
# Density = 2.603745 g / cm^3
# Si number density = 26.096851 Si / 1000 Ang^3
#
#
#
# Elastic Constant Matrix: (Units=GPa)
#
#
# Indices 1 2 3 4 5 6 
#
# 1 92.4454 23.9424 17.6287 -4.2714 -11.6933 -20.0418
# 2 23.9424 119.9827 36.5322 -16.9018 4.7903 6.5756
# 3 17.6287 36.5322 58.2158 -26.4166 6.1911 -5.3963
# 4 -4.2714 -16.9018 -26.4166 46.3165 -11.7158 -1.7691
# 5 -11.6933 4.7903 6.1911 -11.7158 41.7445 -0.6372
# 6 -20.0418 6.5756 -5.3963 -1.7691 -0.6372 34.9486
#
#
#
# Elastic Compliance Matrix: (Units=1/GPa)
#
#
# Indices 1 2 3 4 5 6 
#
# 1 0.014484 -0.002856 -0.001976 0.000769 0.005026 0.008669
# 2 -0.002856 0.011188 -0.006699 -0.000517 -0.001309 -0.004827
# 3 -0.001976 -0.006699 0.028830 0.014006 -0.000049 0.005287
# 4 0.000769 -0.000517 0.014006 0.031422 0.007084 0.004421
# 5 0.005026 -0.001309 -0.000049 0.007084 0.027570 0.003982
# 6 0.008669 -0.004827 0.005287 0.004421 0.003982 0.035606
#
#
# Mechanical properties :
#
#
# Convention : Reuss Voigt Hill
#
# Bulk Modulus (GPa) = 31.80494 47.42782 39.61638
# Shear Modulus (GPa) = 27.37590 37.43795 32.40693
#
# Velocity S-wave (km/s) = 3.24236 3.79169 3.52773
# Velocity P-wave (km/s) = 5.12161 6.11412 5.63974
#
# Compressibility (1/GPa) = 0.03144166
#
# Stress axis : x y z
#
# Youngs Moduli (GPa) = 69.03963 89.38033 34.68570
#
# Poissons Ratio (x) = 0.25529 0.06853
# Poissons Ratio (y) = 0.19719 0.23235
# Poissons Ratio (z) = 0.13640 0.59874
#
# Static dielectric constant tensor:
#      x y z
#    x 2.132430 -0.030260 -0.034210 
#    y -0.030260 2.050040 -0.061930 
#    z -0.034210 -0.061930 2.109980 
# 
# From -- ./inp_files/442314.got.cif
#   From: 2010.05.17/outbox.cif.g08.bks.cpg/sg2_222_cif.got.tgz:442314.got - 2010.06.03 11:33:40.
