data_PCOD9029373
_publ_section_title
;
Structure prediction by ZEFSAII (Michael W. Deem and Ramdas Pophale) SiO2 
 PCOD9029373
Probable space group: P -1
;
_chemical_formula_sum "Si O2"
_cell_formula_units_Z 12
_cell_length_a 11.215084
_cell_length_b 10.051377
_cell_length_c 10.758695
_cell_angle_alpha 103.600919
_cell_angle_beta 26.050235
_cell_angle_gamma 111.329870
_cell_volume 483.522095
_symmetry_space_group_name_H-M "P -1"
_symmetry_group_IT_number 2
_symmetry_cell_setting 'triclinic'
loop_
_space_group_symop_operation_xyz
x,y,z
-x,-y,-z
loop_
_atom_site_type_symbol
_atom_site_label
_atom_site_fract_x
_atom_site_fract_y
_atom_site_fract_z
Si Si1 0.840339 0.027800 0.035370
Si Si2 0.178351 0.860637 0.562952
Si Si3 0.011751 0.551132 0.708500
Si Si4 0.800302 0.833054 0.623388
Si Si5 0.174786 0.730577 0.058785
Si Si6 0.614778 0.336883 0.827169
O O1 0.872541 0.191661 0.003862
O O2 0.996990 0.966456 0.767177
O O3 0.496926 0.939397 0.341060
O O4 0.000000 0.000000 0.000000
O O5 0.006816 0.712219 0.767071
O O6 0.262649 0.795125 0.342370
O O7 0.322826 0.588688 0.352009
O O8 0.924180 0.444643 0.883872
O O9 0.790856 0.460730 0.787489
O O10 0.969571 0.757892 0.362567
O O11 0.502278 0.812261 0.821292
O O12 0.684613 0.743392 0.840055
O O13 0.000000 0.000000 0.500000
#
# Coordination Sequence:
#
# PCOD9029373 Si02
#       6
#     2   2   2   2   2   2
#     4  12  26  45  64  89 125 171 226 280 319 353
#     4  10  22  42  67  91 124 172 211 260 324 383
#     4   8  19  41  64  97 131 167 205 249 322 398
#     4  11  22  37  60  99 137 168 205 251 319 393
#     4  11  24  40  62  93 129 169 215 269 311 377
#     4   8  18  39  64  93 136 164 200 242 323 394
#
# _framework density 24.817893999999999
#
# number of rings (size 3 to 8) (size 9 to 14) (size 15 to 20)
#    1.000    1.000    0.000    3.000    0.000   10.000 
#    0.000    1.667    0.000    0.000    0.000    0.000 
#    0.000    0.000    0.000    0.000    0.000    0.000 
#
# Total GULP energy -67016.758978 kJ/mol
# GULP energy per Si atom -5584.729915 kJ/mol
# Density = 2.476141 g / cm^3
# Si number density = 24.817894 Si / 1000 Ang^3
#
#
#
# Elastic Constant Matrix: (Units=GPa)
#
#
# Indices 1 2 3 4 5 6 
#
# 1 100.3509 11.7406 8.4348 -20.4283 5.7370 -31.0422
# 2 11.7406 94.8326 16.8717 -32.5359 6.4212 -38.1289
# 3 8.4348 16.8717 138.0330 -19.2443 -25.3580 -0.8625
# 4 -20.4283 -32.5359 -19.2443 53.9381 -10.1085 15.3972
# 5 5.7370 6.4212 -25.3580 -10.1085 28.5978 0.6510
# 6 -31.0422 -38.1289 -0.8625 15.3972 0.6510 34.9293
#
#
#
# Elastic Compliance Matrix: (Units=1/GPa)
#
#
# Indices 1 2 3 4 5 6 
#
# 1 0.018405 0.010730 -0.003479 0.002885 -0.008778 0.026876
# 2 0.010730 0.028228 -0.005131 0.006327 -0.011661 0.037651
# 3 -0.003479 -0.005131 0.011366 0.005448 0.014106 -0.011076
# 4 0.002885 0.006327 0.005448 0.028797 0.013086 -0.003332
# 5 -0.008778 -0.011661 0.014106 0.013086 0.057096 -0.027015
# 6 0.026876 0.037651 -0.011076 -0.003332 -0.027015 0.095314
#
#
# Mechanical properties :
#
#
# Convention : Reuss Voigt Hill
#
# Bulk Modulus (GPa) = 16.06660 45.25677 30.66169
# Shear Modulus (GPa) = 19.55333 43.23766 31.39550
#
# Velocity S-wave (km/s) = 2.80995 4.17849 3.56059
# Velocity P-wave (km/s) = 4.12500 6.44631 5.41158
#
# Compressibility (1/GPa) = 0.06224090
#
# Stress axis : x y z
#
# Youngs Moduli (GPa) = 54.33344 35.42575 87.97986
#
# Poissons Ratio (x) = -0.38013 0.30606
# Poissons Ratio (y) = -0.58302 0.45141
# Poissons Ratio (z) = 0.18901 0.18176
#
# Static dielectric constant tensor:
#      x y z
#    x 2.160100 -0.076710 -0.007070 
#    y -0.076710 1.995110 -0.015710 
#    z -0.007070 -0.015710 1.987240 
# 
# From -- ./inp_files/421528.got.cif
#   From: 2010.05.17/outbox.cif.g08.bks.cpg/sg2_211_cif.got.tgz:421528.got - 2010.06.03 11:33:40.
