data_PCOD9029412
_publ_section_title
;
Structure prediction by ZEFSAII (Michael W. Deem and Ramdas Pophale) SiO2 
 PCOD9029412
Probable space group: P -1
;
_chemical_formula_sum "Si O2"
_cell_formula_units_Z 12
_cell_length_a 7.064227
_cell_length_b 14.715167
_cell_length_c 8.427883
_cell_angle_alpha 95.010796
_cell_angle_beta 141.360495
_cell_angle_gamma 85.341436
_cell_volume 544.836550
_symmetry_space_group_name_H-M "P -1"
_symmetry_group_IT_number 2
_symmetry_cell_setting 'triclinic'
loop_
_space_group_symop_operation_xyz
x,y,z
-x,-y,-z
loop_
_atom_site_type_symbol
_atom_site_label
_atom_site_fract_x
_atom_site_fract_y
_atom_site_fract_z
Si Si1 0.635807 0.265785 0.789826
Si Si2 0.339126 0.888080 0.724589
Si Si3 0.646099 0.713257 0.737481
Si Si4 0.316566 0.416048 0.796930
Si Si5 0.682588 0.456191 0.468284
Si Si6 0.380283 0.093764 0.738237
O O1 0.481565 0.294144 0.526760
O O2 0.496090 0.323664 0.855761
O O3 0.560472 0.160252 0.752064
O O4 0.992647 0.282472 0.023235
O O5 0.497965 0.804233 0.727420
O O6 0.975743 0.877930 0.492147
O O7 0.397920 0.986018 0.696452
O O8 0.478079 0.893655 0.992565
O O9 0.529168 0.624853 0.742083
O O10 0.245170 0.458644 0.582958
O O11 0.009346 0.406841 0.693092
O O12 0.500000 0.500000 0.000000
O O13 0.500000 0.500000 0.500000
#
# Coordination Sequence:
#
# PCOD9029412 Si02
#       6
#     2   2   2   2   2   2
#     4  12  26  42  64  99 132 170 219 272 325 390
#     4  10  22  42  67  95 125 177 214 270 331 380
#     4  12  26  41  67  95 134 172 216 273 326 389
#     4  11  26  41  69  94 129 179 217 274 329 381
#     4  11  24  45  65  95 133 170 223 271 324 393
#     4  10  22  42  67  93 132 166 223 269 322 397
#
# _framework density 22.024951999999999
#
# number of rings (size 3 to 8) (size 9 to 14) (size 15 to 20)
#    0.000    1.000    1.667    4.000    7.000    2.667 
#    0.000    0.000    0.000    0.000    0.000    0.000 
#    0.000    0.000    0.000    0.000    0.000    0.000 
#
# Total GULP energy -67068.142331 kJ/mol
# GULP energy per Si atom -5589.011861 kJ/mol
# Density = 2.197482 g / cm^3
# Si number density = 22.024952 Si / 1000 Ang^3
#
#
#
# Elastic Constant Matrix: (Units=GPa)
#
#
# Indices 1 2 3 4 5 6 
#
# 1 77.4634 44.2896 37.7028 8.7871 31.0042 -22.8037
# 2 44.2896 129.4860 31.3596 21.3770 30.7572 -32.2916
# 3 37.7028 31.3596 156.5298 13.4255 33.2460 -13.4873
# 4 8.7871 21.3770 13.4255 42.8886 12.0299 -20.1205
# 5 31.0042 30.7572 33.2460 12.0299 46.0471 -4.6175
# 6 -22.8037 -32.2916 -13.4873 -20.1205 -4.6175 90.2944
#
#
#
# Elastic Compliance Matrix: (Units=1/GPa)
#
#
# Indices 1 2 3 4 5 6 
#
# 1 0.021050 -0.003731 -0.001989 0.002931 -0.010630 0.003794
# 2 -0.003731 0.010888 -0.000063 -0.002546 -0.003832 0.002179
# 3 -0.001989 -0.000063 0.007827 -0.000749 -0.004047 0.000270
# 4 0.002931 -0.002546 -0.000749 0.028812 -0.006678 0.005797
# 5 -0.010630 -0.003832 -0.004047 -0.006678 0.035667 -0.004324
# 6 0.003794 0.002179 0.000270 0.005797 -0.004324 0.013923
#
#
# Mechanical properties :
#
#
# Convention : Reuss Voigt Hill
#
# Bulk Modulus (GPa) = 35.46199 65.57591 50.51895
# Shear Modulus (GPa) = 35.93689 52.52115 44.22902
#
# Velocity S-wave (km/s) = 4.04374 4.88856 4.48608
# Velocity P-wave (km/s) = 6.15940 7.85507 7.05834
#
# Compressibility (1/GPa) = 0.02819920
#
# Stress axis : x y z
#
# Youngs Moduli (GPa) = 47.50645 91.84436 127.75511
#
# Poissons Ratio (x) = 0.34265 0.25417
# Poissons Ratio (y) = 0.17724 0.00802
# Poissons Ratio (z) = 0.09451 0.00576
#
# Static dielectric constant tensor:
#      x y z
#    x 1.836900 0.044650 -0.067830 
#    y 0.044650 1.840980 -0.054460 
#    z -0.067830 -0.054460 1.846930 
# 
# From -- ./inp_files/3285.got.cif
#   From: 2010.05.17/outbox.cif.g08.bks.cpg/sg2_2_cif.got.tgz:3285.got - 2010.06.03 11:33:40.
