data_PCOD9029072
_publ_section_title
;
Structure prediction by ZEFSAII (Michael W. Deem and Ramdas Pophale) SiO2 
 PCOD9029072
Probable space group: P -1
;
_chemical_formula_sum "Si O2"
_cell_formula_units_Z 13
_cell_length_a 10.466990
_cell_length_b 11.555990
_cell_length_c 4.685722
_cell_angle_alpha 98.982192
_cell_angle_beta 91.217282
_cell_angle_gamma 124.426099
_cell_volume 457.578977
_symmetry_space_group_name_H-M "P -1"
_symmetry_group_IT_number 2
_symmetry_cell_setting 'triclinic'
loop_
_space_group_symop_operation_xyz
x,y,z
-x,-y,-z
loop_
_atom_site_type_symbol
_atom_site_label
_atom_site_fract_x
_atom_site_fract_y
_atom_site_fract_z
Si Si1 0.647486 0.766185 0.273513
Si Si2 0.965220 0.875056 0.161142
Si Si3 0.448163 0.855054 0.092676
Si Si4 0.639358 0.412104 0.400535
Si Si5 0.500000 0.500000 0.000000
Si Si6 0.946517 0.623326 0.825276
Si Si7 0.856477 0.237815 0.626238
O O1 0.828863 0.844720 0.359776
O O2 0.593544 0.870010 0.266813
O O3 0.494003 0.627745 0.377630
O O4 0.609958 0.668694 0.953764
O O5 0.102428 0.875322 0.330086
O O6 0.907023 0.739092 0.903491
O O7 0.000000 0.000000 0.000000
O O8 0.396204 0.727491 0.817266
O O9 0.310745 0.813527 0.287980
O O10 0.500000 0.000000 0.000000
O O11 0.647728 0.519567 0.209449
O O12 0.798998 0.487339 0.617904
O O13 0.102394 0.712148 0.674515
O O14 0.007439 0.620641 0.138401
#
# Coordination Sequence:
#
# PCOD9029072 Si02
#       7
#     2   2   2   2   1   2   2
#     4  11  23  41  74 106 144 189 240 305 365 432
#     4  10  23  43  71 105 143 196 243 300 363 438
#     4  11  27  46  70 108 146 197 248 303 366 441
#     4  11  25  44  74 107 147 192 243 312 367 443
#     4  10  22  42  66 108 144 178 240 302 374 426
#     4  10  25  46  74 102 145 190 247 299 370 438
#     4  10  25  47  72 102 150 192 247 301 365 444
#
# _framework density 28.410397
#
# number of rings (size 3 to 8) (size 9 to 14) (size 15 to 20)
#    0.923    0.615    0.000    3.231    6.462    7.385 
#    0.000    0.000    0.000    0.000    0.000    0.000 
#    0.000    0.000    0.000    0.000    0.000    0.000 
#
# Total GULP energy -72583.880781 kJ/mol
# GULP energy per Si atom -5583.375445 kJ/mol
# Density = 2.834573 g / cm^3
# Si number density = 28.410397 Si / 1000 Ang^3
#
#
#
# Elastic Constant Matrix: (Units=GPa)
#
#
# Indices 1 2 3 4 5 6 
#
# 1 231.8075 55.9908 28.1571 -2.5035 -1.0895 8.5557
# 2 55.9908 118.2198 7.9838 -2.4822 -10.9146 -18.8689
# 3 28.1571 7.9838 83.8646 0.7470 11.5379 18.4949
# 4 -2.5035 -2.4822 0.7470 48.8399 -6.3170 -10.3919
# 5 -1.0895 -10.9146 11.5379 -6.3170 46.7126 -10.6211
# 6 8.5557 -18.8689 18.4949 -10.3919 -10.6211 52.5733
#
#
#
# Elastic Compliance Matrix: (Units=1/GPa)
#
#
# Indices 1 2 3 4 5 6 
#
# 1 0.005143 -0.002698 -0.001012 -0.000295 -0.000674 -0.001644
# 2 -0.002698 0.011567 -0.002491 0.002662 0.005217 0.007047
# 3 -0.001012 -0.002491 0.015193 -0.002961 -0.006575 -0.007988
# 4 -0.000295 0.002662 -0.002961 0.023128 0.006266 0.007883
# 5 -0.000674 0.005217 -0.006575 0.006266 0.027609 0.011112
# 6 -0.001644 0.007047 -0.007988 0.007883 0.011112 0.028431
#
#
# Mechanical properties :
#
#
# Convention : Reuss Voigt Hill
#
# Bulk Modulus (GPa) = 51.27818 68.68393 59.98105
# Shear Modulus (GPa) = 38.46917 52.40916 45.43917
#
# Velocity S-wave (km/s) = 3.68374 4.29968 4.00357
# Velocity P-wave (km/s) = 6.01511 6.99126 6.52147
#
# Compressibility (1/GPa) = 0.01950147
#
# Stress axis : x y z
#
# Youngs Moduli (GPa) = 194.44306 86.45009 65.81810
#
# Poissons Ratio (x) = 0.23326 0.06660
# Poissons Ratio (y) = 0.52466 0.16395
# Poissons Ratio (z) = 0.19676 0.21534
#
# Static dielectric constant tensor:
#      x y z
#    x 2.253090 0.083300 0.295650 
#    y 0.083300 2.117170 -0.097730 
#    z 0.295650 -0.097730 1.756780 
# 
# From -- ./inp_files/70733.got.cif
#   From: 2010.05.17/outbox.cif.g08.bks.cpg/sg2_36_cif.got.tgz:70733.got - 2010.06.03 11:33:40.
