data_PCOD9029514
_publ_section_title
;
Structure prediction by ZEFSAII (Michael W. Deem and Ramdas Pophale) SiO2 
 PCOD9029514
Probable space group: P -1
;
_chemical_formula_sum "Si O2"
_cell_formula_units_Z 12
_cell_length_a 14.390402
_cell_length_b 7.959576
_cell_length_c 5.069908
_cell_angle_alpha 85.581576
_cell_angle_beta 105.415776
_cell_angle_gamma 59.051588
_cell_volume 463.798558
_symmetry_space_group_name_H-M "P -1"
_symmetry_group_IT_number 2
_symmetry_cell_setting 'triclinic'
loop_
_space_group_symop_operation_xyz
x,y,z
-x,-y,-z
loop_
_atom_site_type_symbol
_atom_site_label
_atom_site_fract_x
_atom_site_fract_y
_atom_site_fract_z
Si Si1 0.496527 0.848840 0.722317
Si Si2 0.886563 0.665012 0.715262
Si Si3 0.682730 0.220569 0.585834
Si Si4 0.730007 0.968906 0.166613
Si Si5 0.740309 0.512228 0.870369
Si Si6 0.020457 0.867741 0.778763
O O1 0.625927 0.673705 0.924278
O O2 0.500000 0.000000 0.500000
O O3 0.552931 0.271525 0.448195
O O4 0.601822 0.023515 0.144769
O O5 0.787285 0.636157 0.749198
O O6 0.925411 0.818620 0.736192
O O7 0.832551 0.739969 0.358005
O O8 0.000000 0.500000 0.000000
O O9 0.731355 0.129995 0.343638
O O10 0.705710 0.388532 0.669074
O O11 0.731801 0.042383 0.867608
O O12 0.852767 0.335259 0.124660
O O13 0.000000 0.000000 0.500000
O O14 0.000000 0.000000 0.000000
#
# Coordination Sequence:
#
# PCOD9029514 Si02
#       6
#     2   2   2   2   2   2
#     4  10  22  42  67  96 135 172 219 267 326 386
#     4  10  22  42  68  97 131 170 222 267 326 384
#     4  10  23  41  66  94 133 168 219 260 330 383
#     4  10  22  44  64  92 133 172 215 266 327 380
#     4  11  21  44  67 102 129 176 216 273 323 393
#     4  11  25  47  71  96 132 172 219 272 325 386
#
# _framework density 25.873301000000001
#
# number of rings (size 3 to 8) (size 9 to 14) (size 15 to 20)
#    1.000    0.667    1.667    2.500    0.000    1.333 
#    3.000   20.000    0.000    0.000    0.000    0.000 
#    0.000    0.000    0.000    0.000    0.000    0.000 
#
# Total GULP energy -66811.383854 kJ/mol
# GULP energy per Si atom -5567.615321 kJ/mol
# Density = 2.581441 g / cm^3
# Si number density = 25.873301 Si / 1000 Ang^3
#
#
#
# Elastic Constant Matrix: (Units=GPa)
#
#
# Indices 1 2 3 4 5 6 
#
# 1 186.4509 73.6488 62.9774 -5.9117 13.5564 24.5307
# 2 73.6488 123.7686 48.0578 -3.1523 5.7629 25.5585
# 3 62.9774 48.0578 126.9890 -10.6062 -4.0376 -18.3346
# 4 -5.9117 -3.1523 -10.6062 26.7145 -4.8244 12.6662
# 5 13.5564 5.7629 -4.0376 -4.8244 54.6616 -12.4311
# 6 24.5307 25.5585 -18.3346 12.6662 -12.4311 60.4425
#
#
#
# Elastic Compliance Matrix: (Units=1/GPa)
#
#
# Indices 1 2 3 4 5 6 
#
# 1 0.008528 -0.002404 -0.003944 0.001677 -0.003056 -0.004621
# 2 -0.002404 0.012835 -0.004556 0.001927 -0.002457 -0.006742
# 3 -0.003944 -0.004556 0.012929 0.000612 0.004335 0.008212
# 4 0.001677 0.001927 0.000612 0.043272 0.000929 -0.010187
# 5 -0.003056 -0.002457 0.004335 0.000929 0.021492 0.007820
# 6 -0.004621 -0.006742 0.008212 -0.010187 0.007820 0.027505
#
#
# Mechanical properties :
#
#
# Convention : Reuss Voigt Hill
#
# Bulk Modulus (GPa) = 80.09516 89.61961 84.85738
# Shear Modulus (GPa) = 32.78033 45.19869 38.98951
#
# Velocity S-wave (km/s) = 3.56329 4.18416 3.88614
# Velocity P-wave (km/s) = 6.92483 7.61945 7.28043
#
# Compressibility (1/GPa) = 0.01248515
#
# Stress axis : x y z
#
# Youngs Moduli (GPa) = 117.25429 77.91221 77.34427
#
# Poissons Ratio (x) = 0.18733 0.30504
# Poissons Ratio (y) = 0.28192 0.35234
# Poissons Ratio (z) = 0.46244 0.35493
#
# Static dielectric constant tensor:
#      x y z
#    x 2.022990 -0.048900 0.106970 
#    y -0.048900 1.978760 -0.080240 
#    z 0.106970 -0.080240 2.056410 
# 
# From -- ./inp_files/106555.got.cif
#   From: 2010.05.17/outbox.cif.g08.bks.cpg/sg2_54_cif.got.tgz:106555.got - 2010.06.03 11:33:40.
