data_PCOD9029508
_publ_section_title
;
Structure prediction by ZEFSAII (Michael W. Deem and Ramdas Pophale) SiO2 
 PCOD9029508
Probable space group: P -1
;
_chemical_formula_sum "Si O2"
_cell_formula_units_Z 16
_cell_length_a 11.175006
_cell_length_b 11.988921
_cell_length_c 8.789276
_cell_angle_alpha 99.975433
_cell_angle_beta 132.809720
_cell_angle_gamma 58.041235
_cell_volume 699.267149
_symmetry_space_group_name_H-M "P -1"
_symmetry_group_IT_number 2
_symmetry_cell_setting 'triclinic'
loop_
_space_group_symop_operation_xyz
x,y,z
-x,-y,-z
loop_
_atom_site_type_symbol
_atom_site_label
_atom_site_fract_x
_atom_site_fract_y
_atom_site_fract_z
Si Si1 0.707969 0.697824 0.898075
Si Si2 0.997924 0.030977 0.177820
Si Si3 0.594248 0.998709 0.425248
Si Si4 0.959598 0.137232 0.569533
Si Si5 0.702186 0.416848 0.345617
Si Si6 0.251125 0.657999 0.963124
Si Si7 0.671698 0.848996 0.178199
Si Si8 0.838641 0.420014 0.813981
O O1 0.696897 0.577104 0.791963
O O2 0.551282 0.848742 0.733005
O O3 0.687054 0.727173 0.068810
O O4 0.930030 0.643980 0.026453
O O5 0.193221 0.025714 0.384979
O O6 0.815944 0.186742 0.090216
O O7 0.005821 0.906919 0.237458
O O8 0.000000 0.000000 0.000000
O O9 0.622241 0.874658 0.318456
O O10 0.500000 0.000000 0.500000
O O11 0.120927 0.166447 0.669801
O O12 0.742505 0.266953 0.371531
O O13 0.000000 0.000000 0.500000
O O14 0.799249 0.391394 0.250501
O O15 0.770509 0.427110 0.579398
O O16 0.484382 0.549497 0.163672
O O17 0.162972 0.659116 0.053713
O O18 0.500000 0.000000 0.000000
#
# Coordination Sequence:
#
# PCOD9029508 Si02
#       8
#     2   2   2   2   2   2   2   2
#     4  10  24  43  66  99 125 187 238 274 352 417
#     4  12  27  41  69 104 139 179 231 291 349 417
#     4  11  24  43  67  99 141 175 232 292 346 410
#     4  12  22  43  71  98 135 179 234 283 348 414
#     4  11  24  43  70  98 142 179 228 292 347 419
#     4  11  25  44  66 103 139 182 228 286 357 412
#     4  10  22  42  67  96 132 176 224 287 341 408
#     4  11  23  45  70  92 143 182 233 287 341 419
#
# _framework density 22.881098999999999
#
# number of rings (size 3 to 8) (size 9 to 14) (size 15 to 20)
#    0.000    1.000    3.750    1.875    7.000    0.000 
#    2.250    1.250    0.000    0.000    0.000    0.000 
#    0.000    0.000    0.000    0.000    0.000    0.000 
#
# Total GULP energy -89113.925871 kJ/mol
# GULP energy per Si atom -5569.620367 kJ/mol
# Density = 2.282902 g / cm^3
# Si number density = 22.881099 Si / 1000 Ang^3
#
#
#
# Elastic Constant Matrix: (Units=GPa)
#
#
# Indices 1 2 3 4 5 6 
#
# 1 74.2079 20.2851 37.9218 1.4280 -38.3821 -21.0371
# 2 20.2851 129.9894 45.4042 -4.3681 -7.4770 -33.8772
# 3 37.9218 45.4042 119.8035 -3.7708 -26.5310 -14.8694
# 4 1.4280 -4.3681 -3.7708 57.0176 -22.7580 -10.1120
# 5 -38.3821 -7.4770 -26.5310 -22.7580 47.9574 3.1616
# 6 -21.0371 -33.8772 -14.8694 -10.1120 3.1616 32.5810
#
#
#
# Elastic Compliance Matrix: (Units=1/GPa)
#
#
# Indices 1 2 3 4 5 6 
#
# 1 0.049581 0.007687 -0.001365 0.026826 0.050030 0.042855
# 2 0.007687 0.013167 -0.002868 0.007538 0.008956 0.018817
# 3 -0.001365 -0.002868 0.011635 0.003487 0.006427 0.001906
# 4 0.026826 0.007538 0.003487 0.040481 0.041458 0.035292
# 5 0.050030 0.008956 0.006427 0.041458 0.082259 0.049434
# 6 0.042855 0.018817 0.001906 0.035292 0.049434 0.084955
#
#
# Mechanical properties :
#
#
# Convention : Reuss Voigt Hill
#
# Bulk Modulus (GPa) = 12.30106 59.02477 35.66292
# Shear Modulus (GPa) = 16.54165 42.20387 29.37276
#
# Velocity S-wave (km/s) = 2.69167 4.29941 3.58678
# Velocity P-wave (km/s) = 3.87916 7.10625 5.72480
#
# Compressibility (1/GPa) = 0.08129379
#
# Stress axis : x y z
#
# Youngs Moduli (GPa) = 20.16892 75.94599 85.94531
#
# Poissons Ratio (x) = -0.58383 0.11730
# Poissons Ratio (y) = -0.15505 0.24646
# Poissons Ratio (z) = 0.02753 0.21778
#
# Static dielectric constant tensor:
#      x y z
#    x 1.911030 0.003020 -0.064690 
#    y 0.003020 1.891440 0.034940 
#    z -0.064690 0.034940 1.975850 
# 
# From -- ./inp_files/259190.got.cif
#   From: 2010.05.17/outbox.cif.g08.bks.cpg/sg2_130_cif.got.tgz:259190.got - 2010.06.03 11:33:40.
