data_PCOD9029816
_publ_section_title
;
Structure prediction by ZEFSAII (Michael W. Deem and Ramdas Pophale) SiO2 
 PCOD9029816
Probable space group: P -1
;
_chemical_formula_sum "Si O2"
_cell_formula_units_Z 16
_cell_length_a 5.188931
_cell_length_b 22.656729
_cell_length_c 14.941114
_cell_angle_alpha 20.641928
_cell_angle_beta 86.285666
_cell_angle_gamma 87.418187
_cell_volume 617.320220
_symmetry_space_group_name_H-M "P -1"
_symmetry_group_IT_number 2
_symmetry_cell_setting 'triclinic'
loop_
_space_group_symop_operation_xyz
x,y,z
-x,-y,-z
loop_
_atom_site_type_symbol
_atom_site_label
_atom_site_fract_x
_atom_site_fract_y
_atom_site_fract_z
Si Si1 0.286665 0.219117 0.507123
Si Si2 0.813334 0.403236 0.558943
Si Si3 0.806726 0.539027 0.671362
Si Si4 0.998107 0.258796 0.160183
Si Si5 0.460729 0.696653 0.114878
Si Si6 0.176140 0.674890 0.747634
Si Si7 0.307712 0.988733 0.601528
Si Si8 0.735819 0.062473 0.964420
O O1 0.269320 0.325736 0.448178
O O2 0.538860 0.301054 0.335691
O O3 0.017426 0.220023 0.457727
O O4 0.301140 0.029772 0.809120
O O5 0.703542 0.589190 0.291194
O O6 0.747004 0.339381 0.750139
O O7 0.694605 0.259696 0.699677
O O8 0.098061 0.397437 0.518094
O O9 0.607227 0.390575 0.856003
O O10 0.033357 0.439819 0.857395
O O11 0.784899 0.280959 0.210919
O O12 0.930953 0.133387 0.256838
O O13 0.204622 0.174200 0.339351
O O14 0.449365 0.893383 0.812940
O O15 0.000000 0.500000 0.000000
O O16 0.500000 0.000000 0.500000
O O17 0.500000 0.000000 0.000000
O O18 0.000000 0.000000 0.000000
#
# Coordination Sequence:
#
# PCOD9029816 Si02
#       8
#     2   2   2   2   2   2   2   2
#     4  12  27  45  72 106 146 194 236 299 362 431
#     4  11  24  43  68 102 136 187 240 299 353 426
#     4  11  22  43  70  95 140 182 240 288 363 430
#     4  10  24  40  65 101 132 182 230 295 354 435
#     4  10  24  42  68 100 134 182 240 298 358 421
#     4  12  27  46  71 108 146 186 242 295 365 432
#     4  10  22  42  68  95 136 180 231 291 365 422
#     4  12  26  47  72 106 143 190 243 293 357 428
#
# _framework density 25.918476999999999
#
# number of rings (size 3 to 8) (size 9 to 14) (size 15 to 20)
#    0.000    1.000    2.500    3.000    5.250    1.000 
#    0.000    1.250    0.000    0.000    0.000    0.000 
#    0.000    0.000    0.000    0.000    0.000    0.000 
#
# Total GULP energy -89215.622625 kJ/mol
# GULP energy per Si atom -5575.976414 kJ/mol
# Density = 2.585949 g / cm^3
# Si number density = 25.918477 Si / 1000 Ang^3
#
#
#
# Elastic Constant Matrix: (Units=GPa)
#
#
# Indices 1 2 3 4 5 6 
#
# 1 105.4544 36.1065 18.8557 -0.5168 0.6500 -12.9882
# 2 36.1065 134.3247 -5.7410 17.6248 -9.3945 -18.2884
# 3 18.8557 -5.7410 110.8501 23.2428 20.2049 -17.4083
# 4 -0.5168 17.6248 23.2428 36.7567 -2.7764 -13.9005
# 5 0.6500 -9.3945 20.2049 -2.7764 30.7969 8.2655
# 6 -12.9882 -18.2884 -17.4083 -13.9005 8.2655 52.2091
#
#
#
# Elastic Compliance Matrix: (Units=1/GPa)
#
#
# Indices 1 2 3 4 5 6 
#
# 1 0.011419 -0.003487 -0.002844 0.004328 0.000483 0.001747
# 2 -0.003487 0.009464 0.002419 -0.005426 0.000416 0.001744
# 3 -0.002844 0.002419 0.014122 -0.009406 -0.010385 0.003988
# 4 0.004328 -0.005426 -0.009406 0.038274 0.006478 0.005205
# 5 0.000483 0.000416 -0.010385 0.006478 0.042172 -0.008149
# 6 0.001747 0.001744 0.003988 0.005205 -0.008149 0.024205
#
#
# Mechanical properties :
#
#
# Convention : Reuss Voigt Hill
#
# Bulk Modulus (GPa) = 36.79268 49.89684 43.34476
# Shear Modulus (GPa) = 31.94083 44.04640 37.99361
#
# Velocity S-wave (km/s) = 3.51430 4.12688 3.83285
# Velocity P-wave (km/s) = 5.54017 6.48085 6.02888
#
# Compressibility (1/GPa) = 0.02717932
#
# Stress axis : x y z
#
# Youngs Moduli (GPa) = 87.57583 105.66569 70.81283
#
# Poissons Ratio (x) = 0.36848 0.20140
# Poissons Ratio (y) = 0.30540 -0.17129
# Poissons Ratio (z) = 0.24907 -0.25559
#
# Static dielectric constant tensor:
#      x y z
#    x 2.160880 -0.056480 0.024420 
#    y -0.056480 2.212050 -0.115580 
#    z 0.024420 -0.115580 2.197240 
# 
# From -- ./inp_files/72015.got.cif
#   From: 2010.05.17/outbox.cif.g08.bks.cpg/sg2_37_cif.got.tgz:72015.got - 2010.06.03 11:33:40.
