data_PCOD9029619
_publ_section_title
;
Structure prediction by ZEFSAII (Michael W. Deem and Ramdas Pophale) SiO2 
 PCOD9029619
Probable space group: P -1
;
_chemical_formula_sum "Si O2"
_cell_formula_units_Z 15
_cell_length_a 13.630836
_cell_length_b 7.079465
_cell_length_c 8.973377
_cell_angle_alpha 88.267859
_cell_angle_beta 132.484537
_cell_angle_gamma 81.736323
_cell_volume 622.264094
_symmetry_space_group_name_H-M "P -1"
_symmetry_group_IT_number 2
_symmetry_cell_setting 'triclinic'
loop_
_space_group_symop_operation_xyz
x,y,z
-x,-y,-z
loop_
_atom_site_type_symbol
_atom_site_label
_atom_site_fract_x
_atom_site_fract_y
_atom_site_fract_z
Si Si1 0.500000 0.500000 0.000000
Si Si2 0.656473 0.598695 0.893517
Si Si3 0.900462 0.722322 0.270466
Si Si4 0.796426 0.915589 0.462025
Si Si5 0.793465 0.370497 0.447061
Si Si6 0.057816 0.920704 0.901180
Si Si7 0.556436 0.069209 0.406388
Si Si8 0.277465 0.628380 0.303912
O O1 0.577850 0.472629 0.916648
O O2 0.348392 0.510119 0.765910
O O3 0.567874 0.817902 0.825001
O O4 0.648599 0.554049 0.711366
O O5 0.810336 0.595137 0.097811
O O6 0.819045 0.805734 0.333228
O O7 0.058841 0.623682 0.465768
O O8 0.907438 0.907666 0.167116
O O9 0.935649 0.848545 0.698279
O O10 0.784173 0.146039 0.417226
O O11 0.663538 0.913376 0.424611
O O12 0.803330 0.415785 0.632583
O O13 0.186788 0.755561 0.080103
O O14 0.000000 0.000000 0.000000
O O15 0.634747 0.233102 0.536266
O O16 0.500000 0.000000 0.500000
#
# Coordination Sequence:
#
# PCOD9029619 Si02
#       8
#     1   2   2   2   2   2   2   2
#     4  12  26  46  66  94 148 184 222 272 368 420
#     4  12  28  43  68 104 139 190 226 282 359 415
#     4  11  25  44  68 104 141 174 245 285 339 422
#     4  10  22  42  68 100 133 181 232 285 349 398
#     4  10  22  46  68  96 134 180 228 283 340 417
#     4  11  19  41  74 100 129 182 231 292 343 402
#     4  11  23  44  71 102 136 176 244 291 339 412
#     4  11  23  43  69 100 138 181 226 283 355 410
#
# _framework density 24.105521
#
# number of rings (size 3 to 8) (size 9 to 14) (size 15 to 20)
#    0.000    1.067    6.667    2.800    3.733    2.667 
#    0.000    0.000    0.000    0.000    0.000    0.000 
#    0.000    0.000    0.000    0.000    0.000    0.000 
#
# Total GULP energy -83623.803415 kJ/mol
# GULP energy per Si atom -5574.920228 kJ/mol
# Density = 2.405066 g / cm^3
# Si number density = 24.105521 Si / 1000 Ang^3
#
#
#
# Elastic Constant Matrix: (Units=GPa)
#
#
# Indices 1 2 3 4 5 6 
#
# 1 184.0834 40.0302 39.9331 10.7993 1.9402 -21.7820
# 2 40.0302 59.7743 25.0129 7.4551 1.6632 -17.5199
# 3 39.9331 25.0129 129.4910 -6.3408 15.5550 -10.7645
# 4 10.7993 7.4551 -6.3408 31.0764 -15.0018 -6.3653
# 5 1.9402 1.6632 15.5550 -15.0018 49.9240 6.4360
# 6 -21.7820 -17.5199 -10.7645 -6.3653 6.4360 27.6095
#
#
#
# Elastic Compliance Matrix: (Units=1/GPa)
#
#
# Indices 1 2 3 4 5 6 
#
# 1 0.006787 -0.002984 -0.001299 -0.001643 -0.000604 0.002717
# 2 -0.002984 0.023726 -0.002615 -0.004099 -0.002552 0.011332
# 3 -0.001299 -0.002615 0.009176 0.002239 -0.002299 0.001946
# 4 -0.001643 -0.004099 0.002239 0.040323 0.011146 0.003674
# 5 -0.000604 -0.002552 -0.002299 0.011146 0.025011 -0.006253
# 6 0.002717 0.011332 0.001946 0.003674 -0.006253 0.048617
#
#
# Mechanical properties :
#
#
# Convention : Reuss Voigt Hill
#
# Bulk Modulus (GPa) = 38.61961 64.81121 51.71541
# Shear Modulus (GPa) = 28.39860 39.61348 34.00604
#
# Velocity S-wave (km/s) = 3.43606 4.05821 3.76002
# Velocity P-wave (km/s) = 5.63896 6.99311 6.35222
#
# Compressibility (1/GPa) = 0.02589358
#
# Stress axis : x y z
#
# Youngs Moduli (GPa) = 147.33812 42.14843 108.98252
#
# Poissons Ratio (x) = 0.12576 0.14154
# Poissons Ratio (y) = 0.43963 0.28498
# Poissons Ratio (z) = 0.19136 0.11021
#
# Static dielectric constant tensor:
#      x y z
#    x 2.000420 -0.025690 0.011600 
#    y -0.025690 2.030530 -0.104590 
#    z 0.011600 -0.104590 1.945170 
# 
# From -- ./inp_files/244208.got.cif
#   From: 2010.05.17/outbox.cif.g08.bks.cpg/sg2_123_cif.got.tgz:244208.got - 2010.06.03 11:33:40.
