data_PCOD9029951
_publ_section_title
;
Structure prediction by ZEFSAII (Michael W. Deem and Ramdas Pophale) SiO2 
 PCOD9029951
Probable space group: P -1
;
_chemical_formula_sum "Si O2"
_cell_formula_units_Z 16
_cell_length_a 16.825177
_cell_length_b 18.685716
_cell_length_c 11.890217
_cell_angle_alpha 139.916864
_cell_angle_beta 40.090593
_cell_angle_gamma 157.966781
_cell_volume 878.554516
_symmetry_space_group_name_H-M "P -1"
_symmetry_group_IT_number 2
_symmetry_cell_setting 'triclinic'
loop_
_space_group_symop_operation_xyz
x,y,z
-x,-y,-z
loop_
_atom_site_type_symbol
_atom_site_label
_atom_site_fract_x
_atom_site_fract_y
_atom_site_fract_z
Si Si1 0.480945 0.592881 0.311587
Si Si2 0.351957 0.031989 0.433933
Si Si3 0.340122 0.798078 0.864529
Si Si4 0.587525 0.399841 0.359560
Si Si5 0.936624 0.885171 0.097482
Si Si6 0.989755 0.168419 0.268383
Si Si7 0.939032 0.232350 0.790913
Si Si8 0.144483 0.037238 0.300209
O O1 0.475943 0.578078 0.434297
O O2 0.678219 0.669723 0.135964
O O3 0.235653 0.392122 0.294160
O O4 0.561068 0.777845 0.424091
O O5 0.190819 0.894612 0.335991
O O6 0.198900 0.898951 0.547891
O O7 0.570634 0.130742 0.274702
O O8 0.369523 0.694731 0.754348
O O9 0.109258 0.679523 0.005029
O O10 0.500000 0.000000 0.000000
O O11 0.811316 0.603479 0.308671
O O12 0.392299 0.259015 0.313720
O O13 0.049054 0.972488 0.201755
O O14 0.034554 0.871091 0.885423
O O15 0.970646 0.032751 0.184411
O O16 0.861304 0.092190 0.803136
O O17 0.000000 0.000000 0.500000
#
# Coordination Sequence:
#
# PCOD9029951 Si02
#       8
#     2   2   2   2   2   2   2   2
#     4  10  17  32  51  75 103 133 175 218 259 301
#     4   9  17  31  52  79 101 127 168 222 268 299
#     4   9  17  34  54  80 109 131 172 229 266 302
#     4  11  20  32  56  82 106 142 175 208 273 319
#     4  10  22  34  50  74 104 144 180 215 255 307
#     4  10  19  35  54  73 100 139 187 219 251 309
#     4  11  20  34  53  80 111 138 176 219 266 314
#     4  12  22  36  49  77 119 144 167 212 264 324
#
# _framework density 18.211732999999999
#
# number of rings (size 3 to 8) (size 9 to 14) (size 15 to 20)
#    0.000    1.750    6.250    1.500    0.000    1.500 
#    0.000    0.000    0.000    0.750    0.000    4.375 
#    0.000    0.000    0.000    0.000    0.000    0.000 
#
# Total GULP energy -89101.118175 kJ/mol
# GULP energy per Si atom -5568.819886 kJ/mol
# Density = 1.817028 g / cm^3
# Si number density = 18.211733 Si / 1000 Ang^3
#
#
#
# Elastic Constant Matrix: (Units=GPa)
#
#
# Indices 1 2 3 4 5 6 
#
# 1 35.1268 1.8555 24.5530 -3.5302 17.4671 4.7518
# 2 1.8555 110.3396 22.8659 -15.9182 16.4212 6.0465
# 3 24.5530 22.8659 104.1215 -21.1927 24.2620 -3.4200
# 4 -3.5302 -15.9182 -21.1927 25.7794 -0.8270 4.5781
# 5 17.4671 16.4212 24.2620 -0.8270 28.3678 0.8400
# 6 4.7518 6.0465 -3.4200 4.5781 0.8400 10.2255
#
#
#
# Elastic Compliance Matrix: (Units=1/GPa)
#
#
# Indices 1 2 3 4 5 6 
#
# 1 0.054235 0.009010 -0.005621 0.013705 -0.032340 -0.035890
# 2 0.009010 0.013393 -0.000395 0.011717 -0.012132 -0.016488
# 3 -0.005621 -0.000395 0.015521 0.010733 -0.009390 0.004003
# 4 0.013705 0.011717 0.010733 0.062408 -0.021520 -0.035880
# 5 -0.032340 -0.012132 -0.009390 -0.021520 0.068908 0.023036
# 6 -0.035890 -0.016488 0.004003 -0.035880 0.023036 0.139733
#
#
# Mechanical properties :
#
#
# Convention : Reuss Voigt Hill
#
# Bulk Modulus (GPa) = 11.21894 38.68186 24.95040
# Shear Modulus (GPa) = 13.23020 26.22880 19.72950
#
# Velocity S-wave (km/s) = 2.69823 3.79913 3.29498
# Velocity P-wave (km/s) = 3.98508 6.36637 5.31091
#
# Compressibility (1/GPa) = 0.08913499
#
# Stress axis : x y z
#
# Youngs Moduli (GPa) = 18.43811 74.66653 64.43033
#
# Poissons Ratio (x) = -0.67274 0.36220
# Poissons Ratio (y) = -0.16612 0.02547
# Poissons Ratio (z) = 0.10365 0.02952
#
# Static dielectric constant tensor:
#      x y z
#    x 1.625660 -0.005780 -0.036310 
#    y -0.005780 1.664890 -0.036360 
#    z -0.036310 -0.036360 1.700280 
# 
# From -- ./inp_files/421341.got.cif
#   From: 2010.05.17/outbox.cif.g08.bks.cpg/sg2_211_cif.got.tgz:421341.got - 2010.06.03 11:33:40.
