data_PCOD9029041
_publ_section_title
;
Structure prediction by ZEFSAII (Michael W. Deem and Ramdas Pophale) SiO2 
 PCOD9029041
Probable space group: P -1
;
_chemical_formula_sum "Si O2"
_cell_formula_units_Z 13
_cell_length_a 9.854605
_cell_length_b 14.773990
_cell_length_c 18.418901
_cell_angle_alpha 158.585050
_cell_angle_beta 41.115504
_cell_angle_gamma 127.051446
_cell_volume 586.760414
_symmetry_space_group_name_H-M "P -1"
_symmetry_group_IT_number 2
_symmetry_cell_setting 'triclinic'
loop_
_space_group_symop_operation_xyz
x,y,z
-x,-y,-z
loop_
_atom_site_type_symbol
_atom_site_label
_atom_site_fract_x
_atom_site_fract_y
_atom_site_fract_z
Si Si1 0.005576 0.925110 0.188473
Si Si2 0.500000 0.500000 0.000000
Si Si3 0.271047 0.840723 0.768198
Si Si4 0.911284 0.653395 0.242287
Si Si5 0.020995 0.095269 0.460412
Si Si6 0.412685 0.960426 0.644815
Si Si7 0.560192 0.205411 0.177429
O O1 0.767522 0.097712 0.375221
O O2 0.975207 0.667796 0.042780
O O3 0.205955 0.807918 0.961885
O O4 0.075053 0.068787 0.333976
O O5 0.246389 0.727937 0.292271
O O6 0.596164 0.741709 0.142144
O O7 0.366654 0.511353 0.479859
O O8 0.383343 0.888161 0.832100
O O9 0.347966 0.939975 0.738744
O O10 0.000000 0.000000 0.000000
O O11 0.864169 0.767682 0.429381
O O12 0.060613 0.801436 0.259173
O O13 0.669979 0.747894 0.371417
O O14 0.500000 0.000000 0.000000
#
# Coordination Sequence:
#
# PCOD9029041 Si02
#       7
#     2   1   2   2   2   2   2
#     4  12  23  43  67  97 133 172 226 279 329 401
#     4  10  22  42  66 102 136 176 220 262 342 408
#     4  11  24  48  71  96 142 183 220 291 344 404
#     4  10  22  44  62  96 134 176 222 262 341 395
#     4  10  23  41  66  96 136 177 217 277 321 400
#     4  11  23  43  68 101 136 177 220 275 341 398
#     4  11  27  45  69 104 131 176 238 285 343 404
#
# _framework density 22.155552
#
# number of rings (size 3 to 8) (size 9 to 14) (size 15 to 20)
#    0.000    1.231    4.615    0.462    2.154    4.308 
#   11.077    0.000    0.000    0.000    0.000    0.000 
#    0.000    0.000    0.000    0.000    0.000    0.000 
#
# Total GULP energy -72410.438221 kJ/mol
# GULP energy per Si atom -5570.033709 kJ/mol
# Density = 2.210512 g / cm^3
# Si number density = 22.155552 Si / 1000 Ang^3
#
#
#
# Elastic Constant Matrix: (Units=GPa)
#
#
# Indices 1 2 3 4 5 6 
#
# 1 135.3016 19.6537 49.0607 -2.6897 15.5195 -10.7894
# 2 19.6537 33.8015 -2.9470 -7.4319 4.3659 -2.4941
# 3 49.0607 -2.9470 57.2993 -5.3171 -1.0656 -2.5632
# 4 -2.6897 -7.4319 -5.3171 22.6360 4.3757 3.6493
# 5 15.5195 4.3659 -1.0656 4.3757 36.6765 -11.6907
# 6 -10.7894 -2.4941 -2.5632 3.6493 -11.6907 30.0659
#
#
#
# Elastic Compliance Matrix: (Units=1/GPa)
#
#
# Indices 1 2 3 4 5 6 
#
# 1 0.013935 -0.009423 -0.012769 -0.003993 -0.004015 0.002054
# 2 -0.009423 0.039687 0.011398 0.015501 -0.002938 -0.002141
# 3 -0.012769 0.011398 0.029809 0.008638 0.003651 -0.000724
# 4 -0.003993 0.015501 0.008638 0.054207 -0.009453 -0.009666
# 5 -0.004015 -0.002938 0.003651 -0.009453 0.034787 0.013301
# 6 0.002054 -0.002141 -0.000724 -0.009666 0.013301 0.040103
#
#
# Mechanical properties :
#
#
# Convention : Reuss Voigt Hill
#
# Bulk Modulus (GPa) = 16.17064 39.77078 27.97071
# Shear Modulus (GPa) = 19.62860 28.58469 24.10664
#
# Velocity S-wave (km/s) = 2.97971 3.59581 3.30216
# Velocity P-wave (km/s) = 4.37639 5.93544 5.21451
#
# Compressibility (1/GPa) = 0.06184049
#
# Stress axis : x y z
#
# Youngs Moduli (GPa) = 71.76324 25.19725 33.54738
#
# Poissons Ratio (x) = 0.23744 0.42837
# Poissons Ratio (y) = 0.67625 -0.38236
# Poissons Ratio (z) = 0.91635 -0.28719
#
# Static dielectric constant tensor:
#      x y z
#    x 1.842160 -0.044770 0.009250 
#    y -0.044770 1.853330 -0.000690 
#    z 0.009250 -0.000690 1.774480 
# 
# From -- ./inp_files/453667.got.cif
#   From: 2010.05.17/outbox.cif.g08.bks.cpg/sg2_227_cif.got.tgz:453667.got - 2010.06.03 11:33:40.
