data_PCOD9029073
_publ_section_title
;
Structure prediction by ZEFSAII (Michael W. Deem and Ramdas Pophale) SiO2 
 PCOD9029073
Probable space group: P -1
;
_chemical_formula_sum "Si O2"
_cell_formula_units_Z 16
_cell_length_a 10.768162
_cell_length_b 9.081747
_cell_length_c 16.525170
_cell_angle_alpha 139.281042
_cell_angle_beta 144.420346
_cell_angle_gamma 51.984100
_cell_volume 613.388833
_symmetry_space_group_name_H-M "P -1"
_symmetry_group_IT_number 2
_symmetry_cell_setting 'triclinic'
loop_
_space_group_symop_operation_xyz
x,y,z
-x,-y,-z
loop_
_atom_site_type_symbol
_atom_site_label
_atom_site_fract_x
_atom_site_fract_y
_atom_site_fract_z
Si Si1 0.408983 0.755838 0.326603
Si Si2 0.216196 0.982759 0.553735
Si Si3 0.236740 0.232298 0.902126
Si Si4 0.937067 0.845865 0.044334
Si Si5 0.121624 0.770557 0.620310
Si Si6 0.562301 0.602341 0.180263
Si Si7 0.779040 0.446341 0.705535
Si Si8 0.963657 0.352426 0.291706
O O1 0.555799 0.644696 0.291303
O O2 0.172926 0.762161 0.162804
O O3 0.500000 0.000000 0.500000
O O4 0.384398 0.615763 0.336385
O O5 0.420452 0.145942 0.743352
O O6 0.105961 0.107363 0.469155
O O7 0.285504 0.722582 0.471880
O O8 0.000000 0.000000 0.500000
O O9 0.214705 0.199987 0.975346
O O10 0.281213 0.980998 0.786376
O O11 0.386894 0.406851 0.007782
O O12 0.995762 0.672526 0.203043
O O13 0.984116 0.109062 0.162266
O O14 0.839472 0.707545 0.859408
O O15 0.111199 0.704135 0.680323
O O16 0.137993 0.547657 0.481441
O O17 0.770250 0.485127 0.204408
#
# Coordination Sequence:
#
# PCOD9029073 Si02
#       8
#     2   2   2   2   2   2   2   2
#     4  11  19  29  50  80 106 136 166 217 257 307
#     4  10  21  35  53  73 100 140 181 219 250 296
#     4   9  16  29  50  75 106 136 160 212 257 308
#     4  10  18  30  47  75 113 141 158 202 276 311
#     4   8  17  32  47  67 103 134 163 202 257 302
#     4  11  19  32  52  80 109 128 178 209 252 314
#     4  10  17  32  49  72 109 136 166 213 269 297
#     4   9  19  30  49  78 109 140 159 202 267 321
#
# _framework density 26.084596999999999
#
# number of rings (size 3 to 8) (size 9 to 14) (size 15 to 20)
#    0.000    2.250    3.750    1.500    5.250    2.000 
#    0.000    2.500    0.000    3.000    0.000    7.875 
#    0.000    0.000    0.000    1.000    0.000    0.000 
#
# Total GULP energy -89077.352258 kJ/mol
# GULP energy per Si atom -5567.334516 kJ/mol
# Density = 2.602523 g / cm^3
# Si number density = 26.084597 Si / 1000 Ang^3
#
#
#
# Elastic Constant Matrix: (Units=GPa)
#
#
# Indices 1 2 3 4 5 6 
#
# 1 104.6658 17.0207 62.0358 9.5354 13.6238 10.9909
# 2 17.0207 35.9508 33.1045 17.1702 -4.8853 -2.0921
# 3 62.0358 33.1045 210.4762 66.5910 22.3263 9.1307
# 4 9.5354 17.1702 66.5910 38.5235 -10.1905 0.9814
# 5 13.6238 -4.8853 22.3263 -10.1905 32.9103 4.1572
# 6 10.9909 -2.0921 9.1307 0.9814 4.1572 28.9816
#
#
#
# Elastic Compliance Matrix: (Units=1/GPa)
#
#
# Indices 1 2 3 4 5 6 
#
# 1 0.013661 -0.005644 -0.007100 0.012207 0.002626 -0.004142
# 2 -0.005644 0.038437 -0.000482 -0.014145 0.003349 0.005066
# 3 -0.007100 -0.000482 0.027554 -0.054323 -0.032710 0.000508
# 4 0.012207 -0.014145 -0.054323 0.142947 0.074476 -0.004059
# 5 0.002626 0.003349 -0.032710 0.074476 0.075528 -0.003805
# 6 -0.004142 0.005066 0.000508 -0.004059 -0.003805 0.036964
#
#
# Mechanical properties :
#
#
# Convention : Reuss Voigt Hill
#
# Bulk Modulus (GPa) = 18.79664 63.93496 41.36580
# Shear Modulus (GPa) = 13.18299 36.01186 24.59742
#
# Velocity S-wave (km/s) = 2.25053 3.71965 3.07414
# Velocity P-wave (km/s) = 3.73830 6.55832 5.33790
#
# Compressibility (1/GPa) = 0.05320099
#
# Stress axis : x y z
#
# Youngs Moduli (GPa) = 73.20069 26.01637 36.29239
#
# Poissons Ratio (x) = 0.14685 0.25766
# Poissons Ratio (y) = 0.41317 0.01748
# Poissons Ratio (z) = 0.51970 0.01253
#
# Static dielectric constant tensor:
#      x y z
#    x 2.049740 0.027390 -0.010200 
#    y 0.027390 2.090070 -0.013920 
#    z -0.010200 -0.013920 2.354580 
# 
# From -- ./inp_files/594860.got.cif
#   From: 2010.05.17/outbox.cif.g08.bks.cpg/sg2_298_cif.got.tgz:594860.got - 2010.06.03 11:33:40.
