data_PCOD9029080
_publ_section_title
;
Structure prediction by ZEFSAII (Michael W. Deem and Ramdas Pophale) SiO2 
 PCOD9029080
Probable space group: P -1
;
_chemical_formula_sum "Si O2"
_cell_formula_units_Z 16
_cell_length_a 8.862184
_cell_length_b 9.204268
_cell_length_c 14.049865
_cell_angle_alpha 74.266768
_cell_angle_beta 133.605000
_cell_angle_gamma 92.213536
_cell_volume 780.461089
_symmetry_space_group_name_H-M "P -1"
_symmetry_group_IT_number 2
_symmetry_cell_setting 'triclinic'
loop_
_space_group_symop_operation_xyz
x,y,z
-x,-y,-z
loop_
_atom_site_type_symbol
_atom_site_label
_atom_site_fract_x
_atom_site_fract_y
_atom_site_fract_z
Si Si1 0.765387 0.032129 0.851691
Si Si2 0.730136 0.025086 0.622945
Si Si3 0.485367 0.217996 0.172265
Si Si4 0.081951 0.328023 0.527180
Si Si5 0.338930 0.700694 0.568801
Si Si6 0.943488 0.244903 0.279643
Si Si7 0.471427 0.649537 0.248026
Si Si8 0.827982 0.466377 0.009813
O O1 0.783982 0.977759 0.761501
O O2 0.680692 0.215856 0.785579
O O3 0.610214 0.934924 0.853176
O O4 0.000000 0.000000 0.000000
O O5 0.689086 0.208601 0.557215
O O6 0.500000 0.000000 0.500000
O O7 0.908268 0.919409 0.654030
O O8 0.526826 0.239366 0.299716
O O9 0.707482 0.225507 0.214435
O O10 0.305359 0.368725 0.040244
O O11 0.315908 0.281303 0.680622
O O12 0.000000 0.500000 0.500000
O O13 0.900362 0.250073 0.502959
O O14 0.059084 0.312349 0.406512
O O15 0.439463 0.518791 0.636472
O O16 0.923563 0.358125 0.159184
O O17 0.344015 0.613430 0.105971
O O18 0.000000 0.500000 0.000000
#
# Coordination Sequence:
#
# PCOD9029080 Si02
#       8
#     2   2   2   2   2   2   2   2
#     4  12  25  44  61  96 135 171 217 280 333 376
#     4  12  24  41  65  97 131 169 230 268 320 407
#     4  10  22  42  68  93 128 171 224 268 321 402
#     4   9  20  41  63 100 131 158 211 280 321 388
#     4   9  21  40  66  94 124 168 217 263 331 388
#     4  11  24  41  71  97 126 182 222 265 329 397
#     4  10  22  42  66  88 135 168 208 277 329 378
#     4  11  23  45  69  95 131 178 223 265 325 404
#
# _framework density 20.500702
#
# number of rings (size 3 to 8) (size 9 to 14) (size 15 to 20)
#    0.000    1.500    1.250    4.125    3.500    1.500 
#   11.250    1.250    0.000    0.000    0.000    0.000 
#    0.000    0.000    0.000    0.000    0.000    0.000 
#
# Total GULP energy -89155.078021 kJ/mol
# GULP energy per Si atom -5572.192376 kJ/mol
# Density = 2.045404 g / cm^3
# Si number density = 20.500702 Si / 1000 Ang^3
#
#
#
# Elastic Constant Matrix: (Units=GPa)
#
#
# Indices 1 2 3 4 5 6 
#
# 1 73.6980 43.9885 37.9363 -9.5489 8.9023 -8.3293
# 2 43.9885 105.0038 49.9172 -10.0813 1.5776 -7.3015
# 3 37.9363 49.9172 94.6691 12.0138 14.9079 5.7446
# 4 -9.5489 -10.0813 12.0138 34.3990 -5.7253 6.5281
# 5 8.9023 1.5776 14.9079 -5.7253 33.9391 -7.2120
# 6 -8.3293 -7.3015 5.7446 6.5281 -7.2120 33.7350
#
#
#
# Elastic Compliance Matrix: (Units=1/GPa)
#
#
# Indices 1 2 3 4 5 6 
#
# 1 0.021305 -0.004692 -0.007042 0.006147 -0.000352 0.004179
# 2 -0.004692 0.016656 -0.009062 0.007062 0.006480 0.004009
# 3 -0.007042 -0.009062 0.021973 -0.012736 -0.011093 -0.007349
# 4 0.006147 0.007062 -0.012736 0.039023 0.010204 -0.000155
# 5 -0.000352 0.006480 -0.011093 0.010204 0.037830 0.009317
# 6 0.004179 0.004009 -0.007349 -0.000155 0.009317 0.034816
#
#
# Mechanical properties :
#
#
# Convention : Reuss Voigt Hill
#
# Bulk Modulus (GPa) = 54.51903 59.67275 57.09589
# Shear Modulus (GPa) = 22.79893 29.84988 26.32441
#
# Velocity S-wave (km/s) = 3.33844 3.81995 3.58728
# Velocity P-wave (km/s) = 6.44296 6.97330 6.71337
#
# Compressibility (1/GPa) = 0.01834222
#
# Stress axis : x y z
#
# Youngs Moduli (GPa) = 46.93645 60.03687 45.51123
#
# Poissons Ratio (x) = 0.28167 0.32049
# Poissons Ratio (y) = 0.22021 0.41245
# Poissons Ratio (z) = 0.33053 0.54408
#
# Static dielectric constant tensor:
#      x y z
#    x 1.767900 0.037840 -0.011570 
#    y 0.037840 1.760350 -0.000040 
#    z -0.011570 -0.000040 1.733520 
# 
# From -- ./inp_files/494753.got.cif
#   From: 2010.05.17/outbox.cif.g08.bks.cpg/sg2_248_cif.got.tgz:494753.got - 2010.06.03 11:33:40.
