data_PCOD9029183
_publ_section_title
;
Structure prediction by ZEFSAII (Michael W. Deem and Ramdas Pophale) SiO2 
 PCOD9029183
Probable space group: P -1
;
_chemical_formula_sum "Si O2"
_cell_formula_units_Z 10
_cell_length_a 6.797414
_cell_length_b 21.052666
_cell_length_c 15.701528
_cell_angle_alpha 161.060302
_cell_angle_beta 43.848737
_cell_angle_gamma 139.857935
_cell_volume 470.148216
_symmetry_space_group_name_H-M "P -1"
_symmetry_group_IT_number 2
_symmetry_cell_setting 'triclinic'
loop_
_space_group_symop_operation_xyz
x,y,z
-x,-y,-z
loop_
_atom_site_type_symbol
_atom_site_label
_atom_site_fract_x
_atom_site_fract_y
_atom_site_fract_z
Si Si1 0.305141 0.071388 0.437250
Si Si2 0.691147 0.562762 0.229072
Si Si3 0.358823 0.155108 0.075159
Si Si4 0.341925 0.570085 0.515169
Si Si5 0.363535 0.642869 0.168948
O O1 0.267751 0.246860 0.607775
O O2 0.556706 0.156765 0.542035
O O3 0.000000 0.000000 0.500000
O O4 0.430906 0.931457 0.159686
O O5 0.531096 0.605784 0.415324
O O6 0.003525 0.547921 0.146544
O O7 0.514559 0.356037 0.964108
O O8 0.360972 0.367453 0.299834
O O9 0.524439 0.231745 0.211740
O O10 0.000000 0.000000 0.000000
O O11 0.000000 0.500000 0.500000
O O12 0.500000 0.500000 0.000000
#
# Coordination Sequence:
#
# PCOD9029183 Si02
#       5
#     2   2   2   2   2
#     4  11  25  40  66 101 137 170 220 282 338 396
#     4  10  22  42  66  95 131 176 222 269 337 403
#     4  11  26  47  68  99 142 177 227 287 338 402
#     4  11  26  44  73  97 132 185 231 276 338 406
#     4   9  21  39  64  92 135 169 213 271 336 396
#
# _framework density 21.269887000000001
#
# number of rings (size 3 to 8) (size 9 to 14) (size 15 to 20)
#    0.000    1.600    0.000    2.400   11.200    8.800 
#    0.000    0.000    0.000    0.000    0.000    0.000 
#    0.000    0.000    0.000    0.000    0.000    0.000 
#
# Total GULP energy -55706.597743 kJ/mol
# GULP energy per Si atom -5570.659774 kJ/mol
# Density = 2.122148 g / cm^3
# Si number density = 21.269887 Si / 1000 Ang^3
#
#
#
# Elastic Constant Matrix: (Units=GPa)
#
#
# Indices 1 2 3 4 5 6 
#
# 1 171.5238 58.7918 79.8258 -23.5719 38.1051 10.2038
# 2 58.7918 117.3132 60.3605 -27.2112 25.2775 -10.8072
# 3 79.8258 60.3605 159.7371 -41.6088 39.5866 3.0732
# 4 -23.5719 -27.2112 -41.6088 37.7181 -13.5771 -1.4445
# 5 38.1051 25.2775 39.5866 -13.5771 58.1938 -7.3143
# 6 10.2038 -10.8072 3.0732 -1.4445 -7.3143 34.2310
#
#
#
# Elastic Compliance Matrix: (Units=1/GPa)
#
#
# Indices 1 2 3 4 5 6 
#
# 1 0.008990 -0.002972 -0.002642 -0.000869 -0.003526 -0.004171
# 2 -0.002972 0.012828 -0.002000 0.005255 -0.000378 0.005257
# 3 -0.002642 -0.002000 0.011308 0.008126 -0.003352 -0.001233
# 4 -0.000869 0.005255 0.008126 0.039739 0.002456 0.003391
# 5 -0.003526 -0.000378 -0.003352 0.002456 0.023304 0.006316
# 6 -0.004171 0.005257 -0.001233 0.003391 0.006316 0.033719
#
#
# Mechanical properties :
#
#
# Convention : Reuss Voigt Hill
#
# Bulk Modulus (GPa) = 55.87806 94.05893 74.96849
# Shear Modulus (GPa) = 33.09435 42.66829 37.88132
#
# Velocity S-wave (km/s) = 3.94880 4.48375 4.22475
# Velocity P-wave (km/s) = 6.86431 8.43344 7.68901
#
# Compressibility (1/GPa) = 0.01789611
#
# Stress axis : x y z
#
# Youngs Moduli (GPa) = 111.22939 77.95596 88.43579
#
# Poissons Ratio (x) = 0.23172 0.23365
# Poissons Ratio (y) = 0.33062 0.17691
# Poissons Ratio (z) = 0.29388 0.15594
#
# Static dielectric constant tensor:
#      x y z
#    x 1.764330 0.014650 0.052550 
#    y 0.014650 1.789100 0.036110 
#    z 0.052550 0.036110 1.878640 
# 
# From -- ./inp_files/20628.got.cif
#   From: 2010.05.17/outbox.cif.g08.bks.cpg/sg2_11_cif.got.tgz:20628.got - 2010.06.03 11:33:40.
