data_PCOD9029913
_publ_section_title
;
Structure prediction by ZEFSAII (Michael W. Deem and Ramdas Pophale) SiO2 
 PCOD9029913
Probable space group: P -1
;
_chemical_formula_sum "Si O2"
_cell_formula_units_Z 16
_cell_length_a 8.808234
_cell_length_b 5.727944
_cell_length_c 14.380163
_cell_angle_alpha 113.741154
_cell_angle_beta 117.337613
_cell_angle_gamma 86.075996
_cell_volume 583.871107
_symmetry_space_group_name_H-M "P -1"
_symmetry_group_IT_number 2
_symmetry_cell_setting 'triclinic'
loop_
_space_group_symop_operation_xyz
x,y,z
-x,-y,-z
loop_
_atom_site_type_symbol
_atom_site_label
_atom_site_fract_x
_atom_site_fract_y
_atom_site_fract_z
Si Si1 0.290486 0.430659 0.732617
Si Si2 0.130138 0.169533 0.937118
Si Si3 0.368577 0.191059 0.161992
Si Si4 0.445339 0.214845 0.902124
Si Si5 0.541596 0.788809 0.595616
Si Si6 0.164721 0.712792 0.419757
Si Si7 0.008567 0.575843 0.825178
Si Si8 0.835409 0.772699 0.535465
O O1 0.456089 0.646647 0.800466
O O2 0.362880 0.209108 0.776139
O O3 0.151944 0.527565 0.778481
O O4 0.235609 0.350779 0.600643
O O5 0.292362 0.108838 0.911088
O O6 0.050638 0.391407 0.893162
O O7 0.018278 0.888676 0.878322
O O8 0.210662 0.281654 0.076154
O O9 0.390167 0.182168 0.276579
O O10 0.381166 0.908050 0.080192
O O11 0.500000 0.500000 0.000000
O O12 0.500000 0.500000 0.500000
O O13 0.347438 0.851112 0.536292
O O14 0.698452 0.880078 0.584943
O O15 0.104961 0.469595 0.432497
O O16 0.164796 0.567811 0.297262
O O17 0.053650 0.949876 0.412236
#
# Coordination Sequence:
#
# PCOD9029913 Si02
#       8
#     2   2   2   2   2   2   2   2
#     4  11  22  35  62  96 133 166 210 261 333 384
#     4  11  23  39  61  92 132 170 212 259 320 391
#     4  12  20  39  64  95 132 165 218 277 323 371
#     4  11  21  34  57  93 134 173 205 265 326 383
#     4  10  22  42  68  99 122 167 224 279 326 361
#     4  11  23  43  65  90 133 170 213 265 324 391
#     4  11  25  41  62  94 134 177 206 251 328 410
#     4  11  24  43  66  97 124 166 223 276 320 368
#
# _framework density 27.403307000000002
#
# number of rings (size 3 to 8) (size 9 to 14) (size 15 to 20)
#    0.000    1.000    5.000    3.750    0.000    1.000 
#    0.000    0.000    0.000   10.500    0.000    0.000 
#    0.000    0.000    0.000    0.000    0.000    0.000 
#
# Total GULP energy -89386.291992 kJ/mol
# GULP energy per Si atom -5586.643250 kJ/mol
# Density = 2.734094 g / cm^3
# Si number density = 27.403307 Si / 1000 Ang^3
#
#
#
# Elastic Constant Matrix: (Units=GPa)
#
#
# Indices 1 2 3 4 5 6 
#
# 1 90.9588 36.6081 32.6490 -9.1208 -1.1014 3.3716
# 2 36.6081 200.0842 88.6438 -18.4458 -8.4729 1.5210
# 3 32.6490 88.6438 218.6374 -43.8786 -7.3948 7.8785
# 4 -9.1208 -18.4458 -43.8786 65.2967 5.3032 2.6192
# 5 -1.1014 -8.4729 -7.3948 5.3032 33.4107 -6.1048
# 6 3.3716 1.5210 7.8785 2.6192 -6.1048 37.5678
#
#
#
# Elastic Compliance Matrix: (Units=1/GPa)
#
#
# Indices 1 2 3 4 5 6 
#
# 1 0.012136 -0.001753 -0.000957 0.000638 -0.000531 -0.000948
# 2 -0.001753 0.006386 -0.002335 -0.000129 0.001173 0.000588
# 3 -0.000957 -0.002335 0.006434 0.003590 -0.000030 -0.001424
# 4 0.000638 -0.000129 0.003590 0.018086 -0.002541 -0.002479
# 5 -0.000531 0.001173 -0.000030 -0.002541 0.031578 0.005315
# 6 -0.000948 0.000588 -0.001424 -0.002479 0.005315 0.028015
#
#
# Mechanical properties :
#
#
# Convention : Reuss Voigt Hill
#
# Bulk Modulus (GPa) = 67.26615 91.72023 79.49319
# Shear Modulus (GPa) = 42.48796 50.70702 46.59749
#
# Velocity S-wave (km/s) = 3.94187 4.30629 4.12810
# Velocity P-wave (km/s) = 6.73185 7.63339 7.19675
#
# Compressibility (1/GPa) = 0.01486632
#
# Stress axis : x y z
#
# Youngs Moduli (GPa) = 82.40138 156.58428 155.42060
#
# Poissons Ratio (x) = 0.27445 0.14880
# Poissons Ratio (y) = 0.14443 0.36288
# Poissons Ratio (z) = 0.07889 0.36560
#
# Static dielectric constant tensor:
#      x y z
#    x 2.555300 0.298360 0.176520 
#    y 0.298360 2.930120 0.213280 
#    z 0.176520 0.213280 2.200700 
# 
# From -- ./inp_files/511175.got.cif
#   From: 2010.05.17/outbox.cif.g08.bks.cpg/sg2_256_cif.got.tgz:511175.got - 2010.06.03 11:33:40.
