data_PCOD9029214
_publ_section_title
;
Structure prediction by ZEFSAII (Michael W. Deem and Ramdas Pophale) SiO2 
 PCOD9029214
Probable space group: P -1
;
_chemical_formula_sum "Si O2"
_cell_formula_units_Z 13
_cell_length_a 14.386002
_cell_length_b 8.938796
_cell_length_c 8.578233
_cell_angle_alpha 53.390638
_cell_angle_beta 41.988472
_cell_angle_gamma 76.068471
_cell_volume 548.642503
_symmetry_space_group_name_H-M "P -1"
_symmetry_group_IT_number 2
_symmetry_cell_setting 'triclinic'
loop_
_space_group_symop_operation_xyz
x,y,z
-x,-y,-z
loop_
_atom_site_type_symbol
_atom_site_label
_atom_site_fract_x
_atom_site_fract_y
_atom_site_fract_z
Si Si1 0.110805 0.983805 0.007284
Si Si2 0.827384 0.887331 0.833589
Si Si3 0.735057 0.219534 0.258890
Si Si4 0.500000 0.000000 0.500000
Si Si5 0.666685 0.152488 0.732529
Si Si6 0.140417 0.380327 0.294488
Si Si7 0.380829 0.603618 0.105582
O O1 0.014345 0.785415 0.350138
O O2 0.170011 0.154784 0.958934
O O3 0.250085 0.953457 0.767737
O O4 0.000000 0.000000 0.000000
O O5 0.776476 0.712757 0.875876
O O6 0.745397 0.039731 0.812444
O O7 0.000000 0.000000 0.500000
O O8 0.567659 0.186257 0.436953
O O9 0.750777 0.191369 0.437262
O O10 0.861038 0.425651 0.915701
O O11 0.556180 0.174787 0.186436
O O12 0.661216 0.351014 0.696842
O O13 0.500000 0.000000 0.000000
O O14 0.236918 0.464008 0.275790
O O15 0.500000 0.500000 0.000000
#
# Coordination Sequence:
#
# PCOD9029214 Si02
#       7
#     2   2   2   1   2   2   2
#     4  11  24  42  71  96 136 187 227 287 355 416
#     4  10  22  44  70  98 140 180 232 287 350 422
#     4  11  23  42  66  96 140 175 232 284 347 417
#     4  10  22  42  66  96 134 186 220 288 350 408
#     4  12  24  44  69 102 138 188 231 286 357 421
#     4  10  23  43  63 105 131 181 234 287 341 424
#     4  11  24  44  70 100 145 183 241 295 351 427
#
# _framework density 23.694845999999998
#
# number of rings (size 3 to 8) (size 9 to 14) (size 15 to 20)
#    0.000    1.231    1.538    5.077    2.154    2.462 
#    2.769    6.923    0.000    0.000    0.000    0.000 
#    0.000    0.000    0.000    0.000    0.000    0.000 
#
# Total GULP energy -72408.204963 kJ/mol
# GULP energy per Si atom -5569.861920 kJ/mol
# Density = 2.364092 g / cm^3
# Si number density = 23.694846 Si / 1000 Ang^3
#
#
#
# Elastic Constant Matrix: (Units=GPa)
#
#
# Indices 1 2 3 4 5 6 
#
# 1 104.6594 33.8512 18.7140 10.8270 12.9814 25.3535
# 2 33.8512 137.6272 19.7629 31.4542 9.5390 35.6551
# 3 18.7140 19.7629 74.6372 -1.3983 4.4337 13.4405
# 4 10.8270 31.4542 -1.3983 36.6186 10.1119 4.3713
# 5 12.9814 9.5390 4.4337 10.1119 36.0910 6.9105
# 6 25.3535 35.6551 13.4405 4.3713 6.9105 48.6541
#
#
#
# Elastic Compliance Matrix: (Units=1/GPa)
#
#
# Indices 1 2 3 4 5 6 
#
# 1 0.011717 -0.000972 -0.001765 -0.001485 -0.002478 -0.004420
# 2 -0.000972 0.011564 -0.001848 -0.009297 0.001432 -0.006826
# 3 -0.001765 -0.001848 0.014813 0.003247 -0.001236 -0.001934
# 4 -0.001485 -0.009297 0.003247 0.037760 -0.008860 0.004556
# 5 -0.002478 0.001432 -0.001236 -0.008860 0.031446 -0.003087
# 6 -0.004420 -0.006826 -0.001934 0.004556 -0.003087 0.028422
#
#
# Mechanical properties :
#
#
# Convention : Reuss Voigt Hill
#
# Bulk Modulus (GPa) = 34.57529 51.28666 42.93098
# Shear Modulus (GPa) = 32.35541 40.57912 36.46727
#
# Velocity S-wave (km/s) = 3.69928 4.14281 3.92731
# Velocity P-wave (km/s) = 5.73322 6.67649 6.22275
#
# Compressibility (1/GPa) = 0.02892239
#
# Stress axis : x y z
#
# Youngs Moduli (GPa) = 85.34936 86.47153 67.51000
#
# Poissons Ratio (x) = 0.08407 0.11915
# Poissons Ratio (y) = 0.08298 0.12479
# Poissons Ratio (z) = 0.15064 0.15984
#
# Static dielectric constant tensor:
#      x y z
#    x 1.840320 0.067160 0.117750 
#    y 0.067160 2.060570 -0.002920 
#    z 0.117750 -0.002920 1.844160 
# 
# From -- ./inp_files/155909.got.cif
#   From: 2010.05.17/outbox.cif.g08.bks.cpg/sg2_78_cif.got.tgz:155909.got - 2010.06.03 11:33:40.
