data_PCOD9029617
_publ_section_title
;
Structure prediction by ZEFSAII (Michael W. Deem and Ramdas Pophale) SiO2 
 PCOD9029617
Probable space group: P -1
;
_chemical_formula_sum "Si O2"
_cell_formula_units_Z 12
_cell_length_a 5.029908
_cell_length_b 9.800661
_cell_length_c 9.567335
_cell_angle_alpha 88.388691
_cell_angle_beta 111.603812
_cell_angle_gamma 83.213037
_cell_volume 434.118553
_symmetry_space_group_name_H-M "P -1"
_symmetry_group_IT_number 2
_symmetry_cell_setting 'triclinic'
loop_
_space_group_symop_operation_xyz
x,y,z
-x,-y,-z
loop_
_atom_site_type_symbol
_atom_site_label
_atom_site_fract_x
_atom_site_fract_y
_atom_site_fract_z
Si Si1 0.508700 0.695685 0.367916
Si Si2 0.693994 0.590591 0.945591
Si Si3 0.374878 0.016489 0.695254
Si Si4 0.727480 0.391795 0.386040
Si Si5 0.632890 0.190676 0.947839
Si Si6 0.926468 0.839020 0.715172
O O1 0.442176 0.384368 0.234940
O O2 0.647457 0.837806 0.392628
O O3 0.729886 0.556221 0.391480
O O4 0.325628 0.667908 0.469306
O O5 0.673521 0.278114 0.811868
O O6 0.634815 0.731857 0.017304
O O7 0.000000 0.500000 0.000000
O O8 0.078311 0.961053 0.669840
O O9 0.463207 0.946186 0.133019
O O10 0.595361 0.898350 0.670228
O O11 0.972615 0.301627 0.345129
O O12 0.500000 0.500000 0.000000
O O13 0.904519 0.178972 0.102824
#
# Coordination Sequence:
#
# PCOD9029617 Si02
#       6
#     2   2   2   2   2   2
#     4   9  21  44  67  96 139 173 221 264 341 385
#     4  11  22  40  66  94 129 165 217 268 322 379
#     4  10  23  42  67  98 128 179 212 276 320 397
#     4  10  22  42  68 100 133 177 216 278 322 400
#     4   9  21  39  67  95 130 173 218 270 324 388
#     4  11  23  41  70  94 135 165 232 263 329 378
#
# _framework density 27.642215
#
# number of rings (size 3 to 8) (size 9 to 14) (size 15 to 20)
#    1.000    1.000    1.667    1.000    0.000    9.333 
#    0.000    2.500    0.000    0.000    0.000    0.000 
#    0.000    0.000    0.000    0.000    0.000    0.000 
#
# Total GULP energy -67310.788643 kJ/mol
# GULP energy per Si atom -5609.232387 kJ/mol
# Density = 2.757930 g / cm^3
# Si number density = 27.642215 Si / 1000 Ang^3
#
#
#
# Elastic Constant Matrix: (Units=GPa)
#
#
# Indices 1 2 3 4 5 6 
#
# 1 115.9507 34.0420 15.4699 -18.0144 -17.1882 -10.3196
# 2 34.0420 176.7791 34.6812 7.9203 -16.0689 10.6437
# 3 15.4699 34.6812 169.1303 -10.5086 -18.7592 7.6293
# 4 -18.0144 7.9203 -10.5086 70.6338 3.2684 -7.7857
# 5 -17.1882 -16.0689 -18.7592 3.2684 39.4321 -12.5668
# 6 -10.3196 10.6437 7.6293 -7.7857 -12.5668 50.3267
#
#
#
# Elastic Compliance Matrix: (Units=1/GPa)
#
#
# Indices 1 2 3 4 5 6 
#
# 1 0.010874 -0.002045 -0.000013 0.003255 0.005041 0.004427
# 2 -0.002045 0.006514 -0.001080 -0.001637 0.000851 -0.001674
# 3 -0.000013 -0.001080 0.006479 0.000967 0.002567 0.000034
# 4 0.003255 -0.001637 0.000967 0.015658 0.001045 0.003551
# 5 0.005041 0.000851 0.002567 0.001045 0.031766 0.008558
# 6 0.004427 -0.001674 0.000034 0.003551 0.008558 0.023813
#
#
# Mechanical properties :
#
#
# Convention : Reuss Voigt Hill
#
# Bulk Modulus (GPa) = 56.85835 70.02737 63.44286
# Shear Modulus (GPa) = 46.62238 57.25633 51.93935
#
# Velocity S-wave (km/s) = 4.11132 4.55613 4.33943
# Velocity P-wave (km/s) = 6.56897 7.28466 6.93605
#
# Compressibility (1/GPa) = 0.01758757
#
# Stress axis : x y z
#
# Youngs Moduli (GPa) = 91.96587 153.51273 154.35467
#
# Poissons Ratio (x) = 0.31400 0.00208
# Poissons Ratio (y) = 0.18811 0.16677
# Poissons Ratio (z) = 0.00124 0.16586
#
# Static dielectric constant tensor:
#      x y z
#    x 2.088670 0.049400 0.039240 
#    y 0.049400 2.080460 -0.021460 
#    z 0.039240 -0.021460 2.217200 
# 
# From -- ./inp_files/360864.got.cif
#   From: 2010.05.17/outbox.cif.g08.bks.cpg/sg2_181_cif.got.tgz:360864.got - 2010.06.03 11:33:40.
