data_PCOD9029301
_publ_section_title
;
Structure prediction by ZEFSAII (Michael W. Deem and Ramdas Pophale) SiO2 
 PCOD9029301
Probable space group: P -1
;
_chemical_formula_sum "Si O2"
_cell_formula_units_Z 14
_cell_length_a 11.643421
_cell_length_b 11.163868
_cell_length_c 5.325533
_cell_angle_alpha 80.047288
_cell_angle_beta 122.834640
_cell_angle_gamma 112.961181
_cell_volume 534.894811
_symmetry_space_group_name_H-M "P -1"
_symmetry_group_IT_number 2
_symmetry_cell_setting 'triclinic'
loop_
_space_group_symop_operation_xyz
x,y,z
-x,-y,-z
loop_
_atom_site_type_symbol
_atom_site_label
_atom_site_fract_x
_atom_site_fract_y
_atom_site_fract_z
Si Si1 0.206049 0.028401 0.796277
Si Si2 0.978182 0.108312 0.761470
Si Si3 0.514519 0.084155 0.235483
Si Si4 0.600153 0.647912 0.625949
Si Si5 0.233619 0.367893 0.651573
Si Si6 0.316078 0.662041 0.462362
Si Si7 0.931140 0.263995 0.060288
O O1 0.160356 0.887763 0.930893
O O2 0.181310 0.972288 0.507287
O O3 0.098658 0.108178 0.694189
O O4 0.365633 0.114254 0.032273
O O5 0.996376 0.240042 0.878062
O O6 0.000000 0.000000 0.000000
O O7 0.653393 0.216994 0.356181
O O8 0.500000 0.000000 0.500000
O O9 0.500000 0.000000 0.000000
O O10 0.500000 0.500000 0.500000
O O11 0.701524 0.691641 0.483998
O O12 0.470662 0.705514 0.480931
O O13 0.694500 0.648303 0.989629
O O14 0.289781 0.525224 0.613681
O O15 0.059574 0.323855 0.392076
O O16 0.177687 0.658240 0.132968
#
# Coordination Sequence:
#
# PCOD9029301 Si02
#       7
#     2   2   2   2   2   2   2
#     4  10  22  42  67 100 137 190 239 291 352 421
#     4   9  21  40  66  96 139 185 233 293 347 423
#     4  12  27  45  70 103 142 186 236 292 360 417
#     4  10  24  49  72 104 143 191 241 287 353 431
#     4  11  26  47  74 107 142 193 238 291 360 432
#     4  11  24  47  72 104 146 187 237 303 354 424
#     4  11  23  43  70 105 145 178 241 295 362 418
#
# _framework density 26.173372000000001
#
# number of rings (size 3 to 8) (size 9 to 14) (size 15 to 20)
#    0.000    1.429    1.429    3.000    6.000    5.714 
#    7.714    3.571    0.000    0.000    0.000    0.000 
#    0.000    0.000    0.000    0.000    0.000    0.000 
#
# Total GULP energy -78230.098256 kJ/mol
# GULP energy per Si atom -5587.864161 kJ/mol
# Density = 2.611380 g / cm^3
# Si number density = 26.173372 Si / 1000 Ang^3
#
#
#
# Elastic Constant Matrix: (Units=GPa)
#
#
# Indices 1 2 3 4 5 6 
#
# 1 84.0648 23.3078 81.5452 -10.2375 3.8392 -6.1746
# 2 23.3078 91.0348 43.8843 -0.4204 -0.1545 -12.7385
# 3 81.5452 43.8843 226.0835 1.6662 5.4249 -6.2028
# 4 -10.2375 -0.4204 1.6662 52.9290 2.1155 7.7559
# 5 3.8392 -0.1545 5.4249 2.1155 51.1121 0.9845
# 6 -6.1746 -12.7385 -6.2028 7.7559 0.9845 34.8067
#
#
#
# Elastic Compliance Matrix: (Units=1/GPa)
#
#
# Indices 1 2 3 4 5 6 
#
# 1 0.019376 -0.001620 -0.006658 0.003861 -0.000929 0.000824
# 2 -0.001620 0.012859 -0.001796 -0.000792 0.000302 0.004267
# 3 -0.006658 -0.001796 0.007183 -0.001488 -0.000202 -0.000221
# 4 0.003861 -0.000792 -0.001488 0.020358 -0.000893 -0.004381
# 5 -0.000929 0.000302 -0.000202 -0.000893 0.019703 -0.000449
# 6 0.000824 0.004267 -0.000221 -0.004381 -0.000449 0.031387
#
#
# Mechanical properties :
#
#
# Convention : Reuss Voigt Hill
#
# Bulk Modulus (GPa) = 51.89245 77.62865 64.76055
# Shear Modulus (GPa) = 36.38012 44.59929 40.48971
#
# Velocity S-wave (km/s) = 3.73227 4.13243 3.93743
# Velocity P-wave (km/s) = 6.20021 7.24521 6.74298
#
# Compressibility (1/GPa) = 0.01927063
#
# Stress axis : x y z
#
# Youngs Moduli (GPa) = 51.60985 77.76470 139.21921
#
# Poissons Ratio (x) = 0.12597 0.92690
# Poissons Ratio (y) = 0.08360 0.25006
# Poissons Ratio (z) = 0.34361 0.13968
#
# Static dielectric constant tensor:
#      x y z
#    x 2.442390 0.104890 -0.123680 
#    y 0.104890 2.158630 -0.064920 
#    z -0.123680 -0.064920 2.167340 
# 
# From -- ./inp_files/70931.got.cif
#   From: 2010.05.17/outbox.cif.g08.bks.cpg/sg2_36_cif.got.tgz:70931.got - 2010.06.03 11:33:40.
