data_PCOD9029927
_publ_section_title
;
Structure prediction by ZEFSAII (Michael W. Deem and Ramdas Pophale) SiO2 
 PCOD9029927
Probable space group: P -1
;
_chemical_formula_sum "Si O2"
_cell_formula_units_Z 16
_cell_length_a 5.579272
_cell_length_b 9.874210
_cell_length_c 13.228548
_cell_angle_alpha 92.566928
_cell_angle_beta 100.904741
_cell_angle_gamma 57.098006
_cell_volume 599.342191
_symmetry_space_group_name_H-M "P -1"
_symmetry_group_IT_number 2
_symmetry_cell_setting 'triclinic'
loop_
_space_group_symop_operation_xyz
x,y,z
-x,-y,-z
loop_
_atom_site_type_symbol
_atom_site_label
_atom_site_fract_x
_atom_site_fract_y
_atom_site_fract_z
Si Si1 0.709920 0.341422 0.446827
Si Si2 0.091461 0.614965 0.847510
Si Si3 0.345840 0.415058 0.684097
Si Si4 0.159946 0.836584 0.191866
Si Si5 0.608777 0.812986 0.644346
Si Si6 0.791188 0.132660 0.071901
Si Si7 0.269488 0.275042 0.910345
Si Si8 0.256880 0.169803 0.581379
O O1 0.500000 0.500000 0.500000
O O2 0.834703 0.426855 0.393396
O O3 0.556929 0.279180 0.363428
O O4 0.959526 0.192486 0.522446
O O5 0.357273 0.501934 0.788559
O O6 0.171828 0.717780 0.925073
O O7 0.085873 0.470109 0.895871
O O8 0.834440 0.730876 0.753363
O O9 0.679446 0.264435 0.697668
O O10 0.183607 0.322624 0.649345
O O11 0.450605 0.793449 0.147595
O O12 0.947736 0.781364 0.133330
O O13 0.936910 0.030150 0.182035
O O14 0.624509 0.816349 0.519047
O O15 0.453009 0.005383 0.651616
O O16 0.454770 0.198634 0.025983
O O17 0.000000 0.000000 0.000000
#
# Coordination Sequence:
#
# PCOD9029927 Si02
#       8
#     2   2   2   2   2   2   2   2
#     4  12  22  39  64  94 127 181 226 273 328 394
#     4  11  22  42  68  97 134 174 225 287 334 410
#     4  11  22  41  62  96 130 175 226 272 335 395
#     4  10  22  42  68  99 136 174 224 282 337 413
#     4  11  23  40  63  91 130 172 221 272 333 389
#     4  10  22  44  70 100 134 177 220 280 354 415
#     4  10  22  43  69  98 134 174 225 278 349 412
#     4  11  23  41  61  89 133 174 218 275 329 394
#
# _framework density 26.695934000000001
#
# number of rings (size 3 to 8) (size 9 to 14) (size 15 to 20)
#    0.000    1.250    2.500    3.750    0.000    1.000 
#    0.000   22.500    0.000    0.000    0.000    0.000 
#    0.000    0.000    0.000    0.000    0.000    0.000 
#
# Total GULP energy -89099.775287 kJ/mol
# GULP energy per Si atom -5568.735955 kJ/mol
# Density = 2.663517 g / cm^3
# Si number density = 26.695934 Si / 1000 Ang^3
#
#
#
# Elastic Constant Matrix: (Units=GPa)
#
#
# Indices 1 2 3 4 5 6 
#
# 1 73.5619 14.1258 28.2869 6.6729 18.6835 15.6313
# 2 14.1258 120.8383 19.0768 -13.4494 3.5534 24.4875
# 3 28.2869 19.0768 77.3424 -21.0195 25.1762 -9.6002
# 4 6.6729 -13.4494 -21.0195 76.5623 -5.8993 12.3959
# 5 18.6835 3.5534 25.1762 -5.8993 54.3202 4.1870
# 6 15.6313 24.4875 -9.6002 12.3959 4.1870 27.4451
#
#
#
# Elastic Compliance Matrix: (Units=1/GPa)
#
#
# Indices 1 2 3 4 5 6 
#
# 1 0.021294 0.002473 -0.010473 -0.001656 -0.001500 -0.017021
# 2 0.002473 0.012613 -0.006118 0.003239 0.002798 -0.016692
# 3 -0.010473 -0.006118 0.024220 0.002592 -0.008485 0.020019
# 4 -0.001656 0.003239 0.002592 0.015981 0.001547 -0.008493
# 5 -0.001500 0.002798 -0.008485 0.001547 0.023529 -0.008898
# 6 -0.017021 -0.016692 0.020019 -0.008493 -0.008898 0.073220
#
#
# Mechanical properties :
#
#
# Convention : Reuss Voigt Hill
#
# Bulk Modulus (GPa) = 33.45396 43.85796 38.65596
# Shear Modulus (GPa) = 23.91702 45.68240 34.79971
#
# Velocity S-wave (km/s) = 2.99641 4.14117 3.61440
# Velocity P-wave (km/s) = 4.95278 6.27137 5.65067
#
# Compressibility (1/GPa) = 0.02989183
#
# Stress axis : x y z
#
# Youngs Moduli (GPa) = 46.96107 79.28277 41.28785
#
# Poissons Ratio (x) = -0.19607 0.43239
# Poissons Ratio (y) = -0.11614 0.25261
# Poissons Ratio (z) = 0.49181 0.48507
#
# Static dielectric constant tensor:
#      x y z
#    x 1.938710 0.137840 -0.142740 
#    y 0.137840 1.971710 -0.132800 
#    z -0.142740 -0.132800 2.288170 
# 
# From -- ./inp_files/89812.got.cif
#   From: 2010.05.17/outbox.cif.g08.bks.cpg/sg2_45_cif.got.tgz:89812.got - 2010.06.03 11:33:40.
