data_PCOD9029764
_publ_section_title
;
Structure prediction by ZEFSAII (Michael W. Deem and Ramdas Pophale) SiO2 
 PCOD9029764
Probable space group: P -1
;
_chemical_formula_sum "Si O2"
_cell_formula_units_Z 16
_cell_length_a 16.015620
_cell_length_b 10.183238
_cell_length_c 16.586544
_cell_angle_alpha 147.410398
_cell_angle_beta 34.712624
_cell_angle_gamma 142.111905
_cell_volume 787.475382
_symmetry_space_group_name_H-M "P -1"
_symmetry_group_IT_number 2
_symmetry_cell_setting 'triclinic'
loop_
_space_group_symop_operation_xyz
x,y,z
-x,-y,-z
loop_
_atom_site_type_symbol
_atom_site_label
_atom_site_fract_x
_atom_site_fract_y
_atom_site_fract_z
Si Si1 0.377760 0.048191 0.059186
Si Si2 0.047083 0.400766 0.191266
Si Si3 0.696384 0.836980 0.520840
Si Si4 0.460465 0.558897 0.154459
Si Si5 0.150715 0.931537 0.317267
Si Si6 0.238583 0.003507 0.841221
Si Si7 0.853742 0.341323 0.583318
Si Si8 0.339148 0.743876 0.771418
O O1 0.229226 0.042354 0.228031
O O2 0.449790 0.315508 0.092967
O O3 0.336392 0.831745 0.910863
O O4 0.500000 0.000000 0.000000
O O5 0.101743 0.621520 0.194649
O O6 0.103829 0.554260 0.306732
O O7 0.139780 0.197285 0.010487
O O8 0.863839 0.248581 0.256000
O O9 0.518171 0.819441 0.639103
O O10 0.719965 0.561322 0.351849
O O11 0.731106 0.945983 0.640505
O O12 0.805637 0.035471 0.474107
O O13 0.588059 0.814482 0.219120
O O14 0.294953 0.597328 0.300069
O O15 0.500000 0.500000 0.000000
O O16 0.000000 0.000000 0.500000
O O17 0.250675 0.893607 0.864025
O O18 0.000000 0.500000 0.500000
#
# Coordination Sequence:
#
# PCOD9029764 Si02
#       8
#     2   2   2   2   2   2   2   2
#     4  12  24  41  69 105 130 178 236 281 332 413
#     4  10  23  42  67  95 134 177 220 282 347 400
#     4  10  22  42  68  93 136 183 219 283 347 400
#     4  12  22  43  72  96 132 181 227 275 342 409
#     4  11  24  44  66  95 139 179 220 281 352 404
#     4  11  21  42  69  97 129 177 226 280 341 404
#     4  11  23  43  66  96 134 176 223 274 338 411
#     4  11  21  42  69  99 132 177 233 282 341 407
#
# _framework density 20.318096000000001
#
# number of rings (size 3 to 8) (size 9 to 14) (size 15 to 20)
#    0.000    1.000    5.000    1.500    3.500    0.000 
#    6.750    1.875    0.000    0.000    0.000    0.000 
#    0.000    0.000    0.000    0.000    0.000    0.000 
#
# Total GULP energy -89309.079543 kJ/mol
# GULP energy per Si atom -5581.817471 kJ/mol
# Density = 2.027185 g / cm^3
# Si number density = 20.318096 Si / 1000 Ang^3
#
#
#
# Elastic Constant Matrix: (Units=GPa)
#
#
# Indices 1 2 3 4 5 6 
#
# 1 95.7810 56.3157 20.9063 7.0628 -11.7180 3.1187
# 2 56.3157 166.8446 47.1246 8.6852 -3.1026 -1.9377
# 3 20.9063 47.1246 56.7685 1.0038 -5.9673 -4.7043
# 4 7.0628 8.6852 1.0038 36.3427 8.0188 -1.1217
# 5 -11.7180 -3.1026 -5.9673 8.0188 21.4335 -0.3352
# 6 3.1187 -1.9377 -4.7043 -1.1217 -0.3352 45.1652
#
#
#
# Elastic Compliance Matrix: (Units=1/GPa)
#
#
# Indices 1 2 3 4 5 6 
#
# 1 0.014516 -0.004304 -0.000934 -0.003661 0.008402 -0.001313
# 2 -0.004304 0.009218 -0.006323 -0.000631 -0.002543 0.000000
# 3 -0.000934 -0.006323 0.023960 -0.000068 0.005307 0.002326
# 4 -0.003661 -0.000631 -0.000068 0.031468 -0.013871 0.000897
# 5 0.008402 -0.002543 0.005307 -0.013871 0.057547 -0.000054
# 6 -0.001313 0.000000 0.002326 0.000897 -0.000054 0.022496
#
#
# Mechanical properties :
#
#
# Convention : Reuss Voigt Hill
#
# Bulk Modulus (GPa) = 40.69711 63.12081 51.90896
# Shear Modulus (GPa) = 26.24442 33.59144 29.91793
#
# Velocity S-wave (km/s) = 3.59789 4.07046 3.84145
# Velocity P-wave (km/s) = 6.11009 7.29557 6.72899
#
# Compressibility (1/GPa) = 0.02457177
#
# Stress axis : x y z
#
# Youngs Moduli (GPa) = 68.89142 108.48490 41.73637
#
# Poissons Ratio (x) = 0.46695 0.03896
# Poissons Ratio (y) = 0.29653 0.26390
# Poissons Ratio (z) = 0.06431 0.68595
#
# Static dielectric constant tensor:
#      x y z
#    x 1.736230 -0.005550 -0.038910 
#    y -0.005550 1.825780 0.014210 
#    z -0.038910 0.014210 1.722790 
# 
# From -- ./inp_files/530218.got.cif
#   From: 2010.05.17/outbox.cif.g08.bks.cpg/sg2_266_cif.got.tgz:530218.got - 2010.06.03 11:33:40.
