data_PCOD9029458
_publ_section_title
;
Structure prediction by ZEFSAII (Michael W. Deem and Ramdas Pophale) SiO2 
 PCOD9029458
Probable space group: P -1
;
_chemical_formula_sum "Si O2"
_cell_formula_units_Z 14
_cell_length_a 11.576384
_cell_length_b 13.722078
_cell_length_c 4.855676
_cell_angle_alpha 103.288055
_cell_angle_beta 74.921810
_cell_angle_gamma 53.726091
_cell_volume 522.406194
_symmetry_space_group_name_H-M "P -1"
_symmetry_group_IT_number 2
_symmetry_cell_setting 'triclinic'
loop_
_space_group_symop_operation_xyz
x,y,z
-x,-y,-z
loop_
_atom_site_type_symbol
_atom_site_label
_atom_site_fract_x
_atom_site_fract_y
_atom_site_fract_z
Si Si1 0.864803 0.031178 0.406281
Si Si2 0.531526 0.128616 0.654630
Si Si3 0.828818 0.834115 0.194616
Si Si4 0.685360 0.447867 0.028797
Si Si5 0.923034 0.458095 0.209832
Si Si6 0.301538 0.250802 0.374358
Si Si7 0.686701 0.311077 0.445215
O O1 0.677402 0.114138 0.683689
O O2 0.812208 0.145642 0.291126
O O3 0.923671 0.884908 0.194606
O O4 0.000000 0.000000 0.500000
O O5 0.404006 0.234159 0.565054
O O6 0.647741 0.980340 0.330924
O O7 0.427196 0.153271 0.992879
O O8 0.932310 0.695982 0.861757
O O9 0.792263 0.790961 0.465808
O O10 0.675197 0.356006 0.171738
O O11 0.500330 0.601370 0.268695
O O12 0.734291 0.378354 0.653612
O O13 0.817639 0.445208 0.075116
O O14 0.193995 0.408386 0.437493
O O15 0.000000 0.500000 0.000000
#
# Coordination Sequence:
#
# PCOD9029458 Si02
#       7
#     2   2   2   2   2   2   2
#     4  10  22  42  67  99 140 179 225 275 346 404
#     4  10  24  42  72  95 135 176 226 280 332 400
#     4   9  22  43  68 102 137 177 219 285 338 400
#     4  10  22  42  68  95 134 170 231 273 336 393
#     4  10  22  43  70 101 140 176 222 280 343 398
#     4  11  22  46  70 100 131 178 231 275 333 405
#     4  10  22  42  67  95 128 181 223 280 324 402
#
# _framework density 26.79907
#
# number of rings (size 3 to 8) (size 9 to 14) (size 15 to 20)
#    0.857    1.143    0.000    2.571    0.000    5.714 
#    2.571   17.857    0.000    0.000    0.000    0.000 
#    0.000    0.000    0.000    0.000    0.000    0.000 
#
# Total GULP energy -78261.352014 kJ/mol
# GULP energy per Si atom -5590.096572 kJ/mol
# Density = 2.673807 g / cm^3
# Si number density = 26.799070 Si / 1000 Ang^3
#
#
#
# Elastic Constant Matrix: (Units=GPa)
#
#
# Indices 1 2 3 4 5 6 
#
# 1 158.8938 37.6346 39.5615 12.3847 7.6375 11.6506
# 2 37.6346 191.4670 30.6839 28.0276 7.4955 8.3407
# 3 39.5615 30.6839 79.2451 -4.7052 4.3609 -3.1451
# 4 12.3847 28.0276 -4.7052 34.4335 -0.9461 8.6865
# 5 7.6375 7.4955 4.3609 -0.9461 30.9671 5.7975
# 6 11.6506 8.3407 -3.1451 8.6865 5.7975 35.8638
#
#
#
# Elastic Compliance Matrix: (Units=1/GPa)
#
#
# Indices 1 2 3 4 5 6 
#
# 1 0.007746 -0.000408 -0.003884 -0.002507 -0.000967 -0.001998
# 2 -0.000408 0.006594 -0.002614 -0.005596 -0.001286 -0.000067
# 3 -0.003884 -0.002614 0.016012 0.005138 -0.000915 0.002177
# 4 -0.002507 -0.005596 0.005138 0.037070 0.003694 -0.007009
# 5 -0.000967 -0.001286 -0.000915 0.003694 0.034186 -0.005888
# 6 -0.001998 -0.000067 0.002177 -0.007009 -0.005888 0.031389
#
#
# Mechanical properties :
#
#
# Convention : Reuss Voigt Hill
#
# Bulk Modulus (GPa) = 60.45781 71.70732 66.08256
# Shear Modulus (GPa) = 32.82531 41.70126 37.26328
#
# Velocity S-wave (km/s) = 3.50361 3.94899 3.73295
# Velocity P-wave (km/s) = 6.24305 6.89986 6.57966
#
# Compressibility (1/GPa) = 0.01654046
#
# Stress axis : x y z
#
# Youngs Moduli (GPa) = 129.10630 151.64337 62.45394
#
# Poissons Ratio (x) = 0.06190 0.24255
# Poissons Ratio (y) = 0.05270 0.16324
# Poissons Ratio (z) = 0.50141 0.39636
#
# Static dielectric constant tensor:
#      x y z
#    x 2.174560 -0.026180 -0.020860 
#    y -0.026180 2.127520 0.076890 
#    z -0.020860 0.076890 2.028490 
# 
# From -- ./inp_files/74758.got.cif
#   From: 2010.05.17/outbox.cif.g08.bks.cpg/sg2_38_cif.got.tgz:74758.got - 2010.06.03 11:33:40.
