data_PCOD9029489
_publ_section_title
;
Structure prediction by ZEFSAII (Michael W. Deem and Ramdas Pophale) SiO2 
 PCOD9029489
Probable space group: P -1
;
_chemical_formula_sum "Si O2"
_cell_formula_units_Z 12
_cell_length_a 6.301818
_cell_length_b 10.720114
_cell_length_c 13.674410
_cell_angle_alpha 138.453789
_cell_angle_beta 81.607463
_cell_angle_gamma 74.997553
_cell_volume 501.748247
_symmetry_space_group_name_H-M "P -1"
_symmetry_group_IT_number 2
_symmetry_cell_setting 'triclinic'
loop_
_space_group_symop_operation_xyz
x,y,z
-x,-y,-z
loop_
_atom_site_type_symbol
_atom_site_label
_atom_site_fract_x
_atom_site_fract_y
_atom_site_fract_z
Si Si1 0.766398 0.817756 0.285356
Si Si2 0.790731 0.693193 0.781679
Si Si3 0.193392 0.178439 0.498154
Si Si4 0.737182 0.079027 0.122779
Si Si5 0.277717 0.582666 0.983533
Si Si6 0.074432 0.053434 0.233436
O O1 0.854298 0.854271 0.405337
O O2 0.000731 0.710772 0.131728
O O3 0.504779 0.039718 0.393145
O O4 0.694178 0.631407 0.196393
O O5 0.530792 0.712251 0.779179
O O6 0.850864 0.799093 0.747173
O O7 0.032280 0.445733 0.644692
O O8 0.725312 0.860520 0.976514
O O9 0.101733 0.083918 0.363484
O O10 0.796764 0.124866 0.252955
O O11 0.000000 0.000000 0.000000
O O12 0.260297 0.782921 0.040921
O O13 0.500000 0.500000 0.000000
#
# Coordination Sequence:
#
# PCOD9029489 Si02
#       6
#     2   2   2   2   2   2
#     4  10  25  45  68  92 136 174 222 276 321 383
#     4  10  22  42  67  95 139 167 215 273 334 390
#     4  11  23  45  64 100 135 172 210 282 336 375
#     4   9  21  41  63  96 127 180 216 258 321 401
#     4  11  23  45  68  94 125 181 228 262 317 401
#     4  11  23  39  66  99 130 168 221 265 333 390
#
# _framework density 23.916378000000002
#
# number of rings (size 3 to 8) (size 9 to 14) (size 15 to 20)
#    0.000    1.667    1.667    1.500    2.333    5.333 
#    6.000    0.000    0.000    0.000    0.000    0.000 
#    0.000    0.000    0.000    0.000    0.000    0.000 
#
# Total GULP energy -67060.074943 kJ/mol
# GULP energy per Si atom -5588.339579 kJ/mol
# Density = 2.386194 g / cm^3
# Si number density = 23.916378 Si / 1000 Ang^3
#
#
#
# Elastic Constant Matrix: (Units=GPa)
#
#
# Indices 1 2 3 4 5 6 
#
# 1 96.7318 74.3630 40.4227 2.5590 3.6935 -34.9979
# 2 74.3630 134.2324 56.3632 13.2872 -3.9656 -38.4755
# 3 40.4227 56.3632 97.0764 8.9106 -3.5971 -24.7874
# 4 2.5590 13.2872 8.9106 56.2110 -22.0918 2.4500
# 5 3.6935 -3.9656 -3.5971 -22.0918 37.4291 -5.2448
# 6 -34.9979 -38.4755 -24.7874 2.4500 -5.2448 47.1155
#
#
#
# Elastic Compliance Matrix: (Units=1/GPa)
#
#
# Indices 1 2 3 4 5 6 
#
# 1 0.020222 -0.008579 -0.001795 0.000340 -0.001918 0.006840
# 2 -0.008579 0.015396 -0.003992 -0.002269 0.001367 0.004371
# 3 -0.001795 -0.003992 0.014280 -0.000990 0.000974 0.003079
# 4 0.000340 -0.002269 -0.000990 0.023829 0.013434 -0.001865
# 5 -0.001918 0.001367 0.000974 0.013434 0.035560 0.003464
# 6 0.006840 0.004371 0.003079 -0.001865 0.003464 0.031977
#
#
# Mechanical properties :
#
#
# Convention : Reuss Voigt Hill
#
# Bulk Modulus (GPa) = 47.24654 74.48205 60.86430
# Shear Modulus (GPa) = 28.24059 38.61057 33.42558
#
# Velocity S-wave (km/s) = 3.44001 4.02232 3.74251
# Velocity P-wave (km/s) = 5.96456 7.26515 6.64674
#
# Compressibility (1/GPa) = 0.02116557
#
# Stress axis : x y z
#
# Youngs Moduli (GPa) = 49.45143 64.95125 70.02968
#
# Poissons Ratio (x) = 0.55719 0.12573
# Poissons Ratio (y) = 0.42422 0.27956
# Poissons Ratio (z) = 0.08879 0.25929
#
# Static dielectric constant tensor:
#      x y z
#    x 1.945770 0.034590 0.029010 
#    y 0.034590 1.967350 -0.027660 
#    z 0.029010 -0.027660 1.945020 
# 
# From -- ./inp_files/129687.got.cif
#   From: 2010.05.17/outbox.cif.g08.bks.cpg/sg2_65_cif.got.tgz:129687.got - 2010.06.03 11:33:40.
