data_PCOD9029937
_publ_section_title
;
Structure prediction by ZEFSAII (Michael W. Deem and Ramdas Pophale) SiO2 
 PCOD9029937
Probable space group: P -1
;
_chemical_formula_sum "Si O2"
_cell_formula_units_Z 14
_cell_length_a 8.120386
_cell_length_b 15.247612
_cell_length_c 5.236321
_cell_angle_alpha 72.574404
_cell_angle_beta 69.258312
_cell_angle_gamma 60.480612
_cell_volume 521.356249
_symmetry_space_group_name_H-M "P -1"
_symmetry_group_IT_number 2
_symmetry_cell_setting 'triclinic'
loop_
_space_group_symop_operation_xyz
x,y,z
-x,-y,-z
loop_
_atom_site_type_symbol
_atom_site_label
_atom_site_fract_x
_atom_site_fract_y
_atom_site_fract_z
Si Si1 0.263289 0.135544 0.551272
Si Si2 0.394555 0.931165 0.946919
Si Si3 0.484855 0.415999 0.763316
Si Si4 0.601553 0.722294 0.470131
Si Si5 0.132620 0.457363 0.214368
Si Si6 0.761902 0.216943 0.020242
Si Si7 0.912857 0.920032 0.683262
O O1 0.402170 0.136793 0.241316
O O2 0.328167 0.189609 0.694357
O O3 0.065402 0.160597 0.483024
O O4 0.308353 0.021219 0.706912
O O5 0.287715 0.857228 0.070334
O O6 0.311317 0.002343 0.179396
O O7 0.500000 0.500000 0.500000
O O8 0.395996 0.351472 0.696443
O O9 0.327201 0.472167 0.024981
O O10 0.686417 0.328917 0.840106
O O11 0.758267 0.660284 0.658557
O O12 0.387852 0.763603 0.674692
O O13 0.000000 0.500000 0.500000
O O14 0.000000 0.500000 0.000000
O O15 0.974406 0.151998 0.077897
O O16 0.000000 0.000000 0.500000
#
# Coordination Sequence:
#
# PCOD9029937 Si02
#       7
#     2   2   2   2   2   2   2
#     4  10  23  43  69 106 141 198 245 302 379 463
#     4  10  22  42  68  99 148 199 246 294 378 459
#     4  11  26  50  80 108 152 205 266 328 398 467
#     4  10  24  48  72 104 151 199 255 313 398 461
#     4  11  23  50  81 112 150 200 259 338 397 472
#     4  10  24  42  73 105 148 201 252 320 390 459
#     4  12  24  41  69 107 156 192 249 317 375 461
#
# _framework density 26.853038000000002
#
# number of rings (size 3 to 8) (size 9 to 14) (size 15 to 20)
#    0.000    1.429    2.857    0.857    2.000    5.714 
#    7.714    0.000    0.000    0.000    0.000    0.000 
#    0.000    0.000    0.000    0.000    0.000    0.000 
#
# Total GULP energy -78101.571523 kJ/mol
# GULP energy per Si atom -5578.683680 kJ/mol
# Density = 2.679192 g / cm^3
# Si number density = 26.853038 Si / 1000 Ang^3
#
#
#
# Elastic Constant Matrix: (Units=GPa)
#
#
# Indices 1 2 3 4 5 6 
#
# 1 50.4029 46.8806 9.4111 0.5241 2.4050 1.8054
# 2 46.8806 144.6257 58.0066 -8.8061 -0.5814 -4.7253
# 3 9.4111 58.0066 147.9134 0.4111 4.2569 -7.6719
# 4 0.5241 -8.8061 0.4111 60.0635 -6.3561 7.4846
# 5 2.4050 -0.5814 4.2569 -6.3561 51.9217 3.5566
# 6 1.8054 -4.7253 -7.6719 7.4846 3.5566 59.1016
#
#
#
# Elastic Compliance Matrix: (Units=1/GPa)
#
#
# Indices 1 2 3 4 5 6 
#
# 1 0.029435 -0.010619 0.002292 -0.001885 -0.001826 -0.001102
# 2 -0.010619 0.012141 -0.004102 0.001970 0.001175 0.000442
# 3 0.002292 -0.004102 0.008299 -0.000890 -0.001000 0.000852
# 4 -0.001885 0.001970 -0.000890 0.017505 0.002481 -0.002267
# 5 -0.001826 0.001175 -0.001000 0.002481 0.019845 -0.001488
# 6 -0.001102 0.000442 0.000852 -0.002267 -0.001488 0.017476
#
#
# Mechanical properties :
#
#
# Convention : Reuss Voigt Hill
#
# Bulk Modulus (GPa) = 39.97183 63.50428 51.73806
# Shear Modulus (GPa) = 36.25858 49.46029 42.85943
#
# Velocity S-wave (km/s) = 3.67857 4.29638 3.99942
# Velocity P-wave (km/s) = 5.74110 6.95068 6.37465
#
# Compressibility (1/GPa) = 0.02501762
#
# Stress axis : x y z
#
# Youngs Moduli (GPa) = 33.97293 82.36630 120.49696
#
# Poissons Ratio (x) = 0.87464 -0.27620
# Poissons Ratio (y) = 0.36076 0.49427
# Poissons Ratio (z) = -0.07787 0.33786
#
# Static dielectric constant tensor:
#      x y z
#    x 2.245390 0.038510 -0.057720 
#    y 0.038510 2.200290 0.021470 
#    z -0.057720 0.021470 2.208310 
# 
# From -- ./inp_files/37176.got.cif
#   From: 2010.05.17/outbox.cif.g08.bks.cpg/sg2_19_cif.got.tgz:37176.got - 2010.06.03 11:33:40.
