data_PCOD9029511
_publ_section_title
;
Structure prediction by ZEFSAII (Michael W. Deem and Ramdas Pophale) SiO2 
 PCOD9029511
Probable space group: P -1
;
_chemical_formula_sum "Si O2"
_cell_formula_units_Z 16
_cell_length_a 18.278092
_cell_length_b 18.175660
_cell_length_c 4.998388
_cell_angle_alpha 70.892505
_cell_angle_beta 96.908987
_cell_angle_gamma 154.761231
_cell_volume 601.985254
_symmetry_space_group_name_H-M "P -1"
_symmetry_group_IT_number 2
_symmetry_cell_setting 'triclinic'
loop_
_space_group_symop_operation_xyz
x,y,z
-x,-y,-z
loop_
_atom_site_type_symbol
_atom_site_label
_atom_site_fract_x
_atom_site_fract_y
_atom_site_fract_z
Si Si1 0.129285 0.974411 0.231677
Si Si2 0.847641 0.304611 0.490791
Si Si3 0.528390 0.745962 0.271674
Si Si4 0.771469 0.788853 0.672517
Si Si5 0.278151 0.351676 0.677644
Si Si6 0.603183 0.288268 0.245757
Si Si7 0.029364 0.715953 0.760051
Si Si8 0.344724 0.916589 0.833425
O O1 0.944135 0.839635 0.207764
O O2 0.058237 0.830924 0.536689
O O3 0.248790 0.147642 0.272700
O O4 0.259383 0.072138 0.929972
O O5 0.947406 0.319859 0.439635
O O6 0.000000 0.500000 0.500000
O O7 0.768609 0.250346 0.225454
O O8 0.663263 0.119140 0.824603
O O9 0.397015 0.542076 0.413888
O O10 0.474952 0.723934 0.566965
O O11 0.473506 0.761102 0.019729
O O12 0.696437 0.695832 0.457455
O O13 0.688342 0.644070 0.012547
O O14 0.000000 0.000000 0.500000
O O15 0.523889 0.130064 0.515041
O O16 0.829400 0.510109 0.060470
O O17 0.199897 0.850248 0.857439
#
# Coordination Sequence:
#
# PCOD9029511 Si02
#       8
#     2   2   2   2   2   2   2   2
#     4  11  22  44  65  94 125 172 216 270 326 380
#     4  10  22  45  71  99 136 169 208 258 317 380
#     4  12  26  38  66  93 130 169 215 273 325 375
#     4  10  23  42  64  88 124 171 215 269 329 389
#     4  11  24  44  62  91 128 167 217 272 328 385
#     4  12  24  42  61 101 132 165 218 267 313 379
#     4  10  24  40  70  95 128 172 216 261 322 373
#     4  10  22  42  67  96 133 166 213 254 318 371
#
# _framework density 26.578721000000002
#
# number of rings (size 3 to 8) (size 9 to 14) (size 15 to 20)
#    0.750    0.500    2.500    4.125    3.500    5.000 
#    2.250    1.250    0.000    0.000    0.000    0.000 
#    0.000    0.000    0.000    0.000    0.000    0.000 
#
# Total GULP energy -89708.724969 kJ/mol
# GULP energy per Si atom -5606.795311 kJ/mol
# Density = 2.651823 g / cm^3
# Si number density = 26.578721 Si / 1000 Ang^3
#
#
#
# Elastic Constant Matrix: (Units=GPa)
#
#
# Indices 1 2 3 4 5 6 
#
# 1 95.6233 9.2845 24.3320 -7.2149 -10.7595 -2.4110
# 2 9.2845 89.5381 30.9877 -5.6349 -4.8897 -16.6500
# 3 24.3320 30.9877 167.1544 -11.8855 -10.8499 8.6722
# 4 -7.2149 -5.6349 -11.8855 53.0283 5.9169 0.6080
# 5 -10.7595 -4.8897 -10.8499 5.9169 58.4884 -3.4943
# 6 -2.4110 -16.6500 8.6722 0.6080 -3.4943 38.9880
#
#
#
# Elastic Compliance Matrix: (Units=1/GPa)
#
#
# Indices 1 2 3 4 5 6 
#
# 1 0.011145 -0.000316 -0.001437 0.000957 0.001721 0.001013
# 2 -0.000316 0.013394 -0.002666 0.000611 0.000885 0.006363
# 3 -0.001437 -0.002666 0.006937 0.001048 0.000530 -0.002739
# 4 0.000957 0.000611 0.001048 0.019467 -0.001569 -0.000357
# 5 0.001721 0.000885 0.000530 -0.001569 0.017864 0.001992
# 6 0.001013 0.006363 -0.002739 -0.000357 0.001992 0.029223
#
#
# Mechanical properties :
#
#
# Convention : Reuss Voigt Hill
#
# Bulk Modulus (GPa) = 44.17192 53.50269 48.83730
# Shear Modulus (GPa) = 43.70097 49.28171 46.49134
#
# Velocity S-wave (km/s) = 4.05928 4.31069 4.18687
# Velocity P-wave (km/s) = 6.21496 6.70445 6.46434
#
# Compressibility (1/GPa) = 0.02263882
#
# Stress axis : x y z
#
# Youngs Moduli (GPa) = 89.72350 74.66008 144.15535
#
# Poissons Ratio (x) = 0.02358 0.20710
# Poissons Ratio (y) = 0.02834 0.38436
# Poissons Ratio (z) = 0.12890 0.19906
#
# Static dielectric constant tensor:
#      x y z
#    x 2.115010 0.044080 0.029050 
#    y 0.044080 2.099150 -0.025960 
#    z 0.029050 -0.025960 2.032220 
# 
# From -- ./inp_files/119877.got.cif
#   From: 2010.05.17/outbox.cif.g08.bks.cpg/sg2_60_cif.got.tgz:119877.got - 2010.06.03 11:33:40.
