data_PCOD9029550
_publ_section_title
;
Structure prediction by ZEFSAII (Michael W. Deem and Ramdas Pophale) SiO2 
 PCOD9029550
Probable space group: P -1
;
_chemical_formula_sum "Si O2"
_cell_formula_units_Z 16
_cell_length_a 14.385972
_cell_length_b 7.996019
_cell_length_c 9.703653
_cell_angle_alpha 94.333442
_cell_angle_beta 71.009701
_cell_angle_gamma 138.929851
_cell_volume 667.027086
_symmetry_space_group_name_H-M "P -1"
_symmetry_group_IT_number 2
_symmetry_cell_setting 'triclinic'
loop_
_space_group_symop_operation_xyz
x,y,z
-x,-y,-z
loop_
_atom_site_type_symbol
_atom_site_label
_atom_site_fract_x
_atom_site_fract_y
_atom_site_fract_z
Si Si1 0.018301 0.345215 0.815078
Si Si2 0.554103 0.842375 0.381490
Si Si3 0.118953 0.796307 0.634865
Si Si4 0.366561 0.689100 0.007965
Si Si5 0.370879 0.688501 0.701684
Si Si6 0.563788 0.494674 0.829085
Si Si7 0.891128 0.009682 0.601944
Si Si8 0.011483 0.198433 0.075925
O O1 0.023346 0.524427 0.740733
O O2 0.191797 0.504636 0.763880
O O3 0.947375 0.243960 0.994876
O O4 0.932484 0.102740 0.744444
O O5 0.416220 0.637532 0.545272
O O6 0.558715 0.726678 0.240612
O O7 0.705280 0.027064 0.415135
O O8 0.543319 0.017705 0.337723
O O9 0.091856 0.926679 0.747034
O O10 0.074502 0.788704 0.502947
O O11 0.363694 0.571736 0.136292
O O12 0.184821 0.485116 0.054522
O O13 0.409976 0.670485 0.833992
O O14 0.500000 0.000000 0.000000
O O15 0.705053 0.750861 0.685155
O O16 0.500000 0.500000 0.000000
O O17 0.000000 0.000000 0.500000
O O18 0.000000 0.000000 0.000000
#
# Coordination Sequence:
#
# PCOD9029550 Si02
#       8
#     2   2   2   2   2   2   2   2
#     4  10  22  43  71 100 134 176 236 284 340 422
#     4  10  22  42  67  97 136 174 229 281 348 419
#     4  11  25  43  70  99 133 183 233 288 345 421
#     4  11  23  44  71  99 135 186 232 283 355 429
#     4   9  20  42  70  99 127 179 229 283 339 418
#     4  12  28  43  65 104 143 178 228 299 357 420
#     4  12  26  47  67 100 139 185 232 294 364 424
#     4  11  24  43  71 104 138 185 231 291 356 422
#
# _framework density 23.987031999999999
#
# number of rings (size 3 to 8) (size 9 to 14) (size 15 to 20)
#    0.000    1.250    1.250    3.750    5.250    2.500 
#    2.250    0.000    0.000    0.000    0.000    0.000 
#    0.000    0.000    0.000    0.000    0.000    0.000 
#
# Total GULP energy -89267.748190 kJ/mol
# GULP energy per Si atom -5579.234262 kJ/mol
# Density = 2.393244 g / cm^3
# Si number density = 23.987032 Si / 1000 Ang^3
#
#
#
# Elastic Constant Matrix: (Units=GPa)
#
#
# Indices 1 2 3 4 5 6 
#
# 1 49.9215 11.0132 5.6375 -1.0367 8.8977 1.0933
# 2 11.0132 63.0884 9.9249 7.3047 -2.5184 1.6195
# 3 5.6375 9.9249 94.6438 11.9952 4.2171 3.3228
# 4 -1.0367 7.3047 11.9952 43.2893 0.6124 5.6956
# 5 8.8977 -2.5184 4.2171 0.6124 52.4076 -1.4543
# 6 1.0933 1.6195 3.3228 5.6956 -1.4543 25.1761
#
#
#
# Elastic Compliance Matrix: (Units=1/GPa)
#
#
# Indices 1 2 3 4 5 6 
#
# 1 0.021756 -0.003975 -0.000874 0.001642 -0.003866 -0.001169
# 2 -0.003975 0.017121 -0.001294 -0.002640 0.001631 -0.000066
# 3 -0.000874 -0.001294 0.011169 -0.002785 -0.000801 -0.000769
# 4 0.001642 -0.002640 -0.002785 0.025055 -0.000620 -0.005238
# 5 -0.003866 0.001631 -0.000801 -0.000620 0.019928 0.001460
# 6 -0.001169 -0.000066 -0.000769 -0.005238 0.001460 0.041146
#
#
# Mechanical properties :
#
#
# Convention : Reuss Voigt Hill
#
# Bulk Modulus (GPa) = 26.48332 28.97831 27.73081
# Shear Modulus (GPa) = 31.04668 36.24647 33.64658
#
# Velocity S-wave (km/s) = 3.60156 3.89149 3.74932
# Velocity P-wave (km/s) = 5.32537 5.68319 5.50719
#
# Compressibility (1/GPa) = 0.03775962
#
# Stress axis : x y z
#
# Youngs Moduli (GPa) = 45.96480 58.40867 89.53028
#
# Poissons Ratio (x) = 0.23217 0.07824
# Poissons Ratio (y) = 0.18270 0.11588
# Poissons Ratio (z) = 0.04017 0.07560
#
# Static dielectric constant tensor:
#      x y z
#    x 1.993920 0.019460 -0.051560 
#    y 0.019460 2.078790 -0.059190 
#    z -0.051560 -0.059190 1.905960 
# 
# From -- ./inp_files/298544.got.cif
#   From: 2010.05.17/outbox.cif.g08.bks.cpg/sg2_150_cif.got.tgz:298544.got - 2010.06.03 11:33:40.
