data_PCOD9029997
_publ_section_title
;
Structure prediction by ZEFSAII (Michael W. Deem and Ramdas Pophale) SiO2 
 PCOD9029997
Probable space group: P -1
;
_chemical_formula_sum "Si O2"
_cell_formula_units_Z 13
_cell_length_a 11.019512
_cell_length_b 9.205564
_cell_length_c 7.968514
_cell_angle_alpha 136.105627
_cell_angle_beta 106.500306
_cell_angle_gamma 73.992433
_cell_volume 534.280390
_symmetry_space_group_name_H-M "P -1"
_symmetry_group_IT_number 2
_symmetry_cell_setting 'triclinic'
loop_
_space_group_symop_operation_xyz
x,y,z
-x,-y,-z
loop_
_atom_site_type_symbol
_atom_site_label
_atom_site_fract_x
_atom_site_fract_y
_atom_site_fract_z
Si Si1 0.103875 0.490757 0.734552
Si Si2 0.229804 0.125607 0.849714
Si Si3 0.632343 0.546144 0.666714
Si Si4 0.868764 0.294447 0.409226
Si Si5 0.000000 0.500000 0.000000
Si Si6 0.428161 0.692201 0.233505
Si Si7 0.682632 0.891928 0.511989
O O1 0.079478 0.657504 0.714774
O O2 0.205681 0.295168 0.561237
O O3 0.976128 0.375660 0.643117
O O4 0.110373 0.603508 0.007020
O O5 0.295642 0.078728 0.655602
O O6 0.170805 0.930099 0.747422
O O7 0.337008 0.219347 0.083420
O O8 0.112029 0.301864 0.924572
O O9 0.500000 0.500000 0.500000
O O10 0.742768 0.450652 0.509612
O O11 0.640358 0.412674 0.729990
O O12 0.549485 0.807533 0.437490
O O13 0.337703 0.864177 0.233807
O O14 0.500000 0.500000 0.000000
#
# Coordination Sequence:
#
# PCOD9029997 Si02
#       7
#     2   2   2   2   1   2   2
#     4  10  23  45  70 100 142 178 227 292 341 412
#     4  11  23  43  72 105 136 185 231 281 351 405
#     4  12  25  44  68  99 145 181 229 289 340 415
#     4  11  24  46  67 102 141 181 230 283 351 411
#     4  10  22  42  74 102 134 176 232 282 340 410
#     4  11  22  42  71  98 137 179 236 283 338 410
#     4  10  22  42  69 105 133 180 233 285 343 407
#
# _framework density 24.331793999999999
#
# number of rings (size 3 to 8) (size 9 to 14) (size 15 to 20)
#    0.000    1.231    4.615    0.923    0.000    4.923 
#    0.000    3.077    0.000    0.000    0.000    0.000 
#    0.000    0.000    0.000    0.000    0.000    0.000 
#
# Total GULP energy -72389.052049 kJ/mol
# GULP energy per Si atom -5568.388619 kJ/mol
# Density = 2.427641 g / cm^3
# Si number density = 24.331794 Si / 1000 Ang^3
#
#
#
# Elastic Constant Matrix: (Units=GPa)
#
#
# Indices 1 2 3 4 5 6 
#
# 1 133.5392 37.1539 32.1532 5.3468 19.3311 1.9749
# 2 37.1539 79.2595 19.4417 -2.1250 5.1835 36.4539
# 3 32.1532 19.4417 51.5585 8.6986 4.6536 11.5139
# 4 5.3468 -2.1250 8.6986 20.8526 -1.3003 8.9255
# 5 19.3311 5.1835 4.6536 -1.3003 55.7923 7.8323
# 6 1.9749 36.4539 11.5139 8.9255 7.8323 53.5139
#
#
#
# Elastic Compliance Matrix: (Units=1/GPa)
#
#
# Indices 1 2 3 4 5 6 
#
# 1 0.011268 -0.007155 -0.004688 -0.004838 -0.003923 0.006848
# 2 -0.007155 0.026116 -0.003788 0.014713 0.003473 -0.019673
# 3 -0.004688 -0.003788 0.025609 -0.009384 -0.000216 -0.001160
# 4 -0.004838 0.014713 -0.009384 0.063122 0.005248 -0.019121
# 5 -0.003923 0.003473 -0.000216 0.005248 0.019938 -0.005968
# 6 0.006848 -0.019673 -0.001160 -0.019121 -0.005968 0.036148
#
#
# Mechanical properties :
#
#
# Convention : Reuss Voigt Hill
#
# Bulk Modulus (GPa) = 31.51521 49.09497 40.30509
# Shear Modulus (GPa) = 22.31746 37.73898 30.02822
#
# Velocity S-wave (km/s) = 3.03184 3.94257 3.51681
# Velocity P-wave (km/s) = 5.02359 6.39892 5.75251
#
# Compressibility (1/GPa) = 0.03173071
#
# Stress axis : x y z
#
# Youngs Moduli (GPa) = 88.74563 38.29115 39.04858
#
# Poissons Ratio (x) = 0.27397 0.18306
# Poissons Ratio (y) = 0.63497 0.14792
# Poissons Ratio (z) = 0.41604 0.14505
#
# Static dielectric constant tensor:
#      x y z
#    x 3.043160 -1.320100 11.791070 
#    y -1.320100 2.859250 -11.393530 
#    z 11.791070 -11.393530 119.003920 
# 
# From -- ./inp_files/23134.got.cif
#   From: 2010.05.17/outbox.cif.g08.bks.cpg/sg2_12_cif.got.tgz:23134.got - 2010.06.03 11:33:40.
