data_PCOD9029224
_publ_section_title
;
Structure prediction by ZEFSAII (Michael W. Deem and Ramdas Pophale) SiO2 
 PCOD9029224
Probable space group: P -1
;
_chemical_formula_sum "Si O2"
_cell_formula_units_Z 16
_cell_length_a 8.980047
_cell_length_b 15.174094
_cell_length_c 8.215987
_cell_angle_alpha 103.961045
_cell_angle_beta 91.767211
_cell_angle_gamma 41.931378
_cell_volume 706.694374
_symmetry_space_group_name_H-M "P -1"
_symmetry_group_IT_number 2
_symmetry_cell_setting 'triclinic'
loop_
_space_group_symop_operation_xyz
x,y,z
-x,-y,-z
loop_
_atom_site_type_symbol
_atom_site_label
_atom_site_fract_x
_atom_site_fract_y
_atom_site_fract_z
Si Si1 0.120336 0.573341 0.173761
Si Si2 0.410058 0.404412 0.808490
Si Si3 0.955826 0.884477 0.853542
Si Si4 0.202251 0.364692 0.552138
Si Si5 0.151280 0.125852 0.655301
Si Si6 0.446658 0.572191 0.699816
Si Si7 0.650307 0.892939 0.685060
Si Si8 0.893959 0.103208 0.796264
O O1 0.341342 0.465445 0.250934
O O2 0.910418 0.624919 0.283482
O O3 0.043202 0.714087 0.221648
O O4 0.200917 0.497028 0.970693
O O5 0.368089 0.365168 0.626676
O O6 0.426687 0.501446 0.800713
O O7 0.639323 0.260266 0.834630
O O8 0.778926 0.883041 0.831669
O O9 0.208116 0.733790 0.747873
O O10 0.884312 0.001222 0.787596
O O11 0.984029 0.909649 0.046938
O O12 0.310871 0.232379 0.394006
O O13 0.000000 0.500000 0.500000
O O14 0.226111 0.118390 0.472883
O O15 0.049464 0.072103 0.643250
O O16 0.381204 0.033650 0.725925
O O17 0.500000 0.500000 0.500000
#
# Coordination Sequence:
#
# PCOD9029224 Si02
#       8
#     2   2   2   2   2   2   2   2
#     4  11  22  42  68  97 131 177 222 269 334 396
#     4  12  24  44  70  98 135 177 228 273 327 410
#     4  11  25  44  65  98 141 166 221 281 329 389
#     4  11  25  45  65 101 134 174 226 276 336 390
#     4  10  22  42  66  97 126 175 226 262 330 398
#     4  12  23  42  68 101 134 173 220 279 338 392
#     4  10  24  45  65  93 134 175 217 272 332 398
#     4  11  25  43  67 103 130 175 223 273 332 392
#
# _framework density 22.640622
#
# number of rings (size 3 to 8) (size 9 to 14) (size 15 to 20)
#    0.000    1.000    2.500    4.500    5.250    3.000 
#    0.000    0.000    0.000    0.000    0.000    0.000 
#    0.000    0.000    0.000    0.000    0.000    0.000 
#
# Total GULP energy -89521.957781 kJ/mol
# GULP energy per Si atom -5595.122361 kJ/mol
# Density = 2.258909 g / cm^3
# Si number density = 22.640622 Si / 1000 Ang^3
#
#
#
# Elastic Constant Matrix: (Units=GPa)
#
#
# Indices 1 2 3 4 5 6 
#
# 1 44.9160 -3.5945 4.3262 11.3226 10.0689 -0.1996
# 2 -3.5945 106.6070 14.3388 8.2138 -10.6003 -1.6482
# 3 4.3262 14.3388 60.3154 0.5091 17.2990 7.0839
# 4 11.3226 8.2138 0.5091 19.2211 -2.0769 -1.1287
# 5 10.0689 -10.6003 17.2990 -2.0769 37.7457 -10.3052
# 6 -0.1996 -1.6482 7.0839 -1.1287 -10.3052 29.9571
#
#
#
# Elastic Compliance Matrix: (Units=1/GPa)
#
#
# Indices 1 2 3 4 5 6 
#
# 1 0.029374 0.001219 0.001217 -0.019219 -0.010278 -0.004285
# 2 0.001219 0.011011 -0.004689 -0.004487 0.005621 0.003487
# 3 0.001217 -0.004689 0.023378 -0.001663 -0.015497 -0.011171
# 4 -0.019219 -0.004487 -0.001663 0.066730 0.009924 0.005946
# 5 -0.010278 0.005621 -0.015497 0.009924 0.043738 0.019325
# 6 -0.004285 0.003487 -0.011171 0.005946 0.019325 0.043058
#
#
# Mechanical properties :
#
#
# Convention : Reuss Voigt Hill
#
# Bulk Modulus (GPa) = 16.87585 26.88660 21.88123
# Shear Modulus (GPa) = 20.69997 30.50265 25.60131
#
# Velocity S-wave (km/s) = 3.02699 3.67448 3.36634
# Velocity P-wave (km/s) = 4.43699 5.46841 4.97948
#
# Compressibility (1/GPa) = 0.05925627
#
# Stress axis : x y z
#
# Youngs Moduli (GPa) = 34.04371 90.82186 42.77584
#
# Poissons Ratio (x) = -0.11074 -0.05204
# Poissons Ratio (y) = -0.04151 0.20057
# Poissons Ratio (z) = -0.04142 0.42585
#
# Static dielectric constant tensor:
#      x y z
#    x 1.754440 0.074820 -0.059140 
#    y 0.074820 1.783960 0.005400 
#    z -0.059140 0.005400 1.821070 
# 
# From -- ./inp_files/207763.got.cif
#   From: 2010.05.17/outbox.cif.g08.bks.cpg/sg2_104_cif.got.tgz:207763.got - 2010.06.03 11:33:40.
