data_PCOD9029757
_publ_section_title
;
Structure prediction by ZEFSAII (Michael W. Deem and Ramdas Pophale) SiO2 
 PCOD9029757
Probable space group: P -1
;
_chemical_formula_sum "Si O2"
_cell_formula_units_Z 14
_cell_length_a 8.885210
_cell_length_b 9.834915
_cell_length_c 8.479069
_cell_angle_alpha 77.653296
_cell_angle_beta 109.840678
_cell_angle_gamma 73.407238
_cell_volume 627.001145
_symmetry_space_group_name_H-M "P -1"
_symmetry_group_IT_number 2
_symmetry_cell_setting 'triclinic'
loop_
_space_group_symop_operation_xyz
x,y,z
-x,-y,-z
loop_
_atom_site_type_symbol
_atom_site_label
_atom_site_fract_x
_atom_site_fract_y
_atom_site_fract_z
Si Si1 0.487780 0.137859 0.080537
Si Si2 0.500546 0.294229 0.740276
Si Si3 0.158599 0.534773 0.623099
Si Si4 0.972870 0.151621 0.356610
Si Si5 0.106802 0.823770 0.045567
Si Si6 0.882537 0.634040 0.041887
Si Si7 0.643638 0.924352 0.441296
O O1 0.632642 0.055613 0.280845
O O2 0.512219 0.254773 0.940434
O O3 0.306536 0.227747 0.085898
O O4 0.500000 0.000000 0.000000
O O5 0.347000 0.457941 0.627179
O O6 0.703173 0.244118 0.789021
O O7 0.417717 0.191318 0.645269
O O8 0.162688 0.456407 0.812333
O O9 0.000000 0.500000 0.500000
O O10 0.118401 0.708189 0.595232
O O11 0.166419 0.149668 0.402403
O O12 0.000000 0.000000 0.500000
O O13 0.890929 0.179159 0.145393
O O14 0.003468 0.725432 0.097981
O O15 0.000000 0.000000 0.000000
O O16 0.000000 0.500000 0.000000
O O17 0.500000 0.000000 0.500000
#
# Coordination Sequence:
#
# PCOD9029757 Si02
#       7
#     2   2   2   2   2   2   2
#     4   9  19  37  63  91 124 175 221 255 325 406
#     4  10  22  42  68  93 129 181 220 266 332 400
#     4  11  24  46  70  93 138 178 222 272 342 404
#     4  12  26  43  67 100 134 172 224 277 333 396
#     4  12  25  44  69 102 137 172 228 277 328 399
#     4  11  23  43  68  98 134 179 221 280 337 395
#     4  11  21  39  64  96 132 170 218 273 333 390
#
# _framework density 22.328506999999998
#
# number of rings (size 3 to 8) (size 9 to 14) (size 15 to 20)
#    0.000    1.143    2.857    4.286    2.000    0.571 
#    2.571    0.714    0.000    0.000    0.000    0.000 
#    0.000    0.000    0.000    0.000    0.000    0.000 
#
# Total GULP energy -78057.695924 kJ/mol
# GULP energy per Si atom -5575.549709 kJ/mol
# Density = 2.227769 g / cm^3
# Si number density = 22.328507 Si / 1000 Ang^3
#
#
#
# Elastic Constant Matrix: (Units=GPa)
#
#
# Indices 1 2 3 4 5 6 
#
# 1 96.1442 42.8950 4.8963 -2.0015 38.0556 -18.6522
# 2 42.8950 171.5606 19.7290 -7.9198 20.7849 -21.5821
# 3 4.8963 19.7290 60.0604 3.0132 20.5771 -11.0982
# 4 -2.0015 -7.9198 3.0132 23.7677 -2.5200 -2.4676
# 5 38.0556 20.7849 20.5771 -2.5200 44.5704 -12.1496
# 6 -18.6522 -21.5821 -11.0982 -2.4676 -12.1496 46.9295
#
#
#
# Elastic Compliance Matrix: (Units=1/GPa)
#
#
# Indices 1 2 3 4 5 6 
#
# 1 0.018414 -0.002986 0.005670 -0.001570 -0.016217 0.003005
# 2 -0.002986 0.007080 -0.002179 0.002684 0.000933 0.001937
# 3 0.005670 -0.002179 0.022287 -0.004227 -0.013596 0.002780
# 4 -0.001570 0.002684 -0.004227 0.044299 0.005459 0.003353
# 5 -0.016217 0.000933 -0.013596 0.005459 0.043032 0.002196
# 6 0.003005 0.001937 0.002780 0.003353 0.002196 0.024796
#
#
# Mechanical properties :
#
#
# Convention : Reuss Voigt Hill
#
# Bulk Modulus (GPa) = 20.49526 51.42287 35.95906
# Shear Modulus (GPa) = 28.54508 40.40319 34.47413
#
# Velocity S-wave (km/s) = 3.57937 4.25842 3.93358
# Velocity P-wave (km/s) = 5.12654 6.87452 6.06385
#
# Compressibility (1/GPa) = 0.04879178
#
# Stress axis : x y z
#
# Youngs Moduli (GPa) = 54.30746 141.23426 44.86901
#
# Poissons Ratio (x) = 0.42168 -0.25440
# Poissons Ratio (y) = 0.16214 0.09776
# Poissons Ratio (z) = -0.30791 0.30773
#
# Static dielectric constant tensor:
#      x y z
#    x 1.898080 0.006350 0.026110 
#    y 0.006350 1.179910 -0.179000 
#    z 0.026110 -0.179000 1.830840 
# 
# From -- ./inp_files/158846.got.cif
#   From: 2010.05.17/outbox.cif.g08.bks.cpg/sg2_80_cif.got.tgz:158846.got - 2010.06.03 11:33:40.
