data_PCOD9029223
_publ_section_title
;
Structure prediction by ZEFSAII (Michael W. Deem and Ramdas Pophale) SiO2 
 PCOD9029223
Probable space group: P -1
;
_chemical_formula_sum "Si O2"
_cell_formula_units_Z 16
_cell_length_a 12.704459
_cell_length_b 24.284223
_cell_length_c 17.408586
_cell_angle_alpha 17.867544
_cell_angle_beta 147.166436
_cell_angle_gamma 154.736463
_cell_volume 694.623000
_symmetry_space_group_name_H-M "P -1"
_symmetry_group_IT_number 2
_symmetry_cell_setting 'triclinic'
loop_
_space_group_symop_operation_xyz
x,y,z
-x,-y,-z
loop_
_atom_site_type_symbol
_atom_site_label
_atom_site_fract_x
_atom_site_fract_y
_atom_site_fract_z
Si Si1 0.531763 0.259429 0.323873
Si Si2 0.415248 0.500901 0.819495
Si Si3 0.781816 0.079269 0.628163
Si Si4 0.938058 0.256880 0.765959
Si Si5 0.815249 0.660769 0.354672
Si Si6 0.585599 0.431421 0.875499
Si Si7 0.436790 0.129630 0.845406
Si Si8 0.996784 0.837756 0.511088
O O1 0.612827 0.344986 0.347221
O O2 0.688213 0.197070 0.461046
O O3 0.554526 0.444431 0.036269
O O4 0.236866 0.048430 0.423744
O O5 0.554186 0.581529 0.716099
O O6 0.142462 0.279766 0.917327
O O7 0.019678 0.153089 0.725817
O O8 0.890110 0.165079 0.496126
O O9 0.541854 0.808737 0.840436
O O10 0.000000 0.500000 0.500000
O O11 0.015774 0.272851 0.705006
O O12 0.675705 0.027653 0.938039
O O13 0.589647 0.649382 0.199341
O O14 0.681066 0.397883 0.648320
O O15 0.863275 0.602862 0.788631
O O16 0.221072 0.139401 0.667252
O O17 0.500000 0.000000 0.000000
#
# Coordination Sequence:
#
# PCOD9029223 Si02
#       8
#     2   2   2   2   2   2   2   2
#     4  11  23  42  70  91 131 177 218 263 325 382
#     4  10  22  42  66  97 126 170 217 271 324 380
#     4  12  24  44  66  97 130 179 218 260 322 396
#     4  11  19  37  64  92 130 164 206 268 322 382
#     4  10  23  39  65  95 127 169 212 266 327 381
#     4  10  23  42  69  93 129 169 217 274 329 375
#     4  11  22  38  64  97 129 167 209 266 331 386
#     4  11  24  43  66  93 134 175 214 270 321 382
#
# _framework density 23.034077
#
# number of rings (size 3 to 8) (size 9 to 14) (size 15 to 20)
#    0.000    1.250    3.750    2.250    0.000    4.000 
#    0.000    0.000    0.000    0.000    0.000    0.000 
#    0.000    0.000    0.000    0.000    0.000    0.000 
#
# Total GULP energy -89346.508442 kJ/mol
# GULP energy per Si atom -5584.156778 kJ/mol
# Density = 2.298165 g / cm^3
# Si number density = 23.034077 Si / 1000 Ang^3
#
#
#
# Elastic Constant Matrix: (Units=GPa)
#
#
# Indices 1 2 3 4 5 6 
#
# 1 131.5675 39.3218 61.8430 -30.0946 -17.1082 0.4308
# 2 39.3218 82.5589 8.5417 -11.3987 -7.5483 -12.4998
# 3 61.8430 8.5417 75.1501 -25.0208 -13.8990 21.3441
# 4 -30.0946 -11.3987 -25.0208 36.0085 19.7290 2.5281
# 5 -17.1082 -7.5483 -13.8990 19.7290 47.5470 -1.3843
# 6 0.4308 -12.4998 21.3441 2.5281 -1.3843 42.2363
#
#
#
# Elastic Compliance Matrix: (Units=1/GPa)
#
#
# Indices 1 2 3 4 5 6 
#
# 1 0.015714 -0.005112 -0.012994 0.001943 0.000377 0.004789
# 2 -0.005112 0.015095 0.002103 0.001335 0.000716 0.003400
# 3 -0.012994 0.002103 0.033290 0.014817 -0.001253 -0.016996
# 4 0.001943 0.001335 0.014817 0.049379 -0.015554 -0.010578
# 5 0.000377 0.000716 -0.001253 -0.015554 0.027447 0.002672
# 6 0.004789 0.003400 -0.016996 -0.010578 0.002672 0.033944
#
#
# Mechanical properties :
#
#
# Convention : Reuss Voigt Hill
#
# Bulk Modulus (GPa) = 31.16141 56.52106 43.84124
# Shear Modulus (GPa) = 22.98088 37.12970 30.05529
#
# Velocity S-wave (km/s) = 3.16205 4.01926 3.61615
# Velocity P-wave (km/s) = 5.18548 6.79195 6.04234
#
# Compressibility (1/GPa) = 0.03209097
#
# Stress axis : x y z
#
# Youngs Moduli (GPa) = 63.63639 66.24884 30.03933
#
# Poissons Ratio (x) = 0.33868 0.39034
# Poissons Ratio (y) = 0.32532 -0.06316
# Poissons Ratio (z) = 0.82691 -0.13930
#
# Static dielectric constant tensor:
#      x y z
#    x 1.867690 0.037070 0.045770 
#    y 0.037070 1.882910 0.080120 
#    z 0.045770 0.080120 1.998490 
# 
# From -- ./inp_files/570928.got.cif
#   From: 2010.05.17/outbox.cif.g08.bks.cpg/sg2_286_cif.got.tgz:570928.got - 2010.06.03 11:33:40.
