data_PCOD9029538
_publ_section_title
;
Structure prediction by ZEFSAII (Michael W. Deem and Ramdas Pophale) SiO2 
 PCOD9029538
Probable space group: P -1
;
_chemical_formula_sum "Si O2"
_cell_formula_units_Z 16
_cell_length_a 7.295841
_cell_length_b 22.642757
_cell_length_c 8.906880
_cell_angle_alpha 44.102980
_cell_angle_beta 130.061911
_cell_angle_gamma 133.063322
_cell_volume 713.335341
_symmetry_space_group_name_H-M "P -1"
_symmetry_group_IT_number 2
_symmetry_cell_setting 'triclinic'
loop_
_space_group_symop_operation_xyz
x,y,z
-x,-y,-z
loop_
_atom_site_type_symbol
_atom_site_label
_atom_site_fract_x
_atom_site_fract_y
_atom_site_fract_z
Si Si1 0.614073 0.130903 0.215442
Si Si2 0.719032 0.988387 0.312965
Si Si3 0.589043 0.450706 0.774242
Si Si4 0.023531 0.060731 0.048208
Si Si5 0.791779 0.172804 0.555955
Si Si6 0.738308 0.588319 0.043405
Si Si7 0.318055 0.664604 0.208419
Si Si8 0.814885 0.645457 0.661110
O O1 0.645143 0.062625 0.231652
O O2 0.786097 0.139719 0.439753
O O3 0.656836 0.229901 0.983116
O O4 0.319067 0.088662 0.205866
O O5 0.490412 0.886606 0.410673
O O6 0.790881 0.012150 0.132659
O O7 0.000000 0.000000 0.500000
O O8 0.500000 0.500000 0.500000
O O9 0.664798 0.374995 0.874314
O O10 0.789774 0.542491 0.797358
O O11 0.376992 0.397591 0.886534
O O12 0.992644 0.150534 0.805667
O O13 0.000000 0.000000 0.000000
O O14 0.920878 0.283047 0.408043
O O15 0.813674 0.659744 0.813451
O O16 0.500000 0.500000 0.000000
O O17 0.023733 0.593054 0.231655
O O18 0.555575 0.657379 0.441711
#
# Coordination Sequence:
#
# PCOD9029538 Si02
#       8
#     2   2   2   2   2   2   2   2
#     4  12  25  45  70 100 143 179 227 287 339 410
#     4  12  26  46  72 100 138 186 225 281 352 402
#     4   9  22  43  69  97 135 176 224 276 335 399
#     4  12  25  46  73 100 138 180 229 286 341 410
#     4  12  23  45  69 101 139 177 233 282 340 411
#     4  10  22  42  67  97 132 175 225 274 339 404
#     4  11  23  45  69  97 139 177 222 285 338 396
#     4  10  22  42  69 100 133 178 228 281 337 403
#
# _framework density 22.429841
#
# number of rings (size 3 to 8) (size 9 to 14) (size 15 to 20)
#    0.000    1.000    5.000    1.500    0.000    7.500 
#    0.000    2.500    2.750    0.000    0.000    0.000 
#    0.000    0.000    0.000    0.000    0.000    0.000 
#
# Total GULP energy -89228.467511 kJ/mol
# GULP energy per Si atom -5576.779219 kJ/mol
# Density = 2.237879 g / cm^3
# Si number density = 22.429841 Si / 1000 Ang^3
#
#
#
# Elastic Constant Matrix: (Units=GPa)
#
#
# Indices 1 2 3 4 5 6 
#
# 1 147.7931 51.3396 34.3557 -12.5296 -14.9111 10.1330
# 2 51.3396 85.0852 24.8764 -6.2399 2.4216 25.2019
# 3 34.3557 24.8764 95.3870 -3.7430 -7.7498 3.2072
# 4 -12.5296 -6.2399 -3.7430 32.5295 2.3296 -3.6428
# 5 -14.9111 2.4216 -7.7498 2.3296 39.2484 6.3976
# 6 10.1330 25.2019 3.2072 -3.6428 6.3976 27.5830
#
#
#
# Elastic Compliance Matrix: (Units=1/GPa)
#
#
# Indices 1 2 3 4 5 6 
#
# 1 0.009528 -0.005583 -0.001663 0.002323 0.003280 0.001340
# 2 -0.005583 0.020876 -0.002998 -0.000233 -0.001314 -0.016401
# 3 -0.001663 -0.002998 0.011952 0.000223 0.001637 0.001610
# 4 0.002323 -0.000233 0.000223 0.032176 -0.001614 0.003958
# 5 0.003280 -0.001314 0.001637 -0.001614 0.028364 -0.006987
# 6 0.001340 -0.016401 0.001610 0.003958 -0.006987 0.052703
#
#
# Mechanical properties :
#
#
# Convention : Reuss Voigt Hill
#
# Bulk Modulus (GPa) = 45.72851 61.04542 53.38696
# Shear Modulus (GPa) = 27.26633 34.38509 30.82571
#
# Velocity S-wave (km/s) = 3.49037 3.91961 3.71120
# Velocity P-wave (km/s) = 6.05600 6.91084 6.49749
#
# Compressibility (1/GPa) = 0.02186820
#
# Stress axis : x y z
#
# Youngs Moduli (GPa) = 104.95257 47.90147 83.66680
#
# Poissons Ratio (x) = 0.26743 0.13916
# Poissons Ratio (y) = 0.58593 0.25084
# Poissons Ratio (z) = 0.17456 0.14361
#
# Static dielectric constant tensor:
#      x y z
#    x 1.839800 0.044160 0.013010 
#    y 0.044160 1.901160 0.040070 
#    z 0.013010 0.040070 1.933060 
# 
# From -- ./inp_files/142571.got.cif
#   From: 2010.05.17/outbox.cif.g08.bks.cpg/sg2_72_cif.got.tgz:142571.got - 2010.06.03 11:33:40.
