data_PCOD9029916
_publ_section_title
;
Structure prediction by ZEFSAII (Michael W. Deem and Ramdas Pophale) SiO2 
 PCOD9029916
Probable space group: P -1
;
_chemical_formula_sum "Si O2"
_cell_formula_units_Z 15
_cell_length_a 14.108968
_cell_length_b 9.040931
_cell_length_c 26.078931
_cell_angle_alpha 42.027848
_cell_angle_beta 18.114409
_cell_angle_gamma 49.859771
_cell_volume 661.694412
_symmetry_space_group_name_H-M "P -1"
_symmetry_group_IT_number 2
_symmetry_cell_setting 'triclinic'
loop_
_space_group_symop_operation_xyz
x,y,z
-x,-y,-z
loop_
_atom_site_type_symbol
_atom_site_label
_atom_site_fract_x
_atom_site_fract_y
_atom_site_fract_z
Si Si1 0.000000 0.500000 0.000000
Si Si2 0.758201 0.857788 0.204119
Si Si3 0.360416 0.699805 0.837720
Si Si4 0.685101 0.883476 0.823273
Si Si5 0.248902 0.421676 0.538436
Si Si6 0.030408 0.983071 0.140967
Si Si7 0.201549 0.345403 0.461913
Si Si8 0.384365 0.428150 0.155515
O O1 0.007540 0.402901 0.959724
O O2 0.980716 0.231469 0.100274
O O3 0.557351 0.607197 0.354487
O O4 0.928217 0.856813 0.171191
O O5 0.535055 0.025565 0.284168
O O6 0.000000 0.000000 0.000000
O O7 0.463954 0.609061 0.752758
O O8 0.491423 0.606505 0.843285
O O9 0.657159 0.794626 0.801884
O O10 0.627235 0.650534 0.946239
O O11 0.007059 0.080659 0.619322
O O12 0.399485 0.992048 0.955464
O O13 0.173683 0.176652 0.668626
O O14 0.245899 0.396285 0.485451
O O15 0.949239 0.516292 0.682294
O O16 0.000000 0.500000 0.500000
#
# Coordination Sequence:
#
# PCOD9029916 Si02
#       8
#     1   2   2   2   2   2   2   2
#     4  10  24  42  64  94 126 176 222 262 332 386
#     4  11  25  43  69  95 129 183 227 273 325 397
#     4  11  24  41  65  91 135 173 220 274 324 398
#     4  10  23  41  68 100 130 167 224 268 343 385
#     4  11  25  42  68 100 135 174 223 275 339 384
#     4  10  23  44  70  94 136 177 220 278 322 408
#     4  12  25  39  65 101 137 170 214 278 331 402
#     4  10  22  42  68  99 129 172 216 283 324 402
#
# _framework density 22.669073999999998
#
# number of rings (size 3 to 8) (size 9 to 14) (size 15 to 20)
#    0.000    1.333    1.333    2.800    9.333    2.133 
#    0.000    5.333    0.000    0.000    0.000    0.000 
#    0.000    0.000    0.000    0.000    0.000    0.000 
#
# Total GULP energy -83735.042129 kJ/mol
# GULP energy per Si atom -5582.336142 kJ/mol
# Density = 2.261748 g / cm^3
# Si number density = 22.669074 Si / 1000 Ang^3
#
#
#
# Elastic Constant Matrix: (Units=GPa)
#
#
# Indices 1 2 3 4 5 6 
#
# 1 94.1768 17.1164 46.6445 -14.9542 5.8103 12.7324
# 2 17.1164 100.8355 37.5027 -18.4203 3.7579 10.2937
# 3 46.6445 37.5027 118.1901 -19.9006 0.0390 15.3085
# 4 -14.9542 -18.4203 -19.9006 32.1997 15.1395 -4.4866
# 5 5.8103 3.7579 0.0390 15.1395 26.2120 1.2559
# 6 12.7324 10.2937 15.3085 -4.4866 1.2559 41.5837
#
#
#
# Elastic Compliance Matrix: (Units=1/GPa)
#
#
# Indices 1 2 3 4 5 6 
#
# 1 0.014731 0.001203 -0.004544 0.008251 -0.008101 -0.002000
# 2 0.001203 0.012923 -0.002786 0.009635 -0.007619 -0.001272
# 3 -0.004544 -0.002786 0.012026 0.003796 -0.000712 -0.001915
# 4 0.008251 0.009635 0.003796 0.061079 -0.038563 0.001446
# 5 -0.008101 -0.007619 -0.000712 -0.038563 0.063382 -0.001446
# 6 -0.002000 -0.001272 -0.001915 0.001446 -0.001446 0.025880
#
#
# Mechanical properties :
#
#
# Convention : Reuss Voigt Hill
#
# Bulk Modulus (GPa) = 36.46250 57.30328 46.88289
# Shear Modulus (GPa) = 23.65007 34.12833 28.88920
#
# Velocity S-wave (km/s) = 3.23348 3.88429 3.57373
# Velocity P-wave (km/s) = 5.48271 6.74166 6.14451
#
# Compressibility (1/GPa) = 0.02742544
#
# Stress axis : x y z
#
# Youngs Moduli (GPa) = 67.88505 77.38218 83.15462
#
# Poissons Ratio (x) = -0.09309 0.37788
# Poissons Ratio (y) = -0.08166 0.23165
# Poissons Ratio (z) = 0.30849 0.21557
#
# Static dielectric constant tensor:
#      x y z
#    x 2.053020 -0.003720 -0.288970 
#    y -0.003720 1.882370 0.131110 
#    z -0.288970 0.131110 2.267110 
# 
# From -- ./inp_files/199026.got.cif
#   From: 2010.05.17/outbox.cif.g08.bks.cpg/sg2_100_cif.got.tgz:199026.got - 2010.06.03 11:33:40.
