data_PCOD9029602
_publ_section_title
;
Structure prediction by ZEFSAII (Michael W. Deem and Ramdas Pophale) SiO2 
 PCOD9029602
Probable space group: P -1
;
_chemical_formula_sum "Si O2"
_cell_formula_units_Z 16
_cell_length_a 17.904051
_cell_length_b 11.573862
_cell_length_c 9.124561
_cell_angle_alpha 125.086903
_cell_angle_beta 135.426453
_cell_angle_gamma 29.057501
_cell_volume 638.118076
_symmetry_space_group_name_H-M "P -1"
_symmetry_group_IT_number 2
_symmetry_cell_setting 'triclinic'
loop_
_space_group_symop_operation_xyz
x,y,z
-x,-y,-z
loop_
_atom_site_type_symbol
_atom_site_label
_atom_site_fract_x
_atom_site_fract_y
_atom_site_fract_z
Si Si1 0.333657 0.972396 0.462590
Si Si2 0.218902 0.384501 0.679131
Si Si3 0.424070 0.911302 0.212498
Si Si4 0.058500 0.769863 0.556610
Si Si5 0.285675 0.778945 0.768277
Si Si6 0.386127 0.615970 0.274211
Si Si7 0.685233 0.604420 0.889912
Si Si8 0.848988 0.544417 0.803620
O O1 0.265279 0.885331 0.301749
O O2 0.487101 0.821830 0.694645
O O3 0.196585 0.249782 0.490067
O O4 0.430182 0.880944 0.372352
O O5 0.064020 0.663001 0.627119
O O6 0.389509 0.267142 0.742993
O O7 0.275961 0.318733 0.879698
O O8 0.322683 0.168565 0.238888
O O9 0.320563 0.889139 0.979857
O O10 0.198860 0.750343 0.728437
O O11 0.112611 0.601233 0.381243
O O12 0.861962 0.038620 0.433574
O O13 0.471842 0.534392 0.771528
O O14 0.500000 0.500000 0.500000
O O15 0.293140 0.565056 0.117192
O O16 0.826100 0.471654 0.859973
O O17 0.000000 0.500000 0.000000
#
# Coordination Sequence:
#
# PCOD9029602 Si02
#       8
#     2   2   2   2   2   2   2   2
#     4  11  23  39  69 106 136 174 226 287 333 393
#     4  12  23  41  70 108 134 178 233 287 337 402
#     4  12  23  40  72 101 133 181 240 280 328 406
#     4  11  25  44  68 100 147 178 230 276 343 407
#     4  11  24  43  69 101 139 187 223 284 337 405
#     4  10  22  42  67  99 134 178 224 277 343 400
#     4  11  24  42  66 101 141 174 223 288 344 403
#     4  12  24  45  69  97 137 184 223 280 350 409
#
# _framework density 25.073732
#
# number of rings (size 3 to 8) (size 9 to 14) (size 15 to 20)
#    0.000    0.750    5.000    3.750    1.750    1.000 
#    0.000    3.125    0.000    5.250    0.000    0.000 
#    0.000    0.000    0.000    0.000    0.000    0.000 
#
# Total GULP energy -89609.193188 kJ/mol
# GULP energy per Si atom -5600.574574 kJ/mol
# Density = 2.501666 g / cm^3
# Si number density = 25.073732 Si / 1000 Ang^3
#
#
#
# Elastic Constant Matrix: (Units=GPa)
#
#
# Indices 1 2 3 4 5 6 
#
# 1 94.0595 39.8187 24.3044 0.8585 17.4049 20.3411
# 2 39.8187 90.6613 20.3559 7.7733 13.9048 21.5674
# 3 24.3044 20.3559 78.8671 20.5216 1.7778 1.4192
# 4 0.8585 7.7733 20.5216 36.1089 9.8164 0.1584
# 5 17.4049 13.9048 1.7778 9.8164 49.8341 12.6337
# 6 20.3411 21.5674 1.4192 0.1584 12.6337 35.9510
#
#
#
# Elastic Compliance Matrix: (Units=1/GPa)
#
#
# Indices 1 2 3 4 5 6 
#
# 1 0.015276 -0.004419 -0.004479 0.004132 -0.003598 -0.004569
# 2 -0.004419 0.015160 -0.001943 -0.001847 -0.000662 -0.006277
# 3 -0.004479 -0.001943 0.017054 -0.009978 0.002948 0.002034
# 4 0.004132 -0.001847 -0.009978 0.035860 -0.008106 0.001855
# 5 -0.003598 -0.000662 0.002948 -0.008106 0.024594 -0.006290
# 6 -0.004569 -0.006277 0.002034 0.001855 -0.006290 0.036288
#
#
# Mechanical properties :
#
#
# Convention : Reuss Voigt Hill
#
# Bulk Modulus (GPa) = 38.74522 48.06065 43.40294
# Shear Modulus (GPa) = 28.65057 36.31938 32.48498
#
# Velocity S-wave (km/s) = 3.38398 3.81005 3.60332
# Velocity P-wave (km/s) = 5.54567 6.21004 5.88724
#
# Compressibility (1/GPa) = 0.02580964
#
# Stress axis : x y z
#
# Youngs Moduli (GPa) = 65.46336 65.96190 58.63577
#
# Poissons Ratio (x) = 0.29149 0.26261
# Poissons Ratio (y) = 0.28929 0.11391
# Poissons Ratio (z) = 0.29319 0.12814
#
# Static dielectric constant tensor:
#      x y z
#    x 2.157870 -0.140520 0.171680 
#    y -0.140520 2.123620 -0.208160 
#    z 0.171680 -0.208160 2.153880 
# 
# From -- ./inp_files/333641.got.cif
#   From: 2010.05.17/outbox.cif.g08.bks.cpg/sg2_167_cif.got.tgz:333641.got - 2010.06.03 11:33:40.
