data_PCOD9029031
_publ_section_title
;
Structure prediction by ZEFSAII (Michael W. Deem and Ramdas Pophale) SiO2 
 PCOD9029031
Probable space group: P -1
;
_chemical_formula_sum "Si O2"
_cell_formula_units_Z 14
_cell_length_a 8.350361
_cell_length_b 7.073547
_cell_length_c 15.605128
_cell_angle_alpha 69.087571
_cell_angle_beta 39.796656
_cell_angle_gamma 83.455207
_cell_volume 530.944603
_symmetry_space_group_name_H-M "P -1"
_symmetry_group_IT_number 2
_symmetry_cell_setting 'triclinic'
loop_
_space_group_symop_operation_xyz
x,y,z
-x,-y,-z
loop_
_atom_site_type_symbol
_atom_site_label
_atom_site_fract_x
_atom_site_fract_y
_atom_site_fract_z
Si Si1 0.931679 0.575678 0.774119
Si Si2 0.655652 0.697988 0.337307
Si Si3 0.748588 0.774698 0.663629
Si Si4 0.605134 0.216830 0.870942
Si Si5 0.629987 0.987929 0.159599
Si Si6 0.802734 0.685290 0.457714
Si Si7 0.209082 0.540081 0.979904
O O1 0.942083 0.737622 0.665372
O O2 0.673328 0.390798 0.888884
O O3 0.166217 0.466380 0.705930
O O4 0.877122 0.636211 0.883186
O O5 0.748827 0.893130 0.204939
O O6 0.673156 0.779734 0.415545
O O7 0.379006 0.556859 0.436236
O O8 0.801689 0.762327 0.543214
O O9 0.491600 0.582360 0.815127
O O10 0.641794 0.973097 0.699705
O O11 0.416782 0.169888 0.874201
O O12 0.896190 0.272180 0.699691
O O13 0.500000 0.000000 0.000000
O O14 0.778288 0.222582 0.032711
O O15 0.000000 0.500000 0.000000
#
# Coordination Sequence:
#
# PCOD9029031 Si02
#       7
#     2   2   2   2   2   2   2
#     4  11  22  43  71  97 134 184 224 277 330 412
#     4  10  23  43  67 101 130 178 233 275 340 390
#     4  10  23  43  66 100 131 183 224 269 346 395
#     4  11  22  44  68 101 133 173 228 279 337 399
#     4  10  24  43  65 101 136 171 231 281 332 398
#     4  10  23  43  69  94 137 181 221 280 335 414
#     4  10  22  42  66 101 140 181 222 277 342 402
#
# _framework density 26.368099000000001
#
# number of rings (size 3 to 8) (size 9 to 14) (size 15 to 20)
#    0.857    0.857    1.429    2.143    0.000    8.000 
#   10.286    0.000    0.000    0.000    0.000    0.000 
#    0.000    0.000    0.000    0.000    0.000    0.000 
#
# Total GULP energy -78039.427849 kJ/mol
# GULP energy per Si atom -5574.244846 kJ/mol
# Density = 2.630808 g / cm^3
# Si number density = 26.368099 Si / 1000 Ang^3
#
#
#
# Elastic Constant Matrix: (Units=GPa)
#
#
# Indices 1 2 3 4 5 6 
#
# 1 156.9283 31.1157 63.7682 7.9442 32.7151 0.5254
# 2 31.1157 73.2525 17.2396 4.5024 10.5521 -1.5196
# 3 63.7682 17.2396 111.1414 16.9390 28.5694 -1.0912
# 4 7.9442 4.5024 16.9390 38.3418 12.2207 0.2268
# 5 32.7151 10.5521 28.5694 12.2207 65.2436 1.3515
# 6 0.5254 -1.5196 -1.0912 0.2268 1.3515 48.3917
#
#
#
# Elastic Compliance Matrix: (Units=1/GPa)
#
#
# Indices 1 2 3 4 5 6 
#
# 1 0.009112 -0.002562 -0.004376 0.001127 -0.002445 -0.000215
# 2 -0.002562 0.015036 -0.000543 -0.000750 -0.000780 0.000513
# 3 -0.004376 -0.000543 0.012864 -0.003876 -0.002634 0.000412
# 4 0.001127 -0.000750 -0.003876 0.028979 -0.004171 -0.000142
# 5 -0.002445 -0.000780 -0.002634 -0.004171 0.018625 -0.000558
# 6 -0.000215 0.000513 0.000412 -0.000142 -0.000558 0.020709
#
#
# Mechanical properties :
#
#
# Convention : Reuss Voigt Hill
#
# Bulk Modulus (GPa) = 45.34885 62.84102 54.09494
# Shear Modulus (GPa) = 39.17356 45.67533 42.42445
#
# Velocity S-wave (km/s) = 3.85858 4.16651 4.01550
# Velocity P-wave (km/s) = 6.08993 6.85787 6.48528
#
# Compressibility (1/GPa) = 0.02205127
#
# Stress axis : x y z
#
# Youngs Moduli (GPa) = 109.74614 66.50487 77.73509
#
# Poissons Ratio (x) = 0.17040 0.34017
# Poissons Ratio (y) = 0.28119 0.04218
# Poissons Ratio (z) = 0.48024 0.03608
#
# Static dielectric constant tensor:
#      x y z
#    x 2.142550 -0.160870 0.010010 
#    y -0.160870 2.355310 0.016850 
#    z 0.010010 0.016850 2.128150 
# 
# From -- ./inp_files/492247.got.cif
#   From: 2010.05.17/outbox.cif.g08.bks.cpg/sg2_247_cif.got.tgz:492247.got - 2010.06.03 11:33:40.
