data_PCOD9029630
_publ_section_title
;
Structure prediction by ZEFSAII (Michael W. Deem and Ramdas Pophale) SiO2 
 PCOD9029630
Probable space group: P -1
;
_chemical_formula_sum "Si O2"
_cell_formula_units_Z 16
_cell_length_a 13.396542
_cell_length_b 7.548231
_cell_length_c 9.468670
_cell_angle_alpha 125.402130
_cell_angle_beta 81.150904
_cell_angle_gamma 68.693630
_cell_volume 637.956980
_symmetry_space_group_name_H-M "P -1"
_symmetry_group_IT_number 2
_symmetry_cell_setting 'triclinic'
loop_
_space_group_symop_operation_xyz
x,y,z
-x,-y,-z
loop_
_atom_site_type_symbol
_atom_site_label
_atom_site_fract_x
_atom_site_fract_y
_atom_site_fract_z
Si Si1 0.008926 0.945951 0.190298
Si Si2 0.624003 0.669303 0.961436
Si Si3 0.814763 0.902348 0.650906
Si Si4 0.641012 0.265566 0.365677
Si Si5 0.614952 0.127307 0.027330
Si Si6 0.366606 0.181038 0.677911
Si Si7 0.208836 0.775765 0.442899
Si Si8 0.874439 0.438532 0.250093
O O1 0.109861 0.998458 0.241519
O O2 0.925557 0.005703 0.373213
O O3 0.920169 0.176941 0.206726
O O4 0.060583 0.675431 0.969772
O O5 0.586807 0.956296 0.055895
O O6 0.757071 0.473462 0.772957
O O7 0.631417 0.645471 0.116105
O O8 0.515164 0.654833 0.913113
O O9 0.710226 0.953311 0.804355
O O10 0.898029 0.612885 0.430966
O O11 0.752376 0.087218 0.613312
O O12 0.500000 0.500000 0.500000
O O13 0.709482 0.344852 0.491532
O O14 0.665083 0.007811 0.322846
O O15 0.675543 0.213557 0.169216
O O16 0.266886 0.364089 0.668644
O O17 0.500000 0.000000 0.500000
#
# Coordination Sequence:
#
# PCOD9029630 Si02
#       8
#     2   2   2   2   2   2   2   2
#     4  11  28  46  73 101 145 193 237 296 349 417
#     4  10  22  42  68 100 139 184 225 291 357 419
#     4  12  25  47  72 103 137 187 246 292 349 418
#     4  11  24  42  67 105 143 183 226 288 361 422
#     4  10  23  42  69 100 140 182 233 284 356 426
#     4  11  24  43  71 103 143 181 230 295 356 422
#     4  12  25  45  68 103 143 183 238 292 352 418
#     4  11  25  48  69 108 138 186 243 289 357 417
#
# _framework density 25.08006
#
# number of rings (size 3 to 8) (size 9 to 14) (size 15 to 20)
#    0.000    1.000    2.500    3.000    5.250    2.000 
#    2.250    0.000    0.000    0.000    0.000    0.000 
#    0.000    0.000    0.000    0.000    0.000    0.000 
#
# Total GULP energy -89401.236893 kJ/mol
# GULP energy per Si atom -5587.577306 kJ/mol
# Density = 2.502298 g / cm^3
# Si number density = 25.080060 Si / 1000 Ang^3
#
#
#
# Elastic Constant Matrix: (Units=GPa)
#
#
# Indices 1 2 3 4 5 6 
#
# 1 55.6020 15.3032 35.5935 -13.7749 0.2517 -21.3198
# 2 15.3032 93.3130 13.8515 -8.4084 0.8700 -19.1035
# 3 35.5935 13.8515 187.3427 -13.8015 5.6434 -16.3888
# 4 -13.7749 -8.4084 -13.8015 46.2044 -5.1387 4.4697
# 5 0.2517 0.8700 5.6434 -5.1387 27.0844 -1.5143
# 6 -21.3198 -19.1035 -16.3888 4.4697 -1.5143 32.5027
#
#
#
# Elastic Compliance Matrix: (Units=1/GPa)
#
#
# Indices 1 2 3 4 5 6 
#
# 1 0.027745 -0.000338 -0.003526 0.005931 0.002481 0.015523
# 2 -0.000338 0.012306 -0.000156 0.001473 0.000297 0.006744
# 3 -0.003526 -0.000156 0.006144 0.000579 -0.001101 0.000562
# 4 0.005931 0.001473 0.000579 0.024162 0.004469 0.001933
# 5 0.002481 0.000297 -0.001101 0.004469 0.038101 0.002407
# 6 0.015523 0.006744 0.000562 0.001933 0.002407 0.045042
#
#
# Mechanical properties :
#
#
# Convention : Reuss Voigt Hill
#
# Bulk Modulus (GPa) = 26.20863 51.75047 38.97955
# Shear Modulus (GPa) = 28.69289 39.25895 33.97592
#
# Velocity S-wave (km/s) = 3.38605 3.96074 3.68462
# Velocity P-wave (km/s) = 5.07541 6.44946 5.80324
#
# Compressibility (1/GPa) = 0.03815537
#
# Stress axis : x y z
#
# Youngs Moduli (GPa) = 36.04208 81.26294 162.75172
#
# Poissons Ratio (x) = 0.02743 0.57390
# Poissons Ratio (y) = 0.01217 0.02542
# Poissons Ratio (z) = 0.12709 0.01269
#
# Static dielectric constant tensor:
#      x y z
#    x 2.110670 0.027360 0.101690 
#    y 0.027360 1.958930 0.020170 
#    z 0.101690 0.020170 2.089910 
# 
# From -- ./inp_files/299494.got.cif
#   From: 2010.05.17/outbox.cif.g08.bks.cpg/sg2_150_cif.got.tgz:299494.got - 2010.06.03 11:33:40.
