data_PCOD9029880
_publ_section_title
;
Structure prediction by ZEFSAII (Michael W. Deem and Ramdas Pophale) SiO2 
 PCOD9029880
Probable space group: P -1
;
_chemical_formula_sum "Si O2"
_cell_formula_units_Z 14
_cell_length_a 13.558998
_cell_length_b 12.911411
_cell_length_c 18.441841
_cell_angle_alpha 151.864162
_cell_angle_beta 161.214610
_cell_angle_gamma 34.770833
_cell_volume 488.351209
_symmetry_space_group_name_H-M "P -1"
_symmetry_group_IT_number 2
_symmetry_cell_setting 'triclinic'
loop_
_space_group_symop_operation_xyz
x,y,z
-x,-y,-z
loop_
_atom_site_type_symbol
_atom_site_label
_atom_site_fract_x
_atom_site_fract_y
_atom_site_fract_z
Si Si1 0.284637 0.409656 0.728216
Si Si2 0.351542 0.808323 0.829941
Si Si3 0.221461 0.395234 0.176590
Si Si4 0.799675 0.678242 0.600169
Si Si5 0.859618 0.252918 0.965105
Si Si6 0.603612 0.990423 0.866617
Si Si7 0.287966 0.849428 0.422105
O O1 0.507454 0.309670 0.763634
O O2 0.023976 0.211878 0.443250
O O3 0.064573 0.609027 0.685450
O O4 0.500000 0.500000 0.000000
O O5 0.401503 0.561393 0.687720
O O6 0.500000 0.000000 0.000000
O O7 0.455045 0.847652 0.008966
O O8 0.994953 0.424997 0.104751
O O9 0.031648 0.224982 0.884949
O O10 0.473784 0.247242 0.293657
O O11 0.324464 0.619517 0.348692
O O12 0.549433 0.857678 0.545728
O O13 0.988253 0.709827 0.826723
O O14 0.041533 0.042983 0.932889
O O15 0.407163 0.011398 0.670555
#
# Coordination Sequence:
#
# PCOD9029880 Si02
#       7
#     2   2   2   2   2   2   2
#     4   8  16  30  49  74 104 133 173 206 246 313
#     4  10  19  28  51  81 104 132 167 211 266 302
#     4   9  19  28  53  75  99 134 182 204 247 306
#     4   8  17  29  52  71 104 133 167 209 253 300
#     4   8  16  31  49  74  95 134 177 203 241 309
#     4   9  19  30  52  74 102 132 166 218 255 298
#     4  10  17  32  51  74 102 135 176 213 243 301
#
# _framework density 28.667892999999999
#
# number of rings (size 3 to 8) (size 9 to 14) (size 15 to 20)
#    1.714    1.429    0.000    1.286    2.000    0.571 
#    0.000    0.714    3.143    3.429    0.000    0.000 
#    0.000    0.000    0.000    0.000    0.000    0.000 
#
# Total GULP energy -78099.477840 kJ/mol
# GULP energy per Si atom -5578.534131 kJ/mol
# Density = 2.860264 g / cm^3
# Si number density = 28.667893 Si / 1000 Ang^3
#
#
#
# Elastic Constant Matrix: (Units=GPa)
#
#
# Indices 1 2 3 4 5 6 
#
# 1 79.4961 45.6575 11.1616 4.9518 -21.5161 -34.0634
# 2 45.6575 104.9146 43.0257 10.0504 -7.5049 -18.6821
# 3 11.1616 43.0257 127.4907 -3.8244 -29.3644 -18.2898
# 4 4.9518 10.0504 -3.8244 38.3419 -7.9875 -8.7339
# 5 -21.5161 -7.5049 -29.3644 -7.9875 53.8903 5.6178
# 6 -34.0634 -18.6821 -18.2898 -8.7339 5.6178 41.1826
#
#
#
# Elastic Compliance Matrix: (Units=1/GPa)
#
#
# Indices 1 2 3 4 5 6 
#
# 1 0.033537 -0.013558 0.009049 0.009077 0.015123 0.025470
# 2 -0.013558 0.017402 -0.007612 -0.006732 -0.007393 -0.007120
# 3 0.009049 -0.007612 0.013529 0.006522 0.009840 0.010081
# 4 0.009077 -0.006732 0.006522 0.032274 0.009682 0.012875
# 5 0.015123 -0.007393 0.009840 0.009682 0.029152 0.011602
# 6 0.025470 -0.007120 0.010081 0.012875 0.011602 0.047744
#
#
# Mechanical properties :
#
#
# Convention : Reuss Voigt Hill
#
# Bulk Modulus (GPa) = 24.86025 56.84346 40.85186
# Shear Modulus (GPa) = 23.66439 40.82006 32.24222
#
# Velocity S-wave (km/s) = 2.87621 3.77755 3.35726
# Velocity P-wave (km/s) = 4.44081 6.23681 5.41380
#
# Compressibility (1/GPa) = 0.04022486
#
# Stress axis : x y z
#
# Youngs Moduli (GPa) = 29.81787 57.46538 73.91691
#
# Poissons Ratio (x) = 0.77913 -0.66887
# Poissons Ratio (y) = 0.40428 0.56265
# Poissons Ratio (z) = -0.26982 0.43742
#
# Static dielectric constant tensor:
#      x y z
#    x 2.316420 0.135860 0.115930 
#    y 0.135860 2.626080 0.159850 
#    z 0.115930 0.159850 2.272520 
# 
# From -- ./inp_files/598416.got.cif
#   From: 2010.05.17/outbox.cif.g08.bks.cpg/sg2_300_cif.got.tgz:598416.got - 2010.06.03 11:33:40.
