data_PCOD9029327
_publ_section_title
;
Structure prediction by ZEFSAII (Michael W. Deem and Ramdas Pophale) SiO2 
 PCOD9029327
Probable space group: P -1
;
_chemical_formula_sum "Si O2"
_cell_formula_units_Z 15
_cell_length_a 11.554281
_cell_length_b 5.284590
_cell_length_c 15.403068
_cell_angle_alpha 73.699159
_cell_angle_beta 43.122542
_cell_angle_gamma 74.078514
_cell_volume 613.582335
_symmetry_space_group_name_H-M "P -1"
_symmetry_group_IT_number 2
_symmetry_cell_setting 'triclinic'
loop_
_space_group_symop_operation_xyz
x,y,z
-x,-y,-z
loop_
_atom_site_type_symbol
_atom_site_label
_atom_site_fract_x
_atom_site_fract_y
_atom_site_fract_z
Si Si1 0.192209 0.770236 0.032871
Si Si2 0.506371 0.979622 0.101888
Si Si3 0.813240 0.631603 0.764888
Si Si4 0.712048 0.700981 0.510923
Si Si5 0.418766 0.488413 0.783214
Si Si6 0.892498 0.596550 0.134085
Si Si7 0.137875 0.769353 0.653084
Si Si8 0.000000 0.500000 0.500000
O O1 0.300761 0.649119 0.903415
O O2 0.295483 0.004370 0.985847
O O3 0.207145 0.563305 0.124528
O O4 0.997254 0.810147 0.104896
O O5 0.462780 0.726051 0.204163
O O6 0.367012 0.220904 0.178995
O O7 0.500000 0.000000 0.000000
O O8 0.906313 0.484256 0.647898
O O9 0.951320 0.827953 0.703681
O O10 0.522652 0.675719 0.650212
O O11 0.763674 0.461132 0.438444
O O12 0.827338 0.653425 0.537949
O O13 0.757557 0.979494 0.422445
O O14 0.299661 0.336720 0.798517
O O15 0.891974 0.358669 0.225762
O O16 0.000000 0.500000 0.000000
#
# Coordination Sequence:
#
# PCOD9029327 Si02
#       8
#     2   2   2   2   2   2   2   1
#     4  10  22  45  67 100 140 186 235 302 361 425
#     4  12  25  38  71 106 146 181 231 304 371 434
#     4  10  22  42  67 102 140 185 242 289 369 431
#     4  11  26  43  70 102 148 188 239 292 366 433
#     4  11  25  43  68 107 135 190 241 296 357 430
#     4   9  22  50  72 100 136 183 251 296 353 432
#     4  10  25  48  69 103 142 194 233 300 362 427
#     4  10  24  40  68  98 144 192 236 284 350 448
#
# _framework density 24.446594999999999
#
# number of rings (size 3 to 8) (size 9 to 14) (size 15 to 20)
#    0.000    1.600    1.333    1.200    7.467    4.800 
#    4.800    0.000    0.000    0.000    0.000    0.000 
#    0.000    0.000    0.000    0.000    0.000    0.000 
#
# Total GULP energy -83643.758216 kJ/mol
# GULP energy per Si atom -5576.250548 kJ/mol
# Density = 2.439095 g / cm^3
# Si number density = 24.446595 Si / 1000 Ang^3
#
#
#
# Elastic Constant Matrix: (Units=GPa)
#
#
# Indices 1 2 3 4 5 6 
#
# 1 104.2450 19.1764 43.7311 -25.4159 1.4619 1.7519
# 2 19.1764 59.5268 30.3325 -13.9612 -1.4421 3.8053
# 3 43.7311 30.3325 155.7814 -8.9250 -3.2244 3.6189
# 4 -25.4159 -13.9612 -8.9250 32.1622 7.8791 1.6607
# 5 1.4619 -1.4421 -3.2244 7.8791 30.9903 -5.2501
# 6 1.7519 3.8053 3.6189 1.6607 -5.2501 15.2518
#
#
#
# Elastic Compliance Matrix: (Units=1/GPa)
#
#
# Indices 1 2 3 4 5 6 
#
# 1 0.013836 -0.000036 -0.003239 0.011299 -0.004471 -0.003581
# 2 -0.000036 0.021074 -0.003477 0.009168 -0.002793 -0.006388
# 3 -0.003239 -0.003477 0.007905 -0.002221 0.001393 0.000085
# 4 0.011299 0.009168 -0.002221 0.047678 -0.014715 -0.013315
# 5 -0.004471 -0.002793 0.001393 -0.014715 0.038926 0.015881
# 6 -0.003581 -0.006388 0.000085 -0.013315 0.015881 0.074467
#
#
# Mechanical properties :
#
#
# Convention : Reuss Voigt Hill
#
# Bulk Modulus (GPa) = 34.11784 56.22593 45.17189
# Shear Modulus (GPa) = 22.01088 30.76842 26.38965
#
# Velocity S-wave (km/s) = 3.00387 3.55152 3.28911
# Velocity P-wave (km/s) = 5.10072 6.31404 5.73953
#
# Compressibility (1/GPa) = 0.02931018
#
# Stress axis : x y z
#
# Youngs Moduli (GPa) = 72.27533 47.45251 126.49901
#
# Poissons Ratio (x) = 0.00171 0.40973
# Poissons Ratio (y) = 0.00260 0.43988
# Poissons Ratio (z) = 0.23410 0.16501
#
# Static dielectric constant tensor:
#      x y z
#    x 1.978610 0.061950 -0.059930 
#    y 0.061950 1.979150 -0.021460 
#    z -0.059930 -0.021460 1.923860 
# 
# From -- ./inp_files/100493.got.cif
#   From: 2010.05.17/outbox.cif.g08.bks.cpg/sg2_51_cif.got.tgz:100493.got - 2010.06.03 11:33:40.
