data_PCOD9029492
_publ_section_title
;
Structure prediction by ZEFSAII (Michael W. Deem and Ramdas Pophale) SiO2 
 PCOD9029492
Probable space group: P -1
;
_chemical_formula_sum "Si O2"
_cell_formula_units_Z 14
_cell_length_a 9.839636
_cell_length_b 13.438926
_cell_length_c 21.646359
_cell_angle_alpha 157.285641
_cell_angle_beta 146.490792
_cell_angle_gamma 35.706761
_cell_volume 597.714689
_symmetry_space_group_name_H-M "P -1"
_symmetry_group_IT_number 2
_symmetry_cell_setting 'triclinic'
loop_
_space_group_symop_operation_xyz
x,y,z
-x,-y,-z
loop_
_atom_site_type_symbol
_atom_site_label
_atom_site_fract_x
_atom_site_fract_y
_atom_site_fract_z
Si Si1 0.625107 0.267087 0.139400
Si Si2 0.430721 0.170792 0.509861
Si Si3 0.233804 0.327079 0.918880
Si Si4 0.950610 0.088933 0.839241
Si Si5 0.965224 0.631177 0.746949
Si Si6 0.061411 0.036197 0.472520
Si Si7 0.685263 0.149867 0.902491
O O1 0.546163 0.529018 0.300073
O O2 0.843529 0.341463 0.220435
O O3 0.407727 0.226705 0.986505
O O4 0.769811 0.020458 0.092465
O O5 0.638806 0.032530 0.461038
O O6 0.500000 0.000000 0.500000
O O7 0.152719 0.132732 0.364961
O O8 0.425851 0.305439 0.920543
O O9 0.042129 0.153233 0.723261
O O10 0.099557 0.629715 0.051855
O O11 0.764322 0.138796 0.855841
O O12 0.948942 0.333697 0.580276
O O13 0.097686 0.729366 0.912776
O O14 0.715833 0.846963 0.763110
O O15 0.000000 0.000000 0.500000
#
# Coordination Sequence:
#
# PCOD9029492 Si02
#       7
#     2   2   2   2   2   2   2
#     4  10  22  42  67  96 120 173 221 262 311 378
#     4  12  22  44  69  91 128 170 219 263 312 380
#     4  11  22  38  61  94 137 168 203 265 327 380
#     4  11  21  39  68  93 126 167 224 262 309 381
#     4   9  18  37  62  93 126 161 220 259 306 377
#     4  12  25  39  65  98 134 169 207 264 330 378
#     4   9  18  35  64  91 122 169 212 263 307 371
#
# _framework density 23.422545
#
# number of rings (size 3 to 8) (size 9 to 14) (size 15 to 20)
#    0.000    1.429    2.857    4.286    0.000    1.143 
#    0.000    3.571    0.000    0.000    0.000    0.000 
#    0.000    0.000    0.000    0.000    0.000    0.000 
#
# Total GULP energy -78326.958365 kJ/mol
# GULP energy per Si atom -5594.782740 kJ/mol
# Density = 2.336923 g / cm^3
# Si number density = 23.422545 Si / 1000 Ang^3
#
#
#
# Elastic Constant Matrix: (Units=GPa)
#
#
# Indices 1 2 3 4 5 6 
#
# 1 76.0028 16.3806 -8.4288 -2.7035 -7.4691 -6.6051
# 2 16.3806 148.5659 57.8313 3.9862 5.2082 -4.2818
# 3 -8.4288 57.8313 114.5767 2.5237 -2.2054 -0.3579
# 4 -2.7035 3.9862 2.5237 39.2859 -3.6282 -5.6432
# 5 -7.4691 5.2082 -2.2054 -3.6282 23.7914 1.1661
# 6 -6.6051 -4.2818 -0.3579 -5.6432 1.1661 25.6893
#
#
#
# Elastic Compliance Matrix: (Units=1/GPa)
#
#
# Indices 1 2 3 4 5 6 
#
# 1 0.015013 -0.002823 0.002603 0.002206 0.005730 0.003650
# 2 -0.002823 0.009097 -0.004842 -0.001037 -0.003517 0.000655
# 3 0.002603 -0.004842 0.011416 0.000201 0.002969 -0.000069
# 4 0.002206 -0.001037 0.000201 0.027016 0.004758 0.006116
# 5 0.005730 -0.003517 0.002969 0.004758 0.045606 -0.000096
# 6 0.003650 0.000655 -0.000069 0.006116 -0.000096 0.041321
#
#
# Mechanical properties :
#
#
# Convention : Reuss Voigt Hill
#
# Bulk Modulus (GPa) = 39.36928 52.30126 45.83527
# Shear Modulus (GPa) = 29.75073 35.97750 32.86411
#
# Velocity S-wave (km/s) = 3.56782 3.92346 3.74986
# Velocity P-wave (km/s) = 5.81526 6.55001 6.19354
#
# Compressibility (1/GPa) = 0.02540052
#
# Stress axis : x y z
#
# Youngs Moduli (GPa) = 66.60734 109.92403 87.59798
#
# Poissons Ratio (x) = 0.31035 -0.22798
# Poissons Ratio (y) = 0.18805 0.42417
# Poissons Ratio (z) = -0.17335 0.53227
#
# Static dielectric constant tensor:
#      x y z
#    x 1.873010 -0.000160 0.000910 
#    y -0.000160 1.879430 0.013160 
#    z 0.000910 0.013160 1.872480 
# 
# From -- ./inp_files/255975.got.cif
#   From: 2010.05.17/outbox.cif.g08.bks.cpg/sg2_128_cif.got.tgz:255975.got - 2010.06.03 11:33:40.
