data_PCOD9029571
_publ_section_title
;
Structure prediction by ZEFSAII (Michael W. Deem and Ramdas Pophale) SiO2 
 PCOD9029571
Probable space group: P -1
;
_chemical_formula_sum "Si O2"
_cell_formula_units_Z 16
_cell_length_a 5.362606
_cell_length_b 7.756868
_cell_length_c 20.708961
_cell_angle_alpha 59.217359
_cell_angle_beta 101.325485
_cell_angle_gamma 112.871370
_cell_volume 681.880603
_symmetry_space_group_name_H-M "P -1"
_symmetry_group_IT_number 2
_symmetry_cell_setting 'triclinic'
loop_
_space_group_symop_operation_xyz
x,y,z
-x,-y,-z
loop_
_atom_site_type_symbol
_atom_site_label
_atom_site_fract_x
_atom_site_fract_y
_atom_site_fract_z
Si Si1 0.316915 0.634493 0.488325
Si Si2 0.794013 0.019438 0.887302
Si Si3 0.066029 0.825038 0.762398
Si Si4 0.640847 0.417467 0.354432
Si Si5 0.834048 0.424896 0.728262
Si Si6 0.870894 0.206361 0.986984
Si Si7 0.409398 0.023988 0.321480
Si Si8 0.279795 0.641333 0.922804
O O1 0.500000 0.500000 0.500000
O O2 0.392715 0.687906 0.556730
O O3 0.000000 0.500000 0.500000
O O4 0.363568 0.828393 0.404749
O O5 0.825785 0.206611 0.803012
O O6 0.058016 0.972644 0.934238
O O7 0.584081 0.794699 0.895457
O O8 0.708454 0.106658 0.933756
O O9 0.358487 0.956907 0.722468
O O10 0.103453 0.746257 0.850539
O O11 0.946730 0.614857 0.750835
O O12 0.865920 0.958862 0.724166
O O13 0.454907 0.565512 0.310760
O O14 0.525415 0.233739 0.331296
O O15 0.953258 0.528197 0.328874
O O16 0.748098 0.330040 0.007505
O O17 0.157302 0.391892 0.946923
#
# Coordination Sequence:
#
# PCOD9029571 Si02
#       8
#     2   2   2   2   2   2   2   2
#     4  12  25  42  65 100 136 170 214 280 321 387
#     4  11  23  41  65  92 130 177 222 281 339 396
#     4  10  22  42  67  98 130 172 222 279 327 398
#     4  10  23  44  69  94 132 177 220 263 333 398
#     4  10  22  42  67  98 130 172 222 279 327 398
#     4  10  24  44  60  94 130 168 236 268 348 400
#     4  10  23  44  69  94 132 177 220 263 333 398
#     4  11  23  41  65  92 130 177 222 281 339 396
#
# _framework density 23.464518000000002
#
# number of rings (size 3 to 8) (size 9 to 14) (size 15 to 20)
#    0.000    1.500    1.250    2.625    3.500    3.000 
#    0.000    5.000    0.000    0.000    0.000    0.000 
#    0.000    0.000    0.000    0.000    0.000    0.000 
#
# Total GULP energy -89516.887698 kJ/mol
# GULP energy per Si atom -5594.805481 kJ/mol
# Density = 2.341111 g / cm^3
# Si number density = 23.464518 Si / 1000 Ang^3
#
#
#
# Elastic Constant Matrix: (Units=GPa)
#
#
# Indices 1 2 3 4 5 6 
#
# 1 151.2729 26.5939 50.5121 -10.9336 7.2928 2.2263
# 2 26.5939 86.7936 24.4075 -1.6801 -2.3709 -4.2095
# 3 50.5121 24.4075 130.2203 -12.8577 18.7636 -8.6742
# 4 -10.9336 -1.6801 -12.8577 49.1754 -5.0879 2.1740
# 5 7.2928 -2.3709 18.7636 -5.0879 41.2615 1.4578
# 6 2.2263 -4.2095 -8.6742 2.1740 1.4578 16.4086
#
#
#
# Elastic Compliance Matrix: (Units=1/GPa)
#
#
# Indices 1 2 3 4 5 6 
#
# 1 0.008012 -0.001777 -0.002886 0.001113 0.000045 -0.003220
# 2 -0.001777 0.012738 -0.001823 -0.000364 0.001744 0.002438
# 3 -0.002886 -0.001823 0.010257 0.001288 -0.004297 0.005557
# 4 0.001113 -0.000364 0.001288 0.021216 0.001903 -0.002544
# 5 0.000045 0.001744 -0.004297 0.001903 0.026674 -0.004452
# 6 -0.003220 0.002438 0.005557 -0.002544 -0.004452 0.065676
#
#
# Mechanical properties :
#
#
# Convention : Reuss Voigt Hill
#
# Bulk Modulus (GPa) = 55.44765 63.47933 59.46349
# Shear Modulus (GPa) = 30.57052 39.15400 34.86226
#
# Velocity S-wave (km/s) = 3.61340 4.08934 3.85872
# Velocity P-wave (km/s) = 6.41020 7.02915 6.72680
#
# Compressibility (1/GPa) = 0.01803503
#
# Stress axis : x y z
#
# Youngs Moduli (GPa) = 124.80845 78.50831 97.49573
#
# Poissons Ratio (x) = 0.13949 0.28137
# Poissons Ratio (y) = 0.22176 0.17773
# Poissons Ratio (z) = 0.36020 0.14312
#
# Static dielectric constant tensor:
#      x y z
#    x 1.922640 0.006200 -0.043330 
#    y 0.006200 1.904730 0.012180 
#    z -0.043330 0.012180 1.845940 
# 
# From -- ./inp_files/116342.got.cif
#   From: 2010.05.17/outbox.cif.g08.bks.cpg/sg2_59_cif.got.tgz:116342.got - 2010.06.03 11:33:40.
