data_PCOD9029830
_publ_section_title
;
Structure prediction by ZEFSAII (Michael W. Deem and Ramdas Pophale) SiO2 
 PCOD9029830
Probable space group: P -1
;
_chemical_formula_sum "Si O2"
_cell_formula_units_Z 12
_cell_length_a 8.753774
_cell_length_b 5.912977
_cell_length_c 11.706111
_cell_angle_alpha 83.434667
_cell_angle_beta 70.944735
_cell_angle_gamma 62.186394
_cell_volume 506.027232
_symmetry_space_group_name_H-M "P -1"
_symmetry_group_IT_number 2
_symmetry_cell_setting 'triclinic'
loop_
_space_group_symop_operation_xyz
x,y,z
-x,-y,-z
loop_
_atom_site_type_symbol
_atom_site_label
_atom_site_fract_x
_atom_site_fract_y
_atom_site_fract_z
Si Si1 0.607407 0.397467 0.659198
Si Si2 0.422812 0.090062 0.845627
Si Si3 0.644927 0.110188 0.433379
Si Si4 0.354448 0.406469 0.068125
Si Si5 0.019730 0.607115 0.365041
Si Si6 0.025075 0.383633 0.871120
O O1 0.521187 0.242740 0.757196
O O2 0.659686 0.262334 0.531060
O O3 0.448758 0.680451 0.654252
O O4 0.789988 0.380448 0.671370
O O5 0.229557 0.161950 0.830832
O O6 0.563748 0.793845 0.836980
O O7 0.360212 0.215313 0.978069
O O8 0.500000 0.000000 0.500000
O O9 0.845095 0.882140 0.381127
O O10 0.156484 0.650368 0.095506
O O11 0.500000 0.500000 0.000000
O O12 0.000000 0.500000 0.500000
O O13 0.005087 0.471147 0.255737
O O14 0.000000 0.500000 0.000000
#
# Coordination Sequence:
#
# PCOD9029830 Si02
#       6
#     2   2   2   2   2   2
#     4  11  25  43  70 105 141 192 231 296 362 419
#     4  10  23  41  66  97 131 178 231 282 343 418
#     4  11  24  44  67 102 145 182 237 291 356 425
#     4  10  22  42  68  96 131 176 230 285 344 414
#     4  12  25  42  72 106 141 188 241 297 356 422
#     4  10  24  44  68 100 141 185 233 289 358 423
#
# _framework density 23.714138999999999
#
# number of rings (size 3 to 8) (size 9 to 14) (size 15 to 20)
#    0.000    1.333    1.667    2.500    4.667    6.000 
#    0.000    3.333    0.000    0.000    0.000    0.000 
#    0.000    0.000    0.000    0.000    0.000    0.000 
#
# Total GULP energy -66849.179475 kJ/mol
# GULP energy per Si atom -5570.764956 kJ/mol
# Density = 2.366016 g / cm^3
# Si number density = 23.714139 Si / 1000 Ang^3
#
#
#
# Elastic Constant Matrix: (Units=GPa)
#
#
# Indices 1 2 3 4 5 6 
#
# 1 223.0627 94.6482 59.9881 -6.4353 -5.4902 -59.4010
# 2 94.6482 132.3277 45.1101 -17.2081 -12.5966 -37.8000
# 3 59.9881 45.1101 135.1814 -5.1210 40.2738 -14.3813
# 4 -6.4353 -17.2081 -5.1210 45.7023 10.4624 -1.8252
# 5 -5.4902 -12.5966 40.2738 10.4624 69.7584 10.0585
# 6 -59.4010 -37.8000 -14.3813 -1.8252 10.0585 37.2596
#
#
#
# Elastic Compliance Matrix: (Units=1/GPa)
#
#
# Indices 1 2 3 4 5 6 
#
# 1 0.009097 -0.002623 -0.001804 0.000643 -0.000442 0.011296
# 2 -0.002623 0.013470 -0.002970 0.004192 0.002165 0.007958
# 3 -0.001804 -0.002970 0.011661 0.001749 -0.007788 0.000800
# 4 0.000643 0.004192 0.001749 0.025288 -0.005236 0.008605
# 5 -0.000442 0.002165 -0.007788 -0.005236 0.021047 -0.007452
# 6 0.011296 0.007958 0.000800 0.008605 -0.007452 0.055662
#
#
# Mechanical properties :
#
#
# Convention : Reuss Voigt Hill
#
# Bulk Modulus (GPa) = 51.45929 98.89608 75.17769
# Shear Modulus (GPa) = 31.74620 49.93242 40.83931
#
# Velocity S-wave (km/s) = 3.66280 4.59366 4.15438
# Velocity P-wave (km/s) = 6.29564 8.36239 7.40151
#
# Compressibility (1/GPa) = 0.01943284
#
# Stress axis : x y z
#
# Youngs Moduli (GPa) = 109.92518 74.23657 85.75781
#
# Poissons Ratio (x) = 0.19476 0.15469
# Poissons Ratio (y) = 0.28839 0.25474
# Poissons Ratio (z) = 0.19828 0.22051
#
# Static dielectric constant tensor:
#      x y z
#    x 1.892850 -0.005660 0.043390 
#    y -0.005660 1.853460 0.043880 
#    z 0.043390 0.043880 2.103780 
# 
# From -- ./inp_files/372912.got.cif
#   From: 2010.05.17/outbox.cif.g08.bks.cpg/sg2_187_cif.got.tgz:372912.got - 2010.06.03 11:33:40.
