data_PCOD9029337
_publ_section_title
;
Structure prediction by ZEFSAII (Michael W. Deem and Ramdas Pophale) SiO2 
 PCOD9029337
Probable space group: P -1
;
_chemical_formula_sum "Si O2"
_cell_formula_units_Z 16
_cell_length_a 8.295947
_cell_length_b 15.426682
_cell_length_c 12.153260
_cell_angle_alpha 50.795431
_cell_angle_beta 33.763544
_cell_angle_gamma 68.544363
_cell_volume 622.074554
_symmetry_space_group_name_H-M "P -1"
_symmetry_group_IT_number 2
_symmetry_cell_setting 'triclinic'
loop_
_space_group_symop_operation_xyz
x,y,z
-x,-y,-z
loop_
_atom_site_type_symbol
_atom_site_label
_atom_site_fract_x
_atom_site_fract_y
_atom_site_fract_z
Si Si1 0.763628 0.204583 0.220650
Si Si2 0.559511 0.186109 0.107803
Si Si3 0.377808 0.059175 0.747294
Si Si4 0.517149 0.418869 0.892242
Si Si5 0.993350 0.555936 0.682188
Si Si6 0.194148 0.059719 0.085249
Si Si7 0.225609 0.464137 0.817239
Si Si8 0.199796 0.810815 0.247398
O O1 0.521759 0.159885 0.493552
O O2 0.912771 0.103979 0.199052
O O3 0.630337 0.221738 0.165532
O O4 0.036926 0.327185 0.999451
O O5 0.389532 0.273015 0.089394
O O6 0.849433 0.219409 0.829625
O O7 0.464662 0.041231 0.275742
O O8 0.413924 0.101953 0.818347
O O9 0.000000 0.000000 0.000000
O O10 0.840990 0.468991 0.735212
O O11 0.504589 0.461969 0.739975
O O12 0.291669 0.465452 0.053863
O O13 0.253404 0.540096 0.628278
O O14 0.088603 0.689997 0.474920
O O15 0.081300 0.915341 0.267875
O O16 0.424841 0.121310 0.004115
O O17 0.000000 0.500000 0.000000
#
# Coordination Sequence:
#
# PCOD9029337 Si02
#       8
#     2   2   2   2   2   2   2   2
#     4  12  24  45  77 101 151 194 237 307 370 440
#     4  11  23  43  65 104 145 185 244 293 365 438
#     4  11  25  43  72 110 143 191 246 299 370 438
#     4  10  22  42  67 103 139 186 255 292 370 439
#     4  10  22  44  70 101 141 195 240 308 362 426
#     4  10  24  47  67 111 142 190 248 299 371 439
#     4  10  23  45  70 108 142 189 253 295 373 436
#     4  10  24  45  69 100 155 182 249 311 356 438
#
# _framework density 25.720389000000001
#
# number of rings (size 3 to 8) (size 9 to 14) (size 15 to 20)
#    0.000    1.500    2.500    1.125    5.250    1.500 
#    2.250    3.750    0.000    0.000    0.000    0.000 
#    0.000    0.000    0.000    0.000    0.000    0.000 
#
# Total GULP energy -89478.173661 kJ/mol
# GULP energy per Si atom -5592.385854 kJ/mol
# Density = 2.566185 g / cm^3
# Si number density = 25.720389 Si / 1000 Ang^3
#
#
#
# Elastic Constant Matrix: (Units=GPa)
#
#
# Indices 1 2 3 4 5 6 
#
# 1 135.2571 30.2729 62.8592 1.9219 49.9228 5.1447
# 2 30.2729 86.0415 21.6137 -4.5733 16.1829 7.1439
# 3 62.8592 21.6137 117.5829 -12.1015 36.9931 9.3784
# 4 1.9219 -4.5733 -12.1015 31.2821 -9.9801 3.8031
# 5 49.9228 16.1829 36.9931 -9.9801 47.7119 1.2889
# 6 5.1447 7.1439 9.3784 3.8031 1.2889 46.1419
#
#
#
# Elastic Compliance Matrix: (Units=1/GPa)
#
#
# Indices 1 2 3 4 5 6 
#
# 1 0.014599 -0.002094 -0.004138 -0.006952 -0.012824 0.000469
# 2 -0.002094 0.012989 -0.000512 0.001585 -0.001439 -0.001764
# 3 -0.004138 -0.000512 0.012833 0.003966 -0.004556 -0.002267
# 4 -0.006952 0.001585 0.003966 0.038380 0.011792 -0.003769
# 5 -0.012824 -0.001439 -0.004556 0.011792 0.040852 0.000466
# 6 0.000469 -0.001764 -0.002267 -0.003769 0.000466 0.022652
#
#
# Mechanical properties :
#
#
# Convention : Reuss Voigt Hill
#
# Bulk Modulus (GPa) = 37.12726 63.15255 50.13991
# Shear Modulus (GPa) = 30.34523 39.96959 35.15741
#
# Velocity S-wave (km/s) = 3.43857 3.94636 3.70118
# Velocity P-wave (km/s) = 5.49830 6.73586 6.14830
#
# Compressibility (1/GPa) = 0.02693438
#
# Stress axis : x y z
#
# Youngs Moduli (GPa) = 68.49622 76.98934 77.92217
#
# Poissons Ratio (x) = 0.16118 0.32245
# Poissons Ratio (y) = 0.14340 0.03988
# Poissons Ratio (z) = 0.28345 0.03940
#
# Static dielectric constant tensor:
#      x y z
#    x 2.099900 -0.010740 0.000660 
#    y -0.010740 2.045920 0.024580 
#    z 0.000660 0.024580 2.024100 
# 
# From -- ./inp_files/398519.got.cif
#   From: 2010.05.17/outbox.cif.g08.bks.cpg/sg2_200_cif.got.tgz:398519.got - 2010.06.03 11:33:40.
