data_PCOD9029432
_publ_section_title
;
Structure prediction by ZEFSAII (Michael W. Deem and Ramdas Pophale) SiO2 
 PCOD9029432
Probable space group: P -1
;
_chemical_formula_sum "Si O2"
_cell_formula_units_Z 14
_cell_length_a 22.689967
_cell_length_b 12.515197
_cell_length_c 9.733837
_cell_angle_alpha 46.731302
_cell_angle_beta 35.023448
_cell_angle_gamma 24.040282
_cell_volume 622.757148
_symmetry_space_group_name_H-M "P -1"
_symmetry_group_IT_number 2
_symmetry_cell_setting 'triclinic'
loop_
_space_group_symop_operation_xyz
x,y,z
-x,-y,-z
loop_
_atom_site_type_symbol
_atom_site_label
_atom_site_fract_x
_atom_site_fract_y
_atom_site_fract_z
Si Si1 0.488408 0.879850 0.231442
Si Si2 0.171190 0.656603 0.402847
Si Si3 0.470560 0.965847 0.736084
Si Si4 0.858892 0.803998 0.963922
Si Si5 0.108894 0.798282 0.690497
Si Si6 0.163261 0.076121 0.803630
Si Si7 0.699746 0.338806 0.281705
O O1 0.641436 0.576070 0.155593
O O2 0.549101 0.876943 0.261631
O O3 0.280546 0.052389 0.506761
O O4 0.500000 0.000000 0.000000
O O5 0.346749 0.349219 0.288265
O O6 0.226481 0.649299 0.455371
O O7 0.991538 0.767550 0.676910
O O8 0.085321 0.886005 0.268722
O O9 0.500000 0.000000 0.500000
O O10 0.292851 0.072044 0.964451
O O11 0.759385 0.981593 0.138685
O O12 0.000000 0.500000 0.000000
O O13 0.214534 0.759197 0.642734
O O14 0.054356 0.697473 0.931563
O O15 0.176401 0.910281 0.834908
O O16 0.500000 0.500000 0.500000
#
# Coordination Sequence:
#
# PCOD9029432 Si02
#       7
#     2   2   2   2   2   2   2
#     4  11  25  43  66 103 135 175 234 282 340 418
#     4  10  23  41  67 104 136 173 236 289 336 416
#     4  12  22  42  73  96 141 187 225 286 353 407
#     4  11  22  40  68 104 137 178 232 285 347 405
#     4  10  22  43  66  98 137 175 230 288 343 407
#     4  10  22  42  67  94 132 184 219 283 347 395
#     4  10  23  42  69  91 138 181 224 276 347 414
#
# _framework density 22.480674
#
# number of rings (size 3 to 8) (size 9 to 14) (size 15 to 20)
#    0.000    1.429    2.857    1.286    6.000    2.286 
#    2.571    2.857    0.000    0.000    0.000    0.000 
#    0.000    0.000    0.000    0.000    0.000    0.000 
#
# Total GULP energy -77964.887735 kJ/mol
# GULP energy per Si atom -5568.920552 kJ/mol
# Density = 2.242951 g / cm^3
# Si number density = 22.480674 Si / 1000 Ang^3
#
#
#
# Elastic Constant Matrix: (Units=GPa)
#
#
# Indices 1 2 3 4 5 6 
#
# 1 163.7501 26.5605 54.3394 -6.4187 -10.8816 15.4832
# 2 26.5605 91.7688 16.8782 -14.4838 -7.2704 5.1660
# 3 54.3394 16.8782 107.5809 -17.7219 -3.0563 -13.4330
# 4 -6.4187 -14.4838 -17.7219 24.8022 -1.2924 -8.3907
# 5 -10.8816 -7.2704 -3.0563 -1.2924 27.6813 1.9265
# 6 15.4832 5.1660 -13.4330 -8.3907 1.9265 34.5513
#
#
#
# Elastic Compliance Matrix: (Units=1/GPa)
#
#
# Indices 1 2 3 4 5 6 
#
# 1 0.009109 -0.001728 -0.006114 -0.005477 0.002731 -0.007683
# 2 -0.001728 0.012741 0.000289 0.007578 0.003008 0.000654
# 3 -0.006114 0.000289 0.016260 0.014416 -0.000733 0.012560
# 4 -0.005477 0.007578 0.014416 0.061081 0.002777 0.021605
# 5 0.002731 0.003008 -0.000733 0.002777 0.038276 -0.003418
# 6 -0.007683 0.000654 0.012560 0.021605 -0.003418 0.042608
#
#
# Mechanical properties :
#
#
# Convention : Reuss Voigt Hill
#
# Bulk Modulus (GPa) = 43.46703 62.07289 52.76996
# Shear Modulus (GPa) = 24.64882 35.09508 29.87195
#
# Velocity S-wave (km/s) = 3.31485 3.95539 3.64920
# Velocity P-wave (km/s) = 5.83338 6.96647 6.42495
#
# Compressibility (1/GPa) = 0.02300594
#
# Stress axis : x y z
#
# Youngs Moduli (GPa) = 109.77848 78.48514 61.49890
#
# Poissons Ratio (x) = 0.13558 0.37601
# Poissons Ratio (y) = 0.18964 -0.01778
# Poissons Ratio (z) = 0.67119 -0.02269
#
# Static dielectric constant tensor:
#      x y z
#    x 1.893080 0.040270 0.038780 
#    y 0.040270 1.884140 -0.021220 
#    z 0.038780 -0.021220 1.968890 
# 
# From -- ./inp_files/345046.got.cif
#   From: 2010.05.17/outbox.cif.g08.bks.cpg/sg2_173_cif.got.tgz:345046.got - 2010.06.03 11:33:40.
