data_PCOD9029369
_publ_section_title
;
Structure prediction by ZEFSAII (Michael W. Deem and Ramdas Pophale) SiO2 
 PCOD9029369
Probable space group: P -1
;
_chemical_formula_sum "Si O2"
_cell_formula_units_Z 16
_cell_length_a 11.618774
_cell_length_b 12.123958
_cell_length_c 8.461497
_cell_angle_alpha 57.427329
_cell_angle_beta 50.415751
_cell_angle_gamma 67.417411
_cell_volume 772.579463
_symmetry_space_group_name_H-M "P -1"
_symmetry_group_IT_number 2
_symmetry_cell_setting 'triclinic'
loop_
_space_group_symop_operation_xyz
x,y,z
-x,-y,-z
loop_
_atom_site_type_symbol
_atom_site_label
_atom_site_fract_x
_atom_site_fract_y
_atom_site_fract_z
Si Si1 0.331839 0.509715 0.707902
Si Si2 0.847668 0.235969 0.441509
Si Si3 0.516786 0.394394 0.203027
Si Si4 0.681011 0.722030 0.294461
Si Si5 0.421479 0.941485 0.261022
Si Si6 0.009965 0.160612 0.034009
Si Si7 0.126815 0.868758 0.154416
Si Si8 0.536550 0.108750 0.256109
O O1 0.500000 0.500000 0.500000
O O2 0.231652 0.619318 0.618531
O O3 0.353202 0.562780 0.825457
O O4 0.282997 0.363895 0.828665
O O5 0.726309 0.128415 0.596401
O O6 0.954137 0.216340 0.209887
O O7 0.895041 0.210978 0.602135
O O8 0.369979 0.379548 0.450368
O O9 0.538311 0.251741 0.216719
O O10 0.500000 0.500000 0.000000
O O11 0.539572 0.826724 0.312806
O O12 0.824593 0.791799 0.170912
O O13 0.405577 0.072705 0.279560
O O14 0.500000 0.000000 0.000000
O O15 0.914128 0.193076 0.932997
O O16 0.024054 0.003064 0.156014
O O17 0.300231 0.907043 0.957183
O O18 0.500000 0.000000 0.500000
#
# Coordination Sequence:
#
# PCOD9029369 Si02
#       8
#     2   2   2   2   2   2   2   2
#     4  10  22  42  67  90 136 171 218 282 334 393
#     4  12  23  44  67 100 132 182 227 271 353 407
#     4  11  24  39  66 103 132 177 222 278 349 399
#     4  11  23  45  63  98 136 173 224 284 336 404
#     4  12  22  37  68 100 126 169 227 289 337 392
#     4  11  24  45  65  96 142 175 220 281 344 408
#     4  11  24  40  69  95 138 178 217 282 347 407
#     4  12  21  39  65  99 132 166 224 284 338 389
#
# _framework density 20.709844
#
# number of rings (size 3 to 8) (size 9 to 14) (size 15 to 20)
#    0.000    0.750    6.250    1.875    5.250    1.500 
#    2.250    0.625    0.000    0.000    0.000    0.000 
#    0.000    0.000    0.000    0.000    0.000    0.000 
#
# Total GULP energy -89154.810492 kJ/mol
# GULP energy per Si atom -5572.175656 kJ/mol
# Density = 2.066271 g / cm^3
# Si number density = 20.709844 Si / 1000 Ang^3
#
#
#
# Elastic Constant Matrix: (Units=GPa)
#
#
# Indices 1 2 3 4 5 6 
#
# 1 86.4594 26.6943 33.4178 -14.1782 24.7621 11.2064
# 2 26.6943 119.9299 12.3026 -0.1302 24.2160 14.1361
# 3 33.4178 12.3026 95.1917 -0.4044 28.8433 -7.1932
# 4 -14.1782 -0.1302 -0.4044 28.2847 -0.1471 -3.0256
# 5 24.7621 24.2160 28.8433 -0.1471 41.9341 -4.1795
# 6 11.2064 14.1361 -7.1932 -3.0256 -4.1795 32.4436
#
#
#
# Elastic Compliance Matrix: (Units=1/GPa)
#
#
# Indices 1 2 3 4 5 6 
#
# 1 0.018042 -0.001210 -0.004355 0.008200 -0.007617 -0.006887
# 2 -0.001210 0.010364 0.000579 -0.001103 -0.006157 -0.004865
# 3 -0.004355 0.000579 0.014437 -0.001654 -0.007364 0.003350
# 4 0.008200 -0.001103 -0.001654 0.039485 -0.002870 0.000594
# 5 -0.007617 -0.006157 -0.007364 -0.002870 0.037781 0.008280
# 6 -0.006887 -0.004865 0.003350 0.000594 0.008280 0.037186
#
#
# Mechanical properties :
#
#
# Convention : Reuss Voigt Hill
#
# Bulk Modulus (GPa) = 30.42376 49.60116 40.01246
# Shear Modulus (GPa) = 28.05462 35.81024 31.93243
#
# Velocity S-wave (km/s) = 3.68455 4.16281 3.93096
# Velocity P-wave (km/s) = 5.72919 6.86351 6.32184
#
# Compressibility (1/GPa) = 0.03286905
#
# Stress axis : x y z
#
# Youngs Moduli (GPa) = 55.42674 96.49052 69.26791
#
# Poissons Ratio (x) = 0.11680 0.30165
# Poissons Ratio (y) = 0.06709 -0.04009
# Poissons Ratio (z) = 0.24138 -0.05584
#
# Static dielectric constant tensor:
#      x y z
#    x 1.291650 -0.228110 -0.157670 
#    y -0.228110 1.664020 -0.054720 
#    z -0.157670 -0.054720 1.652150 
# 
# From -- ./inp_files/261973.got.cif
#   From: 2010.05.17/outbox.cif.g08.bks.cpg/sg2_131_cif.got.tgz:261973.got - 2010.06.03 11:33:40.
