data_PCOD9029611
_publ_section_title
;
Structure prediction by ZEFSAII (Michael W. Deem and Ramdas Pophale) SiO2 
 PCOD9029611
Probable space group: P -1
;
_chemical_formula_sum "Si O2"
_cell_formula_units_Z 14
_cell_length_a 6.119676
_cell_length_b 8.814705
_cell_length_c 19.826479
_cell_angle_alpha 41.062293
_cell_angle_beta 109.043520
_cell_angle_gamma 124.877832
_cell_volume 565.321310
_symmetry_space_group_name_H-M "P -1"
_symmetry_group_IT_number 2
_symmetry_cell_setting 'triclinic'
loop_
_space_group_symop_operation_xyz
x,y,z
-x,-y,-z
loop_
_atom_site_type_symbol
_atom_site_label
_atom_site_fract_x
_atom_site_fract_y
_atom_site_fract_z
Si Si1 0.809557 0.485291 0.330890
Si Si2 0.760755 0.634703 0.135086
Si Si3 0.177073 0.983636 0.582030
Si Si4 0.840722 0.854654 0.727985
Si Si5 0.306470 0.715268 0.394388
Si Si6 0.308709 0.910482 0.074179
Si Si7 0.627398 0.841381 0.248811
O O1 0.883684 0.699666 0.203360
O O2 0.729742 0.216758 0.370688
O O3 0.617301 0.559467 0.327778
O O4 0.025553 0.494722 0.403440
O O5 0.451567 0.402012 0.196538
O O6 0.015626 0.633618 0.127756
O O7 0.740952 0.841328 0.013215
O O8 0.979457 0.864313 0.667410
O O9 0.455294 0.257512 0.541917
O O10 0.000000 0.000000 0.500000
O O11 0.796283 0.107054 0.639535
O O12 0.059406 0.930733 0.783889
O O13 0.481841 0.844063 0.301437
O O14 0.472507 0.886078 0.159077
O O15 0.500000 0.000000 0.000000
#
# Coordination Sequence:
#
# PCOD9029611 Si02
#       7
#     2   2   2   2   2   2   2
#     4  11  22  41  71  94 135 183 221 278 349 402
#     4  11  23  39  66  99 133 183 227 275 338 390
#     4  11  26  46  72 103 133 175 231 287 342 417
#     4  10  24  44  70  98 139 183 225 281 348 406
#     4  10  22  43  68 100 136 178 228 277 347 416
#     4  11  23  38  65 102 139 176 240 280 319 409
#     4  10  22  42  67  99 139 185 226 279 341 401
#
# _framework density 24.764679000000001
#
# number of rings (size 3 to 8) (size 9 to 14) (size 15 to 20)
#    0.000    1.429    4.286    0.000    4.000    1.714 
#    0.000    7.857    0.000    0.000    0.000    0.000 
#    0.000    0.000    0.000    0.000    0.000    0.000 
#
# Total GULP energy -77946.658399 kJ/mol
# GULP energy per Si atom -5567.618457 kJ/mol
# Density = 2.470831 g / cm^3
# Si number density = 24.764679 Si / 1000 Ang^3
#
#
#
# Elastic Constant Matrix: (Units=GPa)
#
#
# Indices 1 2 3 4 5 6 
#
# 1 135.0268 71.3035 63.2987 22.7961 4.0713 34.0412
# 2 71.3035 139.2765 51.7571 20.7496 12.4047 13.2808
# 3 63.2987 51.7571 119.5146 25.8142 11.9884 7.0225
# 4 22.7961 20.7496 25.8142 29.6892 12.7125 7.4606
# 5 4.0713 12.4047 11.9884 12.7125 41.0585 8.5517
# 6 34.0412 13.2808 7.0225 7.4606 8.5517 39.1301
#
#
#
# Elastic Compliance Matrix: (Units=1/GPa)
#
#
# Indices 1 2 3 4 5 6 
#
# 1 0.015879 -0.004985 -0.005364 -0.003231 0.004918 -0.011618
# 2 -0.004985 0.010552 -0.001422 -0.001879 -0.002076 0.001823
# 3 -0.005364 -0.001422 0.013191 -0.006732 -0.001731 0.004444
# 4 -0.003231 -0.001879 -0.006732 0.048932 -0.011863 -0.002080
# 5 0.004918 -0.002076 -0.001731 -0.011863 0.030260 -0.007614
# 6 -0.011618 0.001823 0.004444 -0.002080 -0.007614 0.036308
#
#
# Mechanical properties :
#
#
# Convention : Reuss Voigt Hill
#
# Bulk Modulus (GPa) = 62.19360 85.17074 73.68217
# Shear Modulus (GPa) = 27.17052 35.80612 31.48832
#
# Velocity S-wave (km/s) = 3.31592 3.80656 3.56968
# Velocity P-wave (km/s) = 6.31100 7.33393 6.84161
#
# Compressibility (1/GPa) = 0.01607883
#
# Stress axis : x y z
#
# Youngs Moduli (GPa) = 62.97568 94.77211 75.81104
#
# Poissons Ratio (x) = 0.47243 0.40666
# Poissons Ratio (y) = 0.31393 0.10782
# Poissons Ratio (z) = 0.33781 0.13479
#
# Static dielectric constant tensor:
#      x y z
#    x 2.285530 0.026720 0.433990 
#    y 0.026720 2.052910 -0.028120 
#    z 0.433990 -0.028120 2.706830 
# 
# From -- ./inp_files/135224.got.cif
#   From: 2010.05.17/outbox.cif.g08.bks.cpg/sg2_68_cif.got.tgz:135224.got - 2010.06.03 11:33:40.
