data_PCOD9029280
_publ_section_title
;
Structure prediction by ZEFSAII (Michael W. Deem and Ramdas Pophale) SiO2 
 PCOD9029280
Probable space group: P -1
;
_chemical_formula_sum "Si O2"
_cell_formula_units_Z 14
_cell_length_a 10.349086
_cell_length_b 12.853287
_cell_length_c 11.509418
_cell_angle_alpha 45.063370
_cell_angle_beta 57.847444
_cell_angle_gamma 35.911061
_cell_volume 632.716728
_symmetry_space_group_name_H-M "P -1"
_symmetry_group_IT_number 2
_symmetry_cell_setting 'triclinic'
loop_
_space_group_symop_operation_xyz
x,y,z
-x,-y,-z
loop_
_atom_site_type_symbol
_atom_site_label
_atom_site_fract_x
_atom_site_fract_y
_atom_site_fract_z
Si Si1 0.650718 0.033498 0.875353
Si Si2 0.024767 0.197016 0.896593
Si Si3 0.349959 0.749375 0.890567
Si Si4 0.026445 0.318751 0.183577
Si Si5 0.884540 0.826336 0.398960
Si Si6 0.685496 0.490139 0.397144
Si Si7 0.253951 0.323495 0.268795
O O1 0.852115 0.864307 0.824149
O O2 0.467773 0.261682 0.724497
O O3 0.769483 0.994533 0.969879
O O4 0.500000 0.000000 0.000000
O O5 0.086411 0.187304 0.742723
O O6 0.919315 0.421834 0.824460
O O7 0.844252 0.192398 0.990143
O O8 0.535006 0.743131 0.835230
O O9 0.500000 0.500000 0.000000
O O10 0.222253 0.938553 0.705354
O O11 0.807175 0.405147 0.279633
O O12 0.181501 0.249036 0.272477
O O13 0.000000 0.500000 0.000000
O O14 0.121340 0.647725 0.490484
O O15 0.741546 0.780881 0.535564
O O16 0.500000 0.500000 0.500000
#
# Coordination Sequence:
#
# PCOD9029280 Si02
#       7
#     2   2   2   2   2   2   2
#     4  12  24  44  75 101 135 190 234 273 341 416
#     4  11  23  42  69 100 135 171 231 278 338 413
#     4  10  23  42  64  96 131 177 219 275 340 404
#     4  11  22  44  71  98 137 184 239 275 325 425
#     4  11  23  44  66 101 138 169 224 289 340 406
#     4  11  26  47  69 104 143 179 226 290 354 396
#     4  10  22  42  66  99 134 174 225 281 343 398
#
# _framework density 22.126805999999998
#
# number of rings (size 3 to 8) (size 9 to 14) (size 15 to 20)
#    0.000    1.143    2.857    3.000    2.000    1.714 
#   12.857    0.000    0.000    0.000    0.000    0.000 
#    0.000    0.000    0.000    0.000    0.000    0.000 
#
# Total GULP energy -77968.815211 kJ/mol
# GULP energy per Si atom -5569.201086 kJ/mol
# Density = 2.207644 g / cm^3
# Si number density = 22.126806 Si / 1000 Ang^3
#
#
#
# Elastic Constant Matrix: (Units=GPa)
#
#
# Indices 1 2 3 4 5 6 
#
# 1 73.0855 31.6537 28.9566 17.7652 -8.8349 -18.7227
# 2 31.6537 123.5721 43.5417 -7.1077 3.3702 -13.7731
# 3 28.9566 43.5417 100.1300 -9.8302 -17.3251 1.4035
# 4 17.7652 -7.1077 -9.8302 59.5325 -7.7815 -8.2268
# 5 -8.8349 3.3702 -17.3251 -7.7815 50.1782 6.9006
# 6 -18.7227 -13.7731 1.4035 -8.2268 6.9006 28.4354
#
#
#
# Elastic Compliance Matrix: (Units=1/GPa)
#
#
# Indices 1 2 3 4 5 6 
#
# 1 0.021556 -0.002411 -0.006081 -0.006200 -0.000714 0.011704
# 2 -0.002411 0.011100 -0.004608 0.001588 -0.003238 0.005261
# 3 -0.006081 -0.004608 0.015254 0.003550 0.006079 -0.007437
# 4 -0.006200 0.001588 0.003550 0.020025 0.002913 0.001598
# 5 -0.000714 -0.003238 0.006079 0.002913 0.023563 -0.007214
# 6 0.011704 0.005261 -0.007437 0.001598 -0.007214 0.048002
#
#
# Mechanical properties :
#
#
# Convention : Reuss Voigt Hill
#
# Bulk Modulus (GPa) = 46.06460 56.12128 51.09294
# Shear Modulus (GPa) = 28.91231 40.47160 34.69196
#
# Velocity S-wave (km/s) = 3.61870 4.28141 3.96393
# Velocity P-wave (km/s) = 6.19061 7.06110 6.64014
#
# Compressibility (1/GPa) = 0.02170864
#
# Stress axis : x y z
#
# Youngs Moduli (GPa) = 46.39152 90.09259 65.55732
#
# Poissons Ratio (x) = 0.21725 0.39867
# Poissons Ratio (y) = 0.11187 0.30206
# Poissons Ratio (z) = 0.28212 0.41510
#
# Static dielectric constant tensor:
#      x y z
#    x 1.831590 0.011520 0.040980 
#    y 0.011520 1.901390 0.001270 
#    z 0.040980 0.001270 1.827850 
# 
# From -- ./inp_files/432426.got.cif
#   From: 2010.05.17/outbox.cif.g08.bks.cpg/sg2_217_cif.got.tgz:432426.got - 2010.06.03 11:33:40.
