data_PCOD9029758
_publ_section_title
;
Structure prediction by ZEFSAII (Michael W. Deem and Ramdas Pophale) SiO2 
 PCOD9029758
Probable space group: P -1
;
_chemical_formula_sum "Si O2"
_cell_formula_units_Z 16
_cell_length_a 15.844331
_cell_length_b 8.209864
_cell_length_c 11.829643
_cell_angle_alpha 101.676936
_cell_angle_beta 132.015967
_cell_angle_gamma 114.897117
_cell_volume 721.315176
_symmetry_space_group_name_H-M "P -1"
_symmetry_group_IT_number 2
_symmetry_cell_setting 'triclinic'
loop_
_space_group_symop_operation_xyz
x,y,z
-x,-y,-z
loop_
_atom_site_type_symbol
_atom_site_label
_atom_site_fract_x
_atom_site_fract_y
_atom_site_fract_z
Si Si1 0.085137 0.250011 0.675932
Si Si2 0.671128 0.774502 0.748229
Si Si3 0.726572 0.095286 0.996802
Si Si4 0.705082 0.262655 0.213692
Si Si5 0.090503 0.220814 0.930327
Si Si6 0.598210 0.206358 0.719438
Si Si7 0.263060 0.000495 0.384903
Si Si8 0.098676 0.620170 0.376427
O O1 0.231072 0.501074 0.762228
O O2 0.141300 0.245129 0.848505
O O3 0.961297 0.269671 0.604446
O O4 0.000000 0.000000 0.500000
O O5 0.500000 0.500000 0.500000
O O6 0.731824 0.983647 0.743382
O O7 0.629824 0.820431 0.834940
O O8 0.828907 0.825482 0.921708
O O9 0.622797 0.127075 0.844143
O O10 0.761548 0.174442 0.169473
O O11 0.924312 0.318976 0.157455
O O12 0.784934 0.340450 0.420357
O O13 0.500000 0.000000 0.000000
O O14 0.207193 0.515992 0.103112
O O15 0.880829 0.016756 0.719573
O O16 0.471347 0.223433 0.632839
O O17 0.500000 0.000000 0.500000
O O18 0.190175 0.766533 0.361041
#
# Coordination Sequence:
#
# PCOD9029758 Si02
#       8
#     2   2   2   2   2   2   2   2
#     4  10  22  42  68  93 130 171 220 274 340 395
#     4  12  25  42  65  96 139 179 222 278 336 405
#     4  11  22  43  67  98 131 178 224 279 340 398
#     4  11  23  43  67 103 133 172 228 284 336 411
#     4  11  24  43  64  94 135 176 216 275 339 401
#     4  12  21  40  67  92 129 170 221 273 328 388
#     4  11  23  43  66  94 133 171 226 268 334 396
#     4  10  23  41  70  95 130 173 225 274 338 406
#
# _framework density 22.181705000000001
#
# number of rings (size 3 to 8) (size 9 to 14) (size 15 to 20)
#    0.000    1.000    6.250    2.625    3.500    2.000 
#    4.500    3.125    0.000    0.000    0.000    0.000 
#    0.000    0.000    0.000    0.000    0.000    0.000 
#
# Total GULP energy -89157.889099 kJ/mol
# GULP energy per Si atom -5572.368069 kJ/mol
# Density = 2.213122 g / cm^3
# Si number density = 22.181705 Si / 1000 Ang^3
#
#
#
# Elastic Constant Matrix: (Units=GPa)
#
#
# Indices 1 2 3 4 5 6 
#
# 1 37.1564 25.1363 31.6835 7.8838 2.9516 1.9261
# 2 25.1363 75.8719 43.6800 -14.6625 -2.2023 15.5797
# 3 31.6835 43.6800 145.3944 -13.4022 -7.2855 -2.0677
# 4 7.8838 -14.6625 -13.4022 48.6552 -12.8455 -0.6329
# 5 2.9516 -2.2023 -7.2855 -12.8455 48.8483 -2.3950
# 6 1.9261 15.5797 -2.0677 -0.6329 -2.3950 34.8503
#
#
#
# Elastic Compliance Matrix: (Units=1/GPa)
#
#
# Indices 1 2 3 4 5 6 
#
# 1 0.048426 -0.015717 -0.007826 -0.017118 -0.009159 0.002945
# 2 -0.015717 0.023997 -0.002825 0.009861 0.003733 -0.009591
# 3 -0.007826 -0.002825 0.009988 0.003997 0.003012 0.002567
# 4 -0.017118 0.009861 0.003997 0.029976 0.009859 -0.002003
# 5 -0.009159 0.003733 0.003012 0.009859 0.024278 0.000864
# 6 0.002945 -0.009591 0.002567 -0.002003 0.000864 0.032994
#
#
# Mechanical properties :
#
#
# Convention : Reuss Voigt Hill
#
# Bulk Modulus (GPa) = 33.69791 51.04696 42.37243
# Shear Modulus (GPa) = 21.52532 36.99898 29.26215
#
# Velocity S-wave (km/s) = 3.11852 4.08854 3.63602
# Velocity P-wave (km/s) = 5.30958 6.73434 6.06395
#
# Compressibility (1/GPa) = 0.02967543
#
# Stress axis : x y z
#
# Youngs Moduli (GPa) = 20.65009 41.67249 100.12344
#
# Poissons Ratio (x) = 0.65496 0.78357
# Poissons Ratio (y) = 0.32455 0.28281
# Poissons Ratio (z) = 0.16161 0.11771
#
# Static dielectric constant tensor:
#      x y z
#    x 1.981470 0.019310 0.016250 
#    y 0.019310 1.858000 -0.001270 
#    z 0.016250 -0.001270 1.800120 
# 
# From -- ./inp_files/461414.got.cif
#   From: 2010.05.17/outbox.cif.g08.bks.cpg/sg2_231_cif.got.tgz:461414.got - 2010.06.03 11:33:40.
