data_PCOD9029826
_publ_section_title
;
Structure prediction by ZEFSAII (Michael W. Deem and Ramdas Pophale) SiO2 
 PCOD9029826
Probable space group: P -1
;
_chemical_formula_sum "Si O2"
_cell_formula_units_Z 16
_cell_length_a 10.170010
_cell_length_b 9.582483
_cell_length_c 16.481245
_cell_angle_alpha 77.109467
_cell_angle_beta 130.802851
_cell_angle_gamma 68.498680
_cell_volume 852.964184
_symmetry_space_group_name_H-M "P -1"
_symmetry_group_IT_number 2
_symmetry_cell_setting 'triclinic'
loop_
_space_group_symop_operation_xyz
x,y,z
-x,-y,-z
loop_
_atom_site_type_symbol
_atom_site_label
_atom_site_fract_x
_atom_site_fract_y
_atom_site_fract_z
Si Si1 0.964640 0.318074 0.085995
Si Si2 0.718418 0.477043 0.400114
Si Si3 0.368416 0.225972 0.149566
Si Si4 0.471753 0.072868 0.888868
Si Si5 0.237102 0.834223 0.065712
Si Si6 0.216525 0.140033 0.382848
Si Si7 0.984008 0.531125 0.610797
Si Si8 0.231344 0.880328 0.551032
O O1 0.181251 0.231412 0.121887
O O2 0.077792 0.219662 0.231484
O O3 0.788516 0.556541 0.981728
O O4 0.817291 0.266149 0.002238
O O5 0.461006 0.664121 0.234926
O O6 0.925431 0.403848 0.427545
O O7 0.721533 0.306549 0.438540
O O8 0.778421 0.546468 0.489771
O O9 0.551071 0.186809 0.295200
O O10 0.501321 0.060644 0.154018
O O11 0.679422 0.071199 0.958325
O O12 0.216426 0.299411 0.749352
O O13 0.500000 0.000000 0.000000
O O14 0.000000 0.000000 0.000000
O O15 0.109531 0.331604 0.367284
O O16 0.500000 0.000000 0.500000
O O17 0.188298 0.014660 0.442788
O O18 0.000000 0.000000 0.500000
#
# Coordination Sequence:
#
# PCOD9029826 Si02
#       8
#     2   2   2   2   2   2   2   2
#     4  11  24  43  67 100 137 174 222 274 329 398
#     4  10  22  42  68  96 127 174 223 268 323 398
#     4  11  23  43  70  94 135 181 217 269 337 395
#     4  11  24  43  68  99 134 172 221 278 332 387
#     4  11  23  41  68  97 129 176 225 264 324 400
#     4  12  26  42  67 101 136 173 220 277 334 390
#     4  10  23  43  66  95 133 172 216 272 334 391
#     4  12  23  42  68 101 130 171 226 269 330 399
#
# _framework density 18.758113000000002
#
# number of rings (size 3 to 8) (size 9 to 14) (size 15 to 20)
#    0.000    1.000    5.000    1.500    5.250    2.000 
#    2.250    3.125    0.000    0.000    0.000    0.000 
#    0.000    0.000    0.000    0.000    0.000    0.000 
#
# Total GULP energy -89433.821422 kJ/mol
# GULP energy per Si atom -5589.613839 kJ/mol
# Density = 1.871542 g / cm^3
# Si number density = 18.758113 Si / 1000 Ang^3
#
#
#
# Elastic Constant Matrix: (Units=GPa)
#
#
# Indices 1 2 3 4 5 6 
#
# 1 105.6965 62.2790 70.8216 0.0032 -15.2102 11.3744
# 2 62.2790 142.3628 60.8066 7.7698 -9.0272 5.7663
# 3 70.8216 60.8066 136.9139 13.0788 -10.8695 15.5235
# 4 0.0032 7.7698 13.0788 29.8439 4.9295 8.1202
# 5 -15.2102 -9.0272 -10.8695 4.9295 39.1683 -2.6462
# 6 11.3744 5.7663 15.5235 8.1202 -2.6462 30.5588
#
#
#
# Elastic Compliance Matrix: (Units=1/GPa)
#
#
# Indices 1 2 3 4 5 6 
#
# 1 0.017602 -0.004700 -0.006856 0.004573 0.003062 -0.003132
# 2 -0.004700 0.009988 -0.001935 -0.002201 0.000315 0.001460
# 3 -0.006856 -0.001935 0.012442 -0.004491 0.000765 -0.002144
# 4 0.004573 -0.002201 -0.004491 0.039717 -0.005655 -0.010049
# 5 0.003062 0.000315 0.000765 -0.005655 0.027874 0.002329
# 6 -0.003132 0.001460 -0.002144 -0.010049 0.002329 0.037575
#
#
# Mechanical properties :
#
#
# Convention : Reuss Voigt Hill
#
# Bulk Modulus (GPa) = 76.62818 85.86529 81.24673
# Shear Modulus (GPa) = 28.32366 32.65195 30.48780
#
# Velocity S-wave (km/s) = 3.89001 4.17668 4.03589
# Velocity P-wave (km/s) = 7.81765 8.31468 8.06999
#
# Compressibility (1/GPa) = 0.01305003
#
# Stress axis : x y z
#
# Youngs Moduli (GPa) = 56.81110 100.12049 80.37031
#
# Poissons Ratio (x) = 0.47062 0.55103
# Poissons Ratio (y) = 0.26704 0.15549
# Poissons Ratio (z) = 0.38950 0.19370
#
# Static dielectric constant tensor:
#      x y z
#    x 1.639330 0.011040 -0.001680 
#    y 0.011040 1.658590 -0.000580 
#    z -0.001680 -0.000580 1.639540 
# 
# From -- ./inp_files/297984.got.cif
#   From: 2010.05.17/outbox.cif.g08.bks.cpg/sg2_149_cif.got.tgz:297984.got - 2010.06.03 11:33:40.
