data_PCOD9029393
_publ_section_title
;
Structure prediction by ZEFSAII (Michael W. Deem and Ramdas Pophale) SiO2 
 PCOD9029393
Probable space group: P -1
;
_chemical_formula_sum "Si O2"
_cell_formula_units_Z 16
_cell_length_a 9.240844
_cell_length_b 11.724792
_cell_length_c 15.910580
_cell_angle_alpha 78.167569
_cell_angle_beta 137.459319
_cell_angle_gamma 67.900086
_cell_volume 689.244632
_symmetry_space_group_name_H-M "P -1"
_symmetry_group_IT_number 2
_symmetry_cell_setting 'triclinic'
loop_
_space_group_symop_operation_xyz
x,y,z
-x,-y,-z
loop_
_atom_site_type_symbol
_atom_site_label
_atom_site_fract_x
_atom_site_fract_y
_atom_site_fract_z
Si Si1 0.778952 0.891195 0.254011
Si Si2 0.917843 0.817947 0.997214
Si Si3 0.951546 0.392175 0.451994
Si Si4 0.281721 0.912716 0.250031
Si Si5 0.719686 0.440566 0.949520
Si Si6 0.099159 0.137593 0.294548
Si Si7 0.821547 0.304983 0.714912
Si Si8 0.771626 0.141389 0.301569
O O1 0.040982 0.705139 0.454557
O O2 0.886253 0.831352 0.212620
O O3 0.737573 0.041887 0.244177
O O4 0.404880 0.003216 0.107450
O O5 0.936684 0.725601 0.938477
O O6 0.114858 0.655762 0.176905
O O7 0.966183 0.915889 0.950017
O O8 0.596878 0.508767 0.230337
O O9 0.000000 0.500000 0.500000
O O10 0.312164 0.224049 0.575724
O O11 0.273805 0.777951 0.272155
O O12 0.131625 0.019911 0.258552
O O13 0.572611 0.635043 0.854342
O O14 0.851504 0.340802 0.112436
O O15 0.962712 0.152646 0.322526
O O16 0.500000 0.000000 0.500000
O O17 0.500000 0.500000 0.500000
O O18 0.000000 0.000000 0.500000
#
# Coordination Sequence:
#
# PCOD9029393 Si02
#       8
#     2   2   2   2   2   2   2   2
#     4  11  24  44  66 104 141 183 226 288 359 398
#     4  10  24  42  67  94 136 185 230 276 344 427
#     4  11  22  43  71 102 137 184 235 283 343 420
#     4  10  22  42  67  92 131 180 228 279 348 408
#     4  11  24  45  73 104 135 185 241 278 351 419
#     4  11  25  46  70 100 135 185 236 282 341 419
#     4  12  23  42  66 101 140 173 231 293 347 409
#     4  12  25  45  73  96 148 177 227 298 346 417
#
# _framework density 23.213819999999998
#
# number of rings (size 3 to 8) (size 9 to 14) (size 15 to 20)
#    0.000    1.000    2.500    4.125    3.500    3.500 
#    6.750    0.000    0.000    0.000    0.000    0.000 
#    0.000    0.000    0.000    0.000    0.000    0.000 
#
# Total GULP energy -89116.628914 kJ/mol
# GULP energy per Si atom -5569.789307 kJ/mol
# Density = 2.316098 g / cm^3
# Si number density = 23.213820 Si / 1000 Ang^3
#
#
#
# Elastic Constant Matrix: (Units=GPa)
#
#
# Indices 1 2 3 4 5 6 
#
# 1 124.0918 24.0564 47.6210 0.1531 -32.8236 -19.8903
# 2 24.0564 94.5035 12.9652 -24.6036 -9.3340 -2.0613
# 3 47.6210 12.9652 140.2576 -14.3920 -37.5763 6.5624
# 4 0.1531 -24.6036 -14.3920 32.9911 -1.3453 0.7873
# 5 -32.8236 -9.3340 -37.5763 -1.3453 44.5277 0.9340
# 6 -19.8903 -2.0613 6.5624 0.7873 0.9340 44.0046
#
#
#
# Elastic Compliance Matrix: (Units=1/GPa)
#
#
# Indices 1 2 3 4 5 6 
#
# 1 0.012181 -0.002903 -0.002980 -0.003429 0.005632 0.005756
# 2 -0.002903 0.014334 0.001587 0.011527 0.002576 -0.001138
# 3 -0.002980 0.001587 0.010798 0.006289 0.007505 -0.003155
# 4 -0.003429 0.011527 0.006289 0.042001 0.006525 -0.002838
# 5 0.005632 0.002576 0.007505 0.006525 0.033665 0.000716
# 6 0.005756 -0.001138 -0.003155 -0.002838 0.000716 0.025780
#
#
# Mechanical properties :
#
#
# Convention : Reuss Voigt Hill
#
# Bulk Modulus (GPa) = 34.81712 58.68201 46.74956
# Shear Modulus (GPa) = 31.86238 42.58537 37.22387
#
# Velocity S-wave (km/s) = 3.70883 4.28773 4.00874
# Velocity P-wave (km/s) = 5.77681 7.06022 6.45051
#
# Compressibility (1/GPa) = 0.02872150
#
# Stress axis : x y z
#
# Youngs Moduli (GPa) = 82.09172 69.76616 92.60664
#
# Poissons Ratio (x) = 0.20253 0.27596
# Poissons Ratio (y) = 0.23831 -0.14696
# Poissons Ratio (z) = 0.24463 -0.11071
#
# Static dielectric constant tensor:
#      x y z
#    x 1.932300 0.088000 0.202490 
#    y 0.088000 2.167250 0.312980 
#    z 0.202490 0.312980 2.413620 
# 
# From -- ./inp_files/263052.got.cif
#   From: 2010.05.17/outbox.cif.g08.bks.cpg/sg2_132_cif.got.tgz:263052.got - 2010.06.03 11:33:40.
