data_PCOD9029424
_publ_section_title
;
Structure prediction by ZEFSAII (Michael W. Deem and Ramdas Pophale) SiO2 
 PCOD9029424
Probable space group: P -1
;
_chemical_formula_sum "Si O2"
_cell_formula_units_Z 16
_cell_length_a 8.703916
_cell_length_b 20.172572
_cell_length_c 23.028414
_cell_angle_alpha 156.922280
_cell_angle_beta 29.714912
_cell_angle_gamma 148.416280
_cell_volume 755.962651
_symmetry_space_group_name_H-M "P -1"
_symmetry_group_IT_number 2
_symmetry_cell_setting 'triclinic'
loop_
_space_group_symop_operation_xyz
x,y,z
-x,-y,-z
loop_
_atom_site_type_symbol
_atom_site_label
_atom_site_fract_x
_atom_site_fract_y
_atom_site_fract_z
Si Si1 0.406133 0.362724 0.972622
Si Si2 0.620718 0.896870 0.040495
Si Si3 0.366136 0.759067 0.488136
Si Si4 0.659153 0.179770 0.058680
Si Si5 0.378790 0.528346 0.887579
Si Si6 0.195511 0.899921 0.397853
Si Si7 0.430343 0.197725 0.412248
Si Si8 0.363249 0.450026 0.441169
O O1 0.656939 0.243406 0.795599
O O2 0.500000 0.500000 0.000000
O O3 0.445961 0.466697 0.104001
O O4 0.046958 0.237638 0.980486
O O5 0.446685 0.027572 0.234244
O O6 0.481755 0.849695 0.983726
O O7 0.541431 0.715411 0.955451
O O8 0.000000 0.000000 0.000000
O O9 0.566171 0.624372 0.294623
O O10 0.405223 0.799636 0.576704
O O11 0.997546 0.665580 0.524465
O O12 0.504649 0.939048 0.552636
O O13 0.550198 0.335511 0.251404
O O14 0.500000 0.000000 0.000000
O O15 0.000000 0.500000 0.000000
O O16 0.940684 0.812292 0.459981
O O17 0.000000 0.000000 0.500000
O O18 0.610634 0.372024 0.459414
O O19 0.500000 0.500000 0.500000
#
# Coordination Sequence:
#
# PCOD9029424 Si02
#       8
#     2   2   2   2   2   2   2   2
#     4  12  25  44  67  99 137 175 217 277 339 393
#     4  12  24  42  67  96 129 176 225 272 326 399
#     4  11  22  40  65  93 123 166 214 268 319 381
#     4  12  25  43  64  95 133 173 217 277 338 394
#     4  12  23  41  66  97 130 173 224 272 326 399
#     4  10  22  42  67  94 127 170 217 266 322 393
#     4  11  22  41  64  92 123 164 216 269 318 380
#     4  12  24  41  61  90 128 169 211 261 324 393
#
# _framework density 21.165067000000001
#
# number of rings (size 3 to 8) (size 9 to 14) (size 15 to 20)
#    0.000    0.500    0.000   10.875    0.000    0.000 
#    0.000    1.875    0.000    0.000    0.000    0.000 
#    0.000    0.000    0.000    0.000    0.000    0.000 
#
# Total GULP energy -89556.769827 kJ/mol
# GULP energy per Si atom -5597.298114 kJ/mol
# Density = 2.111689 g / cm^3
# Si number density = 21.165067 Si / 1000 Ang^3
#
#
#
# Elastic Constant Matrix: (Units=GPa)
#
#
# Indices 1 2 3 4 5 6 
#
# 1 129.1845 35.2106 10.8907 -3.7817 29.8081 8.3997
# 2 35.2106 130.7278 -20.0723 0.2909 5.0680 24.3199
# 3 10.8907 -20.0723 112.2649 -6.2559 22.0919 9.3950
# 4 -3.7817 0.2909 -6.2559 43.2396 -0.0136 -9.3913
# 5 29.8081 5.0680 22.0919 -0.0136 35.9206 2.1398
# 6 8.3997 24.3199 9.3950 -9.3913 2.1398 29.3944
#
#
#
# Elastic Compliance Matrix: (Units=1/GPa)
#
#
# Indices 1 2 3 4 5 6 
#
# 1 0.010347 -0.002387 0.000292 0.000924 -0.008419 -0.000167
# 2 -0.002387 0.010560 0.002962 -0.001928 -0.000762 -0.009562
# 3 0.000292 0.002962 0.011329 0.000452 -0.007301 -0.005479
# 4 0.000924 -0.001928 0.000452 0.025322 -0.001322 0.009373
# 5 -0.008419 -0.000762 -0.007301 -0.001322 0.039299 0.002087
# 6 -0.000167 -0.009562 -0.005479 0.009373 0.002087 0.046574
#
#
# Mechanical properties :
#
#
# Convention : Reuss Voigt Hill
#
# Bulk Modulus (GPa) = 29.43664 47.13725 38.28695
# Shear Modulus (GPa) = 32.67557 44.78746 38.73152
#
# Velocity S-wave (km/s) = 3.93344 4.60510 4.28246
# Velocity P-wave (km/s) = 5.87942 7.11306 6.52546
#
# Compressibility (1/GPa) = 0.03397126
#
# Stress axis : x y z
#
# Youngs Moduli (GPa) = 96.64350 94.69723 88.26606
#
# Poissons Ratio (x) = 0.22602 -0.02574
# Poissons Ratio (y) = 0.23067 -0.26148
# Poissons Ratio (z) = -0.02819 -0.28053
#
# Static dielectric constant tensor:
#      x y z
#    x 1.775410 0.014540 -0.005480 
#    y 0.014540 1.774640 -0.012310 
#    z -0.005480 -0.012310 1.761770 
# 
# From -- ./inp_files/282732.got.cif
#   From: 2010.05.17/outbox.cif.g08.bks.cpg/sg2_142_cif.got.tgz:282732.got - 2010.06.03 11:33:40.
