data_PCOD9029340
_publ_section_title
;
Structure prediction by ZEFSAII (Michael W. Deem and Ramdas Pophale) SiO2 
 PCOD9029340
Probable space group: P -1
;
_chemical_formula_sum "Si O2"
_cell_formula_units_Z 16
_cell_length_a 8.986517
_cell_length_b 16.336166
_cell_length_c 9.570853
_cell_angle_alpha 104.597734
_cell_angle_beta 32.028964
_cell_angle_gamma 111.729139
_cell_volume 686.744129
_symmetry_space_group_name_H-M "P -1"
_symmetry_group_IT_number 2
_symmetry_cell_setting 'triclinic'
loop_
_space_group_symop_operation_xyz
x,y,z
-x,-y,-z
loop_
_atom_site_type_symbol
_atom_site_label
_atom_site_fract_x
_atom_site_fract_y
_atom_site_fract_z
Si Si1 0.818569 0.860002 0.665465
Si Si2 0.378474 0.018315 0.297322
Si Si3 0.889880 0.548012 0.979296
Si Si4 0.853212 0.256920 0.044263
Si Si5 0.599862 0.864360 0.122761
Si Si6 0.073529 0.721539 0.322561
Si Si7 0.679709 0.845571 0.378212
Si Si8 0.807219 0.517560 0.532986
O O1 0.113615 0.935271 0.418690
O O2 0.823717 0.770844 0.548285
O O3 0.574093 0.904619 0.824317
O O4 0.833136 0.852262 0.817495
O O5 0.605260 0.966285 0.135549
O O6 0.290084 0.063403 0.523842
O O7 0.548084 0.505128 0.185953
O O8 0.000000 0.500000 0.000000
O O9 0.936462 0.649642 0.025800
O O10 0.112571 0.540418 0.677961
O O11 0.588884 0.222490 0.351084
O O12 0.800039 0.276647 0.932957
O O13 0.030861 0.185471 0.862750
O O14 0.318619 0.784793 0.256189
O O15 0.621645 0.852551 0.263830
O O16 0.942314 0.621345 0.432792
O O17 0.000000 0.500000 0.500000
#
# Coordination Sequence:
#
# PCOD9029340 Si02
#       8
#     2   2   2   2   2   2   2   2
#     4  10  22  42  71 101 143 189 246 299 361 445
#     4  10  22  42  67 104 139 195 241 296 365 441
#     4  12  27  50  79 110 149 197 252 310 372 453
#     4  12  28  48  74 104 144 193 251 301 364 446
#     4  11  26  42  69 104 148 186 243 308 367 438
#     4  11  26  45  73 104 144 194 245 298 372 449
#     4  12  28  45  74 105 145 191 243 308 367 436
#     4  12  29  49  78 115 154 195 244 313 387 450
#
# _framework density 23.298342000000002
#
# number of rings (size 3 to 8) (size 9 to 14) (size 15 to 20)
#    0.000    0.750    2.500    3.000   12.250    0.500 
#    0.000    0.000    0.000    0.000    0.000    0.000 
#    0.000    0.000    0.000    0.000    0.000    0.000 
#
# Total GULP energy -89383.717360 kJ/mol
# GULP energy per Si atom -5586.482335 kJ/mol
# Density = 2.324531 g / cm^3
# Si number density = 23.298342 Si / 1000 Ang^3
#
#
#
# Elastic Constant Matrix: (Units=GPa)
#
#
# Indices 1 2 3 4 5 6 
#
# 1 113.1313 21.6261 31.3601 -10.5235 25.6452 -5.4156
# 2 21.6261 119.1293 20.0726 -5.5769 2.0967 8.5038
# 3 31.3601 20.0726 101.2399 -2.1476 9.7674 -9.8999
# 4 -10.5235 -5.5769 -2.1476 36.4639 7.5116 9.0979
# 5 25.6452 2.0967 9.7674 7.5116 51.9146 1.1405
# 6 -5.4156 8.5038 -9.8999 9.0979 1.1405 25.1062
#
#
#
# Elastic Compliance Matrix: (Units=1/GPa)
#
#
# Indices 1 2 3 4 5 6 
#
# 1 0.011533 -0.001431 -0.002574 0.003944 -0.005743 0.000789
# 2 -0.001431 0.009425 -0.001922 0.002068 0.000499 -0.005031
# 3 -0.002574 -0.001922 0.011608 -0.001513 -0.000731 0.005255
# 4 0.003944 0.002068 -0.001513 0.033116 -0.006272 -0.012162
# 5 -0.005743 0.000499 -0.000731 -0.006272 0.023135 -0.000474
# 6 0.000789 -0.005031 0.005255 -0.012162 -0.000474 0.048206
#
#
# Mechanical properties :
#
#
# Convention : Reuss Voigt Hill
#
# Bulk Modulus (GPa) = 48.27767 53.29090 50.78429
# Shear Modulus (GPa) = 32.09673 40.05972 36.07822
#
# Velocity S-wave (km/s) = 3.71568 4.15109 3.93941
# Velocity P-wave (km/s) = 6.25899 6.77483 6.52201
#
# Compressibility (1/GPa) = 0.02071351
#
# Stress axis : x y z
#
# Youngs Moduli (GPa) = 86.70961 106.10247 86.14662
#
# Poissons Ratio (x) = 0.15178 0.22173
# Poissons Ratio (y) = 0.12404 0.16555
# Poissons Ratio (z) = 0.22318 0.20390
#
# Static dielectric constant tensor:
#      x y z
#    x 1.961250 -0.015680 -0.064520 
#    y -0.015680 1.840130 -0.002710 
#    z -0.064520 -0.002710 1.910310 
# 
# From -- ./inp_files/207480.got.cif
#   From: 2010.05.17/outbox.cif.g08.bks.cpg/sg2_104_cif.got.tgz:207480.got - 2010.06.03 11:33:40.
