data_PCOD9029825
_publ_section_title
;
Structure prediction by ZEFSAII (Michael W. Deem and Ramdas Pophale) SiO2 
 PCOD9029825
Probable space group: P -1
;
_chemical_formula_sum "Si O2"
_cell_formula_units_Z 16
_cell_length_a 9.359760
_cell_length_b 14.033926
_cell_length_c 11.426169
_cell_angle_alpha 114.522085
_cell_angle_beta 86.836356
_cell_angle_gamma 140.151777
_cell_volume 780.501505
_symmetry_space_group_name_H-M "P -1"
_symmetry_group_IT_number 2
_symmetry_cell_setting 'triclinic'
loop_
_space_group_symop_operation_xyz
x,y,z
-x,-y,-z
loop_
_atom_site_type_symbol
_atom_site_label
_atom_site_fract_x
_atom_site_fract_y
_atom_site_fract_z
Si Si1 0.560282 0.556150 0.336565
Si Si2 0.363769 0.501657 0.926069
Si Si3 0.281912 0.103017 0.823484
Si Si4 0.423130 0.978094 0.858128
Si Si5 0.379234 0.671487 0.310078
Si Si6 0.697523 0.303901 0.421147
Si Si7 0.716582 0.767363 0.661356
Si Si8 0.036158 0.622986 0.986147
O O1 0.702065 0.582690 0.240067
O O2 0.454073 0.599449 0.309649
O O3 0.712951 0.687466 0.508440
O O4 0.355869 0.351062 0.287779
O O5 0.500000 0.500000 0.000000
O O6 0.541414 0.710624 0.018088
O O7 0.124746 0.384201 0.952187
O O8 0.432616 0.184757 0.732628
O O9 0.250630 0.973561 0.827636
O O10 0.000322 0.979723 0.761536
O O11 0.351830 0.831023 0.717811
O O12 0.500000 0.000000 0.000000
O O13 0.685117 0.178856 0.907551
O O14 0.378307 0.743542 0.461624
O O15 0.092681 0.484572 0.184854
O O16 0.509642 0.283232 0.369399
O O17 0.000000 0.500000 0.500000
O O18 0.000000 0.500000 0.000000
#
# Coordination Sequence:
#
# PCOD9029825 Si02
#       8
#     2   2   2   2   2   2   2   2
#     4  10  22  42  68  96 126 180 213 276 335 387
#     4  11  22  40  71  94 132 173 221 273 332 397
#     4  11  25  45  65 105 132 171 228 276 332 394
#     4  12  28  44  67  98 139 181 222 281 336 404
#     4  10  22  45  71  95 138 173 222 283 328 401
#     4  11  27  46  70  99 135 181 228 273 342 402
#     4  10  26  43  67  99 133 170 227 275 330 398
#     4  11  22  44  65  99 136 175 223 275 339 394
#
# _framework density 20.499639999999999
#
# number of rings (size 3 to 8) (size 9 to 14) (size 15 to 20)
#    0.000    1.250    5.000    0.750   10.500    5.000 
#    0.000    0.000    0.000    0.000    0.000    0.000 
#    0.000    0.000    0.000    0.000    0.000    0.000 
#
# Total GULP energy -89128.803825 kJ/mol
# GULP energy per Si atom -5570.550239 kJ/mol
# Density = 2.045298 g / cm^3
# Si number density = 20.499640 Si / 1000 Ang^3
#
#
#
# Elastic Constant Matrix: (Units=GPa)
#
#
# Indices 1 2 3 4 5 6 
#
# 1 91.2082 24.7784 20.4511 -7.1012 0.1771 -1.9108
# 2 24.7784 49.3529 15.8161 10.2972 7.1634 -6.9803
# 3 20.4511 15.8161 92.7993 -6.3945 -15.8483 -9.7001
# 4 -7.1012 10.2972 -6.3945 37.7627 1.9180 10.4664
# 5 0.1771 7.1634 -15.8483 1.9180 31.1967 8.9664
# 6 -1.9108 -6.9803 -9.7001 10.4664 8.9664 32.4105
#
#
#
# Elastic Compliance Matrix: (Units=1/GPa)
#
#
# Indices 1 2 3 4 5 6 
#
# 1 0.013951 -0.008619 -0.001269 0.005714 0.002000 -0.003812
# 2 -0.008619 0.033338 -0.005689 -0.014718 -0.013456 0.013445
# 3 -0.001269 -0.005689 0.013593 0.003360 0.008179 -0.000580
# 4 0.005714 -0.014718 0.003360 0.036061 0.007289 -0.015489
# 5 0.002000 -0.013456 0.008179 0.007289 0.043034 -0.014591
# 6 -0.003812 0.013445 -0.000580 -0.015489 -0.014591 0.042390
#
#
# Mechanical properties :
#
#
# Convention : Reuss Voigt Hill
#
# Bulk Modulus (GPa) = 33.63866 39.49461 36.56664
# Shear Modulus (GPa) = 22.37831 31.76165 27.06998
#
# Velocity S-wave (km/s) = 3.30759 3.94048 3.63782
# Velocity P-wave (km/s) = 5.57063 6.32543 5.95999
#
# Compressibility (1/GPa) = 0.02972770
#
# Stress axis : x y z
#
# Youngs Moduli (GPa) = 71.67862 29.99545 73.56777
#
# Poissons Ratio (x) = 0.25854 0.09334
# Poissons Ratio (y) = 0.61783 0.41854
# Poissons Ratio (z) = 0.09094 0.17065
#
# Static dielectric constant tensor:
#      x y z
#    x 1.802610 -0.052500 0.103740 
#    y -0.052500 1.699540 -0.053250 
#    z 0.103740 -0.053250 1.802540 
# 
# From -- ./inp_files/205907.got.cif
#   From: 2010.05.17/outbox.cif.g08.bks.cpg/sg2_103_cif.got.tgz:205907.got - 2010.06.03 11:33:40.
