data_PCOD9029064
_publ_section_title
;
Structure prediction by ZEFSAII (Michael W. Deem and Ramdas Pophale) SiO2 
 PCOD9029064
Probable space group: P -1
;
_chemical_formula_sum "Si O2"
_cell_formula_units_Z 13
_cell_length_a 11.890428
_cell_length_b 13.306520
_cell_length_c 8.985677
_cell_angle_alpha 149.233095
_cell_angle_beta 135.456546
_cell_angle_gamma 41.420227
_cell_volume 471.222983
_symmetry_space_group_name_H-M "P -1"
_symmetry_group_IT_number 2
_symmetry_cell_setting 'triclinic'
loop_
_space_group_symop_operation_xyz
x,y,z
-x,-y,-z
loop_
_atom_site_type_symbol
_atom_site_label
_atom_site_fract_x
_atom_site_fract_y
_atom_site_fract_z
Si Si1 0.399593 0.895542 0.662274
Si Si2 0.669284 0.516741 0.564978
Si Si3 0.007943 0.617716 0.975558
Si Si4 0.002879 0.736774 0.813851
Si Si5 0.368043 0.256061 0.874662
Si Si6 0.278417 0.848950 0.043541
Si Si7 0.000000 0.000000 0.500000
O O1 0.528474 0.650321 0.476888
O O2 0.214627 0.915942 0.572141
O O3 0.376050 0.032417 0.663990
O O4 0.500000 0.000000 0.000000
O O5 0.727951 0.272996 0.269839
O O6 0.836010 0.576169 0.768510
O O7 0.603945 0.612072 0.787452
O O8 0.988464 0.792101 0.047642
O O9 0.177379 0.413278 0.848092
O O10 0.020444 0.766607 0.307561
O O11 0.178605 0.756979 0.949242
O O12 0.000000 0.500000 0.500000
O O13 0.842874 0.906571 0.790880
O O14 0.516658 0.207813 0.830255
#
# Coordination Sequence:
#
# PCOD9029064 Si02
#       7
#     2   2   2   2   2   2   1
#     4  10  22  42  66 105 150 196 230 294 364 441
#     4  11  22  44  72 106 148 189 241 299 373 440
#     4  12  25  42  70 105 151 187 240 313 362 436
#     4  11  26  50  73 100 142 199 258 292 356 449
#     4  11  24  41  66 113 144 182 242 301 376 431
#     4  11  25  45  77  98 135 203 246 295 366 433
#     4  12  24  40  70 108 150 190 236 302 378 416
#
# _framework density 27.587788
#
# number of rings (size 3 to 8) (size 9 to 14) (size 15 to 20)
#    0.000    0.923    4.615    2.769    4.308    0.615 
#    0.000    0.769    0.000    0.000    0.000    0.000 
#    0.000    0.000    0.000    0.000    0.000    0.000 
#
# Total GULP energy -72657.379349 kJ/mol
# GULP energy per Si atom -5589.029181 kJ/mol
# Density = 2.752500 g / cm^3
# Si number density = 27.587788 Si / 1000 Ang^3
#
#
#
# Elastic Constant Matrix: (Units=GPa)
#
#
# Indices 1 2 3 4 5 6 
#
# 1 162.1239 64.9346 20.3148 4.9576 32.1658 -35.5326
# 2 64.9346 165.3016 48.3800 27.2839 27.9006 -34.3660
# 3 20.3148 48.3800 133.4810 22.9569 12.7145 -29.5109
# 4 4.9576 27.2839 22.9569 47.2412 -4.9139 8.7798
# 5 32.1658 27.9006 12.7145 -4.9139 51.0742 -14.5004
# 6 -35.5326 -34.3660 -29.5109 8.7798 -14.5004 56.8833
#
#
#
# Elastic Compliance Matrix: (Units=1/GPa)
#
#
# Indices 1 2 3 4 5 6 
#
# 1 0.008409 -0.001971 0.000807 -0.001200 -0.003462 0.003784
# 2 -0.001971 0.009439 -0.000901 -0.005895 -0.003087 0.004128
# 3 0.000807 -0.000901 0.010065 -0.005663 -0.001452 0.005685
# 4 -0.001200 -0.005895 -0.005663 0.029956 0.005279 -0.010527
# 5 -0.003462 -0.003087 -0.001452 0.005279 0.024499 0.000650
# 6 0.003784 0.004128 0.005685 -0.010527 0.000650 0.027177
#
#
# Mechanical properties :
#
#
# Convention : Reuss Voigt Hill
#
# Bulk Modulus (GPa) = 42.04477 80.90727 61.47602
# Shear Modulus (GPa) = 41.11755 52.85822 46.98789
#
# Velocity S-wave (km/s) = 3.86479 4.38196 4.13148
# Velocity P-wave (km/s) = 5.93203 7.41573 6.71498
#
# Compressibility (1/GPa) = 0.02378417
#
# Stress axis : x y z
#
# Youngs Moduli (GPa) = 118.92047 105.93833 99.35793
#
# Poissons Ratio (x) = 0.20876 -0.08019
# Poissons Ratio (y) = 0.23434 0.08952
# Poissons Ratio (z) = -0.09597 0.09544
#
# Static dielectric constant tensor:
#      x y z
#    x 1.955210 0.052970 0.275110 
#    y 0.052970 2.198320 0.102710 
#    z 0.275110 0.102710 1.723670 
# 
# From -- ./inp_files/430671.got.cif
#   From: 2010.05.17/outbox.cif.g08.bks.cpg/sg2_216_cif.got.tgz:430671.got - 2010.06.03 11:33:40.
