data_PCOD9029541
_publ_section_title
;
Structure prediction by ZEFSAII (Michael W. Deem and Ramdas Pophale) SiO2 
 PCOD9029541
Probable space group: P -1
;
_chemical_formula_sum "Si O2"
_cell_formula_units_Z 16
_cell_length_a 9.197353
_cell_length_b 9.309319
_cell_length_c 11.625872
_cell_angle_alpha 83.151531
_cell_angle_beta 84.501021
_cell_angle_gamma 48.390914
_cell_volume 738.772134
_symmetry_space_group_name_H-M "P -1"
_symmetry_group_IT_number 2
_symmetry_cell_setting 'triclinic'
loop_
_space_group_symop_operation_xyz
x,y,z
-x,-y,-z
loop_
_atom_site_type_symbol
_atom_site_label
_atom_site_fract_x
_atom_site_fract_y
_atom_site_fract_z
Si Si1 0.149509 0.512632 0.430535
Si Si2 0.754955 0.064685 0.744853
Si Si3 0.693197 0.988600 0.108813
Si Si4 0.055722 0.050585 0.603364
Si Si5 0.249510 0.225614 0.109142
Si Si6 0.327015 0.707008 0.050569
Si Si7 0.068977 0.616450 0.172145
Si Si8 0.552550 0.134176 0.507196
O O1 0.164721 0.495041 0.293490
O O2 0.357970 0.352560 0.485013
O O3 0.000000 0.500000 0.500000
O O4 0.055268 0.728934 0.431565
O O5 0.634014 0.226987 0.839715
O O6 0.639232 0.111970 0.629924
O O7 0.947192 0.035461 0.713429
O O8 0.817785 0.865935 0.801763
O O9 0.851833 0.815717 0.198581
O O10 0.466615 0.128621 0.143865
O O11 0.723217 0.860616 0.010575
O O12 0.734002 0.125578 0.049432
O O13 0.285572 0.923905 0.592938
O O14 0.000000 0.000000 0.500000
O O15 0.106765 0.454202 0.104308
O O16 0.170578 0.687951 0.098915
O O17 0.500000 0.500000 0.000000
O O18 0.500000 0.000000 0.500000
#
# Coordination Sequence:
#
# PCOD9029541 Si02
#       8
#     2   2   2   2   2   2   2   2
#     4  12  26  43  67 105 138 177 238 284 336 432
#     4  10  23  44  70 102 142 184 231 290 350 415
#     4  10  23  42  68  96 134 177 226 289 338 408
#     4  10  23  45  66  97 140 176 232 288 349 406
#     4  10  22  42  67  97 133 172 234 281 343 409
#     4  11  22  46  69 102 143 179 231 289 346 419
#     4  12  24  42  68  98 135 182 231 281 350 409
#     4  11  23  44  74 100 138 184 232 291 350 407
#
# _framework density 21.657558000000002
#
# number of rings (size 3 to 8) (size 9 to 14) (size 15 to 20)
#    0.000    1.250    3.750    1.500    3.500    3.000 
#    0.000    1.250    0.000    0.000    0.000    0.000 
#    0.000    0.000    0.000    0.000    0.000    0.000 
#
# Total GULP energy -89310.980068 kJ/mol
# GULP energy per Si atom -5581.936254 kJ/mol
# Density = 2.160826 g / cm^3
# Si number density = 21.657558 Si / 1000 Ang^3
#
#
#
# Elastic Constant Matrix: (Units=GPa)
#
#
# Indices 1 2 3 4 5 6 
#
# 1 111.5767 61.6826 34.4988 -10.9245 -24.8424 8.0050
# 2 61.6826 142.0464 36.9274 8.0163 -5.6167 11.9140
# 3 34.4988 36.9274 52.4613 5.3259 -3.1160 9.0609
# 4 -10.9245 8.0163 5.3259 34.4660 5.9017 -0.4989
# 5 -24.8424 -5.6167 -3.1160 5.9017 41.7463 -2.2763
# 6 8.0050 11.9140 9.0609 -0.4989 -2.2763 46.5902
#
#
#
# Elastic Compliance Matrix: (Units=1/GPa)
#
#
# Indices 1 2 3 4 5 6 
#
# 1 0.016471 -0.005332 -0.007330 0.006286 0.007670 0.000401
# 2 -0.005332 0.010468 -0.003410 -0.003339 -0.001613 -0.001212
# 3 -0.007330 -0.003410 0.027278 -0.005417 -0.002201 -0.003339
# 4 0.006286 -0.003339 -0.005417 0.032929 -0.001708 0.001096
# 5 0.007670 -0.001613 -0.002201 -0.001708 0.028428 0.000893
# 6 0.000401 -0.001212 -0.003339 0.001096 0.000893 0.022410
#
#
# Mechanical properties :
#
#
# Convention : Reuss Voigt Hill
#
# Bulk Modulus (GPa) = 45.30275 63.58913 54.44594
# Shear Modulus (GPa) = 28.17161 36.09219 32.13190
#
# Velocity S-wave (km/s) = 3.61054 4.08670 3.85598
# Velocity P-wave (km/s) = 6.19229 7.18979 6.70960
#
# Compressibility (1/GPa) = 0.02207371
#
# Stress axis : x y z
#
# Youngs Moduli (GPa) = 60.71307 95.52929 36.65972
#
# Poissons Ratio (x) = 0.50935 0.26872
# Poissons Ratio (y) = 0.32371 0.12499
# Poissons Ratio (z) = 0.44503 0.32571
#
# Static dielectric constant tensor:
#      x y z
#    x 1.827820 -0.016240 0.011410 
#    y -0.016240 1.734950 0.024190 
#    z 0.011410 0.024190 1.834230 
# 
# From -- ./inp_files/381961.got.cif
#   From: 2010.05.17/outbox.cif.g08.bks.cpg/sg2_191_cif.got.tgz:381961.got - 2010.06.03 11:33:40.
