data_PCOD9029800
_publ_section_title
;
Structure prediction by ZEFSAII (Michael W. Deem and Ramdas Pophale) SiO2 
 PCOD9029800
Probable space group: P -1
;
_chemical_formula_sum "Si O2"
_cell_formula_units_Z 16
_cell_length_a 7.533861
_cell_length_b 9.194585
_cell_length_c 16.679796
_cell_angle_alpha 119.951303
_cell_angle_beta 40.405605
_cell_angle_gamma 101.724010
_cell_volume 615.856441
_symmetry_space_group_name_H-M "P -1"
_symmetry_group_IT_number 2
_symmetry_cell_setting 'triclinic'
loop_
_space_group_symop_operation_xyz
x,y,z
-x,-y,-z
loop_
_atom_site_type_symbol
_atom_site_label
_atom_site_fract_x
_atom_site_fract_y
_atom_site_fract_z
Si Si1 0.575353 0.067965 0.294589
Si Si2 0.523542 0.425027 0.183402
Si Si3 0.599541 0.697827 0.982985
Si Si4 0.117625 0.424953 0.559754
Si Si5 0.954278 0.327769 0.763866
Si Si6 0.493146 0.212812 0.649540
Si Si7 0.594400 0.055357 0.108910
Si Si8 0.905390 0.191985 0.352194
O O1 0.360559 0.259897 0.395829
O O2 0.690125 0.992285 0.148473
O O3 0.800165 0.092758 0.289284
O O4 0.424397 0.940696 0.355368
O O5 0.616678 0.595765 0.216225
O O6 0.680551 0.230074 0.109040
O O7 0.196213 0.502701 0.352793
O O8 0.490548 0.381773 0.089513
O O9 0.321837 0.738052 0.147177
O O10 0.690077 0.868582 0.977716
O O11 0.850851 0.532407 0.885222
O O12 0.199516 0.603202 0.584645
O O13 0.059466 0.345350 0.643072
O O14 0.218201 0.209272 0.691090
O O15 0.742157 0.188469 0.491131
O O16 0.247104 0.121263 0.230745
#
# Coordination Sequence:
#
# PCOD9029800 Si02
#       8
#     2   2   2   2   2   2   2   2
#     4  12  25  38  68 103 134 171 218 264 332 400
#     4  10  24  44  68  95 131 176 219 271 327 387
#     4  10  23  46  68  90 129 180 222 269 324 383
#     4  10  22  42  68  95 132 177 212 260 338 389
#     4  10  23  41  70  91 132 170 220 271 328 377
#     4  12  25  41  66 103 133 168 219 273 332 388
#     4  11  25  44  70  98 133 173 221 268 330 393
#     4  11  24  44  68 100 140 169 209 278 330 396
#
# _framework density 25.980079
#
# number of rings (size 3 to 8) (size 9 to 14) (size 15 to 20)
#    0.000    1.250    1.250    3.375    8.750    3.500 
#    2.250    0.625    0.000    0.000    0.000    0.000 
#    0.000    0.000    0.000    0.000    0.000    0.000 
#
# Total GULP energy -89522.248943 kJ/mol
# GULP energy per Si atom -5595.140559 kJ/mol
# Density = 2.592095 g / cm^3
# Si number density = 25.980079 Si / 1000 Ang^3
#
#
#
# Elastic Constant Matrix: (Units=GPa)
#
#
# Indices 1 2 3 4 5 6 
#
# 1 77.6640 31.2004 23.1413 9.8501 22.1311 -9.1188
# 2 31.2004 152.6326 28.9604 22.2598 10.6681 -13.1680
# 3 23.1413 28.9604 68.7091 8.8532 1.8160 -0.8411
# 4 9.8501 22.2598 8.8532 37.6809 -10.4967 6.0348
# 5 22.1311 10.6681 1.8160 -10.4967 43.4999 8.9486
# 6 -9.1188 -13.1680 -0.8411 6.0348 8.9486 34.6939
#
#
#
# Elastic Compliance Matrix: (Units=1/GPa)
#
#
# Indices 1 2 3 4 5 6 
#
# 1 0.021648 0.000308 -0.005461 -0.010848 -0.015877 0.011657
# 2 0.000308 0.008921 -0.002739 -0.007104 -0.005173 0.005971
# 3 -0.005461 -0.002739 0.017368 0.000406 0.003443 -0.003013
# 4 -0.010848 -0.007104 0.000406 0.042337 0.021242 -0.018381
# 5 -0.015877 -0.005173 0.003443 0.021242 0.041525 -0.020458
# 6 0.011657 0.005971 -0.003013 -0.018381 -0.020458 0.042555
#
#
# Mechanical properties :
#
#
# Convention : Reuss Voigt Hill
#
# Bulk Modulus (GPa) = 31.10058 51.73443 41.41750
# Shear Modulus (GPa) = 24.89369 37.55518 31.22443
#
# Velocity S-wave (km/s) = 3.09881 3.80615 3.47055
# Velocity P-wave (km/s) = 4.98000 6.26674 5.66006
#
# Compressibility (1/GPa) = 0.03215375
#
# Stress axis : x y z
#
# Youngs Moduli (GPa) = 46.19368 112.09390 57.57880
#
# Poissons Ratio (x) = -0.03456 0.31444
# Poissons Ratio (y) = -0.01424 0.15770
# Poissons Ratio (z) = 0.25226 0.30700
#
# Static dielectric constant tensor:
#      x y z
#    x 2.027730 0.047720 0.007650 
#    y 0.047720 2.052870 -0.010150 
#    z 0.007650 -0.010150 2.119250 
# 
# From -- ./inp_files/277689.got.cif
#   From: 2010.05.17/outbox.cif.g08.bks.cpg/sg2_139_cif.got.tgz:277689.got - 2010.06.03 11:33:40.
