data_PCOD9029651
_publ_section_title
;
Structure prediction by ZEFSAII (Michael W. Deem and Ramdas Pophale) SiO2 
 PCOD9029651
Probable space group: P -1
;
_chemical_formula_sum "Si O2"
_cell_formula_units_Z 16
_cell_length_a 11.208934
_cell_length_b 12.503606
_cell_length_c 11.795261
_cell_angle_alpha 102.747170
_cell_angle_beta 155.401135
_cell_angle_gamma 67.339185
_cell_volume 597.744818
_symmetry_space_group_name_H-M "P -1"
_symmetry_group_IT_number 2
_symmetry_cell_setting 'triclinic'
loop_
_space_group_symop_operation_xyz
x,y,z
-x,-y,-z
loop_
_atom_site_type_symbol
_atom_site_label
_atom_site_fract_x
_atom_site_fract_y
_atom_site_fract_z
Si Si1 0.748233 0.136646 0.287267
Si Si2 0.990992 0.449837 0.649502
Si Si3 0.911135 0.685550 0.748085
Si Si4 0.518178 0.643018 0.757931
Si Si5 0.877205 0.124087 0.063326
Si Si6 0.753860 0.774122 0.321764
Si Si7 0.216499 0.849016 0.276632
Si Si8 0.840088 0.390388 0.813512
O O1 0.633082 0.210372 0.322675
O O2 0.955624 0.192305 0.414462
O O3 0.448098 0.160602 0.952996
O O4 0.000000 0.000000 0.500000
O O5 0.841390 0.593672 0.585911
O O6 0.768901 0.395457 0.505121
O O7 0.152439 0.612903 0.042902
O O8 0.093574 0.373585 0.603138
O O9 0.595469 0.778662 0.564563
O O10 0.326570 0.404061 0.995072
O O11 0.040560 0.765391 0.808843
O O12 0.832872 0.606202 0.942855
O O13 0.514686 0.167664 0.800595
O O14 0.917019 0.123570 0.961341
O O15 0.089855 0.983314 0.254323
O O16 0.139806 0.742043 0.234891
O O17 0.500000 0.500000 0.500000
#
# Coordination Sequence:
#
# PCOD9029651 Si02
#       8
#     2   2   2   2   2   2   2   2
#     4  10  22  42  68 101 140 181 241 293 357 426
#     4  10  24  43  67 101 142 180 235 292 358 425
#     4  11  25  44  71 102 145 192 240 305 355 430
#     4  10  24  41  64  99 147 179 228 294 356 435
#     4  10  24  45  72 101 147 188 249 295 356 428
#     4  10  23  44  69 102 138 189 234 297 355 427
#     4  10  24  45  68 107 145 188 242 303 355 429
#     4  11  26  44  69 109 143 191 242 293 375 437
#
# _framework density 26.767277
#
# number of rings (size 3 to 8) (size 9 to 14) (size 15 to 20)
#    0.000    1.750    0.000    1.500   10.500    3.000 
#    0.000    0.625    0.000    0.000    0.000    0.000 
#    0.000    0.000    0.000    0.000    0.000    0.000 
#
# Total GULP energy -89493.392838 kJ/mol
# GULP energy per Si atom -5593.337052 kJ/mol
# Density = 2.670635 g / cm^3
# Si number density = 26.767277 Si / 1000 Ang^3
#
#
#
# Elastic Constant Matrix: (Units=GPa)
#
#
# Indices 1 2 3 4 5 6 
#
# 1 87.3684 59.7076 30.7748 -3.6922 9.7931 2.2860
# 2 59.7076 165.1279 68.0451 -29.1554 18.2422 17.0154
# 3 30.7748 68.0451 148.6061 -7.6806 16.3842 15.3411
# 4 -3.6922 -29.1554 -7.6806 56.7907 -5.3517 3.0947
# 5 9.7931 18.2422 16.3842 -5.3517 50.2421 -8.5282
# 6 2.2860 17.0154 15.3411 3.0947 -8.5282 27.6170
#
#
#
# Elastic Compliance Matrix: (Units=1/GPa)
#
#
# Indices 1 2 3 4 5 6 
#
# 1 0.015733 -0.006018 -0.000909 -0.002387 -0.000317 0.003080
# 2 -0.006018 0.011151 -0.002676 0.005074 -0.002521 -0.006233
# 3 -0.000909 -0.002676 0.008795 -0.000259 -0.002404 -0.003875
# 4 -0.002387 0.005074 -0.000259 0.020300 0.000012 -0.005056
# 5 -0.000317 -0.002521 -0.002404 0.000012 0.023386 0.010135
# 6 0.003080 -0.006233 -0.003875 -0.005056 0.010135 0.045643
#
#
# Mechanical properties :
#
#
# Convention : Reuss Voigt Hill
#
# Bulk Modulus (GPa) = 60.70891 79.79525 70.25208
# Shear Modulus (GPa) = 33.39905 43.10164 38.25035
#
# Velocity S-wave (km/s) = 3.53619 4.01713 3.78431
# Velocity P-wave (km/s) = 6.27713 7.16881 6.73774
#
# Compressibility (1/GPa) = 0.01647205
#
# Stress axis : x y z
#
# Youngs Moduli (GPa) = 63.56181 89.67561 113.70710
#
# Poissons Ratio (x) = 0.53968 0.10335
# Poissons Ratio (y) = 0.38252 0.30430
# Poissons Ratio (z) = 0.05777 0.23999
#
# Static dielectric constant tensor:
#      x y z
#    x 2.192970 -0.087160 -0.094600 
#    y -0.087160 2.254450 -0.053960 
#    z -0.094600 -0.053960 2.058580 
# 
# From -- ./inp_files/573609.got.cif
#   From: 2010.05.17/outbox.cif.g08.bks.cpg/sg2_287_cif.got.tgz:573609.got - 2010.06.03 11:33:40.
