data_PCOD9029291
_publ_section_title
;
Structure prediction by ZEFSAII (Michael W. Deem and Ramdas Pophale) SiO2 
 PCOD9029291
Probable space group: P -1
;
_chemical_formula_sum "Si O2"
_cell_formula_units_Z 16
_cell_length_a 6.160685
_cell_length_b 10.915560
_cell_length_c 11.480305
_cell_angle_alpha 79.672880
_cell_angle_beta 78.075371
_cell_angle_gamma 88.114659
_cell_volume 743.116346
_symmetry_space_group_name_H-M "P -1"
_symmetry_group_IT_number 2
_symmetry_cell_setting 'triclinic'
loop_
_space_group_symop_operation_xyz
x,y,z
-x,-y,-z
loop_
_atom_site_type_symbol
_atom_site_label
_atom_site_fract_x
_atom_site_fract_y
_atom_site_fract_z
Si Si1 0.224987 0.325042 0.801098
Si Si2 0.151852 0.190220 0.627256
Si Si3 0.473986 0.641950 0.444535
Si Si4 0.984505 0.764557 0.946043
Si Si5 0.103808 0.802464 0.554820
Si Si6 0.347734 0.555900 0.903006
Si Si7 0.697101 0.066809 0.266619
Si Si8 0.682251 0.751388 0.762803
O O1 0.066367 0.291791 0.713755
O O2 0.458756 0.331551 0.702749
O O3 0.230796 0.451092 0.854323
O O4 0.146734 0.222974 0.921020
O O5 0.343273 0.269540 0.528403
O O6 0.981915 0.131875 0.564660
O O7 0.273132 0.079843 0.701036
O O8 0.500000 0.500000 0.500000
O O9 0.241067 0.689150 0.506410
O O10 0.162157 0.651644 0.954213
O O11 0.127766 0.877016 0.855726
O O12 0.793318 0.735559 0.879233
O O13 0.242924 0.879104 0.620793
O O14 0.890805 0.754746 0.655497
O O15 0.506931 0.639666 0.788822
O O16 0.500000 0.500000 0.000000
O O17 0.457466 0.121218 0.252272
#
# Coordination Sequence:
#
# PCOD9029291 Si02
#       8
#     2   2   2   2   2   2   2   2
#     4  10  24  42  62  96 136 163 210 258 328 387
#     4  10  25  43  63  95 131 171 205 272 325 370
#     4  10  26  42  59  95 135 166 209 255 324 383
#     4  10  22  42  67 100 121 171 216 259 325 379
#     4  11  23  42  68  92 125 174 219 255 322 377
#     4  11  22  38  68  96 129 164 214 261 315 386
#     4  10  23  43  69  93 125 164 230 264 308 379
#     4  10  23  39  69  95 126 167 220 270 306 368
#
# _framework density 21.530950000000001
#
# number of rings (size 3 to 8) (size 9 to 14) (size 15 to 20)
#    0.750    1.000    1.250    1.500    7.000    6.000 
#    0.000    0.625    0.000    0.000    0.000    0.000 
#    0.000    0.000    0.000    0.000    0.000    0.000 
#
# Total GULP energy -89094.509850 kJ/mol
# GULP energy per Si atom -5568.406866 kJ/mol
# Density = 2.148195 g / cm^3
# Si number density = 21.530950 Si / 1000 Ang^3
#
#
#
# Elastic Constant Matrix: (Units=GPa)
#
#
# Indices 1 2 3 4 5 6 
#
# 1 74.7599 28.9393 33.2087 -2.6702 6.6192 -12.3912
# 2 28.9393 90.9076 28.0330 -13.0817 -3.6093 -10.3577
# 3 33.2087 28.0330 105.9289 13.8325 -1.1866 -3.6594
# 4 -2.6702 -13.0817 13.8325 19.4443 -2.8576 4.6355
# 5 6.6192 -3.6093 -1.1866 -2.8576 35.4016 -3.6382
# 6 -12.3912 -10.3577 -3.6594 4.6355 -3.6382 26.5860
#
#
#
# Elastic Compliance Matrix: (Units=1/GPa)
#
#
# Indices 1 2 3 4 5 6 
#
# 1 0.018175 -0.003525 -0.004831 0.001734 -0.003194 0.005693
# 2 -0.003525 0.015928 -0.004788 0.013668 0.003430 0.001990
# 3 -0.004831 -0.004788 0.014051 -0.013965 -0.000218 0.000222
# 4 0.001734 0.013668 -0.013965 0.073504 0.005731 -0.007821
# 5 -0.003194 0.003430 -0.000218 0.005731 0.029949 0.002917
# 6 0.005693 0.001990 0.000222 -0.007821 0.002917 0.042836
#
#
# Mechanical properties :
#
#
# Convention : Reuss Voigt Hill
#
# Bulk Modulus (GPa) = 45.73029 50.21761 47.97395
# Shear Modulus (GPa) = 21.92802 28.38074 25.15438
#
# Velocity S-wave (km/s) = 3.19477 3.63455 3.42173
# Velocity P-wave (km/s) = 5.90713 6.40214 6.15961
#
# Compressibility (1/GPa) = 0.02186735
#
# Stress axis : x y z
#
# Youngs Moduli (GPa) = 55.02144 62.78066 71.17131
#
# Poissons Ratio (x) = 0.22128 0.34380
# Poissons Ratio (y) = 0.19394 0.34077
# Poissons Ratio (z) = 0.26578 0.30059
#
# Static dielectric constant tensor:
#      x y z
#    x 1.821790 0.007190 0.037630 
#    y 0.007190 1.809720 0.001410 
#    z 0.037630 0.001410 1.842380 
# 
# From -- ./inp_files/362907.got.cif
#   From: 2010.05.17/outbox.cif.g08.bks.cpg/sg2_182_cif.got.tgz:362907.got - 2010.06.03 11:33:40.
