data_PCOD9029111
_publ_section_title
;
Structure prediction by ZEFSAII (Michael W. Deem and Ramdas Pophale) SiO2 
 PCOD9029111
Probable space group: P -1
;
_chemical_formula_sum "Si O2"
_cell_formula_units_Z 14
_cell_length_a 12.351707
_cell_length_b 10.805110
_cell_length_c 19.158064
_cell_angle_alpha 158.561593
_cell_angle_beta 144.205224
_cell_angle_gamma 37.820491
_cell_volume 539.245322
_symmetry_space_group_name_H-M "P -1"
_symmetry_group_IT_number 2
_symmetry_cell_setting 'triclinic'
loop_
_space_group_symop_operation_xyz
x,y,z
-x,-y,-z
loop_
_atom_site_type_symbol
_atom_site_label
_atom_site_fract_x
_atom_site_fract_y
_atom_site_fract_z
Si Si1 0.989475 0.869328 0.222651
Si Si2 0.601345 0.387960 0.832162
Si Si3 0.268926 0.686603 0.585505
Si Si4 0.609391 0.261618 0.608531
Si Si5 0.963546 0.862518 0.758294
Si Si6 0.396848 0.127253 0.784067
Si Si7 0.794557 0.172248 0.012979
O O1 0.174279 0.832196 0.347105
O O2 0.806376 0.990169 0.234526
O O3 0.007807 0.134003 0.308173
O O4 0.000000 0.500000 0.000000
O O5 0.595523 0.429632 0.767193
O O6 0.471464 0.093470 0.618252
O O7 0.809846 0.202535 0.865345
O O8 0.555562 0.685169 0.020470
O O9 0.478627 0.518321 0.625911
O O10 0.130814 0.431443 0.406902
O O11 0.280375 0.832367 0.590323
O O12 0.157560 0.870962 0.902777
O O13 0.271294 0.428252 0.832566
O O14 0.610948 0.013044 0.808589
O O15 0.000000 0.000000 0.000000
#
# Coordination Sequence:
#
# PCOD9029111 Si02
#       7
#     2   2   2   2   2   2   2
#     4  11  24  38  64 102 131 168 213 249 317 401
#     4   9  18  39  62  90 127 165 208 249 315 385
#     4  11  24  40  64 101 130 165 210 258 326 388
#     4   9  21  36  58  94 134 163 191 259 318 375
#     4  10  22  42  66  92 133 171 207 265 319 372
#     4  11  25  41  67  96 121 169 226 258 319 381
#     4  11  25  45  68  88 124 172 220 277 314 362
#
# _framework density 25.962211
#
# number of rings (size 3 to 8) (size 9 to 14) (size 15 to 20)
#    0.000    1.714    1.429    3.000    6.000    1.714 
#    0.000    0.714    0.000    0.000    0.000    0.000 
#    0.000    0.000    0.000    0.000    0.000    0.000 
#
# Total GULP energy -78280.697648 kJ/mol
# GULP energy per Si atom -5591.478403 kJ/mol
# Density = 2.590312 g / cm^3
# Si number density = 25.962211 Si / 1000 Ang^3
#
#
#
# Elastic Constant Matrix: (Units=GPa)
#
#
# Indices 1 2 3 4 5 6 
#
# 1 102.0462 43.9303 17.2604 2.4729 12.8949 -13.0687
# 2 43.9303 155.3674 26.1850 -13.2022 14.4793 -12.9307
# 3 17.2604 26.1850 60.6191 8.6411 3.8757 1.4571
# 4 2.4729 -13.2022 8.6411 31.4376 8.4648 7.1633
# 5 12.8949 14.4793 3.8757 8.4648 46.9436 -4.4250
# 6 -13.0687 -12.9307 1.4571 7.1633 -4.4250 30.4395
#
#
#
# Elastic Compliance Matrix: (Units=1/GPa)
#
#
# Indices 1 2 3 4 5 6 
#
# 1 0.012136 -0.002780 -0.001953 -0.002187 -0.001504 0.004419
# 2 -0.002780 0.008571 -0.003522 0.005204 -0.002430 0.001038
# 3 -0.001953 -0.003522 0.019486 -0.006612 0.001059 -0.001557
# 4 -0.002187 0.005204 -0.006612 0.040390 -0.008606 -0.009168
# 5 -0.001504 -0.002430 0.001059 -0.008606 0.024290 0.003828
# 6 0.004419 0.001038 -0.001557 -0.009168 0.003828 0.037979
#
#
# Mechanical properties :
#
#
# Convention : Reuss Voigt Hill
#
# Bulk Modulus (GPa) = 42.22516 54.75378 48.48947
# Shear Modulus (GPa) = 29.89440 37.14129 33.51784
#
# Velocity S-wave (km/s) = 3.39700 3.78642 3.59698
# Velocity P-wave (km/s) = 5.62899 6.34441 5.99738
#
# Compressibility (1/GPa) = 0.02368256
#
# Stress axis : x y z
#
# Youngs Moduli (GPa) = 82.40247 116.67110 51.31856
#
# Poissons Ratio (x) = 0.32437 0.10021
# Poissons Ratio (y) = 0.22909 0.18075
# Poissons Ratio (z) = 0.16091 0.41094
#
# Static dielectric constant tensor:
#      x y z
#    x 2.143150 0.004140 -0.009930 
#    y 0.004140 1.946190 0.006480 
#    z -0.009930 0.006480 2.134950 
# 
# From -- ./inp_files/213439.got.cif
#   From: 2010.05.17/outbox.cif.g08.bks.cpg/sg2_107_cif.got.tgz:213439.got - 2010.06.03 11:33:40.
