data_PCOD9029846
_publ_section_title
;
Structure prediction by ZEFSAII (Michael W. Deem and Ramdas Pophale) SiO2 
 PCOD9029846
Probable space group: P -1
;
_chemical_formula_sum "Si O2"
_cell_formula_units_Z 11
_cell_length_a 13.474226
_cell_length_b 7.124134
_cell_length_c 13.799143
_cell_angle_alpha 116.847716
_cell_angle_beta 29.922112
_cell_angle_gamma 136.130800
_cell_volume 396.281177
_symmetry_space_group_name_H-M "P -1"
_symmetry_group_IT_number 2
_symmetry_cell_setting 'triclinic'
loop_
_space_group_symop_operation_xyz
x,y,z
-x,-y,-z
loop_
_atom_site_type_symbol
_atom_site_label
_atom_site_fract_x
_atom_site_fract_y
_atom_site_fract_z
Si Si1 0.785489 0.199497 0.042921
Si Si2 0.258391 0.502917 0.112198
Si Si3 0.095893 0.005634 0.268098
Si Si4 0.540691 0.431972 0.234803
Si Si5 0.500000 0.500000 0.500000
Si Si6 0.363295 0.902390 0.486281
O O1 0.611324 0.236713 0.136387
O O2 0.549298 0.922570 0.253480
O O3 0.000000 0.500000 0.000000
O O4 0.980290 0.195954 0.810601
O O5 0.178496 0.301983 0.227301
O O6 0.593500 0.841830 0.921939
O O7 0.283110 0.376476 0.966551
O O8 0.978134 0.429873 0.311122
O O9 0.809264 0.794965 0.527575
O O10 0.626250 0.607415 0.303803
O O11 0.392687 0.170673 0.495045
O O12 0.500000 0.000000 0.500000
#
# Coordination Sequence:
#
# PCOD9029846 Si02
#       6
#     2   2   2   2   1   2
#     4  11  24  43  68 100 139 181 235 300 351 425
#     4  11  25  44  70 101 140 190 232 291 366 427
#     4  11  24  47  68 100 145 183 236 294 354 439
#     4  11  23  45  67 101 138 185 235 295 362 418
#     4  10  22  42  68  96 152 176 228 314 342 416
#     4  11  24  44  69 109 138 188 250 287 370 431
#
# _framework density 27.758068000000002
#
# number of rings (size 3 to 8) (size 9 to 14) (size 15 to 20)
#    0.000    1.091    3.636    3.818    2.545    2.182 
#    0.000    0.000    0.000    0.000    0.000    0.000 
#    0.000    0.000    0.000    0.000    0.000    0.000 
#
# Total GULP energy -61407.637411 kJ/mol
# GULP energy per Si atom -5582.512492 kJ/mol
# Density = 2.769489 g / cm^3
# Si number density = 27.758068 Si / 1000 Ang^3
#
#
#
# Elastic Constant Matrix: (Units=GPa)
#
#
# Indices 1 2 3 4 5 6 
#
# 1 88.1591 2.2982 11.7613 -10.7706 -18.4124 2.9563
# 2 2.2982 52.0534 7.8081 6.6400 -14.1966 -5.9102
# 3 11.7613 7.8081 182.1082 -11.1102 -6.0062 -10.6184
# 4 -10.7706 6.6400 -11.1102 58.6094 12.0972 -11.0742
# 5 -18.4124 -14.1966 -6.0062 12.0972 56.4748 -1.8429
# 6 2.9563 -5.9102 -10.6184 -11.0742 -1.8429 38.8191
#
#
#
# Elastic Compliance Matrix: (Units=1/GPa)
#
#
# Indices 1 2 3 4 5 6 
#
# 1 0.012377 0.000363 -0.000646 0.001230 0.003777 -0.000534
# 2 0.000363 0.021742 -0.000816 -0.003401 0.006303 0.002388
# 3 -0.000646 -0.000816 0.005765 0.001437 -0.000048 0.001910
# 4 0.001230 -0.003401 0.001437 0.019839 -0.004380 0.005233
# 5 0.003777 0.006303 -0.000048 -0.004380 0.021470 0.000429
# 6 -0.000534 0.002388 0.001910 0.005233 0.000429 0.028200
#
#
# Mechanical properties :
#
#
# Convention : Reuss Voigt Hill
#
# Bulk Modulus (GPa) = 26.53571 40.67288 33.60430
# Shear Modulus (GPa) = 40.27272 50.81087 45.54179
#
# Velocity S-wave (km/s) = 3.81313 4.28306 4.05491
# Velocity P-wave (km/s) = 5.38210 6.25651 5.83571
#
# Compressibility (1/GPa) = 0.03768506
#
# Stress axis : x y z
#
# Youngs Moduli (GPa) = 80.79556 45.99496 173.44757
#
# Poissons Ratio (x) = -0.01669 0.11212
# Poissons Ratio (y) = -0.02933 0.14153
# Poissons Ratio (z) = 0.05223 0.03753
#
# Static dielectric constant tensor:
#      x y z
#    x 2.152600 -0.363240 0.179280 
#    y -0.363240 1.958870 0.086480 
#    z 0.179280 0.086480 2.034950 
# 
# From -- ./inp_files/526669.got.cif
#   From: 2010.05.17/outbox.cif.g08.bks.cpg/sg2_264_cif.got.tgz:526669.got - 2010.06.03 11:33:40.
