data_PCOD9029370
_publ_section_title
;
Structure prediction by ZEFSAII (Michael W. Deem and Ramdas Pophale) SiO2 
 PCOD9029370
Probable space group: P -1
;
_chemical_formula_sum "Si O2"
_cell_formula_units_Z 14
_cell_length_a 7.787968
_cell_length_b 14.364992
_cell_length_c 9.390914
_cell_angle_alpha 106.392270
_cell_angle_beta 127.388221
_cell_angle_gamma 48.558411
_cell_volume 612.987655
_symmetry_space_group_name_H-M "P -1"
_symmetry_group_IT_number 2
_symmetry_cell_setting 'triclinic'
loop_
_space_group_symop_operation_xyz
x,y,z
-x,-y,-z
loop_
_atom_site_type_symbol
_atom_site_label
_atom_site_fract_x
_atom_site_fract_y
_atom_site_fract_z
Si Si1 0.821171 0.644754 0.011201
Si Si2 0.736429 0.156957 0.636285
Si Si3 0.707548 0.792457 0.749171
Si Si4 0.081562 0.589298 0.605375
Si Si5 0.190041 0.021827 0.015049
Si Si6 0.369976 0.596024 0.345292
Si Si7 0.361629 0.237654 0.760089
O O1 0.660653 0.737067 0.837795
O O2 0.652353 0.678213 0.086605
O O3 0.000000 0.500000 0.000000
O O4 0.057805 0.654553 0.175843
O O5 0.584755 0.119097 0.449361
O O6 0.650572 0.284365 0.581306
O O7 0.569012 0.206465 0.723543
O O8 0.060106 0.054632 0.804574
O O9 0.816596 0.866526 0.882900
O O10 0.939440 0.673694 0.711583
O O11 0.417330 0.491734 0.714959
O O12 0.000000 0.500000 0.500000
O O13 0.932197 0.688431 0.440226
O O14 0.505835 0.892030 0.146340
O O15 0.000000 0.000000 0.000000
O O16 0.500000 0.500000 0.500000
#
# Coordination Sequence:
#
# PCOD9029370 Si02
#       7
#     2   2   2   2   2   2   2
#     4  12  25  40  63 102 136 172 225 274 339 401
#     4  10  22  44  68  93 133 174 222 274 333 393
#     4  11  23  41  69  96 133 176 223 276 334 390
#     4  11  21  40  69  97 132 175 221 274 341 397
#     4  10  23  43  68  97 131 177 232 271 326 399
#     4  12  22  38  66  96 134 170 216 274 331 393
#     4  10  22  42  67  90 138 175 216 274 334 388
#
# _framework density 22.838958999999999
#
# number of rings (size 3 to 8) (size 9 to 14) (size 15 to 20)
#    0.000    1.143    5.714    1.714    0.000    8.571 
#    0.000    0.714    0.000    0.000    0.000    0.000 
#    0.000    0.000    0.000    0.000    0.000    0.000 
#
# Total GULP energy -78141.512356 kJ/mol
# GULP energy per Si atom -5581.536597 kJ/mol
# Density = 2.278698 g / cm^3
# Si number density = 22.838959 Si / 1000 Ang^3
#
#
#
# Elastic Constant Matrix: (Units=GPa)
#
#
# Indices 1 2 3 4 5 6 
#
# 1 33.1574 -3.1527 24.5962 -2.9078 -3.0703 6.8495
# 2 -3.1527 66.5881 25.7453 -11.0047 2.8242 13.2980
# 3 24.5962 25.7453 123.9364 -11.3497 -4.2391 8.5318
# 4 -2.9078 -11.0047 -11.3497 46.1496 0.6111 1.5018
# 5 -3.0703 2.8242 -4.2391 0.6111 36.4019 1.6640
# 6 6.8495 13.2980 8.5318 1.5018 1.6640 27.3744
#
#
#
# Elastic Compliance Matrix: (Units=1/GPa)
#
#
# Indices 1 2 3 4 5 6 
#
# 1 0.039962 0.007778 -0.008441 0.002639 0.002262 -0.011429
# 2 0.007778 0.020037 -0.004613 0.004487 -0.001034 -0.010425
# 3 -0.008441 -0.004613 0.010758 0.000974 0.000842 0.000895
# 4 0.002639 0.004487 0.000974 0.023290 -0.000202 -0.004409
# 5 0.002262 -0.001034 0.000842 -0.000202 0.027936 -0.002013
# 6 -0.011429 -0.010425 0.000895 -0.004409 -0.002013 0.044540
#
#
# Mechanical properties :
#
#
# Convention : Reuss Voigt Hill
#
# Bulk Modulus (GPa) = 16.60952 35.33996 25.97474
# Shear Modulus (GPa) = 25.36238 33.75136 29.55687
#
# Velocity S-wave (km/s) = 3.33601 3.84838 3.60132
# Velocity P-wave (km/s) = 4.70392 5.93750 5.35634
#
# Compressibility (1/GPa) = 0.06020643
#
# Stress axis : x y z
#
# Youngs Moduli (GPa) = 25.02379 49.90831 92.95127
#
# Poissons Ratio (x) = -0.38819 0.78458
# Poissons Ratio (y) = -0.19464 0.42876
# Poissons Ratio (z) = 0.21122 0.23021
#
# Static dielectric constant tensor:
#      x y z
#    x 2.002490 -0.024580 0.034780 
#    y -0.024580 2.020180 -0.045010 
#    z 0.034780 -0.045010 1.930430 
# 
# From -- ./inp_files/187919.got.cif
#   From: 2010.05.17/outbox.cif.g08.bks.cpg/sg2_94_cif.got.tgz:187919.got - 2010.06.03 11:33:40.
