data_PCOD9029688
_publ_section_title
;
Structure prediction by ZEFSAII (Michael W. Deem and Ramdas Pophale) SiO2 
 PCOD9029688
Probable space group: P -1
;
_chemical_formula_sum "Si O2"
_cell_formula_units_Z 7
_cell_length_a 5.060402
_cell_length_b 11.171391
_cell_length_c 5.786974
_cell_angle_alpha 104.588976
_cell_angle_beta 83.997081
_cell_angle_gamma 55.607408
_cell_volume 248.458271
_symmetry_space_group_name_H-M "P -1"
_symmetry_group_IT_number 2
_symmetry_cell_setting 'triclinic'
loop_
_space_group_symop_operation_xyz
x,y,z
-x,-y,-z
loop_
_atom_site_type_symbol
_atom_site_label
_atom_site_fract_x
_atom_site_fract_y
_atom_site_fract_z
Si Si1 0.000000 0.500000 0.500000
Si Si2 0.716828 0.373113 0.115335
Si Si3 0.830003 0.795959 0.399371
Si Si4 0.234368 0.863286 0.730027
O O1 0.928158 0.626672 0.367581
O O2 0.827227 0.439558 0.322912
O O3 0.049528 0.226261 0.885216
O O4 0.500000 0.500000 0.000000
O O5 0.540364 0.303191 0.222848
O O6 0.447937 0.897836 0.574961
O O7 0.028992 0.835529 0.560883
O O8 0.000000 0.000000 0.000000
#
# Coordination Sequence:
#
# PCOD9029688 Si02
#       4
#     1   2   2   2
#     4  10  22  42  68 104 140 174 228 292 344 408
#     4  11  24  44  73 104 140 183 232 289 352 416
#     4  11  23  42  70 100 138 184 230 285 350 413
#     4  11  26  45  67 102 142 182 235 289 342 417
#
# _framework density 28.173742000000001
#
# number of rings (size 3 to 8) (size 9 to 14) (size 15 to 20)
#    0.000    1.143    0.000    5.143    0.000   13.714 
#    0.000    4.286    0.000    5.143    0.000    0.000 
#    0.000    0.000    0.000    0.000    0.000    0.000 
#
# Total GULP energy -39106.103508 kJ/mol
# GULP energy per Si atom -5586.586215 kJ/mol
# Density = 2.810962 g / cm^3
# Si number density = 28.173742 Si / 1000 Ang^3
#
#
#
# Elastic Constant Matrix: (Units=GPa)
#
#
# Indices 1 2 3 4 5 6 
#
# 1 208.5236 5.7431 68.7538 -5.0556 -13.6654 47.9271
# 2 5.7431 112.6273 22.1554 -7.1536 -2.7967 -1.3318
# 3 68.7538 22.1554 157.0318 28.4606 -26.5964 25.7800
# 4 -5.0556 -7.1536 28.4606 51.2811 1.9626 -7.3179
# 5 -13.6654 -2.7967 -26.5964 1.9626 61.8960 -8.3662
# 6 47.9271 -1.3318 25.7800 -7.3179 -8.3662 46.0578
#
#
#
# Elastic Compliance Matrix: (Units=1/GPa)
#
#
# Indices 1 2 3 4 5 6 
#
# 1 0.006895 0.000116 -0.002367 0.001206 -0.000300 -0.005709
# 2 0.000116 0.009515 -0.002275 0.002875 -0.000367 0.001818
# 3 -0.002367 -0.002275 0.010172 -0.006865 0.003455 -0.003759
# 4 0.001206 0.002875 -0.006865 0.024805 -0.002508 0.006156
# 5 -0.000300 -0.000367 0.003455 -0.002508 0.017800 0.001202
# 6 -0.005709 0.001818 -0.003759 0.006156 0.001202 0.031006
#
#
# Mechanical properties :
#
#
# Convention : Reuss Voigt Hill
#
# Bulk Modulus (GPa) = 57.04718 74.60970 65.82844
# Shear Modulus (GPa) = 43.44486 57.28234 50.36360
#
# Velocity S-wave (km/s) = 3.93113 4.51397 4.23260
# Velocity P-wave (km/s) = 6.39511 7.32854 6.87767
#
# Compressibility (1/GPa) = 0.01752935
#
# Stress axis : x y z
#
# Youngs Moduli (GPa) = 145.03897 105.09252 98.30833
#
# Poissons Ratio (x) = -0.01217 0.23272
# Poissons Ratio (y) = -0.01679 0.22365
# Poissons Ratio (z) = 0.34334 0.23908
#
# Static dielectric constant tensor:
#      x y z
#    x 2.138670 -0.031240 -0.110020 
#    y -0.031240 2.250620 -0.043560 
#    z -0.110020 -0.043560 1.968610 
# 
# From -- ./inp_files/2132.got.cif
#   From: 2010.05.17/outbox.cif.g08.bks.cpg/sg2_2_cif.got.tgz:2132.got - 2010.06.03 11:33:40.
