data_PCOD9029132
_publ_section_title
;
Structure prediction by ZEFSAII (Michael W. Deem and Ramdas Pophale) SiO2 
 PCOD9029132
Probable space group: P -1
;
_chemical_formula_sum "Si O2"
_cell_formula_units_Z 14
_cell_length_a 5.170489
_cell_length_b 24.550337
_cell_length_c 5.291215
_cell_angle_alpha 54.661405
_cell_angle_beta 82.817979
_cell_angle_gamma 72.151156
_cell_volume 520.345154
_symmetry_space_group_name_H-M "P -1"
_symmetry_group_IT_number 2
_symmetry_cell_setting 'triclinic'
loop_
_space_group_symop_operation_xyz
x,y,z
-x,-y,-z
loop_
_atom_site_type_symbol
_atom_site_label
_atom_site_fract_x
_atom_site_fract_y
_atom_site_fract_z
Si Si1 0.120558 0.220481 0.073250
Si Si2 0.173936 0.545790 0.225903
Si Si3 0.548421 0.286227 0.691071
Si Si4 0.873635 0.956010 0.938500
Si Si5 0.518455 0.089365 0.495662
Si Si6 0.767740 0.176493 0.603598
Si Si7 0.691193 0.419720 0.383677
O O1 0.311169 0.141774 0.191269
O O2 0.000383 0.208666 0.389651
O O3 0.313096 0.270390 0.925968
O O4 0.854610 0.251559 0.852391
O O5 0.474135 0.494324 0.266045
O O6 0.189184 0.600109 0.296913
O O7 0.000000 0.500000 0.500000
O O8 0.095981 0.576751 0.872434
O O9 0.537801 0.241579 0.563090
O O10 0.532191 0.366304 0.453860
O O11 0.718377 0.013626 0.598948
O O12 0.659546 0.930375 0.203247
O O13 0.112922 0.885602 0.042807
O O14 0.000000 0.000000 0.000000
O O15 0.678617 0.137674 0.483192
#
# Coordination Sequence:
#
# PCOD9029132 Si02
#       7
#     2   2   2   2   2   2   2
#     4  11  25  44  63  96 137 178 230 285 347 425
#     4  10  22  47  74 106 143 186 235 294 344 421
#     4  12  28  42  67 102 137 181 231 283 352 430
#     4   8  16  32  64  93 121 179 226 286 366 414
#     4   9  17  38  66  87 131 178 227 292 355 417
#     4  10  22  42  66  93 135 179 227 294 359 423
#     4  10  25  43  70 108 142 185 240 286 354 420
#
# _framework density 26.90522
#
# number of rings (size 3 to 8) (size 9 to 14) (size 15 to 20)
#    0.000    2.000    1.429    0.429    8.000    0.000 
#    0.000    1.429    0.000    0.000    0.000    0.000 
#    0.000    0.000    0.000    0.000    0.000    0.000 
#
# Total GULP energy -78275.928436 kJ/mol
# GULP energy per Si atom -5591.137745 kJ/mol
# Density = 2.684398 g / cm^3
# Si number density = 26.905220 Si / 1000 Ang^3
#
#
#
# Elastic Constant Matrix: (Units=GPa)
#
#
# Indices 1 2 3 4 5 6 
#
# 1 118.7604 19.6670 37.8431 5.0528 -9.8769 8.2706
# 2 19.6670 111.9115 43.3351 8.0631 -3.8194 12.3386
# 3 37.8431 43.3351 114.9673 16.5193 -31.9825 10.3943
# 4 5.0528 8.0631 16.5193 35.9049 3.6874 -2.5092
# 5 -9.8769 -3.8194 -31.9825 3.6874 54.7394 -9.3417
# 6 8.2706 12.3386 10.3943 -2.5092 -9.3417 35.6311
#
#
#
# Elastic Compliance Matrix: (Units=1/GPa)
#
#
# Indices 1 2 3 4 5 6 
#
# 1 0.009487 -0.000404 -0.002931 0.000041 -0.000248 -0.001269
# 2 -0.000404 0.010965 -0.004311 -0.000399 -0.002326 -0.003084
# 3 -0.002931 -0.004311 0.014403 -0.006087 0.007931 -0.000378
# 4 0.000041 -0.000399 -0.006087 0.031465 -0.005227 0.002750
# 5 -0.000248 -0.002326 0.007931 -0.005227 0.023802 0.004422
# 6 -0.001269 -0.003084 -0.000378 0.002750 0.004422 0.030891
#
#
# Mechanical properties :
#
#
# Convention : Reuss Voigt Hill
#
# Bulk Modulus (GPa) = 51.11476 60.81441 55.96459
# Shear Modulus (GPa) = 35.00765 41.57468 38.29117
#
# Velocity S-wave (km/s) = 3.61106 3.93520 3.77661
# Velocity P-wave (km/s) = 6.03536 6.58028 6.31370
#
# Compressibility (1/GPa) = 0.01956382
#
# Stress axis : x y z
#
# Youngs Moduli (GPa) = 105.40631 91.19611 69.42999
#
# Poissons Ratio (x) = 0.03683 0.20348
# Poissons Ratio (y) = 0.04257 0.29933
# Poissons Ratio (z) = 0.30891 0.39318
#
# Static dielectric constant tensor:
#      x y z
#    x 2.203160 -0.054480 0.077970 
#    y -0.054480 2.114320 0.025160 
#    z 0.077970 0.025160 2.175800 
# 
# From -- ./inp_files/13961.got.cif
#   From: 2010.05.17/outbox.cif.g08.bks.cpg/sg2_7_cif.got.tgz:13961.got - 2010.06.03 11:33:40.
