data_PCOD9029988
_publ_section_title
;
Structure prediction by ZEFSAII (Michael W. Deem and Ramdas Pophale) SiO2 
 PCOD9029988
Probable space group: P -1
;
_chemical_formula_sum "Si O2"
_cell_formula_units_Z 16
_cell_length_a 13.251032
_cell_length_b 5.502904
_cell_length_c 10.941211
_cell_angle_alpha 71.538440
_cell_angle_beta 76.439262
_cell_angle_gamma 112.579396
_cell_volume 638.406143
_symmetry_space_group_name_H-M "P -1"
_symmetry_group_IT_number 2
_symmetry_cell_setting 'triclinic'
loop_
_space_group_symop_operation_xyz
x,y,z
-x,-y,-z
loop_
_atom_site_type_symbol
_atom_site_label
_atom_site_fract_x
_atom_site_fract_y
_atom_site_fract_z
Si Si1 0.077360 0.339804 0.963702
Si Si2 0.532823 0.345070 0.912515
Si Si3 0.772422 0.450934 0.879790
Si Si4 0.369714 0.087329 0.809968
Si Si5 0.421444 0.884768 0.415381
Si Si6 0.213252 0.319000 0.697154
Si Si7 0.980969 0.842766 0.401590
Si Si8 0.804323 0.216138 0.652585
O O1 0.170268 0.454824 0.800587
O O2 0.143381 0.347935 0.068847
O O3 0.000000 0.500000 0.000000
O O4 0.000000 0.000000 0.000000
O O5 0.673786 0.519476 0.843916
O O6 0.464521 0.374721 0.811095
O O7 0.500000 0.500000 0.000000
O O8 0.500000 0.000000 0.000000
O O9 0.812646 0.363667 0.758524
O O10 0.703517 0.154080 0.029230
O O11 0.466617 0.041145 0.716224
O O12 0.273904 0.138962 0.760704
O O13 0.319955 0.558658 0.542800
O O14 0.326537 0.941362 0.350673
O O15 0.500000 0.000000 0.500000
O O16 0.097075 0.102246 0.684299
O O17 0.893689 0.488858 0.495773
O O18 0.116519 0.936111 0.320246
O O19 0.000000 0.000000 0.500000
#
# Coordination Sequence:
#
# PCOD9029988 Si02
#       8
#     2   2   2   2   2   2   2   2
#     4  12  27  46  74 108 148 197 251 317 378 445
#     4  10  22  42  69 103 147 189 240 297 370 450
#     4  11  23  46  72 105 148 193 245 313 382 454
#     4  11  23  45  71 110 150 194 247 308 387 458
#     4  11  24  43  73 105 149 199 244 310 380 458
#     4  11  25  46  69 108 146 193 253 308 382 457
#     4  10  24  45  72  98 137 197 250 310 366 441
#     4  10  23  47  70 104 143 189 253 307 373 451
#
# _framework density 25.062415999999999
#
# number of rings (size 3 to 8) (size 9 to 14) (size 15 to 20)
#    0.000    1.250    1.250    3.375    3.500    2.000 
#    6.750    0.000    0.000    0.000    0.000    0.000 
#    0.000    0.000    0.000    0.000    0.000    0.000 
#
# Total GULP energy -89099.372791 kJ/mol
# GULP energy per Si atom -5568.710799 kJ/mol
# Density = 2.500537 g / cm^3
# Si number density = 25.062416 Si / 1000 Ang^3
#
#
#
# Elastic Constant Matrix: (Units=GPa)
#
#
# Indices 1 2 3 4 5 6 
#
# 1 228.3212 71.1873 33.5906 24.7452 23.6372 31.4329
# 2 71.1873 86.7504 -9.7452 25.6220 9.3929 24.5434
# 3 33.5906 -9.7452 62.4683 -1.2283 9.4825 0.6521
# 4 24.7452 25.6220 -1.2283 56.3808 7.3999 1.2345
# 5 23.6372 9.3929 9.4825 7.3999 55.4761 18.3001
# 6 31.4329 24.5434 0.6521 1.2345 18.3001 57.1358
#
#
#
# Elastic Compliance Matrix: (Units=1/GPa)
#
#
# Indices 1 2 3 4 5 6 
#
# 1 0.007186 -0.005888 -0.004651 -0.000444 -0.000852 -0.001089
# 2 -0.005888 0.020548 0.006188 -0.006591 0.000750 -0.005756
# 3 -0.004651 0.006188 0.019868 -0.000004 -0.002632 0.000517
# 4 -0.000444 -0.006591 -0.000004 0.021201 -0.002667 0.003472
# 5 -0.000852 0.000750 -0.002632 -0.002667 0.021234 -0.006567
# 6 -0.001089 -0.005756 0.000517 0.003472 -0.006567 0.022596
#
#
# Mechanical properties :
#
#
# Convention : Reuss Voigt Hill
#
# Bulk Modulus (GPa) = 25.70570 63.06726 44.38648
# Shear Modulus (GPa) = 37.22995 52.63235 44.93115
#
# Velocity S-wave (km/s) = 3.85839 4.58760 4.23871
# Velocity P-wave (km/s) = 5.48894 7.29933 6.45789
#
# Compressibility (1/GPa) = 0.03890188
#
# Stress axis : x y z
#
# Youngs Moduli (GPa) = 139.16161 48.66621 50.33134
#
# Poissons Ratio (x) = 0.28654 0.23407
# Poissons Ratio (y) = 0.81937 -0.31146
# Poissons Ratio (z) = 0.64719 -0.30116
#
# Static dielectric constant tensor:
#      x y z
#    x 1.717110 0.482710 0.496010 
#    y 0.482710 1.912980 -0.452460 
#    z 0.496010 -0.452460 1.546810 
# 
# From -- ./inp_files/409062.got.cif
#   From: 2010.05.17/outbox.cif.g08.bks.cpg/sg2_205_cif.got.tgz:409062.got - 2010.06.03 11:33:40.
