data_PCOD9029262
_publ_section_title
;
Structure prediction by ZEFSAII (Michael W. Deem and Ramdas Pophale) SiO2 
 PCOD9029262
Probable space group: P -1
;
_chemical_formula_sum "Si O2"
_cell_formula_units_Z 14
_cell_length_a 7.360953
_cell_length_b 11.402596
_cell_length_c 8.057546
_cell_angle_alpha 80.857882
_cell_angle_beta 99.757097
_cell_angle_gamma 81.880260
_cell_volume 648.149728
_symmetry_space_group_name_H-M "P -1"
_symmetry_group_IT_number 2
_symmetry_cell_setting 'triclinic'
loop_
_space_group_symop_operation_xyz
x,y,z
-x,-y,-z
loop_
_atom_site_type_symbol
_atom_site_label
_atom_site_fract_x
_atom_site_fract_y
_atom_site_fract_z
Si Si1 0.586548 0.086609 0.801911
Si Si2 0.649022 0.465706 0.675548
Si Si3 0.858432 0.615835 0.885326
Si Si4 0.129158 0.781625 0.759318
Si Si5 0.862577 0.214849 0.631965
Si Si6 0.208715 0.033449 0.832792
Si Si7 0.495037 0.677559 0.031400
O O1 0.705853 0.131260 0.663973
O O2 0.527165 0.205042 0.880992
O O3 0.393417 0.040396 0.749549
O O4 0.716691 0.991936 0.962525
O O5 0.500000 0.500000 0.500000
O O6 0.759797 0.571772 0.716671
O O7 0.789576 0.345336 0.669860
O O8 0.546437 0.430388 0.833950
O O9 0.972653 0.720453 0.837432
O O10 0.695746 0.653958 0.984325
O O11 0.000000 0.500000 0.000000
O O12 0.108831 0.776062 0.560720
O O13 0.123590 0.918134 0.786777
O O14 0.330532 0.708343 0.864008
O O15 0.052704 0.150323 0.761913
#
# Coordination Sequence:
#
# PCOD9029262 Si02
#       7
#     2   2   2   2   2   2   2
#     4   9  22  41  68  98 129 179 212 279 344 386
#     4  11  25  45  69  98 135 179 223 284 332 388
#     4  12  26  43  71  96 131 184 224 269 339 397
#     4  11  25  43  66 102 131 181 220 278 336 399
#     4  11  24  41  67  98 138 168 227 279 326 401
#     4  10  22  42  66  98 136 172 224 269 335 406
#     4  10  23  44  66  92 137 170 226 276 334 400
#
# _framework density 21.599945999999999
#
# number of rings (size 3 to 8) (size 9 to 14) (size 15 to 20)
#    0.000    1.429    1.429    2.143    4.000    8.000 
#    0.000    0.000    0.000    0.000    0.000    0.000 
#    0.000    0.000    0.000    0.000    0.000    0.000 
#
# Total GULP energy -78393.323142 kJ/mol
# GULP energy per Si atom -5599.523082 kJ/mol
# Density = 2.155078 g / cm^3
# Si number density = 21.599946 Si / 1000 Ang^3
#
#
#
# Elastic Constant Matrix: (Units=GPa)
#
#
# Indices 1 2 3 4 5 6 
#
# 1 141.7129 54.9836 39.6149 -6.1910 0.3290 -7.8827
# 2 54.9836 71.9869 33.6622 -5.6310 8.7899 -6.6872
# 3 39.6149 33.6622 57.4239 -12.4441 6.0869 -16.1164
# 4 -6.1910 -5.6310 -12.4441 17.1675 5.1979 8.1285
# 5 0.3290 8.7899 6.0869 5.1979 30.0575 -2.2208
# 6 -7.8827 -6.6872 -16.1164 8.1285 -2.2208 45.4985
#
#
#
# Elastic Compliance Matrix: (Units=1/GPa)
#
#
# Indices 1 2 3 4 5 6 
#
# 1 0.010788 -0.006791 -0.004338 -0.002398 0.003155 -0.000084
# 2 -0.006791 0.023835 -0.008804 0.001233 -0.005421 -0.001277
# 3 -0.004338 -0.008804 0.031704 0.017788 -0.006454 0.005692
# 4 -0.002398 0.001233 0.017788 0.080689 -0.018574 -0.009255
# 5 0.003155 -0.005421 -0.006454 -0.018574 0.039540 0.002712
# 6 -0.000084 -0.001277 0.005692 -0.009255 0.002712 0.025579
#
#
# Mechanical properties :
#
#
# Convention : Reuss Voigt Hill
#
# Bulk Modulus (GPa) = 37.79234 58.62724 48.20979
# Shear Modulus (GPa) = 19.17020 28.06891 23.61955
#
# Velocity S-wave (km/s) = 2.98235 3.60875 3.31040
# Velocity P-wave (km/s) = 5.42159 6.67573 6.08108
#
# Compressibility (1/GPa) = 0.02646039
#
# Stress axis : x y z
#
# Youngs Moduli (GPa) = 92.69921 41.95476 31.54149
#
# Poissons Ratio (x) = 0.28493 0.13684
# Poissons Ratio (y) = 0.62956 0.27768
# Poissons Ratio (z) = 0.40216 0.36935
#
# Static dielectric constant tensor:
#      x y z
#    x 1.790570 0.009820 0.005600 
#    y 0.009820 1.803120 -0.001840 
#    z 0.005600 -0.001840 1.751840 
# 
# From -- ./inp_files/39656.got.cif
#   From: 2010.05.17/outbox.cif.g08.bks.cpg/sg2_20_cif.got.tgz:39656.got - 2010.06.03 11:33:40.
