data_PCOD9029376
_publ_section_title
;
Structure prediction by ZEFSAII (Michael W. Deem and Ramdas Pophale) SiO2 
 PCOD9029376
Probable space group: P -1
;
_chemical_formula_sum "Si O2"
_cell_formula_units_Z 12
_cell_length_a 10.213403
_cell_length_b 8.767823
_cell_length_c 12.119928
_cell_angle_alpha 39.322896
_cell_angle_beta 115.417476
_cell_angle_gamma 116.009190
_cell_volume 610.345799
_symmetry_space_group_name_H-M "P -1"
_symmetry_group_IT_number 2
_symmetry_cell_setting 'triclinic'
loop_
_space_group_symop_operation_xyz
x,y,z
-x,-y,-z
loop_
_atom_site_type_symbol
_atom_site_label
_atom_site_fract_x
_atom_site_fract_y
_atom_site_fract_z
Si Si1 0.288589 0.864908 0.412668
Si Si2 0.029961 0.685689 0.576130
Si Si3 0.135562 0.861722 0.137428
Si Si4 0.402236 0.277232 0.404718
Si Si5 0.196854 0.969452 0.680684
Si Si6 0.655838 0.181710 0.964614
O O1 0.152012 0.696453 0.519478
O O2 0.235310 0.952679 0.228339
O O3 0.424411 0.725860 0.521343
O O4 0.342232 0.093467 0.385592
O O5 0.115095 0.775165 0.670628
O O6 0.931158 0.422778 0.705211
O O7 0.925808 0.881860 0.402899
O O8 0.233935 0.884645 0.051146
O O9 0.000000 0.000000 0.000000
O O10 0.317253 0.159015 0.548958
O O11 0.631618 0.456693 0.779880
O O12 0.273041 0.848356 0.873844
O O13 0.500000 0.000000 0.000000
#
# Coordination Sequence:
#
# PCOD9029376 Si02
#       6
#     2   2   2   2   2   2
#     4  10  23  43  67  91 130 168 209 264 318 371
#     4  10  22  42  67  91 129 170 206 266 316 371
#     4  12  26  40  63 101 130 165 212 263 319 373
#     4  10  23  46  67  92 126 172 212 260 315 373
#     4  10  22  44  67  95 123 168 218 256 316 375
#     4  12  27  41  68  95 127 171 213 261 314 380
#
# _framework density 19.660986000000001
#
# number of rings (size 3 to 8) (size 9 to 14) (size 15 to 20)
#    0.000    1.333    1.667    2.500    7.000    2.000 
#    0.000    3.333    0.000    0.000    0.000    0.000 
#    0.000    0.000    0.000    0.000    0.000    0.000 
#
# Total GULP energy -67135.045658 kJ/mol
# GULP energy per Si atom -5594.587138 kJ/mol
# Density = 1.961624 g / cm^3
# Si number density = 19.660986 Si / 1000 Ang^3
#
#
#
# Elastic Constant Matrix: (Units=GPa)
#
#
# Indices 1 2 3 4 5 6 
#
# 1 151.5688 32.9526 61.4297 5.4571 11.4227 -3.9507
# 2 32.9526 21.1547 23.7802 0.5651 -1.9950 -2.3764
# 3 61.4297 23.7802 136.5609 21.8595 10.2545 -17.9528
# 4 5.4571 0.5651 21.8595 20.1807 3.6434 0.2120
# 5 11.4227 -1.9950 10.2545 3.6434 30.5660 -5.1844
# 6 -3.9507 -2.3764 -17.9528 0.2120 -5.1844 18.9712
#
#
#
# Elastic Compliance Matrix: (Units=1/GPa)
#
#
# Indices 1 2 3 4 5 6 
#
# 1 0.011294 -0.015519 -0.002650 0.001205 -0.005082 -0.003502
# 2 -0.015519 0.084036 -0.010171 0.010377 0.013679 0.001292
# 3 -0.002650 -0.010171 0.014146 -0.014305 -0.000762 0.011513
# 4 0.001205 0.010377 -0.014305 0.065515 -0.005180 -0.014134
# 5 -0.005082 0.013679 -0.000762 -0.005180 0.038148 0.010417
# 6 -0.003502 0.001292 0.011513 -0.014134 0.010417 0.066044
#
#
# Mechanical properties :
#
#
# Convention : Reuss Voigt Hill
#
# Bulk Modulus (GPa) = 18.94053 60.62326 39.78189
# Shear Modulus (GPa) = 14.14585 26.68504 20.41545
#
# Velocity S-wave (km/s) = 2.68524 3.68810 3.22588
# Velocity P-wave (km/s) = 4.38959 7.00266 5.84405
#
# Compressibility (1/GPa) = 0.05279684
#
# Stress axis : x y z
#
# Youngs Moduli (GPa) = 88.54429 11.89970 70.68964
#
# Poissons Ratio (x) = 0.18467 0.18730
# Poissons Ratio (y) = 1.37409 0.71900
# Poissons Ratio (z) = 0.23460 0.12103
#
# Static dielectric constant tensor:
#      x y z
#    x 1.678140 -0.000200 0.001090 
#    y -0.000200 1.686180 0.022260 
#    z 0.001090 0.022260 1.649120 
# 
# From -- ./inp_files/150727.got.cif
#   From: 2010.05.17/outbox.cif.g08.bks.cpg/sg2_76_cif.got.tgz:150727.got - 2010.06.03 11:33:40.
