data_PCOD9029188
_publ_section_title
;
Structure prediction by ZEFSAII (Michael W. Deem and Ramdas Pophale) SiO2 
 PCOD9029188
Probable space group: P -1
;
_chemical_formula_sum "Si O2"
_cell_formula_units_Z 12
_cell_length_a 8.116256
_cell_length_b 25.505656
_cell_length_c 22.916562
_cell_angle_alpha 10.362636
_cell_angle_beta 33.236480
_cell_angle_gamma 33.441191
_cell_volume 464.415491
_symmetry_space_group_name_H-M "P -1"
_symmetry_group_IT_number 2
_symmetry_cell_setting 'triclinic'
loop_
_space_group_symop_operation_xyz
x,y,z
-x,-y,-z
loop_
_atom_site_type_symbol
_atom_site_label
_atom_site_fract_x
_atom_site_fract_y
_atom_site_fract_z
Si Si1 0.293634 0.338004 0.862832
Si Si2 0.388976 0.715000 0.873469
Si Si3 0.488598 0.033146 0.897647
Si Si4 0.355263 0.706180 0.032993
Si Si5 0.172835 0.086665 0.771683
Si Si6 0.018020 0.661034 0.879855
O O1 0.395308 0.658438 0.489354
O O2 0.951857 0.325936 0.998132
O O3 0.321054 0.233485 0.901180
O O4 0.536494 0.094316 0.086978
O O5 0.500000 0.000000 0.500000
O O6 0.374916 0.745719 0.914633
O O7 0.655483 0.455836 0.063708
O O8 0.500000 0.000000 0.000000
O O9 0.137671 0.023674 0.995431
O O10 0.177461 0.431250 0.401534
O O11 0.699921 0.616425 0.052413
O O12 0.216636 0.999739 0.785387
O O13 0.000000 0.000000 0.500000
O O14 0.000000 0.500000 0.000000
#
# Coordination Sequence:
#
# PCOD9029188 Si02
#       6
#     2   2   2   2   2   2
#     4  12  26  45  69 106 140 181 236 292 350 420
#     4  11  25  46  72 106 145 188 240 301 356 420
#     4  12  25  46  72 103 140 183 230 291 356 423
#     4  11  23  44  69 101 138 186 235 285 351 424
#     4  12  24  45  72 101 140 187 233 290 353 424
#     4  10  22  42  66  95 135 185 232 281 343 415
#
# _framework density 25.838930999999999
#
# number of rings (size 3 to 8) (size 9 to 14) (size 15 to 20)
#    0.000    0.667    0.000    8.500    0.000    4.000 
#    0.000   10.833    0.000    0.000    0.000    0.000 
#    0.000    0.000    0.000    0.000    0.000    0.000 
#
# Total GULP energy -67365.521043 kJ/mol
# GULP energy per Si atom -5613.793420 kJ/mol
# Density = 2.578012 g / cm^3
# Si number density = 25.838931 Si / 1000 Ang^3
#
#
#
# Elastic Constant Matrix: (Units=GPa)
#
#
# Indices 1 2 3 4 5 6 
#
# 1 124.4996 48.6254 45.3700 13.6218 -2.8632 -32.7223
# 2 48.6254 163.3237 40.7194 12.5776 -16.3470 -31.0181
# 3 45.3700 40.7194 172.1042 18.4829 -23.7388 -32.7371
# 4 13.6218 12.5776 18.4829 47.4255 0.5848 -7.5537
# 5 -2.8632 -16.3470 -23.7388 0.5848 45.6295 -5.2776
# 6 -32.7223 -31.0181 -32.7371 -7.5537 -5.2776 67.6519
#
#
#
# Elastic Compliance Matrix: (Units=1/GPa)
#
#
# Indices 1 2 3 4 5 6 
#
# 1 0.010361 -0.002050 -0.001586 -0.001311 -0.000532 0.003116
# 2 -0.002050 0.007626 -0.000317 -0.000952 0.002735 0.002459
# 3 -0.001586 -0.000317 0.007637 -0.002029 0.004119 0.002878
# 4 -0.001311 -0.000952 -0.002029 0.022580 -0.001730 0.000333
# 5 -0.000532 0.002735 0.004119 -0.001730 0.025582 0.004792
# 6 0.003116 0.002459 0.002878 0.000333 0.004792 0.019220
#
#
# Mechanical properties :
#
#
# Convention : Reuss Voigt Hill
#
# Bulk Modulus (GPa) = 56.43682 81.03967 68.73824
# Shear Modulus (GPa) = 46.80882 53.82223 50.31553
#
# Velocity S-wave (km/s) = 4.26086 4.56893 4.41758
# Velocity P-wave (km/s) = 6.78939 7.69837 7.25813
#
# Compressibility (1/GPa) = 0.01771893
#
# Stress axis : x y z
#
# Youngs Moduli (GPa) = 96.51557 131.12800 130.94103
#
# Poissons Ratio (x) = 0.26878 0.20771
# Poissons Ratio (y) = 0.19783 0.04146
# Poissons Ratio (z) = 0.15310 0.04152
#
# Static dielectric constant tensor:
#      x y z
#    x 2.202410 0.012400 -0.000470 
#    y 0.012400 2.027790 0.020970 
#    z -0.000470 0.020970 1.897200 
# 
# From -- ./inp_files/608804.got.cif
#   From: 2010.05.17/outbox.cif.g08.bks.cpg/sg2_305_cif.got.tgz:608804.got - 2010.06.03 11:33:40.
