data_PCOD9029494
_publ_section_title
;
Structure prediction by ZEFSAII (Michael W. Deem and Ramdas Pophale) SiO2 
 PCOD9029494
Probable space group: P -1
;
_chemical_formula_sum "Si O2"
_cell_formula_units_Z 14
_cell_length_a 14.828541
_cell_length_b 11.796646
_cell_length_c 7.939892
_cell_angle_alpha 111.170611
_cell_angle_beta 70.313125
_cell_angle_gamma 50.960904
_cell_volume 630.559958
_symmetry_space_group_name_H-M "P -1"
_symmetry_group_IT_number 2
_symmetry_cell_setting 'triclinic'
loop_
_space_group_symop_operation_xyz
x,y,z
-x,-y,-z
loop_
_atom_site_type_symbol
_atom_site_label
_atom_site_fract_x
_atom_site_fract_y
_atom_site_fract_z
Si Si1 0.098662 0.516507 0.897567
Si Si2 0.994164 0.750903 0.760108
Si Si3 0.206225 0.624995 0.095755
Si Si4 0.399461 0.777378 0.836448
Si Si5 0.933036 0.085674 0.336432
Si Si6 0.442633 0.632662 0.351664
Si Si7 0.642193 0.750655 0.703272
O O1 0.284572 0.291612 0.550255
O O2 0.972275 0.723978 0.949145
O O3 0.151221 0.550036 0.033304
O O4 0.000000 0.500000 0.000000
O O5 0.046877 0.836569 0.781456
O O6 0.166736 0.483246 0.442050
O O7 0.808662 0.946441 0.874063
O O8 0.109344 0.778366 0.406833
O O9 0.425259 0.415182 0.851371
O O10 0.118243 0.809094 0.106510
O O11 0.418640 0.706075 0.596364
O O12 0.447509 0.614979 0.842579
O O13 0.542832 0.729313 0.743849
O O14 0.759429 0.183809 0.488637
O O15 0.500000 0.000000 0.000000
#
# Coordination Sequence:
#
# PCOD9029494 Si02
#       7
#     2   2   2   2   2   2   2
#     4  10  23  47  68  94 134 178 222 277 323 394
#     4  10  22  42  67  96 128 171 222 265 339 384
#     4  11  23  41  64  99 139 167 219 272 338 388
#     4  11  21  36  69 100 124 172 216 277 325 397
#     4  11  23  39  67 103 133 171 207 281 336 398
#     4  11  20  37  65 100 135 163 218 263 340 401
#     4  10  23  44  66  94 129 174 230 271 321 394
#
# _framework density 22.202489
#
# number of rings (size 3 to 8) (size 9 to 14) (size 15 to 20)
#    0.857    0.571    4.286    1.286    2.000    2.857 
#    2.571    2.143    0.000    0.000    0.000    0.000 
#    0.000    0.000    0.000    0.000    0.000    0.000 
#
# Total GULP energy -78195.562301 kJ/mol
# GULP energy per Si atom -5585.397307 kJ/mol
# Density = 2.215196 g / cm^3
# Si number density = 22.202489 Si / 1000 Ang^3
#
#
#
# Elastic Constant Matrix: (Units=GPa)
#
#
# Indices 1 2 3 4 5 6 
#
# 1 114.3525 27.8142 39.7211 -8.8707 -20.3621 27.6680
# 2 27.8142 59.7061 18.9130 10.2209 -7.7579 14.3513
# 3 39.7211 18.9130 72.8699 22.9087 -16.3685 9.7753
# 4 -8.8707 10.2209 22.9087 35.3938 -0.5039 -9.6780
# 5 -20.3621 -7.7579 -16.3685 -0.5039 45.1929 -0.9586
# 6 27.6680 14.3513 9.7753 -9.6780 -0.9586 34.3217
#
#
#
# Elastic Compliance Matrix: (Units=1/GPa)
#
#
# Indices 1 2 3 4 5 6 
#
# 1 0.015439 -0.004317 -0.008866 0.009428 0.002995 -0.005374
# 2 -0.004317 0.022782 0.001895 -0.011526 0.002316 -0.009771
# 3 -0.008866 0.001895 0.027524 -0.022604 0.005885 -0.007694
# 4 0.009428 -0.011526 -0.022604 0.053601 -0.004925 0.018634
# 5 0.002995 0.002316 0.005885 -0.004925 0.025830 -0.005727
# 6 -0.005374 -0.009771 -0.007694 0.018634 -0.005727 0.044840
#
#
# Mechanical properties :
#
#
# Convention : Reuss Voigt Hill
#
# Bulk Modulus (GPa) = 23.16398 46.64723 34.90560
# Shear Modulus (GPa) = 22.02814 33.68037 27.85426
#
# Velocity S-wave (km/s) = 3.15325 3.89905 3.54581
# Velocity P-wave (km/s) = 4.86961 6.42850 5.70257
#
# Compressibility (1/GPa) = 0.04317047
#
# Stress axis : x y z
#
# Youngs Moduli (GPa) = 64.76918 43.89359 36.33158
#
# Poissons Ratio (x) = 0.18949 0.32210
# Poissons Ratio (y) = 0.27961 -0.06884
# Poissons Ratio (z) = 0.57422 -0.08317
#
# Static dielectric constant tensor:
#      x y z
#    x 1.790320 -0.022720 0.007750 
#    y -0.022720 1.844760 -0.026400 
#    z 0.007750 -0.026400 1.862870 
# 
# From -- ./inp_files/307933.got.cif
#   From: 2010.05.17/outbox.cif.g08.bks.cpg/sg2_154_cif.got.tgz:307933.got - 2010.06.03 11:33:40.
