data_PCOD9029661
_publ_section_title
;
Structure prediction by ZEFSAII (Michael W. Deem and Ramdas Pophale) SiO2 
 PCOD9029661
Probable space group: P -1
;
_chemical_formula_sum "Si O2"
_cell_formula_units_Z 16
_cell_length_a 13.418015
_cell_length_b 8.975407
_cell_length_c 7.896872
_cell_angle_alpha 72.110147
_cell_angle_beta 77.734425
_cell_angle_gamma 126.294476
_cell_volume 625.704617
_symmetry_space_group_name_H-M "P -1"
_symmetry_group_IT_number 2
_symmetry_cell_setting 'triclinic'
loop_
_space_group_symop_operation_xyz
x,y,z
-x,-y,-z
loop_
_atom_site_type_symbol
_atom_site_label
_atom_site_fract_x
_atom_site_fract_y
_atom_site_fract_z
Si Si1 0.788186 0.023554 0.031526
Si Si2 0.873004 0.337277 0.461974
Si Si3 0.478880 0.420787 0.762030
Si Si4 0.036100 0.339305 0.107369
Si Si5 0.683232 0.251317 0.026011
Si Si6 0.419406 0.172937 0.223971
Si Si7 0.985065 0.023620 0.795223
Si Si8 0.258254 0.499556 0.430591
O O1 0.914909 0.197251 0.057165
O O2 0.674127 0.764804 0.211745
O O3 0.698616 0.086865 0.027382
O O4 0.872680 0.043454 0.833931
O O5 0.965224 0.369356 0.264181
O O6 0.793887 0.420022 0.453100
O O7 0.000000 0.500000 0.500000
O O8 0.738497 0.071810 0.618671
O O9 0.537010 0.656323 0.703667
O O10 0.595125 0.437363 0.622416
O O11 0.443529 0.299062 0.998848
O O12 0.194573 0.579616 0.938553
O O13 0.064668 0.189679 0.198290
O O14 0.724098 0.393882 0.793351
O O15 0.530962 0.148897 0.180177
O O16 0.129657 0.236229 0.581182
O O17 0.000000 0.000000 0.000000
#
# Coordination Sequence:
#
# PCOD9029661 Si02
#       8
#     2   2   2   2   2   2   2   2
#     4  11  23  42  69  98 142 184 226 278 350 409
#     4  12  24  43  67 103 135 179 225 292 336 403
#     4  10  22  42  68 102 137 186 222 286 341 411
#     4  11  24  43  63 100 136 185 232 276 344 410
#     4  11  22  41  67 103 137 181 226 289 338 407
#     4  10  23  42  68 101 141 174 237 282 346 403
#     4  10  24  43  64  96 136 179 224 278 340 410
#     4  11  23  41  68  99 134 179 230 284 345 398
#
# _framework density 25.571169999999999
#
# number of rings (size 3 to 8) (size 9 to 14) (size 15 to 20)
#    0.000    1.250    1.250    4.125    1.750    3.500 
#    0.000   10.625    0.000    0.000    0.000    0.000 
#    0.000    0.000    0.000    0.000    0.000    0.000 
#
# Total GULP energy -89526.621049 kJ/mol
# GULP energy per Si atom -5595.413816 kJ/mol
# Density = 2.551297 g / cm^3
# Si number density = 25.571170 Si / 1000 Ang^3
#
#
#
# Elastic Constant Matrix: (Units=GPa)
#
#
# Indices 1 2 3 4 5 6 
#
# 1 101.0801 52.7011 38.6723 -2.1213 -33.0493 7.9981
# 2 52.7011 163.7513 40.5878 -23.8464 -9.8369 -9.0984
# 3 38.6723 40.5878 73.4712 -9.5213 -21.0818 13.0235
# 4 -2.1213 -23.8464 -9.5213 49.1457 0.8965 -6.3352
# 5 -33.0493 -9.8369 -21.0818 0.8965 45.1931 -9.1622
# 6 7.9981 -9.0984 13.0235 -6.3352 -9.1622 37.9150
#
#
#
# Elastic Compliance Matrix: (Units=1/GPa)
#
#
# Indices 1 2 3 4 5 6 
#
# 1 0.016680 -0.004304 -0.003818 -0.002459 0.009241 -0.001418
# 2 -0.004304 0.009128 -0.003621 0.004165 -0.002009 0.004553
# 3 -0.003818 -0.003621 0.020101 0.001159 0.004627 -0.005656
# 4 -0.002459 0.004165 0.001159 0.023133 0.000211 0.005036
# 5 0.009241 -0.002009 0.004627 0.000211 0.031329 0.003585
# 6 -0.001418 0.004553 -0.005656 0.005036 0.003585 0.031417
#
#
# Mechanical properties :
#
#
# Convention : Reuss Voigt Hill
#
# Bulk Modulus (GPa) = 44.59480 66.91388 55.75434
# Shear Modulus (GPa) = 30.72231 40.20685 35.46458
#
# Velocity S-wave (km/s) = 3.46994 3.96959 3.72815
# Velocity P-wave (km/s) = 5.79063 6.87275 6.35476
#
# Compressibility (1/GPa) = 0.02242414
#
# Stress axis : x y z
#
# Youngs Moduli (GPa) = 59.95293 109.54955 49.74798
#
# Poissons Ratio (x) = 0.47146 0.18993
# Poissons Ratio (y) = 0.25801 0.18015
# Poissons Ratio (z) = 0.22889 0.39670
#
# Static dielectric constant tensor:
#      x y z
#    x 2.111370 0.048540 0.123080 
#    y 0.048540 2.005380 0.019920 
#    z 0.123080 0.019920 2.037790 
# 
# From -- ./inp_files/298223.got.cif
#   From: 2010.05.17/outbox.cif.g08.bks.cpg/sg2_150_cif.got.tgz:298223.got - 2010.06.03 11:33:40.
