data_PCOD9029466
_publ_section_title
;
Structure prediction by ZEFSAII (Michael W. Deem and Ramdas Pophale) SiO2 
 PCOD9029466
Probable space group: P -1
;
_chemical_formula_sum "Si O2"
_cell_formula_units_Z 14
_cell_length_a 6.632827
_cell_length_b 11.557847
_cell_length_c 11.660584
_cell_angle_alpha 107.477500
_cell_angle_beta 131.869317
_cell_angle_gamma 82.655537
_cell_volume 631.612746
_symmetry_space_group_name_H-M "P -1"
_symmetry_group_IT_number 2
_symmetry_cell_setting 'triclinic'
loop_
_space_group_symop_operation_xyz
x,y,z
-x,-y,-z
loop_
_atom_site_type_symbol
_atom_site_label
_atom_site_fract_x
_atom_site_fract_y
_atom_site_fract_z
Si Si1 0.230634 0.154745 0.128449
Si Si2 0.432794 0.942991 0.581729
Si Si3 0.871203 0.290445 0.673467
Si Si4 0.640041 0.704946 0.985975
Si Si5 0.347113 0.414407 0.512849
Si Si6 0.185474 0.516525 0.724549
Si Si7 0.392171 0.903853 0.102940
O O1 0.336033 0.131043 0.289505
O O2 0.319087 0.033371 0.062555
O O3 0.374050 0.267507 0.146720
O O4 0.909477 0.156181 0.998234
O O5 0.173634 0.842960 0.440970
O O6 0.500000 0.000000 0.500000
O O7 0.430262 0.053053 0.704805
O O8 0.564185 0.319841 0.591607
O O9 0.050756 0.296451 0.857549
O O10 0.032717 0.394484 0.686439
O O11 0.533811 0.814505 0.050010
O O12 0.447419 0.583777 0.905039
O O13 0.500000 0.500000 0.500000
O O14 0.288317 0.481151 0.628285
O O15 0.040451 0.385877 0.339959
#
# Coordination Sequence:
#
# PCOD9029466 Si02
#       7
#     2   2   2   2   2   2   2
#     4   9  22  41  66  95 130 175 217 262 331 387
#     4  10  22  42  67  95 132 172 218 270 325 390
#     4  11  25  41  64 101 133 168 220 271 331 377
#     4  12  24  40  69  99 134 171 217 272 326 391
#     4   9  22  42  65  92 128 173 216 265 322 384
#     4  10  24  42  67  95 132 172 222 262 326 396
#     4   9  22  41  65  94 131 170 222 259 332 383
#
# _framework density 22.165482000000001
#
# number of rings (size 3 to 8) (size 9 to 14) (size 15 to 20)
#    0.857    1.143    0.000    1.714    8.000    4.571 
#    0.000    1.429    0.000    0.000    0.000    0.000 
#    0.000    0.000    0.000    0.000    0.000    0.000 
#
# Total GULP energy -77989.575472 kJ/mol
# GULP energy per Si atom -5570.683962 kJ/mol
# Density = 2.211503 g / cm^3
# Si number density = 22.165482 Si / 1000 Ang^3
#
#
#
# Elastic Constant Matrix: (Units=GPa)
#
#
# Indices 1 2 3 4 5 6 
#
# 1 76.7952 53.2626 36.3268 -7.3320 -5.7855 13.0435
# 2 53.2626 78.3286 50.0993 -2.6444 3.1116 25.6393
# 3 36.3268 50.0993 127.5876 10.0538 8.1998 14.3179
# 4 -7.3320 -2.6444 10.0538 33.8934 7.9808 4.3662
# 5 -5.7855 3.1116 8.1998 7.9808 23.0376 -2.3306
# 6 13.0435 25.6393 14.3179 4.3662 -2.3306 27.2202
#
#
#
# Elastic Compliance Matrix: (Units=1/GPa)
#
#
# Indices 1 2 3 4 5 6 
#
# 1 0.027820 -0.021030 -0.001332 0.001244 0.010669 0.007893
# 2 -0.021030 0.041262 -0.006822 0.007500 -0.013815 -0.027586
# 3 -0.001332 -0.006822 0.011135 -0.003902 -0.001855 0.001674
# 4 0.001244 0.007500 -0.003902 0.036223 -0.013129 -0.012542
# 5 0.010669 -0.013815 -0.001855 -0.013129 0.054747 0.015670
# 6 0.007893 -0.027586 0.001674 -0.012542 0.015670 0.061412
#
#
# Mechanical properties :
#
#
# Convention : Reuss Voigt Hill
#
# Bulk Modulus (GPa) = 45.77212 62.45429 54.11320
# Shear Modulus (GPa) = 16.76444 26.36508 21.56476
#
# Velocity S-wave (km/s) = 2.75313 3.45260 3.12252
# Velocity P-wave (km/s) = 5.54989 6.64316 6.12098
#
# Compressibility (1/GPa) = 0.02184736
#
# Stress axis : x y z
#
# Youngs Moduli (GPa) = 35.94565 24.23516 89.80979
#
# Poissons Ratio (x) = 0.50968 0.11966
# Poissons Ratio (y) = 0.75595 0.61268
# Poissons Ratio (z) = 0.04789 0.16533
#
# Static dielectric constant tensor:
#      x y z
#    x 1.788820 -0.009920 -0.003830 
#    y -0.009920 1.868970 -0.016820 
#    z -0.003830 -0.016820 1.846180 
# 
# From -- ./inp_files/367882.got.cif
#   From: 2010.05.17/outbox.cif.g08.bks.cpg/sg2_184_cif.got.tgz:367882.got - 2010.06.03 11:33:40.
