data_PCOD9029326
_publ_section_title
;
Structure prediction by ZEFSAII (Michael W. Deem and Ramdas Pophale) SiO2 
 PCOD9029326
Probable space group: P -1
;
_chemical_formula_sum "Si O2"
_cell_formula_units_Z 14
_cell_length_a 7.086326
_cell_length_b 14.168989
_cell_length_c 14.317361
_cell_angle_alpha 150.350322
_cell_angle_beta 122.112224
_cell_angle_gamma 57.328315
_cell_volume 591.862959
_symmetry_space_group_name_H-M "P -1"
_symmetry_group_IT_number 2
_symmetry_cell_setting 'triclinic'
loop_
_space_group_symop_operation_xyz
x,y,z
-x,-y,-z
loop_
_atom_site_type_symbol
_atom_site_label
_atom_site_fract_x
_atom_site_fract_y
_atom_site_fract_z
Si Si1 0.137371 0.141908 0.879000
Si Si2 0.246570 0.802679 0.309419
Si Si3 0.247531 0.366043 0.455779
Si Si4 0.587261 0.314677 0.144631
Si Si5 0.272803 0.379290 0.678391
Si Si6 0.255186 0.055253 0.033129
Si Si7 0.947932 0.205030 0.554017
O O1 0.164826 0.036600 0.495503
O O2 0.096268 0.113577 0.952966
O O3 0.352323 0.243631 0.007371
O O4 0.185269 0.926476 0.658480
O O5 0.509203 0.726508 0.298780
O O6 0.184040 0.724557 0.326499
O O7 0.083829 0.749085 0.139954
O O8 0.426182 0.512433 0.633957
O O9 0.265554 0.271244 0.482697
O O10 0.000000 0.500000 0.500000
O O11 0.270490 0.224057 0.254206
O O12 0.678718 0.413549 0.164018
O O13 0.767334 0.134688 0.077328
O O14 0.044534 0.366359 0.661040
O O15 0.500000 0.000000 0.000000
#
# Coordination Sequence:
#
# PCOD9029326 Si02
#       7
#     2   2   2   2   2   2   2
#     4   9  20  39  65 104 134 181 240 284 346 422
#     4   9  20  39  71  95 141 184 234 289 354 419
#     4  10  25  44  65 102 149 181 231 298 354 420
#     4   9  23  41  66 105 140 180 232 291 351 421
#     4  10  22  42  67 102 139 184 230 289 358 421
#     4  10  22  42  70 101 137 188 232 287 353 421
#     4   9  20  39  67 102 134 190 232 282 359 420
#
# _framework density 23.654123999999999
#
# number of rings (size 3 to 8) (size 9 to 14) (size 15 to 20)
#    1.714    0.857    0.000    0.429    6.000    3.429 
#    5.143    2.143    0.000    0.000    0.000    0.000 
#    0.000    0.000    0.000    0.000    0.000    0.000 
#
# Total GULP energy -78168.631726 kJ/mol
# GULP energy per Si atom -5583.473695 kJ/mol
# Density = 2.360029 g / cm^3
# Si number density = 23.654124 Si / 1000 Ang^3
#
#
#
# Elastic Constant Matrix: (Units=GPa)
#
#
# Indices 1 2 3 4 5 6 
#
# 1 76.5545 31.9000 55.3894 -1.5058 4.9754 10.8217
# 2 31.9000 95.5320 64.5956 -15.1517 8.9962 15.9148
# 3 55.3894 64.5956 141.1762 -9.7783 12.6118 14.9486
# 4 -1.5058 -15.1517 -9.7783 48.0543 5.7093 6.3365
# 5 4.9754 8.9962 12.6118 5.7093 39.1619 7.9385
# 6 10.8217 15.9148 14.9486 6.3365 7.9385 29.1769
#
#
#
# Elastic Compliance Matrix: (Units=1/GPa)
#
#
# Indices 1 2 3 4 5 6 
#
# 1 0.018730 -0.001682 -0.006427 -0.000983 0.000774 -0.002734
# 2 -0.001682 0.017087 -0.006020 0.005097 -0.001221 -0.006387
# 3 -0.006427 -0.006020 0.012628 0.000754 -0.001885 -0.000453
# 4 -0.000983 0.005097 0.000754 0.023869 -0.003334 -0.007079
# 5 0.000774 -0.001221 -0.001885 -0.003334 0.027932 -0.005531
# 6 -0.002734 -0.006387 -0.000453 -0.007079 -0.005531 0.042046
#
#
# Mechanical properties :
#
#
# Convention : Reuss Voigt Hill
#
# Bulk Modulus (GPa) = 49.53456 68.55920 59.04688
# Shear Modulus (GPa) = 28.20414 34.03715 31.12064
#
# Velocity S-wave (km/s) = 3.45680 3.79747 3.63113
# Velocity P-wave (km/s) = 6.07612 6.94800 6.52663
#
# Compressibility (1/GPa) = 0.02018792
#
# Stress axis : x y z
#
# Youngs Moduli (GPa) = 53.38939 58.52282 79.18977
#
# Poissons Ratio (x) = 0.09844 0.50893
# Poissons Ratio (y) = 0.08981 0.47672
# Poissons Ratio (z) = 0.34312 0.35230
#
# Static dielectric constant tensor:
#      x y z
#    x 1.911370 -0.033560 0.000890 
#    y -0.033560 1.975700 0.016160 
#    z 0.000890 0.016160 1.897320 
# 
# From -- ./inp_files/560548.got.cif
#   From: 2010.05.17/outbox.cif.g08.bks.cpg/sg2_281_cif.got.tgz:560548.got - 2010.06.03 11:33:40.
