data_PCOD9029225
_publ_section_title
;
Structure prediction by ZEFSAII (Michael W. Deem and Ramdas Pophale) SiO2 
 PCOD9029225
Probable space group: P -1
;
_chemical_formula_sum "Si O2"
_cell_formula_units_Z 14
_cell_length_a 10.807165
_cell_length_b 8.371310
_cell_length_c 8.848521
_cell_angle_alpha 56.886101
_cell_angle_beta 104.142887
_cell_angle_gamma 102.909396
_cell_volume 646.189206
_symmetry_space_group_name_H-M "P -1"
_symmetry_group_IT_number 2
_symmetry_cell_setting 'triclinic'
loop_
_space_group_symop_operation_xyz
x,y,z
-x,-y,-z
loop_
_atom_site_type_symbol
_atom_site_label
_atom_site_fract_x
_atom_site_fract_y
_atom_site_fract_z
Si Si1 0.460126 0.304934 0.674099
Si Si2 0.882070 0.544685 0.276844
Si Si3 0.502880 0.046643 0.303167
Si Si4 0.099832 0.591053 0.105677
Si Si5 0.832962 0.729373 0.485678
Si Si6 0.604833 0.646392 0.036028
Si Si7 0.195017 0.837085 0.730708
O O1 0.500000 0.500000 0.500000
O O2 0.312945 0.260828 0.609641
O O3 0.464171 0.310214 0.850965
O O4 0.532116 0.139819 0.711626
O O5 0.887207 0.616807 0.415509
O O6 0.745069 0.593510 0.144235
O O7 0.872518 0.319116 0.332391
O O8 0.005347 0.657187 0.172473
O O9 0.650874 0.133581 0.269526
O O10 0.500000 0.000000 0.500000
O O11 0.392099 0.176917 0.165869
O O12 0.163730 0.416248 0.295461
O O13 0.180871 0.748738 0.943518
O O14 0.000000 0.500000 0.000000
O O15 0.868019 0.960141 0.400847
O O16 0.500000 0.500000 0.000000
#
# Coordination Sequence:
#
# PCOD9029225 Si02
#       7
#     2   2   2   2   2   2   2
#     4  10  23  38  62  95 126 166 213 262 330 382
#     4  10  22  42  66  97 127 170 218 259 327 386
#     4  11  23  39  63  94 128 170 217 264 328 390
#     4  10  23  42  69  95 127 172 217 266 324 386
#     4  10  23  43  65  95 132 166 215 271 321 389
#     4  11  21  39  65  89 132 165 206 269 317 386
#     4  10  23  43  66  94 130 169 217 264 330 380
#
# _framework density 21.665479999999999
#
# number of rings (size 3 to 8) (size 9 to 14) (size 15 to 20)
#    0.000    1.714    1.429    1.714    4.000    7.429 
#    0.000    2.857    0.000    0.000    0.000    0.000 
#    0.000    0.000    0.000    0.000    0.000    0.000 
#
# Total GULP energy -77963.145217 kJ/mol
# GULP energy per Si atom -5568.796087 kJ/mol
# Density = 2.161617 g / cm^3
# Si number density = 21.665480 Si / 1000 Ang^3
#
#
#
# Elastic Constant Matrix: (Units=GPa)
#
#
# Indices 1 2 3 4 5 6 
#
# 1 54.6910 24.5160 21.7351 -3.8563 -15.0442 -4.6304
# 2 24.5160 113.2221 57.1532 -5.2983 10.1907 -13.2377
# 3 21.7351 57.1532 147.2878 9.1544 -3.5527 -8.3482
# 4 -3.8563 -5.2983 9.1544 34.0544 5.3444 3.9251
# 5 -15.0442 10.1907 -3.5527 5.3444 37.3664 -2.0355
# 6 -4.6304 -13.2377 -8.3482 3.9251 -2.0355 26.9269
#
#
#
# Elastic Compliance Matrix: (Units=1/GPa)
#
#
# Indices 1 2 3 4 5 6 
#
# 1 0.024504 -0.005534 -0.001095 0.000198 0.011351 0.001983
# 2 -0.005534 0.013493 -0.004605 0.003379 -0.006651 0.003259
# 3 -0.001095 -0.004605 0.009088 -0.003766 0.002277 0.001087
# 4 0.000198 0.003379 -0.003766 0.032418 -0.006090 -0.004658
# 5 0.011351 -0.006651 0.002277 -0.006090 0.034390 0.002875
# 6 0.001983 0.003259 0.001087 -0.004658 0.002875 0.040314
#
#
# Mechanical properties :
#
#
# Convention : Reuss Voigt Hill
#
# Bulk Modulus (GPa) = 40.61968 58.00105 49.31036
# Shear Modulus (GPa) = 27.04450 33.78931 30.41690
#
# Velocity S-wave (km/s) = 3.53693 3.95345 3.75098
# Velocity P-wave (km/s) = 5.95559 6.90427 6.44741
#
# Compressibility (1/GPa) = 0.02461861
#
# Stress axis : x y z
#
# Youngs Moduli (GPa) = 40.80894 74.11466 110.03009
#
# Poissons Ratio (x) = 0.41013 0.12048
# Poissons Ratio (y) = 0.22583 0.50666
# Poissons Ratio (z) = 0.04468 0.34128
#
# Static dielectric constant tensor:
#      x y z
#    x 1.779370 -0.034070 -0.031610 
#    y -0.034070 2.041830 -0.137300 
#    z -0.031610 -0.137300 1.849330 
# 
# From -- ./inp_files/180856.got.cif
#   From: 2010.05.17/outbox.cif.g08.bks.cpg/sg2_91_cif.got.tgz:180856.got - 2010.06.03 11:33:40.
