data_PCOD9029097
_publ_section_title
;
Structure prediction by ZEFSAII (Michael W. Deem and Ramdas Pophale) SiO2 
 PCOD9029097
Probable space group: P -1
;
_chemical_formula_sum "Si O2"
_cell_formula_units_Z 12
_cell_length_a 11.855842
_cell_length_b 8.243106
_cell_length_c 5.751090
_cell_angle_alpha 55.017703
_cell_angle_beta 96.850949
_cell_angle_gamma 92.064250
_cell_volume 456.852217
_symmetry_space_group_name_H-M "P -1"
_symmetry_group_IT_number 2
_symmetry_cell_setting 'triclinic'
loop_
_space_group_symop_operation_xyz
x,y,z
-x,-y,-z
loop_
_atom_site_type_symbol
_atom_site_label
_atom_site_fract_x
_atom_site_fract_y
_atom_site_fract_z
Si Si1 0.154491 0.550809 0.240352
Si Si2 0.738343 0.018737 0.520199
Si Si3 0.424090 0.189454 0.099088
Si Si4 0.661146 0.148049 0.977751
Si Si5 0.026945 0.101884 0.168154
Si Si6 0.228644 0.508910 0.777916
O O1 0.146166 0.464326 0.572678
O O2 0.270840 0.664216 0.226099
O O3 0.046886 0.694515 0.035079
O O4 0.182238 0.457201 0.070248
O O5 0.756244 0.018863 0.248972
O O6 0.747855 0.253816 0.386127
O O7 0.836036 0.914047 0.779332
O O8 0.622207 0.895387 0.601208
O O9 0.346460 0.383844 0.870941
O O10 0.386842 0.997483 0.101757
O O11 0.554063 0.221204 0.048961
O O12 0.000000 0.000000 0.500000
O O13 0.000000 0.000000 0.000000
#
# Coordination Sequence:
#
# PCOD9029097 Si02
#       6
#     2   2   2   2   2   2
#     4  11  22  44  65 100 124 176 213 269 319 386
#     4  11  23  42  66  94 131 170 217 266 323 385
#     4  11  24  42  63  98 127 179 208 275 317 388
#     4  10  22  42  66  91 136 165 224 259 330 381
#     4  12  20  39  72  94 127 172 214 264 323 381
#     4  11  24  41  68  92 137 163 223 260 324 382
#
# _framework density 26.266701000000001
#
# number of rings (size 3 to 8) (size 9 to 14) (size 15 to 20)
#    0.000    1.000    6.667    0.500    2.333    3.333 
#    0.000    1.667    0.000    0.000    0.000    0.000 
#    0.000    0.000    0.000    0.000    0.000    0.000 
#
# Total GULP energy -66858.644377 kJ/mol
# GULP energy per Si atom -5571.553698 kJ/mol
# Density = 2.620692 g / cm^3
# Si number density = 26.266701 Si / 1000 Ang^3
#
#
#
# Elastic Constant Matrix: (Units=GPa)
#
#
# Indices 1 2 3 4 5 6 
#
# 1 117.4576 25.9552 9.8310 -2.9108 1.4470 -7.0835
# 2 25.9552 107.1460 42.4724 -2.3952 0.9736 -9.9989
# 3 9.8310 42.4724 134.4655 27.8308 12.7788 -8.9157
# 4 -2.9108 -2.3952 27.8308 48.0346 -7.1224 2.0751
# 5 1.4470 0.9736 12.7788 -7.1224 39.3600 -7.0574
# 6 -7.0835 -9.9989 -8.9157 2.0751 -7.0574 36.4690
#
#
#
# Elastic Compliance Matrix: (Units=1/GPa)
#
#
# Indices 1 2 3 4 5 6 
#
# 1 0.009052 -0.002069 -0.000015 0.000405 0.000006 0.001165
# 2 -0.002069 0.011775 -0.004293 0.003176 0.002113 0.002005
# 3 -0.000015 -0.004293 0.010772 -0.007167 -0.004510 0.000988
# 4 0.000405 0.003176 -0.007167 0.026204 0.006800 -0.000978
# 5 0.000006 0.002113 -0.004510 0.006800 0.028888 0.004681
# 6 0.001165 0.002005 0.000988 -0.000978 0.004681 0.029400
#
#
# Mechanical properties :
#
#
# Convention : Reuss Voigt Hill
#
# Bulk Modulus (GPa) = 53.06737 57.28738 55.17738
# Shear Modulus (GPa) = 37.00200 43.49342 40.24771
#
# Velocity S-wave (km/s) = 3.75734 4.07361 3.91867
# Velocity P-wave (km/s) = 6.25065 6.63197 6.44413
#
# Compressibility (1/GPa) = 0.01884397
#
# Stress axis : x y z
#
# Youngs Moduli (GPa) = 110.46742 84.92585 92.83646
#
# Poissons Ratio (x) = 0.17572 0.00143
# Poissons Ratio (y) = 0.22856 0.39856
# Poissons Ratio (z) = 0.00170 0.36460
#
# Static dielectric constant tensor:
#      x y z
#    x 2.276250 -0.064250 -0.103720 
#    y -0.064250 2.107130 0.067220 
#    z -0.103720 0.067220 2.208700 
# 
# From -- ./inp_files/34017.got.cif
#   From: 2010.05.17/outbox.cif.g08.bks.cpg/sg2_18_cif.got.tgz:34017.got - 2010.06.03 11:33:40.
