data_PCOD9029039
_publ_section_title
;
Structure prediction by ZEFSAII (Michael W. Deem and Ramdas Pophale) SiO2 
 PCOD9029039
Probable space group: P -1
;
_chemical_formula_sum "Si O2"
_cell_formula_units_Z 15
_cell_length_a 13.801613
_cell_length_b 11.656660
_cell_length_c 9.697080
_cell_angle_alpha 65.439164
_cell_angle_beta 109.435860
_cell_angle_gamma 54.150009
_cell_volume 717.450887
_symmetry_space_group_name_H-M "P -1"
_symmetry_group_IT_number 2
_symmetry_cell_setting 'triclinic'
loop_
_space_group_symop_operation_xyz
x,y,z
-x,-y,-z
loop_
_atom_site_type_symbol
_atom_site_label
_atom_site_fract_x
_atom_site_fract_y
_atom_site_fract_z
Si Si1 0.605205 0.203055 0.958451
Si Si2 0.097256 0.029568 0.986643
Si Si3 0.310781 0.156863 0.746603
Si Si4 0.169573 0.559281 0.563769
Si Si5 0.115546 0.753529 0.717105
Si Si6 0.500000 0.500000 0.000000
Si Si7 0.973180 0.732867 0.904079
Si Si8 0.697657 0.809838 0.603752
O O1 0.601731 0.295758 0.042382
O O2 0.698064 0.183427 0.885934
O O3 0.722105 0.953415 0.170236
O O4 0.387628 0.384605 0.736875
O O5 0.956118 0.232603 0.705018
O O6 0.107886 0.114327 0.076589
O O7 0.000000 0.000000 0.000000
O O8 0.166227 0.415785 0.596099
O O9 0.337302 0.137886 0.603068
O O10 0.500000 0.000000 0.000000
O O11 0.106014 0.660110 0.637482
O O12 0.032909 0.778670 0.802427
O O13 0.336121 0.563577 0.927541
O O14 0.000000 0.000000 0.500000
O O15 0.816133 0.805578 0.722487
O O16 0.159800 0.456398 0.170316
O O17 0.500000 0.000000 0.500000
#
# Coordination Sequence:
#
# PCOD9029039 Si02
#       8
#     2   2   2   2   2   1   2   2
#     4  10  24  41  71 100 131 176 234 279 345 409
#     4  12  25  45  66  99 141 185 225 284 347 415
#     4  10  23  44  72 102 130 177 236 285 346 412
#     4  10  23  43  68  99 133 174 233 288 338 410
#     4  11  24  43  69  99 137 181 234 285 341 416
#     4  10  22  42  66 102 130 176 230 286 344 400
#     4  11  27  44  68 106 142 181 232 281 358 421
#     4  11  27  46  70 102 144 185 224 291 360 413
#
# _framework density 20.907353000000001
#
# number of rings (size 3 to 8) (size 9 to 14) (size 15 to 20)
#    0.000    1.333    1.333    2.400   13.067    2.133 
#    0.000    0.000    0.000    0.000    0.000    0.000 
#    0.000    0.000    0.000    0.000    0.000    0.000 
#
# Total GULP energy -83590.412240 kJ/mol
# GULP energy per Si atom -5572.694149 kJ/mol
# Density = 2.085977 g / cm^3
# Si number density = 20.907353 Si / 1000 Ang^3
#
#
#
# Elastic Constant Matrix: (Units=GPa)
#
#
# Indices 1 2 3 4 5 6 
#
# 1 95.1866 13.3899 13.1116 -2.6736 5.9114 -2.6494
# 2 13.3899 98.3146 -10.8665 -3.7566 9.8612 11.8408
# 3 13.1116 -10.8665 61.0329 11.1345 7.6319 -5.6630
# 4 -2.6736 -3.7566 11.1345 20.6732 -2.7176 10.8749
# 5 5.9114 9.8612 7.6319 -2.7176 26.5122 0.6690
# 6 -2.6494 11.8408 -5.6630 10.8749 0.6690 37.3220
#
#
#
# Elastic Compliance Matrix: (Units=1/GPa)
#
#
# Indices 1 2 3 4 5 6 
#
# 1 0.011301 -0.001724 -0.003126 0.002684 -0.000706 0.000106
# 2 -0.001724 0.011652 0.002172 0.002319 -0.004234 -0.004090
# 3 -0.003126 0.002172 0.022349 -0.017182 -0.008498 0.007639
# 4 0.002684 0.002319 -0.017182 0.072850 0.011573 -0.024587
# 5 -0.000706 -0.004234 -0.008498 0.011573 0.043188 -0.004143
# 6 0.000106 -0.004090 0.007639 -0.024587 -0.004143 0.036496
#
#
# Mechanical properties :
#
#
# Convention : Reuss Voigt Hill
#
# Bulk Modulus (GPa) = 25.03430 31.75599 28.39515
# Shear Modulus (GPa) = 23.09389 32.82810 27.96099
#
# Velocity S-wave (km/s) = 3.32713 3.96684 3.66098
# Velocity P-wave (km/s) = 5.17297 6.01689 5.61082
#
# Compressibility (1/GPa) = 0.03994519
#
# Stress axis : x y z
#
# Youngs Moduli (GPa) = 88.48774 85.82153 44.74480
#
# Poissons Ratio (x) = 0.14796 0.13988
# Poissons Ratio (y) = 0.15255 -0.09718
# Poissons Ratio (z) = 0.27663 -0.18639
#
# Static dielectric constant tensor:
#      x y z
#    x 1.740710 0.015890 0.027310 
#    y 0.015890 1.727070 -0.019660 
#    z 0.027310 -0.019660 1.765900 
# 
# From -- ./inp_files/305011.got.cif
#   From: 2010.05.17/outbox.cif.g08.bks.cpg/sg2_153_cif.got.tgz:305011.got - 2010.06.03 11:33:40.
