data_PCOD9029711
_publ_section_title
;
Structure prediction by ZEFSAII (Michael W. Deem and Ramdas Pophale) SiO2 
 PCOD9029711
Probable space group: P -1
;
_chemical_formula_sum "Si O2"
_cell_formula_units_Z 15
_cell_length_a 6.083676
_cell_length_b 5.134673
_cell_length_c 23.685232
_cell_angle_alpha 118.728130
_cell_angle_beta 121.069876
_cell_angle_gamma 78.584159
_cell_volume 554.484224
_symmetry_space_group_name_H-M "P -1"
_symmetry_group_IT_number 2
_symmetry_cell_setting 'triclinic'
loop_
_space_group_symop_operation_xyz
x,y,z
-x,-y,-z
loop_
_atom_site_type_symbol
_atom_site_label
_atom_site_fract_x
_atom_site_fract_y
_atom_site_fract_z
Si Si1 0.500000 0.000000 0.500000
Si Si2 0.395063 0.417372 0.039145
Si Si3 0.502623 0.219383 0.702437
Si Si4 0.737449 0.309656 0.454184
Si Si5 0.456685 0.659690 0.834669
Si Si6 0.074956 0.965804 0.094260
Si Si7 0.664836 0.408352 0.633309
Si Si8 0.004530 0.043672 0.226413
O O1 0.288731 0.878576 0.511836
O O2 0.277071 0.923670 0.409978
O O3 0.604604 0.382738 0.112224
O O4 0.229290 0.682180 0.067146
O O5 0.500000 0.500000 0.000000
O O6 0.207636 0.119857 0.976171
O O7 0.405968 0.363872 0.760921
O O8 0.495356 0.428638 0.669012
O O9 0.355701 0.915584 0.631762
O O10 0.812243 0.186109 0.745043
O O11 0.528758 0.568343 0.444410
O O12 0.000000 0.500000 0.500000
O O13 0.298477 0.918847 0.813259
O O14 0.758931 0.756062 0.880760
O O15 0.075327 0.016066 0.166633
O O16 0.890626 0.652432 0.696753
#
# Coordination Sequence:
#
# PCOD9029711 Si02
#       8
#     1   2   2   2   2   2   2   2
#     4  10  22  42  68 108 146 198 248 316 372 450
#     4  11  26  46  72 108 145 195 249 313 382 451
#     4  10  23  47  70 106 154 191 252 316 366 460
#     4  10  23  43  74 106 155 200 255 312 387 457
#     4  12  25  45  79 103 142 205 243 307 393 443
#     4  11  24  46  71 104 150 184 251 313 363 458
#     4  10  22  43  69 103 154 191 245 315 374 446
#     4  11  24  43  71 107 143 194 246 310 375 452
#
# _framework density 27.052171999999999
#
# number of rings (size 3 to 8) (size 9 to 14) (size 15 to 20)
#    0.000    1.333    2.667    1.600    0.000   10.667 
#    0.000    0.000    0.000    0.000    0.000    0.000 
#    0.000    0.000    0.000    0.000    0.000    0.000 
#
# Total GULP energy -83731.252480 kJ/mol
# GULP energy per Si atom -5582.083499 kJ/mol
# Density = 2.699060 g / cm^3
# Si number density = 27.052172 Si / 1000 Ang^3
#
#
#
# Elastic Constant Matrix: (Units=GPa)
#
#
# Indices 1 2 3 4 5 6 
#
# 1 93.0826 41.3802 71.7445 1.3577 0.1860 2.8274
# 2 41.3802 87.6719 43.5554 1.1085 -5.6187 11.4361
# 3 71.7445 43.5554 197.4514 12.6879 -25.3743 5.1519
# 4 1.3577 1.1085 12.6879 45.0323 0.0827 -7.0256
# 5 0.1860 -5.6187 -25.3743 0.0827 50.7854 2.7210
# 6 2.8274 11.4361 5.1519 -7.0256 2.7210 43.3996
#
#
#
# Elastic Compliance Matrix: (Units=1/GPa)
#
#
# Indices 1 2 3 4 5 6 
#
# 1 0.017775 -0.005996 -0.005746 0.001483 -0.003686 0.001575
# 2 -0.005996 0.015250 -0.000865 -0.000531 0.001476 -0.003704
# 3 -0.005746 -0.000865 0.008024 -0.002223 0.003989 -0.000960
# 4 0.001483 -0.000531 -0.002223 0.023458 -0.001438 0.004195
# 5 -0.003686 0.001476 0.003989 -0.001438 0.021983 -0.002234
# 6 0.001575 -0.003704 -0.000960 0.004195 -0.002234 0.024848
#
#
# Mechanical properties :
#
#
# Convention : Reuss Voigt Hill
#
# Bulk Modulus (GPa) = 63.14811 76.84068 69.99439
# Shear Modulus (GPa) = 35.25320 42.61183 38.93252
#
# Velocity S-wave (km/s) = 3.61384 3.97315 3.79775
# Velocity P-wave (km/s) = 6.38803 7.03663 6.72016
#
# Compressibility (1/GPa) = 0.01583579
#
# Stress axis : x y z
#
# Youngs Moduli (GPa) = 56.25741 65.57294 124.62752
#
# Poissons Ratio (x) = 0.39314 0.71615
# Poissons Ratio (y) = 0.33729 0.10780
# Poissons Ratio (z) = 0.32328 0.05672
#
# Static dielectric constant tensor:
#      x y z
#    x 2.272670 -0.322580 -0.087110 
#    y -0.322580 3.135980 0.363650 
#    z -0.087110 0.363650 2.260410 
# 
# From -- ./inp_files/603462.got.cif
#   From: 2010.05.17/outbox.cif.g08.bks.cpg/sg2_302_cif.got.tgz:603462.got - 2010.06.03 11:33:40.
