data_PCOD9029950
_publ_section_title
;
Structure prediction by ZEFSAII (Michael W. Deem and Ramdas Pophale) SiO2 
 PCOD9029950
Probable space group: P -1
;
_chemical_formula_sum "Si O2"
_cell_formula_units_Z 16
_cell_length_a 18.132226
_cell_length_b 5.153709
_cell_length_c 9.674129
_cell_angle_alpha 80.805378
_cell_angle_beta 42.157022
_cell_angle_gamma 85.166297
_cell_volume 598.159120
_symmetry_space_group_name_H-M "P -1"
_symmetry_group_IT_number 2
_symmetry_cell_setting 'triclinic'
loop_
_space_group_symop_operation_xyz
x,y,z
-x,-y,-z
loop_
_atom_site_type_symbol
_atom_site_label
_atom_site_fract_x
_atom_site_fract_y
_atom_site_fract_z
Si Si1 0.069285 0.651720 0.010691
Si Si2 0.855427 0.101101 0.365386
Si Si3 0.399382 0.838481 0.731026
Si Si4 0.934425 0.462964 0.452585
Si Si5 0.714425 0.664086 0.209770
Si Si6 0.349036 0.548116 0.412288
Si Si7 0.463031 0.050037 0.891178
Si Si8 0.708912 0.651902 0.757559
O O1 0.109531 0.910586 0.844234
O O2 0.167739 0.470464 0.938953
O O3 0.000000 0.500000 0.000000
O O4 0.988421 0.682274 0.250782
O O5 0.934858 0.208924 0.371492
O O6 0.770240 0.335212 0.448566
O O7 0.777000 0.868633 0.552487
O O8 0.363436 0.558350 0.740626
O O9 0.500000 0.000000 0.500000
O O10 0.299413 0.040210 0.848052
O O11 0.434988 0.816186 0.843914
O O12 0.807165 0.471737 0.676599
O O13 0.000000 0.500000 0.500000
O O14 0.669207 0.670905 0.429033
O O15 0.437660 0.766347 0.322721
O O16 0.375684 0.471027 0.226205
O O17 0.353396 0.208746 0.047930
O O18 0.500000 0.000000 0.000000
#
# Coordination Sequence:
#
# PCOD9029950 Si02
#       8
#     2   2   2   2   2   2   2   2
#     4   9  21  46  68 103 133 189 244 294 358 427
#     4   9  20  42  64  96 132 173 244 286 353 432
#     4  12  28  49  72 109 149 193 241 304 368 438
#     4  10  23  42  65  94 141 177 233 296 365 426
#     4  11  26  47  78 105 151 189 246 305 366 430
#     4  10  22  42  69 100 140 184 234 298 355 436
#     4  12  26  44  72 103 142 189 243 293 371 442
#     4  11  24  40  69 101 135 186 236 296 360 436
#
# _framework density 26.748733999999999
#
# number of rings (size 3 to 8) (size 9 to 14) (size 15 to 20)
#    0.000    1.500    2.500    1.500    7.000    3.000 
#    4.500    0.000    0.000    0.000    0.000    0.000 
#    0.000    0.000    0.000    0.000    0.000    0.000 
#
# Total GULP energy -89477.215666 kJ/mol
# GULP energy per Si atom -5592.325979 kJ/mol
# Density = 2.668785 g / cm^3
# Si number density = 26.748734 Si / 1000 Ang^3
#
#
#
# Elastic Constant Matrix: (Units=GPa)
#
#
# Indices 1 2 3 4 5 6 
#
# 1 142.4924 21.5770 44.7976 11.9449 12.2781 14.6919
# 2 21.5770 78.6337 -0.8273 4.4538 1.7686 15.9220
# 3 44.7976 -0.8273 90.7407 10.3993 8.3954 12.7444
# 4 11.9449 4.4538 10.3993 47.0533 -3.9217 0.3595
# 5 12.2781 1.7686 8.3954 -3.9217 45.4430 1.0966
# 6 14.6919 15.9220 12.7444 0.3595 1.0966 34.7386
#
#
#
# Elastic Compliance Matrix: (Units=1/GPa)
#
#
# Indices 1 2 3 4 5 6 
#
# 1 0.008977 -0.002128 -0.003959 -0.001334 -0.001695 -0.001302
# 2 -0.002128 0.014765 0.002315 -0.001350 -0.000382 -0.006691
# 3 -0.003959 0.002315 0.014061 -0.002431 -0.001720 -0.004466
# 4 -0.001334 -0.001350 -0.002431 0.022473 0.002759 0.001755
# 5 -0.001695 -0.000382 -0.001720 0.002759 0.023016 0.000768
# 6 -0.001302 -0.006691 -0.004466 0.001755 0.000768 0.033999
#
#
# Mechanical properties :
#
#
# Convention : Reuss Voigt Hill
#
# Bulk Modulus (GPa) = 33.04704 49.21791 41.13247
# Shear Modulus (GPa) = 37.05898 41.86828 39.46363
#
# Velocity S-wave (km/s) = 3.72620 3.96061 3.84519
# Velocity P-wave (km/s) = 5.55825 6.27338 5.92661
#
# Compressibility (1/GPa) = 0.03025990
#
# Stress axis : x y z
#
# Youngs Moduli (GPa) = 111.39961 67.72692 71.11981
#
# Poissons Ratio (x) = 0.14409 0.28153
# Poissons Ratio (y) = 0.23701 -0.16463
# Poissons Ratio (z) = 0.44098 -0.15677
#
# Static dielectric constant tensor:
#      x y z
#    x 2.143500 -0.076900 -0.071350 
#    y -0.076900 2.302820 0.033000 
#    z -0.071350 0.033000 2.196950 
# 
# From -- ./inp_files/323675.got.cif
#   From: 2010.05.17/outbox.cif.g08.bks.cpg/sg2_162_cif.got.tgz:323675.got - 2010.06.03 11:33:40.
