data_PCOD9029668
_publ_section_title
;
Structure prediction by ZEFSAII (Michael W. Deem and Ramdas Pophale) SiO2 
 PCOD9029668
Probable space group: P -1
;
_chemical_formula_sum "Si O2"
_cell_formula_units_Z 14
_cell_length_a 22.695719
_cell_length_b 27.814120
_cell_length_c 14.518741
_cell_angle_alpha 161.855926
_cell_angle_beta 20.148504
_cell_angle_gamma 168.107927
_cell_volume 582.426428
_symmetry_space_group_name_H-M "P -1"
_symmetry_group_IT_number 2
_symmetry_cell_setting 'triclinic'
loop_
_space_group_symop_operation_xyz
x,y,z
-x,-y,-z
loop_
_atom_site_type_symbol
_atom_site_label
_atom_site_fract_x
_atom_site_fract_y
_atom_site_fract_z
Si Si1 0.156844 0.749937 0.030280
Si Si2 0.128735 0.423427 0.684850
Si Si3 0.264457 0.236416 0.606568
Si Si4 0.076837 0.770857 0.554148
Si Si5 0.909586 0.035802 0.925713
Si Si6 0.267659 0.777650 0.563175
Si Si7 0.312428 0.530054 0.931779
O O1 0.059100 0.497443 0.713500
O O2 0.014177 0.733287 0.296519
O O3 0.991186 0.705364 0.104765
O O4 0.500000 0.000000 0.000000
O O5 0.470136 0.678794 0.654021
O O6 0.062335 0.276757 0.424374
O O7 0.000000 0.500000 0.000000
O O8 0.338033 0.458408 0.860328
O O9 0.000000 0.000000 0.500000
O O10 0.181786 0.169191 0.712767
O O11 0.034921 0.856460 0.857296
O O12 0.417398 0.996742 0.442959
O O13 0.826102 0.120332 0.138131
O O14 0.616839 0.721684 0.783209
O O15 0.000000 0.500000 0.500000
O O16 0.321104 0.718144 0.284180
#
# Coordination Sequence:
#
# PCOD9029668 Si02
#       7
#     2   2   2   2   2   2   2
#     4  11  23  39  70 104 141 191 233 281 355 425
#     4  10  26  46  64  97 141 186 237 287 351 425
#     4  12  28  44  72 106 144 189 237 302 360 417
#     4  10  22  42  68 102 143 183 239 288 342 434
#     4  11  22  44  73 106 143 180 239 296 358 420
#     4  11  20  38  76 105 135 186 232 294 355 422
#     4  11  23  43  69 108 141 180 242 297 349 424
#
# _framework density 24.037369000000002
#
# number of rings (size 3 to 8) (size 9 to 14) (size 15 to 20)
#    0.000    1.143    4.286    1.714    8.000    2.857 
#    0.000    2.857    0.000    0.000    0.000    0.000 
#    0.000    0.000    0.000    0.000    0.000    0.000 
#
# Total GULP energy -78218.241128 kJ/mol
# GULP energy per Si atom -5587.017223 kJ/mol
# Density = 2.398266 g / cm^3
# Si number density = 24.037369 Si / 1000 Ang^3
#
#
#
# Elastic Constant Matrix: (Units=GPa)
#
#
# Indices 1 2 3 4 5 6 
#
# 1 81.2241 39.3218 21.9203 -7.8914 26.7496 8.5692
# 2 39.3218 190.8146 40.3206 -22.1781 12.2636 2.5635
# 3 21.9203 40.3206 77.6853 -9.7649 11.5787 -2.9754
# 4 -7.8914 -22.1781 -9.7649 51.4124 -1.3091 1.8749
# 5 26.7496 12.2636 11.5787 -1.3091 33.2225 -1.9293
# 6 8.5692 2.5635 -2.9754 1.8749 -1.9293 44.3108
#
#
#
# Elastic Compliance Matrix: (Units=1/GPa)
#
#
# Indices 1 2 3 4 5 6 
#
# 1 0.019283 -0.002413 -0.002088 0.001324 -0.014111 -0.004400
# 2 -0.002413 0.006465 -0.002508 0.001960 0.000499 -0.000137
# 3 -0.002088 -0.002508 0.015384 0.001401 -0.002618 0.001409
# 4 0.001324 0.001960 0.001401 0.020771 -0.001530 -0.001221
# 5 -0.014111 0.000499 -0.002618 -0.001530 0.042387 0.004435
# 6 -0.004400 -0.000137 0.001409 -0.001221 0.004435 0.023766
#
#
# Mechanical properties :
#
#
# Convention : Reuss Voigt Hill
#
# Bulk Modulus (GPa) = 36.88021 61.42770 49.15395
# Shear Modulus (GPa) = 33.08802 42.33323 37.71063
#
# Velocity S-wave (km/s) = 3.71418 4.20115 3.96515
# Velocity P-wave (km/s) = 5.81117 7.01024 6.43868
#
# Compressibility (1/GPa) = 0.02711481
#
# Stress axis : x y z
#
# Youngs Moduli (GPa) = 51.85870 154.66823 65.00413
#
# Poissons Ratio (x) = 0.37317 0.13571
# Poissons Ratio (y) = 0.12512 0.16305
# Poissons Ratio (z) = 0.10827 0.38795
#
# Static dielectric constant tensor:
#      x y z
#    x 2.032670 -0.065490 -0.014820 
#    y -0.065490 1.980820 0.005340 
#    z -0.014820 0.005340 1.985110 
# 
# From -- ./inp_files/419710.got.cif
#   From: 2010.05.17/outbox.cif.g08.bks.cpg/sg2_210_cif.got.tgz:419710.got - 2010.06.03 11:33:40.
