data_PCOD9029655
_publ_section_title
;
Structure prediction by ZEFSAII (Michael W. Deem and Ramdas Pophale) SiO2 
 PCOD9029655
Probable space group: P -1
;
_chemical_formula_sum "Si O2"
_cell_formula_units_Z 16
_cell_length_a 9.015575
_cell_length_b 6.248230
_cell_length_c 16.078705
_cell_angle_alpha 51.255292
_cell_angle_beta 92.603770
_cell_angle_gamma 103.257766
_cell_volume 681.829226
_symmetry_space_group_name_H-M "P -1"
_symmetry_group_IT_number 2
_symmetry_cell_setting 'triclinic'
loop_
_space_group_symop_operation_xyz
x,y,z
-x,-y,-z
loop_
_atom_site_type_symbol
_atom_site_label
_atom_site_fract_x
_atom_site_fract_y
_atom_site_fract_z
Si Si1 0.698512 0.829219 0.852434
Si Si2 0.528592 0.709346 0.605257
Si Si3 0.830307 0.071947 0.571245
Si Si4 0.510708 0.699415 0.043177
Si Si5 0.738796 0.626068 0.202617
Si Si6 0.042855 0.736180 0.649196
Si Si7 0.745268 0.399215 0.621024
Si Si8 0.010604 0.838353 0.946207
O O1 0.652273 0.517754 0.887244
O O2 0.864215 0.892307 0.882143
O O3 0.684282 0.089741 0.734131
O O4 0.566592 0.767616 0.933922
O O5 0.384680 0.505312 0.696876
O O6 0.606558 0.545734 0.580411
O O7 0.500000 0.000000 0.500000
O O8 0.674335 0.828372 0.640431
O O9 0.855579 0.116220 0.462478
O O10 0.809693 0.355011 0.543406
O O11 0.974101 0.970679 0.636021
O O12 0.642102 0.599745 0.121653
O O13 0.500000 0.000000 0.000000
O O14 0.864062 0.440373 0.253355
O O15 0.831321 0.955084 0.134731
O O16 0.890284 0.546752 0.646356
O O17 0.000000 0.500000 0.000000
O O18 0.000000 0.000000 0.000000
#
# Coordination Sequence:
#
# PCOD9029655 Si02
#       8
#     2   2   2   2   2   2   2   2
#     4  11  24  43  68 105 141 194 249 310 382 470
#     4  11  24  44  68 102 147 190 248 310 373 465
#     4  10  22  44  68  97 144 196 238 315 375 460
#     4  11  24  44  70  99 145 195 248 312 390 453
#     4  12  23  47  73 109 146 202 256 320 390 459
#     4  10  22  42  68 101 141 184 254 304 384 453
#     4  11  23  42  67 101 141 193 249 297 395 456
#     4  12  27  50  76 112 155 201 262 329 389 459
#
# _framework density 23.466289
#
# number of rings (size 3 to 8) (size 9 to 14) (size 15 to 20)
#    0.000    1.000    3.750    2.625    0.000    3.500 
#    2.250    0.000    0.000    0.000    0.000    0.000 
#    0.000    0.000    0.000    0.000    0.000    0.000 
#
# Total GULP energy -89216.176035 kJ/mol
# GULP energy per Si atom -5576.011002 kJ/mol
# Density = 2.341288 g / cm^3
# Si number density = 23.466289 Si / 1000 Ang^3
#
#
#
# Elastic Constant Matrix: (Units=GPa)
#
#
# Indices 1 2 3 4 5 6 
#
# 1 116.9263 44.0237 41.8489 -13.0896 -2.7697 0.3998
# 2 44.0237 88.5349 41.4709 -24.1650 -3.8507 -7.9121
# 3 41.8489 41.4709 112.2213 -25.0175 -11.8155 3.5457
# 4 -13.0896 -24.1650 -25.0175 29.6925 8.3974 -2.0034
# 5 -2.7697 -3.8507 -11.8155 8.3974 51.5642 -11.8532
# 6 0.3998 -7.9121 3.5457 -2.0034 -11.8532 47.8786
#
#
#
# Elastic Compliance Matrix: (Units=1/GPa)
#
#
# Indices 1 2 3 4 5 6 
#
# 1 0.011144 -0.004671 -0.002689 -0.001104 -0.000372 -0.000804
# 2 -0.004671 0.018131 -0.002717 0.010777 -0.000453 0.003575
# 3 -0.002689 -0.002717 0.012591 0.006806 0.001254 -0.000764
# 4 -0.001104 0.010777 0.006806 0.049322 -0.005256 0.002049
# 5 -0.000372 -0.000453 0.001254 -0.005256 0.021625 0.004969
# 6 -0.000804 0.003575 -0.000764 0.002049 0.004969 0.022856
#
#
# Mechanical properties :
#
#
# Convention : Reuss Voigt Hill
#
# Bulk Modulus (GPa) = 46.05539 63.59660 54.82600
# Shear Modulus (GPa) = 30.66322 38.51633 34.58977
#
# Velocity S-wave (km/s) = 3.61874 4.05575 3.84346
# Velocity P-wave (km/s) = 6.09337 7.00659 6.56587
#
# Compressibility (1/GPa) = 0.02171299
#
# Stress axis : x y z
#
# Youngs Moduli (GPa) = 89.73482 55.15265 79.42027
#
# Poissons Ratio (x) = 0.25761 0.21360
# Poissons Ratio (y) = 0.41913 0.21575
# Poissons Ratio (z) = 0.24134 0.14983
#
# Static dielectric constant tensor:
#      x y z
#    x 1.877270 -0.149880 -0.008950 
#    y -0.149880 1.814530 0.002820 
#    z -0.008950 0.002820 1.915660 
# 
# From -- ./inp_files/553171.got.cif
#   From: 2010.05.17/outbox.cif.g08.bks.cpg/sg2_277_cif.got.tgz:553171.got - 2010.06.03 11:33:40.
