data_PCOD9029975
_publ_section_title
;
Structure prediction by ZEFSAII (Michael W. Deem and Ramdas Pophale) SiO2 
 PCOD9029975
Probable space group: P -1
;
_chemical_formula_sum "Si O2"
_cell_formula_units_Z 12
_cell_length_a 10.224627
_cell_length_b 7.214760
_cell_length_c 7.559747
_cell_angle_alpha 60.101567
_cell_angle_beta 63.284475
_cell_angle_gamma 71.557621
_cell_volume 428.764811
_symmetry_space_group_name_H-M "P -1"
_symmetry_group_IT_number 2
_symmetry_cell_setting 'triclinic'
loop_
_space_group_symop_operation_xyz
x,y,z
-x,-y,-z
loop_
_atom_site_type_symbol
_atom_site_label
_atom_site_fract_x
_atom_site_fract_y
_atom_site_fract_z
Si Si1 0.979328 0.292692 0.983762
Si Si2 0.600457 0.781981 0.491697
Si Si3 0.329616 0.536081 0.824298
Si Si4 0.277239 0.087820 0.023641
Si Si5 0.096378 0.200740 0.560003
Si Si6 0.194007 0.769405 0.476883
O O1 0.099614 0.122610 0.091415
O O2 0.032637 0.239029 0.778215
O O3 0.801146 0.312430 0.068894
O O4 0.000000 0.500000 0.000000
O O5 0.489308 0.607885 0.681976
O O6 0.650636 0.864731 0.228934
O O7 0.746357 0.714046 0.550401
O O8 0.500000 0.000000 0.500000
O O9 0.321793 0.293322 0.006034
O O10 0.274507 0.575775 0.633923
O O11 0.298732 0.866744 0.223369
O O12 0.958793 0.293743 0.478459
O O13 0.149914 0.968506 0.545391
#
# Coordination Sequence:
#
# PCOD9029975 Si02
#       6
#     2   2   2   2   2   2
#     4   9  20  40  69  98 131 182 230 274 337 406
#     4  11  23  42  70  98 137 187 225 276 349 405
#     4  11  23  45  69 100 136 178 229 281 343 404
#     4  10  24  43  68  98 136 181 225 279 342 406
#     4  10  22  42  69 102 139 179 228 284 342 406
#     4  11  23  41  72 102 136 177 231 283 337 405
#
# _framework density 27.987371
#
# number of rings (size 3 to 8) (size 9 to 14) (size 15 to 20)
#    0.000    1.667    1.667    2.500    2.333    2.667 
#    0.000   21.667    0.000    0.000    0.000    0.000 
#    0.000    0.000    0.000    0.000    0.000    0.000 
#
# Total GULP energy -67025.725171 kJ/mol
# GULP energy per Si atom -5585.477098 kJ/mol
# Density = 2.792367 g / cm^3
# Si number density = 27.987371 Si / 1000 Ang^3
#
#
#
# Elastic Constant Matrix: (Units=GPa)
#
#
# Indices 1 2 3 4 5 6 
#
# 1 177.0102 19.5008 57.5433 -3.0609 -48.5250 22.7393
# 2 19.5008 89.2740 52.8642 -1.8814 -3.6261 -2.4518
# 3 57.5433 52.8642 191.6503 19.7775 -26.1056 6.1835
# 4 -3.0609 -1.8814 19.7775 53.6059 -4.0465 -0.3918
# 5 -48.5250 -3.6261 -26.1056 -4.0465 59.2665 4.7857
# 6 22.7393 -2.4518 6.1835 -0.3918 4.7857 37.0551
#
#
#
# Elastic Compliance Matrix: (Units=1/GPa)
#
#
# Indices 1 2 3 4 5 6 
#
# 1 0.009073 -0.000998 -0.001397 0.001508 0.007367 -0.006336
# 2 -0.000998 0.013837 -0.004030 0.001796 -0.001821 0.002454
# 3 -0.001397 -0.004030 0.007297 -0.002791 0.001704 -0.000877
# 4 0.001508 0.001796 -0.002791 0.019945 0.001503 -0.000324
# 5 0.007367 -0.001821 0.001704 0.001503 0.024297 -0.008048
# 6 -0.006336 0.002454 -0.000877 -0.000324 -0.008048 0.032220
#
#
# Mechanical properties :
#
#
# Convention : Reuss Voigt Hill
#
# Bulk Modulus (GPa) = 57.60788 79.75012 68.67900
# Shear Modulus (GPa) = 39.90337 51.85391 45.87864
#
# Velocity S-wave (km/s) = 3.78002 4.30904 4.05317
# Velocity P-wave (km/s) = 6.29918 7.30164 6.81886
#
# Compressibility (1/GPa) = 0.01735874
#
# Stress axis : x y z
#
# Youngs Moduli (GPa) = 110.21791 72.27033 137.03847
#
# Poissons Ratio (x) = 0.07211 0.19139
# Poissons Ratio (y) = 0.10998 0.55222
# Poissons Ratio (z) = 0.15393 0.29123
#
# Static dielectric constant tensor:
#      x y z
#    x 2.148140 0.074420 0.034690 
#    y 0.074420 2.268270 -0.048780 
#    z 0.034690 -0.048780 2.380480 
# 
# From -- ./inp_files/242370.got.cif
#   From: 2010.05.17/outbox.cif.g08.bks.cpg/sg2_122_cif.got.tgz:242370.got - 2010.06.03 11:33:40.
