data_PCOD9029802
_publ_section_title
;
Structure prediction by ZEFSAII (Michael W. Deem and Ramdas Pophale) SiO2 
 PCOD9029802
Probable space group: P -1
;
_chemical_formula_sum "Si O2"
_cell_formula_units_Z 14
_cell_length_a 11.390893
_cell_length_b 5.014513
_cell_length_c 17.996374
_cell_angle_alpha 112.021677
_cell_angle_beta 37.621307
_cell_angle_gamma 95.740368
_cell_volume 545.345872
_symmetry_space_group_name_H-M "P -1"
_symmetry_group_IT_number 2
_symmetry_cell_setting 'triclinic'
loop_
_space_group_symop_operation_xyz
x,y,z
-x,-y,-z
loop_
_atom_site_type_symbol
_atom_site_label
_atom_site_fract_x
_atom_site_fract_y
_atom_site_fract_z
Si Si1 0.678687 0.451471 0.345950
Si Si2 0.976198 0.348348 0.299977
Si Si3 0.275895 0.662336 0.226013
Si Si4 0.659803 0.244090 0.560854
Si Si5 0.853128 0.856675 0.100819
Si Si6 0.608206 0.907887 0.690207
Si Si7 0.651712 0.182895 0.960577
O O1 0.500000 0.500000 0.500000
O O2 0.843675 0.545342 0.319455
O O3 0.561181 0.661082 0.358835
O O4 0.771034 0.099012 0.235794
O O5 0.836384 0.222902 0.410281
O O6 0.104327 0.508303 0.301795
O O7 0.139803 0.064841 0.144565
O O8 0.257556 0.974350 0.308053
O O9 0.294041 0.695528 0.131687
O O10 0.505272 0.445756 0.112542
O O11 0.682375 0.971647 0.577731
O O12 0.646796 0.551291 0.644512
O O13 0.638918 0.912123 0.169333
O O14 0.000000 0.500000 0.000000
O O15 0.000000 0.000000 0.000000
O O16 0.500000 0.000000 0.000000
#
# Coordination Sequence:
#
# PCOD9029802 Si02
#       7
#     2   2   2   2   2   2   2
#     4   9  21  46  68  99 139 182 231 293 348 415
#     4  10  22  42  68  95 132 177 237 273 341 415
#     4  10  23  40  65  97 133 180 221 288 342 401
#     4  10  24  45  67 100 133 183 222 284 340 412
#     4  11  24  43  69 102 132 179 234 282 348 414
#     4  11  25  44  68  95 146 172 222 285 351 405
#     4   9  21  40  59  92 129 170 227 273 333 393
#
# _framework density 25.671783999999999
#
# number of rings (size 3 to 8) (size 9 to 14) (size 15 to 20)
#    0.000    2.000    0.000    1.714    8.000    4.571 
#    5.143   10.000    0.000    0.000    0.000    0.000 
#    0.000    0.000    0.000    0.000    0.000    0.000 
#
# Total GULP energy -78246.029461 kJ/mol
# GULP energy per Si atom -5589.002104 kJ/mol
# Density = 2.561335 g / cm^3
# Si number density = 25.671784 Si / 1000 Ang^3
#
#
#
# Elastic Constant Matrix: (Units=GPa)
#
#
# Indices 1 2 3 4 5 6 
#
# 1 87.1389 25.3981 35.8287 -2.3659 -11.0846 30.5316
# 2 25.3981 108.9319 47.5556 -11.7766 4.9727 8.4345
# 3 35.8287 47.5556 136.9783 4.0916 -16.3193 2.5774
# 4 -2.3659 -11.7766 4.0916 41.1113 4.0959 1.0280
# 5 -11.0846 4.9727 -16.3193 4.0959 37.7511 -3.7662
# 6 30.5316 8.4345 2.5774 1.0280 -3.7662 35.9693
#
#
#
# Elastic Compliance Matrix: (Units=1/GPa)
#
#
# Indices 1 2 3 4 5 6 
#
# 1 0.019365 -0.001561 -0.003969 0.001203 0.002493 -0.015560
# 2 -0.001561 0.012366 -0.004544 0.004421 -0.004718 -0.001869
# 3 -0.003969 -0.004544 0.010494 -0.003153 0.004738 0.004269
# 4 0.001203 0.004421 -0.003153 0.026527 -0.004779 -0.003090
# 5 0.002493 -0.004718 0.004738 -0.004779 0.030608 0.001992
# 6 -0.015560 -0.001869 0.004269 -0.003090 0.001992 0.041439
#
#
# Mechanical properties :
#
#
# Convention : Reuss Voigt Hill
#
# Bulk Modulus (GPa) = 45.29678 61.17934 53.23806
# Shear Modulus (GPa) = 29.70786 37.91744 33.81265
#
# Velocity S-wave (km/s) = 3.40548 3.84736 3.63314
# Velocity P-wave (km/s) = 5.75725 6.60449 6.19537
#
# Compressibility (1/GPa) = 0.02207662
#
# Stress axis : x y z
#
# Youngs Moduli (GPa) = 51.64043 80.86872 95.28866
#
# Poissons Ratio (x) = 0.12624 0.37823
# Poissons Ratio (y) = 0.08061 0.43296
# Poissons Ratio (z) = 0.20498 0.36744
#
# Static dielectric constant tensor:
#      x y z
#    x 2.042670 -0.022820 -0.021960 
#    y -0.022820 2.174760 0.060830 
#    z -0.021960 0.060830 2.144110 
# 
# From -- ./inp_files/592819.got.cif
#   From: 2010.05.17/outbox.cif.g08.bks.cpg/sg2_297_cif.got.tgz:592819.got - 2010.06.03 11:33:40.
