data_PCOD9029693
_publ_section_title
;
Structure prediction by ZEFSAII (Michael W. Deem and Ramdas Pophale) SiO2 
 PCOD9029693
Probable space group: P -1
;
_chemical_formula_sum "Si O2"
_cell_formula_units_Z 11
_cell_length_a 13.899204
_cell_length_b 15.985022
_cell_length_c 5.228041
_cell_angle_alpha 115.948315
_cell_angle_beta 78.456530
_cell_angle_gamma 154.366457
_cell_volume 391.391097
_symmetry_space_group_name_H-M "P -1"
_symmetry_group_IT_number 2
_symmetry_cell_setting 'triclinic'
loop_
_space_group_symop_operation_xyz
x,y,z
-x,-y,-z
loop_
_atom_site_type_symbol
_atom_site_label
_atom_site_fract_x
_atom_site_fract_y
_atom_site_fract_z
Si Si1 0.532424 0.933576 0.727672
Si Si2 0.254354 0.219632 0.486081
Si Si3 0.966908 0.633589 0.290917
Si Si4 0.000000 0.500000 0.500000
Si Si5 0.823313 0.033633 0.993487
Si Si6 0.688007 0.534722 0.065795
O O1 0.250397 0.685730 0.427332
O O2 0.602565 0.902178 0.802730
O O3 0.500000 0.000000 0.000000
O O4 0.797035 0.187090 0.779077
O O5 0.312725 0.378993 0.620978
O O6 0.226555 0.119402 0.142863
O O7 0.465195 0.360240 0.750889
O O8 0.000000 0.000000 0.500000
O O9 0.932796 0.525205 0.374511
O O10 0.706544 0.449524 0.066973
O O11 0.085496 0.828917 0.629308
O O12 0.054443 0.237770 0.938396
#
# Coordination Sequence:
#
# PCOD9029693 Si02
#       6
#     2   2   2   1   2   2
#     4  11  25  47  68 104 148 189 249 300 355 434
#     4   9  19  42  73 101 145 188 235 298 364 434
#     4  11  25  47  73 109 149 189 247 302 355 435
#     4  12  26  46  72 102 148 200 238 296 370 422
#     4  10  22  42  68 104 146 184 241 301 354 434
#     4   9  21  44  69 105 145 187 241 293 362 438
#
# _framework density 28.104883999999998
#
# number of rings (size 3 to 8) (size 9 to 14) (size 15 to 20)
#    0.000    1.818    1.818    0.545    2.545    1.455 
#    9.818    8.182    0.000    0.000    0.000    0.000 
#    0.000    0.000    0.000    0.000    0.000    0.000 
#
# Total GULP energy -61415.716625 kJ/mol
# GULP energy per Si atom -5583.246966 kJ/mol
# Density = 2.804092 g / cm^3
# Si number density = 28.104884 Si / 1000 Ang^3
#
#
#
# Elastic Constant Matrix: (Units=GPa)
#
#
# Indices 1 2 3 4 5 6 
#
# 1 253.2278 77.4023 62.3746 -0.5709 15.9337 23.7597
# 2 77.4023 124.1463 1.5485 3.0702 22.1087 10.2995
# 3 62.3746 1.5485 41.0001 1.8720 5.8732 21.7817
# 4 -0.5709 3.0702 1.8720 36.8928 17.3582 10.5847
# 5 15.9337 22.1087 5.8732 17.3582 78.2917 0.2232
# 6 23.7597 10.2995 21.7817 10.5847 0.2232 70.8682
#
#
#
# Elastic Compliance Matrix: (Units=1/GPa)
#
#
# Indices 1 2 3 4 5 6 
#
# 1 0.009237 -0.005929 -0.015240 0.000316 0.000861 0.002399
# 2 -0.005929 0.012449 0.010691 0.000795 -0.003278 -0.003216
# 3 -0.015240 0.010691 0.054960 0.002100 -0.004467 -0.013636
# 4 0.000316 0.000795 0.002100 0.032107 -0.007549 -0.005639
# 5 0.000861 -0.003278 -0.004467 -0.007549 0.015524 0.002639
# 6 0.002399 -0.003216 -0.013636 -0.005639 0.002639 0.018799
#
#
# Mechanical properties :
#
#
# Convention : Reuss Voigt Hill
#
# Bulk Modulus (GPa) = 17.95645 77.89166 47.92406
# Shear Modulus (GPa) = 27.38284 55.68046 41.53165
#
# Velocity S-wave (km/s) = 3.12478 4.45586 3.84831
# Velocity P-wave (km/s) = 4.40703 7.36530 6.06917
#
# Compressibility (1/GPa) = 0.05569030
#
# Stress axis : x y z
#
# Youngs Moduli (GPa) = 108.26363 80.32715 18.19489
#
# Poissons Ratio (x) = 0.47625 0.27730
# Poissons Ratio (y) = 0.64189 -0.19453
# Poissons Ratio (z) = 1.64999 -0.85881
#
# Static dielectric constant tensor:
#      x y z
#    x 2.054570 -0.087580 -0.091070 
#    y -0.087580 1.703040 -0.103090 
#    z -0.091070 -0.103090 1.952240 
# 
# From -- ./inp_files/98967.got.cif
#   From: 2010.05.17/outbox.cif.g08.bks.cpg/sg2_50_cif.got.tgz:98967.got - 2010.06.03 11:33:40.
