data_PCOD9029094
_publ_section_title
;
Structure prediction by ZEFSAII (Michael W. Deem and Ramdas Pophale) SiO2 
 PCOD9029094
Probable space group: P -1
;
_chemical_formula_sum "Si O2"
_cell_formula_units_Z 14
_cell_length_a 9.553904
_cell_length_b 11.711838
_cell_length_c 17.840591
_cell_angle_alpha 149.217929
_cell_angle_beta 45.262761
_cell_angle_gamma 113.879864
_cell_volume 606.172554
_symmetry_space_group_name_H-M "P -1"
_symmetry_group_IT_number 2
_symmetry_cell_setting 'triclinic'
loop_
_space_group_symop_operation_xyz
x,y,z
-x,-y,-z
loop_
_atom_site_type_symbol
_atom_site_label
_atom_site_fract_x
_atom_site_fract_y
_atom_site_fract_z
Si Si1 0.564530 0.214424 0.110531
Si Si2 0.760460 0.015423 0.083989
Si Si3 0.425616 0.116841 0.403159
Si Si4 0.065227 0.596076 0.328010
Si Si5 0.902964 0.062285 0.758581
Si Si6 0.593390 0.231722 0.556459
Si Si7 0.533758 0.598655 0.138449
O O1 0.376472 0.522788 0.335605
O O2 0.643036 0.187727 0.151193
O O3 0.767624 0.134949 0.928689
O O4 0.500000 0.000000 0.000000
O O5 0.577849 0.133107 0.288452
O O6 0.831239 0.713507 0.871752
O O7 0.000000 0.000000 0.000000
O O8 0.524877 0.803819 0.199219
O O9 0.148098 0.287066 0.585096
O O10 0.473749 0.203923 0.513399
O O11 0.286296 0.619350 0.239076
O O12 0.942836 0.793717 0.556510
O O13 0.750968 0.293764 0.885652
O O14 0.151547 0.018668 0.659164
O O15 0.452463 0.305753 0.728911
#
# Coordination Sequence:
#
# PCOD9029094 Si02
#       7
#     2   2   2   2   2   2   2
#     4  11  22  40  63  91 125 166 220 263 305 380
#     4  12  27  42  62  97 134 170 213 260 319 387
#     4  12  25  42  66  96 135 171 206 267 327 377
#     4  11  24  43  67  96 128 169 216 264 322 381
#     4  10  22  42  66  91 126 168 213 268 318 370
#     4  10  23  41  65  94 125 168 213 263 324 380
#     4  10  23  44  68  97 126 165 221 265 316 385
#
# _framework density 23.095734
#
# number of rings (size 3 to 8) (size 9 to 14) (size 15 to 20)
#    0.000    1.143    0.000    6.857    0.000   13.143 
#    0.000    0.000    0.000    0.000    0.000    0.000 
#    0.000    0.000    0.000    0.000    0.000    0.000 
#
# Total GULP energy -78349.671342 kJ/mol
# GULP energy per Si atom -5596.405096 kJ/mol
# Density = 2.304317 g / cm^3
# Si number density = 23.095734 Si / 1000 Ang^3
#
#
#
# Elastic Constant Matrix: (Units=GPa)
#
#
# Indices 1 2 3 4 5 6 
#
# 1 145.4180 19.6600 29.8901 -13.6610 -9.5172 -11.1351
# 2 19.6600 83.4573 6.6379 13.7226 -2.2741 -4.5555
# 3 29.8901 6.6379 74.6454 6.5301 -7.6055 -7.0059
# 4 -13.6610 13.7226 6.5301 23.4662 -7.9984 -0.8206
# 5 -9.5172 -2.2741 -7.6055 -7.9984 35.0787 1.8309
# 6 -11.1351 -4.5555 -7.0059 -0.8206 1.8309 38.3368
#
#
#
# Elastic Compliance Matrix: (Units=1/GPa)
#
#
# Indices 1 2 3 4 5 6 
#
# 1 0.009390 -0.003326 -0.003790 0.009769 0.003650 0.001674
# 2 -0.003326 0.014564 0.000869 -0.011496 -0.002432 0.000793
# 3 -0.003790 0.000869 0.015666 -0.006743 0.000799 0.001683
# 4 0.009769 -0.011496 -0.006743 0.061875 0.014506 0.000871
# 5 0.003650 -0.002432 0.000799 0.014506 0.032839 -0.000341
# 6 0.001674 0.000793 0.001683 0.000871 -0.000341 0.027008
#
#
# Mechanical properties :
#
#
# Convention : Reuss Voigt Hill
#
# Bulk Modulus (GPa) = 36.86410 46.21075 41.53742
# Shear Modulus (GPa) = 27.34066 35.86519 31.60293
#
# Velocity S-wave (km/s) = 3.44437 3.94495 3.70313
# Velocity P-wave (km/s) = 5.64042 6.38764 6.02562
#
# Compressibility (1/GPa) = 0.02712666
#
# Stress axis : x y z
#
# Youngs Moduli (GPa) = 106.49369 68.66308 63.83154
#
# Poissons Ratio (x) = 0.22838 0.24191
# Poissons Ratio (y) = 0.35420 -0.05547
# Poissons Ratio (z) = 0.40360 -0.05967
#
# Static dielectric constant tensor:
#      x y z
#    x 1.887960 -0.005220 0.044370 
#    y -0.005220 1.871910 0.011000 
#    z 0.044370 0.011000 1.901930 
# 
# From -- ./inp_files/47379.got.cif
#   From: 2010.05.17/outbox.cif.g08.bks.cpg/sg2_24_cif.got.tgz:47379.got - 2010.06.03 11:33:40.
