data_PCOD9029486
_publ_section_title
;
Structure prediction by ZEFSAII (Michael W. Deem and Ramdas Pophale) SiO2 
 PCOD9029486
Probable space group: P -1
;
_chemical_formula_sum "Si O2"
_cell_formula_units_Z 12
_cell_length_a 9.696731
_cell_length_b 14.129049
_cell_length_c 9.976077
_cell_angle_alpha 133.488078
_cell_angle_beta 151.393400
_cell_angle_gamma 56.901065
_cell_volume 468.091985
_symmetry_space_group_name_H-M "P -1"
_symmetry_group_IT_number 2
_symmetry_cell_setting 'triclinic'
loop_
_space_group_symop_operation_xyz
x,y,z
-x,-y,-z
loop_
_atom_site_type_symbol
_atom_site_label
_atom_site_fract_x
_atom_site_fract_y
_atom_site_fract_z
Si Si1 0.528701 0.302100 0.038526
Si Si2 0.167661 0.374813 0.014052
Si Si3 0.796293 0.674717 0.704835
Si Si4 0.835124 0.043226 0.772479
Si Si5 0.943853 0.166592 0.409439
Si Si6 0.322337 0.607458 0.012187
O O1 0.440013 0.403842 0.170835
O O2 0.639672 0.186981 0.106623
O O3 0.737318 0.326911 0.116612
O O4 0.215713 0.258419 0.656927
O O5 0.280907 0.334511 0.214141
O O6 0.000000 0.500000 0.000000
O O7 0.978842 0.241271 0.655852
O O8 0.531829 0.673602 0.375092
O O9 0.041669 0.804992 0.012619
O O10 0.998750 0.561133 0.746477
O O11 0.500000 0.000000 0.500000
O O12 0.954902 0.970616 0.673838
O O13 0.000000 0.000000 0.000000
O O14 0.500000 0.500000 0.000000
#
# Coordination Sequence:
#
# PCOD9029486 Si02
#       6
#     2   2   2   2   2   2
#     4  10  22  42  67  95 136 183 235 275 360 404
#     4  10  26  45  70 102 147 186 231 288 353 430
#     4  12  27  43  70 108 136 186 242 285 355 422
#     4  12  24  45  73 101 144 182 240 300 348 414
#     4  10  23  41  70  95 136 187 230 282 357 404
#     4  12  25  42  68 101 142 181 237 296 347 416
#
# _framework density 25.635985999999999
#
# number of rings (size 3 to 8) (size 9 to 14) (size 15 to 20)
#    1.000    0.000    0.000    7.500    4.667    1.333 
#    0.000    0.833    0.000    0.000    0.000    0.000 
#    0.000    0.000    0.000    0.000    0.000    0.000 
#
# Total GULP energy -66840.088974 kJ/mol
# GULP energy per Si atom -5570.007415 kJ/mol
# Density = 2.557764 g / cm^3
# Si number density = 25.635986 Si / 1000 Ang^3
#
#
#
# Elastic Constant Matrix: (Units=GPa)
#
#
# Indices 1 2 3 4 5 6 
#
# 1 144.0515 49.1193 60.7122 -3.1321 -21.5139 -22.3067
# 2 49.1193 84.8009 60.0812 -6.4371 -15.7899 -25.9949
# 3 60.7122 60.0812 153.7376 -32.5388 -15.5752 -4.7913
# 4 -3.1321 -6.4371 -32.5388 47.3666 -12.0141 -3.8867
# 5 -21.5139 -15.7899 -15.5752 -12.0141 50.4227 -3.2020
# 6 -22.3067 -25.9949 -4.7913 -3.8867 -3.2020 49.7488
#
#
#
# Elastic Compliance Matrix: (Units=1/GPa)
#
#
# Indices 1 2 3 4 5 6 
#
# 1 0.009722 -0.002377 -0.002682 -0.000614 0.002618 0.002980
# 2 -0.002377 0.021918 -0.006864 0.000037 0.004374 0.010010
# 3 -0.002682 -0.006864 0.011899 0.007313 0.001937 -0.002948
# 4 -0.000614 0.000037 0.007313 0.028662 0.009045 0.003270
# 5 0.002618 0.004374 0.001937 0.009045 0.025453 0.005991
# 6 0.002980 0.010010 -0.002948 0.003270 0.005991 0.027025
#
#
# Mechanical properties :
#
#
# Convention : Reuss Voigt Hill
#
# Bulk Modulus (GPa) = 50.78174 80.26837 65.52506
# Shear Modulus (GPa) = 32.23960 43.68612 37.96286
#
# Velocity S-wave (km/s) = 3.55010 4.13255 3.85235
# Velocity P-wave (km/s) = 6.05443 7.35863 6.73815
#
# Compressibility (1/GPa) = 0.01969212
#
# Stress axis : x y z
#
# Youngs Moduli (GPa) = 102.86053 45.62478 84.04378
#
# Poissons Ratio (x) = 0.10843 0.22544
# Poissons Ratio (y) = 0.24445 0.57689
# Poissons Ratio (z) = 0.27591 0.31318
#
# Static dielectric constant tensor:
#      x y z
#    x 2.072580 -0.005930 0.009760 
#    y -0.005930 2.378990 0.231340 
#    z 0.009760 0.231340 2.119200 
# 
# From -- ./inp_files/204618.got.cif
#   From: 2010.05.17/outbox.cif.g08.bks.cpg/sg2_103_cif.got.tgz:204618.got - 2010.06.03 11:33:40.
