data_PCOD9029699
_publ_section_title
;
Structure prediction by ZEFSAII (Michael W. Deem and Ramdas Pophale) SiO2 
 PCOD9029699
Probable space group: P -1
;
_chemical_formula_sum "Si O2"
_cell_formula_units_Z 15
_cell_length_a 4.806240
_cell_length_b 22.133262
_cell_length_c 5.716361
_cell_angle_alpha 75.317034
_cell_angle_beta 90.425871
_cell_angle_gamma 115.557674
_cell_volume 527.045887
_symmetry_space_group_name_H-M "P -1"
_symmetry_group_IT_number 2
_symmetry_cell_setting 'triclinic'
loop_
_space_group_symop_operation_xyz
x,y,z
-x,-y,-z
loop_
_atom_site_type_symbol
_atom_site_label
_atom_site_fract_x
_atom_site_fract_y
_atom_site_fract_z
Si Si1 0.872021 0.539277 0.525807
Si Si2 0.872686 0.934120 0.395020
Si Si3 0.199279 0.685640 0.174213
Si Si4 0.000000 0.500000 0.000000
Si Si5 0.970260 0.754394 0.489491
Si Si6 0.683396 0.615641 0.848200
Si Si7 0.480767 0.819583 0.823976
Si Si8 0.749871 0.109807 0.848037
O O1 0.500000 0.500000 0.500000
O O2 0.948789 0.502959 0.301344
O O3 0.816215 0.564425 0.783806
O O4 0.140191 0.616143 0.377866
O O5 0.792381 0.869872 0.641518
O O6 0.536802 0.916486 0.307039
O O7 0.099610 0.941780 0.168748
O O8 0.000000 0.000000 0.500000
O O9 0.160140 0.733134 0.325287
O O10 0.484780 0.746653 0.979900
O O11 0.905459 0.652377 0.030362
O O12 0.661741 0.432640 0.036525
O O13 0.701681 0.679309 0.626598
O O14 0.192529 0.787313 0.676625
O O15 0.949961 0.817792 0.295203
O O16 0.391618 0.868076 0.950735
#
# Coordination Sequence:
#
# PCOD9029699 Si02
#       8
#     2   2   2   1   2   2   2   2
#     4  11  24  42  64  92 127 171 224 279 349 421
#     4  11  24  42  70 109 153 193 239 290 351 425
#     4   9  19  42  73  92 128 181 237 290 347 420
#     4  12  26  40  62  98 128 174 214 294 358 424
#     4   8  18  41  67  93 126 175 232 294 344 419
#     4  10  22  43  65  92 131 171 226 284 357 420
#     4   9  20  42  72  99 138 183 238 292 356 418
#     4  10  22  42  68 105 143 194 241 296 351 421
#
# _framework density 28.460521
#
# number of rings (size 3 to 8) (size 9 to 14) (size 15 to 20)
#    0.000    2.133    0.000    1.600    0.000    6.400 
#   16.800    0.000    8.800    0.000    0.000    0.000 
#    0.000    0.000    0.000    0.000    0.000    0.000 
#
# Total GULP energy -83667.575102 kJ/mol
# GULP energy per Si atom -5577.838340 kJ/mol
# Density = 2.839574 g / cm^3
# Si number density = 28.460521 Si / 1000 Ang^3
#
#
#
# Elastic Constant Matrix: (Units=GPa)
#
#
# Indices 1 2 3 4 5 6 
#
# 1 111.8658 38.1087 42.9271 29.0077 -26.3000 15.6172
# 2 38.1087 131.7626 41.4814 18.2001 -2.3699 20.9414
# 3 42.9271 41.4814 131.5825 13.1314 -22.2600 10.6423
# 4 29.0077 18.2001 13.1314 64.8380 0.2786 5.3626
# 5 -26.3000 -2.3699 -22.2600 0.2786 59.8379 21.5417
# 6 15.6172 20.9414 10.6423 5.3626 21.5417 50.6685
#
#
#
# Elastic Compliance Matrix: (Units=1/GPa)
#
#
# Indices 1 2 3 4 5 6 
#
# 1 0.014164 -0.001750 -0.001784 -0.005021 0.007676 -0.006000
# 2 -0.001750 0.009333 -0.002070 -0.001196 -0.000203 -0.002671
# 3 -0.001784 -0.002070 0.009625 -0.000416 0.003450 -0.002039
# 4 -0.005021 -0.001196 -0.000416 0.017977 -0.003040 0.001519
# 5 0.007676 -0.000203 0.003450 -0.003040 0.026379 -0.013900
# 6 -0.006000 -0.002671 -0.002039 0.001519 -0.013900 0.028866
#
#
# Mechanical properties :
#
#
# Convention : Reuss Voigt Hill
#
# Bulk Modulus (GPa) = 45.63488 68.91613 57.27550
# Shear Modulus (GPa) = 40.04558 51.91514 45.98036
#
# Velocity S-wave (km/s) = 3.75515 4.27559 4.02379
# Velocity P-wave (km/s) = 5.90515 6.97434 6.46190
#
# Compressibility (1/GPa) = 0.02191306
#
# Stress axis : x y z
#
# Youngs Moduli (GPa) = 70.59997 107.14373 103.89965
#
# Poissons Ratio (x) = 0.18747 0.18541
# Poissons Ratio (y) = 0.12353 0.21512
# Poissons Ratio (z) = 0.12599 0.22183
#
# Static dielectric constant tensor:
#      x y z
#    x 1.966480 -0.175150 -0.033380 
#    y -0.175150 2.219670 -0.054650 
#    z -0.033380 -0.054650 2.398460 
# 
# From -- ./inp_files/13963.got.cif
#   From: 2010.05.17/outbox.cif.g08.bks.cpg/sg2_7_cif.got.tgz:13963.got - 2010.06.03 11:33:40.
