data_PCOD9029715
_publ_section_title
;
Structure prediction by ZEFSAII (Michael W. Deem and Ramdas Pophale) SiO2 
 PCOD9029715
Probable space group: P -1
;
_chemical_formula_sum "Si O2"
_cell_formula_units_Z 15
_cell_length_a 8.141580
_cell_length_b 8.469295
_cell_length_c 16.545940
_cell_angle_alpha 114.013297
_cell_angle_beta 110.104016
_cell_angle_gamma 36.251762
_cell_volume 616.007198
_symmetry_space_group_name_H-M "P -1"
_symmetry_group_IT_number 2
_symmetry_cell_setting 'triclinic'
loop_
_space_group_symop_operation_xyz
x,y,z
-x,-y,-z
loop_
_atom_site_type_symbol
_atom_site_label
_atom_site_fract_x
_atom_site_fract_y
_atom_site_fract_z
Si Si1 0.464193 0.304024 0.811360
Si Si2 0.600841 0.681178 0.013847
Si Si3 0.500000 0.000000 0.500000
Si Si4 0.268369 0.540498 0.569342
Si Si5 0.857061 0.865509 0.089640
Si Si6 0.405049 0.972805 0.667444
Si Si7 0.797441 0.363501 0.610572
Si Si8 0.918418 0.150399 0.244111
O O1 0.418718 0.381256 0.913492
O O2 0.380132 0.170751 0.751681
O O3 0.294688 0.563318 0.779921
O O4 0.785423 0.064020 0.792514
O O5 0.716591 0.788564 0.065351
O O6 0.826005 0.412379 0.940165
O O7 0.308708 0.921803 0.968958
O O8 0.708790 0.676500 0.450740
O O9 0.520290 0.044521 0.416845
O O10 0.578224 0.382263 0.598184
O O11 0.177555 0.648970 0.485353
O O12 0.069011 0.786242 0.650393
O O13 0.830261 0.019463 0.190543
O O14 0.104483 0.113414 0.644169
O O15 0.643927 0.658766 0.672466
#
# Coordination Sequence:
#
# PCOD9029715 Si02
#       8
#     2   2   1   2   2   2   2   2
#     4  12  26  43  66 105 136 175 221 276 339 401
#     4  10  23  46  70  96 137 173 225 263 342 406
#     4  10  22  42  68  88 142 168 220 264 338 386
#     4  10  24  45  67 102 131 184 223 286 322 405
#     4  10  23  45  70 100 129 180 216 278 331 401
#     4  11  24  43  65 100 127 183 215 282 325 398
#     4  10  25  43  69  91 134 178 234 264 340 380
#     4  12  26  42  68 103 139 170 228 277 338 393
#
# _framework density 24.350363000000002
#
# number of rings (size 3 to 8) (size 9 to 14) (size 15 to 20)
#    0.000    1.333    1.333    2.400    3.733   10.133 
#    4.800    0.000    0.000    0.000    0.000    0.000 
#    0.000    0.000    0.000    0.000    0.000    0.000 
#
# Total GULP energy -83896.344814 kJ/mol
# GULP energy per Si atom -5593.089654 kJ/mol
# Density = 2.429494 g / cm^3
# Si number density = 24.350363 Si / 1000 Ang^3
#
#
#
# Elastic Constant Matrix: (Units=GPa)
#
#
# Indices 1 2 3 4 5 6 
#
# 1 58.9172 46.5546 10.5905 3.3194 2.9958 -3.3382
# 2 46.5546 139.9972 12.7199 20.6047 -6.1041 3.2374
# 3 10.5905 12.7199 100.3544 29.3205 3.0308 10.8612
# 4 3.3194 20.6047 29.3205 30.0141 11.1823 3.0013
# 5 2.9958 -6.1041 3.0308 11.1823 39.3214 0.6049
# 6 -3.3382 3.2374 10.8612 3.0013 0.6049 28.9009
#
#
#
# Elastic Compliance Matrix: (Units=1/GPa)
#
#
# Indices 1 2 3 4 5 6 
#
# 1 0.025857 -0.010124 -0.004941 0.010765 -0.006299 0.004991
# 2 -0.010124 0.012388 0.003272 -0.012578 0.006059 -0.002607
# 3 -0.004941 0.003272 0.015905 -0.018602 0.005027 -0.005088
# 4 0.010765 -0.012578 -0.018602 0.066139 -0.020197 0.003197
# 5 -0.006299 0.006059 0.005027 -0.020197 0.032237 -0.001873
# 6 0.004991 -0.002607 -0.005088 0.003197 -0.001873 0.037089
#
#
# Mechanical properties :
#
#
# Convention : Reuss Voigt Hill
#
# Bulk Modulus (GPa) = 32.71610 48.77763 40.74687
# Shear Modulus (GPa) = 22.38251 34.94087 28.66169
#
# Velocity S-wave (km/s) = 3.03510 3.79215 3.43454
# Velocity P-wave (km/s) = 5.07417 6.26489 5.70070
#
# Compressibility (1/GPa) = 0.03056599
#
# Stress axis : x y z
#
# Youngs Moduli (GPa) = 38.67358 80.72251 62.87341
#
# Poissons Ratio (x) = 0.81724 0.31063
# Poissons Ratio (y) = 0.39154 -0.20575
# Poissons Ratio (z) = 0.19107 -0.26416
#
# Static dielectric constant tensor:
#      x y z
#    x 1.980980 -0.025320 0.062500 
#    y -0.025320 1.842390 -0.019830 
#    z 0.062500 -0.019830 1.926820 
# 
# From -- ./inp_files/105473.got.cif
#   From: 2010.05.17/outbox.cif.g08.bks.cpg/sg2_53_cif.got.tgz:105473.got - 2010.06.03 11:33:40.
