data_PCOD9029160
_publ_section_title
;
Structure prediction by ZEFSAII (Michael W. Deem and Ramdas Pophale) SiO2 
 PCOD9029160
Probable space group: P -1
;
_chemical_formula_sum "Si O2"
_cell_formula_units_Z 16
_cell_length_a 9.293350
_cell_length_b 27.258313
_cell_length_c 27.699965
_cell_angle_alpha 169.528931
_cell_angle_beta 140.834402
_cell_angle_gamma 38.298059
_cell_volume 789.942490
_symmetry_space_group_name_H-M "P -1"
_symmetry_group_IT_number 2
_symmetry_cell_setting 'triclinic'
loop_
_space_group_symop_operation_xyz
x,y,z
-x,-y,-z
loop_
_atom_site_type_symbol
_atom_site_label
_atom_site_fract_x
_atom_site_fract_y
_atom_site_fract_z
Si Si1 0.965600 0.436282 0.252828
Si Si2 0.183474 0.961409 0.786288
Si Si3 0.778860 0.909591 0.480772
Si Si4 0.517268 0.481900 0.114373
Si Si5 0.122346 0.669279 0.016186
Si Si6 0.767991 0.912618 0.371549
Si Si7 0.319880 0.176250 0.267184
Si Si8 0.854416 0.334439 0.235613
O O1 0.060152 0.706947 0.522146
O O2 0.726112 0.422067 0.148795
O O3 0.909627 0.423074 0.281981
O O4 0.150204 0.169823 0.024779
O O5 0.445692 0.865840 0.743635
O O6 0.053529 0.145163 0.886297
O O7 0.820439 0.817930 0.348198
O O8 0.500000 0.000000 0.500000
O O9 0.874292 0.170793 0.778116
O O10 0.897931 0.646327 0.288434
O O11 0.425362 0.806772 0.404908
O O12 0.628347 0.369690 0.983327
O O13 0.314051 0.309923 0.899766
O O14 0.000000 0.000000 0.500000
O O15 0.296662 0.423177 0.537910
O O16 0.101408 0.244988 0.240465
O O17 0.281292 0.915658 0.036544
#
# Coordination Sequence:
#
# PCOD9029160 Si02
#       8
#     2   2   2   2   2   2   2   2
#     4  11  23  40  67  93 124 170 215 253 316 383
#     4  11  23  40  64  96 130 160 209 277 306 358
#     4  12  21  38  64  84 108 159 204 250 295 376
#     4  11  21  41  61  81 122 159 194 254 315 362
#     4  11  21  38  62  88 114 153 206 250 310 356
#     4  12  25  40  58  85 120 154 201 258 305 362
#     4  10  22  42  66  94 135 169 205 263 311 362
#     4  10  22  42  66  94 131 177 209 242 317 392
#
# _framework density 20.254639999999998
#
# number of rings (size 3 to 8) (size 9 to 14) (size 15 to 20)
#    0.000    1.000    2.500    6.000    0.000    1.000 
#    6.750    0.000    0.000    0.000    0.000    0.000 
#    0.000    0.000    0.000    0.000    0.000    0.000 
#
# Total GULP energy -89335.647659 kJ/mol
# GULP energy per Si atom -5583.477979 kJ/mol
# Density = 2.020854 g / cm^3
# Si number density = 20.254640 Si / 1000 Ang^3
#
#
#
# Elastic Constant Matrix: (Units=GPa)
#
#
# Indices 1 2 3 4 5 6 
#
# 1 86.8834 34.1576 8.9144 10.6995 7.4430 11.0547
# 2 34.1576 37.9627 22.4450 9.7813 -1.3012 12.4956
# 3 8.9144 22.4450 104.3035 19.9527 8.1157 6.7998
# 4 10.6995 9.7813 19.9527 16.4179 3.1936 0.1537
# 5 7.4430 -1.3012 8.1157 3.1936 26.9651 -0.7525
# 6 11.0547 12.4956 6.7998 0.1537 -0.7525 18.8888
#
#
#
# Elastic Compliance Matrix: (Units=1/GPa)
#
#
# Indices 1 2 3 4 5 6 
#
# 1 0.019842 -0.018832 0.003933 -0.005125 -0.006985 -0.000807
# 2 -0.018832 0.061097 -0.007482 -0.017064 0.011691 -0.026099
# 3 0.003933 -0.007482 0.014097 -0.014427 -0.004050 -0.002471
# 4 -0.005125 -0.017064 -0.014427 0.092855 -0.005547 0.018505
# 5 -0.006985 0.011691 -0.004050 -0.005547 0.041439 -0.000492
# 6 -0.000807 -0.026099 -0.002471 0.018505 -0.000492 0.071399
#
#
# Mechanical properties :
#
#
# Convention : Reuss Voigt Hill
#
# Bulk Modulus (GPa) = 19.89037 40.02038 29.95538
# Shear Modulus (GPa) = 13.80267 23.36321 18.58294
#
# Velocity S-wave (km/s) = 2.61331 3.39997 3.03226
# Velocity P-wave (km/s) = 4.35285 5.93419 5.20393
#
# Compressibility (1/GPa) = 0.05027559
#
# Stress axis : x y z
#
# Youngs Moduli (GPa) = 50.39838 16.36735 70.93514
#
# Poissons Ratio (x) = 0.30822 -0.27900
# Poissons Ratio (y) = 0.94909 0.53073
# Poissons Ratio (z) = -0.19822 0.12246
#
# Static dielectric constant tensor:
#      x y z
#    x 1.742020 0.005120 0.034630 
#    y 0.005120 1.719590 0.014630 
#    z 0.034630 0.014630 1.772370 
# 
# From -- ./inp_files/226585.got.cif
#   From: 2010.05.17/outbox.cif.g08.bks.cpg/sg2_114_cif.got.tgz:226585.got - 2010.06.03 11:33:40.
