data_PCOD9029436
_publ_section_title
;
Structure prediction by ZEFSAII (Michael W. Deem and Ramdas Pophale) SiO2 
 PCOD9029436
Probable space group: P -1
;
_chemical_formula_sum "Si O2"
_cell_formula_units_Z 16
_cell_length_a 10.949402
_cell_length_b 20.735009
_cell_length_c 8.273595
_cell_angle_alpha 53.201540
_cell_angle_beta 33.656534
_cell_angle_gamma 38.944530
_cell_volume 648.019956
_symmetry_space_group_name_H-M "P -1"
_symmetry_group_IT_number 2
_symmetry_cell_setting 'triclinic'
loop_
_space_group_symop_operation_xyz
x,y,z
-x,-y,-z
loop_
_atom_site_type_symbol
_atom_site_label
_atom_site_fract_x
_atom_site_fract_y
_atom_site_fract_z
Si Si1 0.447879 0.622976 0.214315
Si Si2 0.119922 0.146981 0.548278
Si Si3 0.054266 0.298798 0.935837
Si Si4 0.073258 0.010918 0.612844
Si Si5 0.395832 0.454047 0.501698
Si Si6 0.350063 0.365555 0.361042
Si Si7 0.476839 0.858953 0.136919
Si Si8 0.004136 0.839238 0.989632
O O1 0.188940 0.745593 0.316395
O O2 0.302549 0.568180 0.442749
O O3 0.634407 0.581039 0.236452
O O4 0.630486 0.595446 0.891782
O O5 0.165348 0.150216 0.681989
O O6 0.128761 0.049700 0.650721
O O7 0.351546 0.133428 0.199055
O O8 0.127148 0.343896 0.645199
O O9 0.301231 0.254008 0.861530
O O10 0.078970 0.200259 0.003741
O O11 0.738600 0.382817 0.216509
O O12 0.806460 0.114420 0.664205
O O13 0.340906 0.945532 0.297397
O O14 0.982507 0.939392 0.843418
O O15 0.301201 0.432530 0.472813
O O16 0.664196 0.255731 0.201907
#
# Coordination Sequence:
#
# PCOD9029436 Si02
#       8
#     2   2   2   2   2   2   2   2
#     4  10  22  42  68  98 132 167 218 267 321 385
#     4  11  24  43  65  92 130 169 212 266 320 383
#     4  11  23  42  66  94 128 172 214 264 324 384
#     4  11  25  40  66  91 125 171 217 260 318 385
#     4  10  22  43  69  97 131 170 213 269 324 388
#     4  10  22  42  67  94 134 174 210 267 324 384
#     4  11  25  39  64  92 125 165 219 264 310 387
#     4  10  24  42  62  95 130 166 213 268 317 379
#
# _framework density 24.690598999999999
#
# number of rings (size 3 to 8) (size 9 to 14) (size 15 to 20)
#    0.000    1.500    2.500    1.125    7.000    3.000 
#    0.000    3.750    0.000    0.000    0.000    0.000 
#    0.000    0.000    0.000    0.000    0.000    0.000 
#
# Total GULP energy -89524.851999 kJ/mol
# GULP energy per Si atom -5595.303250 kJ/mol
# Density = 2.463440 g / cm^3
# Si number density = 24.690599 Si / 1000 Ang^3
#
#
#
# Elastic Constant Matrix: (Units=GPa)
#
#
# Indices 1 2 3 4 5 6 
#
# 1 55.5308 35.5982 40.5705 6.7618 20.6447 7.2665
# 2 35.5982 80.0162 31.4891 3.0101 4.7314 16.5432
# 3 40.5705 31.4891 103.9846 -21.0215 27.7324 0.2352
# 4 6.7618 3.0101 -21.0215 32.1624 -10.6692 -2.4894
# 5 20.6447 4.7314 27.7324 -10.6692 32.4556 5.8663
# 6 7.2665 16.5432 0.2352 -2.4894 5.8663 43.3300
#
#
#
# Elastic Compliance Matrix: (Units=1/GPa)
#
#
# Indices 1 2 3 4 5 6 
#
# 1 0.050999 -0.014441 -0.013762 -0.027546 -0.027481 -0.000827
# 2 -0.014441 0.020847 -0.003101 0.002084 0.010720 -0.006852
# 3 -0.013762 -0.003101 0.020014 0.015409 -0.003692 0.004768
# 4 -0.027546 0.002084 0.015409 0.054070 0.021104 0.003989
# 5 -0.027481 0.010720 -0.003692 0.021104 0.057923 -0.006094
# 6 -0.000827 -0.006852 0.004768 0.003989 -0.006094 0.026862
#
#
# Mechanical properties :
#
#
# Convention : Reuss Voigt Hill
#
# Bulk Modulus (GPa) = 34.18567 50.53859 42.36213
# Shear Modulus (GPa) = 16.49770 30.38120 23.43945
#
# Velocity S-wave (km/s) = 2.58772 3.51162 3.08446
# Velocity P-wave (km/s) = 4.77536 6.07908 5.46622
#
# Compressibility (1/GPa) = 0.02925202
#
# Stress axis : x y z
#
# Youngs Moduli (GPa) = 19.60824 47.96923 49.96436
#
# Poissons Ratio (x) = 0.69271 0.68763
# Poissons Ratio (y) = 0.28316 0.15493
# Poissons Ratio (z) = 0.26986 0.14874
#
# Static dielectric constant tensor:
#      x y z
#    x 1.942260 -0.041990 0.032740 
#    y -0.041990 1.956920 -0.020570 
#    z 0.032740 -0.020570 1.930460 
# 
# From -- ./inp_files/282822.got.cif
#   From: 2010.05.17/outbox.cif.g08.bks.cpg/sg2_142_cif.got.tgz:282822.got - 2010.06.03 11:33:40.
