data_PCOD9029480
_publ_section_title
;
Structure prediction by ZEFSAII (Michael W. Deem and Ramdas Pophale) SiO2 
 PCOD9029480
Probable space group: P -1
;
_chemical_formula_sum "Si O2"
_cell_formula_units_Z 12
_cell_length_a 12.521634
_cell_length_b 6.714199
_cell_length_c 13.401150
_cell_angle_alpha 129.506404
_cell_angle_beta 42.377238
_cell_angle_gamma 135.896916
_cell_volume 514.905063
_symmetry_space_group_name_H-M "P -1"
_symmetry_group_IT_number 2
_symmetry_cell_setting 'triclinic'
loop_
_space_group_symop_operation_xyz
x,y,z
-x,-y,-z
loop_
_atom_site_type_symbol
_atom_site_label
_atom_site_fract_x
_atom_site_fract_y
_atom_site_fract_z
Si Si1 0.946773 0.678434 0.673020
Si Si2 0.538956 0.633481 0.647386
Si Si3 0.187377 0.352267 0.686820
Si Si4 0.575601 0.403500 0.072597
Si Si5 0.538064 0.212104 0.824592
Si Si6 0.981370 0.684517 0.884693
O O1 0.008822 0.672841 0.742480
O O2 0.000000 0.500000 0.500000
O O3 0.730726 0.499952 0.770523
O O4 0.031470 0.016989 0.690240
O O5 0.335972 0.396345 0.682447
O O6 0.692781 0.582869 0.475598
O O7 0.550660 0.667684 0.767979
O O8 0.554638 0.934686 0.688525
O O9 0.106908 0.576042 0.819916
O O10 0.600278 0.716050 0.114730
O O11 0.499570 0.189603 0.962232
O O12 0.772952 0.452163 0.976685
O O13 0.000000 0.000000 0.000000
#
# Coordination Sequence:
#
# PCOD9029480 Si02
#       6
#     2   2   2   2   2   2
#     4  11  24  44  67 100 135 174 221 276 334 392
#     4  11  23  42  66  99 130 173 224 273 331 389
#     4  11  26  42  69  99 134 175 224 275 329 399
#     4  10  23  40  66  96 131 177 216 271 332 395
#     4  10  22  42  67  95 134 173 221 272 329 398
#     4  11  25  45  68  99 136 179 224 274 336 397
#
# _framework density 23.305268000000002
#
# number of rings (size 3 to 8) (size 9 to 14) (size 15 to 20)
#    0.000    1.333    1.667    2.500    2.333   10.000 
#    0.000    4.167    0.000    0.000    0.000    0.000 
#    0.000    0.000    0.000    0.000    0.000    0.000 
#
# Total GULP energy -67101.152900 kJ/mol
# GULP energy per Si atom -5591.762742 kJ/mol
# Density = 2.325222 g / cm^3
# Si number density = 23.305268 Si / 1000 Ang^3
#
#
#
# Elastic Constant Matrix: (Units=GPa)
#
#
# Indices 1 2 3 4 5 6 
#
# 1 51.6274 12.7098 22.0449 -7.5633 -9.5646 2.4899
# 2 12.7098 107.4697 21.4673 16.7147 -5.0382 16.9526
# 3 22.0449 21.4673 111.2804 0.8535 7.9486 -9.8547
# 4 -7.5633 16.7147 0.8535 38.7732 -6.7258 -4.6641
# 5 -9.5646 -5.0382 7.9486 -6.7258 36.6784 -2.3841
# 6 2.4899 16.9526 -9.8547 -4.6641 -2.3841 19.6773
#
#
#
# Elastic Compliance Matrix: (Units=1/GPa)
#
#
# Indices 1 2 3 4 5 6 
#
# 1 0.024938 -0.002560 -0.005183 0.007486 0.008600 -0.000729
# 2 -0.002560 0.014052 -0.003481 -0.008451 -0.000546 -0.015595
# 3 -0.005183 -0.003481 0.011760 0.000714 -0.003645 0.009272
# 4 0.007486 -0.008451 0.000714 0.034147 0.007922 0.015745
# 5 0.008600 -0.000546 -0.003645 0.007922 0.031888 0.003299
# 6 -0.000729 -0.015595 0.009272 0.015745 0.003299 0.073123
#
#
# Mechanical properties :
#
#
# Convention : Reuss Voigt Hill
#
# Bulk Modulus (GPa) = 35.33200 42.53572 38.93386
# Shear Modulus (GPa) = 22.54391 33.30281 27.92336
#
# Velocity S-wave (km/s) = 3.11357 3.78429 3.46519
# Velocity P-wave (km/s) = 5.30275 6.11438 5.72297
#
# Compressibility (1/GPa) = 0.02830296
#
# Stress axis : x y z
#
# Youngs Moduli (GPa) = 40.09957 71.16568 85.03090
#
# Poissons Ratio (x) = 0.18220 0.44068
# Poissons Ratio (y) = 0.10266 0.29597
# Poissons Ratio (z) = 0.20782 0.24771
#
# Static dielectric constant tensor:
#      x y z
#    x 1.894360 -0.013110 0.023770 
#    y -0.013110 1.898780 0.006280 
#    z 0.023770 0.006280 1.883220 
# 
# From -- ./inp_files/32498.got.cif
#   From: 2010.05.17/outbox.cif.g08.bks.cpg/sg2_17_cif.got.tgz:32498.got - 2010.06.03 11:33:40.
