data_PCOD9029569
_publ_section_title
;
Structure prediction by ZEFSAII (Michael W. Deem and Ramdas Pophale) SiO2 
 PCOD9029569
Probable space group: P -1
;
_chemical_formula_sum "Si O2"
_cell_formula_units_Z 16
_cell_length_a 16.766702
_cell_length_b 7.040829
_cell_length_c 22.055986
_cell_angle_alpha 72.531225
_cell_angle_beta 20.582176
_cell_angle_gamma 84.960269
_cell_volume 713.696826
_symmetry_space_group_name_H-M "P -1"
_symmetry_group_IT_number 2
_symmetry_cell_setting 'triclinic'
loop_
_space_group_symop_operation_xyz
x,y,z
-x,-y,-z
loop_
_atom_site_type_symbol
_atom_site_label
_atom_site_fract_x
_atom_site_fract_y
_atom_site_fract_z
Si Si1 0.341398 0.385912 0.559009
Si Si2 0.618041 0.497510 0.735211
Si Si3 0.310263 0.205905 0.233204
Si Si4 0.979371 0.851390 0.853394
Si Si5 0.299468 0.816212 0.516225
Si Si6 0.262787 0.747024 0.767076
Si Si7 0.451027 0.047576 0.960526
Si Si8 0.990391 0.975488 0.653275
O O1 0.500000 0.500000 0.500000
O O2 0.305109 0.581241 0.534151
O O3 0.526281 0.317610 0.398270
O O4 0.049931 0.119188 0.790807
O O5 0.558844 0.582172 0.832033
O O6 0.852712 0.748876 0.511174
O O7 0.350765 0.348430 0.896179
O O8 0.666397 0.302295 0.747900
O O9 0.526124 0.135798 0.078314
O O10 0.000000 0.000000 0.500000
O O11 0.230578 0.218631 0.219753
O O12 0.103761 0.797565 0.711724
O O13 0.154653 0.832200 0.782840
O O14 0.600428 0.048036 0.298756
O O15 0.196122 0.896702 0.526152
O O16 0.000000 0.500000 0.000000
O O17 0.167142 0.025457 0.174288
O O18 0.500000 0.000000 0.000000
#
# Coordination Sequence:
#
# PCOD9029569 Si02
#       8
#     2   2   2   2   2   2   2   2
#     4  11  21  42  68  89 124 179 221 265 330 396
#     4  11  23  44  66  96 140 169 219 282 325 389
#     4   9  22  43  67  98 130 173 220 265 328 391
#     4  11  22  41  66  95 131 174 217 272 335 385
#     4  11  21  43  65  93 131 172 223 268 327 401
#     4  11  23  40  65  97 134 167 217 278 330 389
#     4  10  22  42  67  98 129 177 221 266 337 390
#     4  10  22  43  69  97 133 176 221 272 332 392
#
# _framework density 22.418483999999999
#
# number of rings (size 3 to 8) (size 9 to 14) (size 15 to 20)
#    0.000    1.500    3.750    1.500    0.000    8.000 
#    2.250    8.750    0.000    0.000    0.000    0.000 
#    0.000    0.000    0.000    0.000    0.000    0.000 
#
# Total GULP energy -89188.599145 kJ/mol
# GULP energy per Si atom -5574.287447 kJ/mol
# Density = 2.236746 g / cm^3
# Si number density = 22.418484 Si / 1000 Ang^3
#
#
#
# Elastic Constant Matrix: (Units=GPa)
#
#
# Indices 1 2 3 4 5 6 
#
# 1 73.3628 37.8432 16.7923 -4.8702 -21.5110 -22.9549
# 2 37.8432 106.5311 16.6290 -21.7713 -17.9366 -12.6537
# 3 16.7923 16.6290 76.2562 -22.3065 -13.3778 -3.5204
# 4 -4.8702 -21.7713 -22.3065 29.9491 0.5857 0.0911
# 5 -21.5110 -17.9366 -13.3778 0.5857 36.0614 -3.2034
# 6 -22.9549 -12.6537 -3.5204 0.0911 -3.2034 47.2744
#
#
#
# Elastic Compliance Matrix: (Units=1/GPa)
#
#
# Indices 1 2 3 4 5 6 
#
# 1 0.023329 -0.005100 -0.001980 -0.001648 0.011614 0.010605
# 2 -0.005100 0.014106 0.002162 0.010937 0.004755 0.001761
# 3 -0.001980 0.002162 0.018732 0.015065 0.006726 0.001439
# 4 -0.001648 0.010937 0.015065 0.052095 0.009536 0.003795
# 5 0.011614 0.004755 0.006726 0.009536 0.040263 0.010123
# 6 0.010605 0.001761 0.001439 0.003795 0.010123 0.027560
#
#
# Mechanical properties :
#
#
# Convention : Reuss Voigt Hill
#
# Bulk Modulus (GPa) = 21.58431 44.29768 32.94099
# Shear Modulus (GPa) = 24.83066 34.98270 29.90668
#
# Velocity S-wave (km/s) = 3.33167 3.95453 3.65638
# Velocity P-wave (km/s) = 4.94458 6.37600 5.70536
#
# Compressibility (1/GPa) = 0.04632996
#
# Stress axis : x y z
#
# Youngs Moduli (GPa) = 42.86496 70.89207 53.38590
#
# Poissons Ratio (x) = 0.36153 0.10571
# Poissons Ratio (y) = 0.21860 -0.11540
# Poissons Ratio (z) = 0.08488 -0.15324
#
# Static dielectric constant tensor:
#      x y z
#    x 1.866710 -0.028160 0.022310 
#    y -0.028160 1.797160 -0.023010 
#    z 0.022310 -0.023010 1.890640 
# 
# From -- ./inp_files/48569.got.cif
#   From: 2010.05.17/outbox.cif.g08.bks.cpg/sg2_25_cif.got.tgz:48569.got - 2010.06.03 11:33:40.
