data_PCOD9029829
_publ_section_title
;
Structure prediction by ZEFSAII (Michael W. Deem and Ramdas Pophale) SiO2 
 PCOD9029829
Probable space group: P -1
;
_chemical_formula_sum "Si O2"
_cell_formula_units_Z 15
_cell_length_a 15.738266
_cell_length_b 16.993742
_cell_length_c 7.882153
_cell_angle_alpha 46.736265
_cell_angle_beta 49.643233
_cell_angle_gamma 24.292751
_cell_volume 629.708113
_symmetry_space_group_name_H-M "P -1"
_symmetry_group_IT_number 2
_symmetry_cell_setting 'triclinic'
loop_
_space_group_symop_operation_xyz
x,y,z
-x,-y,-z
loop_
_atom_site_type_symbol
_atom_site_label
_atom_site_fract_x
_atom_site_fract_y
_atom_site_fract_z
Si Si1 0.878464 0.052770 0.239870
Si Si2 0.022795 0.753978 0.683249
Si Si3 0.573606 0.125113 0.400385
Si Si4 0.500000 0.500000 0.000000
Si Si5 0.182949 0.246447 0.557970
Si Si6 0.606465 0.993129 0.008067
Si Si7 0.693045 0.629838 0.926507
Si Si8 0.783973 0.476793 0.573420
O O1 0.766408 0.038051 0.333293
O O2 0.018535 0.885871 0.452817
O O3 0.689925 0.285867 0.179687
O O4 0.000000 0.000000 0.000000
O O5 0.110669 0.621241 0.599856
O O6 0.792075 0.904846 0.805420
O O7 0.173623 0.582748 0.884025
O O8 0.274098 0.156759 0.760829
O O9 0.474139 0.262259 0.160079
O O10 0.391213 0.287699 0.531411
O O11 0.661915 0.466328 0.787503
O O12 0.176640 0.375357 0.312418
O O13 0.969133 0.358370 0.635943
O O14 0.345666 0.055140 0.502009
O O15 0.437143 0.212524 0.983370
O O16 0.500000 0.000000 0.000000
#
# Coordination Sequence:
#
# PCOD9029829 Si02
#       8
#     2   2   2   1   2   2   2   2
#     4  11  22  43  72  97 132 170 235 283 344 402
#     4  12  26  41  64 109 137 169 228 288 331 400
#     4  10  22  42  68  96 129 188 228 270 334 410
#     4  10  22  42  74 102 120 186 226 282 342 406
#     4  11  23  45  67  96 141 190 226 268 341 405
#     4  11  26  42  67  98 140 182 228 279 326 402
#     4  11  27  43  67  98 145 185 225 275 336 406
#     4  11  23  41  74  99 133 174 234 277 341 401
#
# _framework density 23.82056
#
# number of rings (size 3 to 8) (size 9 to 14) (size 15 to 20)
#    0.000    1.067    2.667    3.200    5.600    5.333 
#    0.000    0.667    2.933    8.800    0.000    0.000 
#    0.000    0.000    0.000    0.000    0.000    0.000 
#
# Total GULP energy -83611.333734 kJ/mol
# GULP energy per Si atom -5574.088916 kJ/mol
# Density = 2.376634 g / cm^3
# Si number density = 23.820560 Si / 1000 Ang^3
#
#
#
# Elastic Constant Matrix: (Units=GPa)
#
#
# Indices 1 2 3 4 5 6 
#
# 1 31.7986 5.6560 15.7724 18.3416 16.3702 -4.1974
# 2 5.6560 136.3059 60.8411 -9.2735 -0.8745 -3.5672
# 3 15.7724 60.8411 153.1490 -9.6356 -2.2578 -8.1509
# 4 18.3416 -9.2735 -9.6356 68.2714 -1.7259 -1.6093
# 5 16.3702 -0.8745 -2.2578 -1.7259 23.4033 3.3336
# 6 -4.1974 -3.5672 -8.1509 -1.6093 3.3336 43.8450
#
#
#
# Elastic Compliance Matrix: (Units=1/GPa)
#
#
# Indices 1 2 3 4 5 6 
#
# 1 0.087344 -0.000769 -0.010776 -0.026506 -0.065587 0.010310
# 2 -0.000769 0.008960 -0.003411 0.000958 0.000613 0.000010
# 3 -0.010776 -0.003411 0.009367 0.003970 0.008618 -0.000077
# 4 -0.026506 0.000958 0.003970 0.022931 0.021003 -0.002477
# 5 -0.065587 0.000613 0.008618 0.021003 0.092561 -0.010894
# 6 0.010310 0.000010 -0.000077 -0.002477 -0.010894 0.024518
#
#
# Mechanical properties :
#
#
# Convention : Reuss Voigt Hill
#
# Bulk Modulus (GPa) = 13.19940 53.97694 33.58817
# Shear Modulus (GPa) = 16.61978 43.03619 29.82798
#
# Velocity S-wave (km/s) = 2.64428 4.25512 3.54248
# Velocity P-wave (km/s) = 3.85696 6.84473 5.55547
#
# Compressibility (1/GPa) = 0.07576103
#
# Stress axis : x y z
#
# Youngs Moduli (GPa) = 11.44894 111.60699 106.75817
#
# Poissons Ratio (x) = 0.08579 1.15042
# Poissons Ratio (y) = 0.00880 0.36410
# Poissons Ratio (z) = 0.12337 0.38064
#
# Static dielectric constant tensor:
#      x y z
#    x 1.918580 0.017030 0.043150 
#    y 0.017030 1.972800 -0.058030 
#    z 0.043150 -0.058030 1.980730 
# 
# From -- ./inp_files/338064.got.cif
#   From: 2010.05.17/outbox.cif.g08.bks.cpg/sg2_170_cif.got.tgz:338064.got - 2010.06.03 11:33:40.
