data_PCOD9029687
_publ_section_title
;
Structure prediction by ZEFSAII (Michael W. Deem and Ramdas Pophale) SiO2 
 PCOD9029687
Probable space group: P -1
;
_chemical_formula_sum "Si O2"
_cell_formula_units_Z 15
_cell_length_a 24.901613
_cell_length_b 13.004272
_cell_length_c 24.899500
_cell_angle_alpha 159.247648
_cell_angle_beta 11.210007
_cell_angle_gamma 157.691117
_cell_volume 551.780470
_symmetry_space_group_name_H-M "P -1"
_symmetry_group_IT_number 2
_symmetry_cell_setting 'triclinic'
loop_
_space_group_symop_operation_xyz
x,y,z
-x,-y,-z
loop_
_atom_site_type_symbol
_atom_site_label
_atom_site_fract_x
_atom_site_fract_y
_atom_site_fract_z
Si Si1 0.000000 0.500000 0.000000
Si Si2 0.010556 0.575141 0.359154
Si Si3 0.838168 0.790565 0.481667
Si Si4 0.528507 0.606128 0.593720
Si Si5 0.919779 0.318416 0.436648
Si Si6 0.497926 0.506003 0.245764
Si Si7 0.074952 0.168462 0.953937
Si Si8 0.318783 0.029291 0.853516
O O1 0.736566 0.647811 0.359724
O O2 0.786882 0.367543 0.097014
O O3 0.057946 0.491501 0.333599
O O4 0.734693 0.393727 0.517007
O O5 0.959138 0.913445 0.574381
O O6 0.259020 0.556919 0.064084
O O7 0.643833 0.798571 0.624448
O O8 0.650681 0.759871 0.703860
O O9 0.988008 0.496668 0.192332
O O10 0.553485 0.272912 0.423480
O O11 0.593155 0.246440 0.707517
O O12 0.000000 0.500000 0.500000
O O13 0.091052 0.030703 0.125976
O O14 0.598386 0.737217 0.307534
O O15 0.000000 0.000000 0.000000
O O16 0.892076 0.988885 0.999747
#
# Coordination Sequence:
#
# PCOD9029687 Si02
#       8
#     1   2   2   2   2   2   2   2
#     4  10  22  42  68 104 138 188 242 306 366 434
#     4  12  27  46  71 107 149 199 253 301 363 446
#     4  11  27  43  74 107 156 196 244 299 374 441
#     4  10  24  43  71 106 146 186 249 306 375 429
#     4  12  27  50  76 104 144 199 254 309 375 439
#     4  12  26  46  72 109 151 197 242 302 370 443
#     4  11  25  45  73 109 148 191 243 298 368 439
#     4  11  26  46  75 105 146 187 243 314 369 437
#
# _framework density 27.184723000000002
#
# number of rings (size 3 to 8) (size 9 to 14) (size 15 to 20)
#    0.000    0.800    1.333    4.400    9.333    3.733 
#    0.000    1.333    0.000    0.000    0.000    0.000 
#    0.000    0.000    0.000    0.000    0.000    0.000 
#
# Total GULP energy -83692.254171 kJ/mol
# GULP energy per Si atom -5579.483611 kJ/mol
# Density = 2.712285 g / cm^3
# Si number density = 27.184723 Si / 1000 Ang^3
#
#
#
# Elastic Constant Matrix: (Units=GPa)
#
#
# Indices 1 2 3 4 5 6 
#
# 1 200.5341 56.5761 47.2200 -16.6075 -17.2956 50.9603
# 2 56.5761 95.7476 15.0020 -11.7839 -11.5318 39.3529
# 3 47.2200 15.0020 147.9643 -25.3907 -30.5325 34.3390
# 4 -16.6075 -11.7839 -25.3907 35.9122 14.3188 -7.4374
# 5 -17.2956 -11.5318 -30.5325 14.3188 58.4422 -11.3825
# 6 50.9603 39.3529 34.3390 -7.4374 -11.3825 49.4968
#
#
#
# Elastic Compliance Matrix: (Units=1/GPa)
#
#
# Indices 1 2 3 4 5 6 
#
# 1 0.007070 -0.001782 -0.000653 0.001097 0.000115 -0.005219
# 2 -0.001782 0.016803 0.002564 0.003578 0.000801 -0.012583
# 3 -0.000653 0.002564 0.009688 0.004854 0.002881 -0.006696
# 4 0.001097 0.003578 0.004854 0.034458 -0.005546 -0.003439
# 5 0.000115 0.000801 0.002881 -0.005546 0.020381 0.001100
# 6 -0.005219 -0.012583 -0.006696 -0.003439 0.001100 0.039962
#
#
# Mechanical properties :
#
#
# Convention : Reuss Voigt Hill
#
# Bulk Modulus (GPa) = 29.56718 75.76024 52.66371
# Shear Modulus (GPa) = 35.87428 50.46675 43.17052
#
# Velocity S-wave (km/s) = 3.63664 4.31331 3.98935
# Velocity P-wave (km/s) = 5.34168 7.26192 6.37452
#
# Compressibility (1/GPa) = 0.03382128
#
# Stress axis : x y z
#
# Youngs Moduli (GPa) = 141.44554 59.51191 103.21964
#
# Poissons Ratio (x) = 0.10603 0.06736
# Poissons Ratio (y) = 0.25200 -0.26467
# Poissons Ratio (z) = 0.09230 -0.15260
#
# Static dielectric constant tensor:
#      x y z
#    x 1.999040 0.114260 0.018450 
#    y 0.114260 1.979340 0.011890 
#    z 0.018450 0.011890 2.167200 
# 
# From -- ./inp_files/621327.got.cif
#   From: 2010.05.17/outbox.cif.g08.bks.cpg/sg2_311_cif.got.tgz:621327.got - 2010.06.03 11:33:40.
