data_PCOD9029792
_publ_section_title
;
Structure prediction by ZEFSAII (Michael W. Deem and Ramdas Pophale) SiO2 
 PCOD9029792
Probable space group: P -1
;
_chemical_formula_sum "Si O2"
_cell_formula_units_Z 14
_cell_length_a 8.945580
_cell_length_b 11.755143
_cell_length_c 11.627348
_cell_angle_alpha 143.577511
_cell_angle_beta 54.847524
_cell_angle_gamma 118.094805
_cell_volume 593.483533
_symmetry_space_group_name_H-M "P -1"
_symmetry_group_IT_number 2
_symmetry_cell_setting 'triclinic'
loop_
_space_group_symop_operation_xyz
x,y,z
-x,-y,-z
loop_
_atom_site_type_symbol
_atom_site_label
_atom_site_fract_x
_atom_site_fract_y
_atom_site_fract_z
Si Si1 0.614051 0.112380 0.441132
Si Si2 0.732762 0.808171 0.785740
Si Si3 0.810632 0.765785 0.095211
Si Si4 0.799349 0.576886 0.169757
Si Si5 0.140662 0.490432 0.654469
Si Si6 0.423525 0.444721 0.144502
Si Si7 0.406458 0.821101 0.753837
O O1 0.636770 0.334631 0.644004
O O2 0.532656 0.115354 0.349367
O O3 0.500000 0.000000 0.500000
O O4 0.796072 0.985261 0.243825
O O5 0.894865 0.694941 0.559424
O O6 0.678017 0.681245 0.816334
O O7 0.569382 0.808002 0.762953
O O8 0.735859 0.024886 0.005763
O O9 0.799632 0.757588 0.231841
O O10 0.633451 0.657562 0.031240
O O11 0.974156 0.632310 0.869995
O O12 0.781725 0.585617 0.320502
O O13 0.637118 0.443668 0.083070
O O14 0.000000 0.500000 0.000000
O O15 0.298331 0.620324 0.631770
#
# Coordination Sequence:
#
# PCOD9029792 Si02
#       7
#     2   2   2   2   2   2   2
#     4  12  25  40  66  97 128 172 217 264 330 386
#     4  11  23  40  70  98 123 177 221 264 325 381
#     4  11  26  42  64 102 131 173 216 270 323 388
#     4  10  22  42  68  95 127 172 217 268 324 380
#     4  11  23  44  68  92 138 171 217 269 326 378
#     4  12  22  44  70  90 132 172 218 266 326 389
#     4  11  23  42  66  98 130 169 223 271 314 393
#
# _framework density 23.589535000000001
#
# number of rings (size 3 to 8) (size 9 to 14) (size 15 to 20)
#    0.000    0.857    5.714    1.714    0.000    2.286 
#    0.000    0.000    0.000    6.000    0.000    0.000 
#    0.000    0.000    0.000    0.000    0.000    0.000 
#
# Total GULP energy -78191.476147 kJ/mol
# GULP energy per Si atom -5585.105439 kJ/mol
# Density = 2.353584 g / cm^3
# Si number density = 23.589535 Si / 1000 Ang^3
#
#
#
# Elastic Constant Matrix: (Units=GPa)
#
#
# Indices 1 2 3 4 5 6 
#
# 1 73.8639 25.8151 38.9309 5.9843 -10.2643 -14.3578
# 2 25.8151 84.9576 38.4837 2.3724 2.8404 -37.7734
# 3 38.9309 38.4837 158.6492 18.8236 -2.1361 -13.4936
# 4 5.9843 2.3724 18.8236 47.8169 -4.7519 2.6772
# 5 -10.2643 2.8404 -2.1361 -4.7519 36.0565 3.2147
# 6 -14.3578 -37.7734 -13.4936 2.6772 3.2147 40.1374
#
#
#
# Elastic Compliance Matrix: (Units=1/GPa)
#
#
# Indices 1 2 3 4 5 6 
#
# 1 0.017400 -0.003176 -0.003239 -0.000368 0.004804 0.001786
# 2 -0.003176 0.023336 -0.003086 -0.001165 -0.004885 0.020257
# 3 -0.003239 -0.003086 0.008050 -0.002590 -0.000441 -0.001148
# 4 -0.000368 -0.001165 -0.002590 0.022566 0.003151 -0.003856
# 5 0.004804 -0.004885 -0.000441 0.003151 0.030381 -0.005670
# 6 0.001786 0.020257 -0.001148 -0.003856 -0.005670 0.044942
#
#
# Mechanical properties :
#
#
# Convention : Reuss Voigt Hill
#
# Bulk Modulus (GPa) = 33.57516 58.21444 45.89480
# Shear Modulus (GPa) = 28.47283 39.08491 33.77887
#
# Velocity S-wave (km/s) = 3.47798 4.07489 3.78821
# Velocity P-wave (km/s) = 5.51293 6.84626 6.21545
#
# Compressibility (1/GPa) = 0.02978392
#
# Stress axis : x y z
#
# Youngs Moduli (GPa) = 57.47045 42.85263 124.21859
#
# Poissons Ratio (x) = 0.13611 0.40237
# Poissons Ratio (y) = 0.18254 0.38332
# Poissons Ratio (z) = 0.18616 0.13224
#
# Static dielectric constant tensor:
#      x y z
#    x 1.903400 -0.001100 -0.094490 
#    y -0.001100 1.882920 -0.059730 
#    z -0.094490 -0.059730 1.987570 
# 
# From -- ./inp_files/391512.got.cif
#   From: 2010.05.17/outbox.cif.g08.bks.cpg/sg2_196_cif.got.tgz:391512.got - 2010.06.03 11:33:40.
