data_PCOD9029091
_publ_section_title
;
Structure prediction by ZEFSAII (Michael W. Deem and Ramdas Pophale) SiO2 
 PCOD9029091
Probable space group: P -1
;
_chemical_formula_sum "Si O2"
_cell_formula_units_Z 10
_cell_length_a 7.732421
_cell_length_b 7.732416
_cell_length_c 11.028039
_cell_angle_alpha 60.602368
_cell_angle_beta 119.397532
_cell_angle_gamma 144.619629
_cell_volume 327.202035
_symmetry_space_group_name_H-M "P -1"
_symmetry_group_IT_number 2
_symmetry_cell_setting 'triclinic'
loop_
_space_group_symop_operation_xyz
x,y,z
-x,-y,-z
loop_
_atom_site_type_symbol
_atom_site_label
_atom_site_fract_x
_atom_site_fract_y
_atom_site_fract_z
Si Si1 0.772910 0.725199 0.925241
Si Si2 0.701158 0.201157 0.750000
Si Si3 0.133758 0.804687 0.835356
Si Si4 0.225200 0.272909 0.574760
Si Si5 0.695310 0.366241 0.335354
O O1 0.603804 0.722693 0.762180
O O2 0.958661 0.683575 0.945279
O O3 0.500000 0.500000 0.000000
O O4 0.000000 0.000000 0.000000
O O5 0.864657 0.519531 0.754076
O O6 0.019532 0.364656 0.745925
O O7 0.459434 0.951641 0.860599
O O8 0.451643 0.959435 0.639401
O O9 0.222693 0.103801 0.737821
O O10 0.500000 0.500000 0.500000
O O11 0.183578 0.458662 0.554723
O O12 0.000000 0.000000 0.500000
#
# Coordination Sequence:
#
# PCOD9029091 Si02
#       5
#     2   2   2   2   2
#     4  12  24  42  70  98 126 174 224 266 320 388
#     4  10  22  42  66  90 136 178 204 270 342 370
#     4  11  23  44  65  95 134 170 218 275 319 386
#     4  12  24  42  70  98 126 174 224 266 320 388
#     4  11  23  44  65  95 134 170 218 275 319 386
#
# _framework density 30.562154
#
# number of rings (size 3 to 8) (size 9 to 14) (size 15 to 20)
#    0.000    0.800    0.000    9.600    0.000    0.000 
#    0.000   40.000    0.000    0.000    0.000    0.000 
#    0.000    0.000    0.000    0.000    0.000    0.000 
#
# Total GULP energy -55738.724300 kJ/mol
# GULP energy per Si atom -5573.872430 kJ/mol
# Density = 3.049259 g / cm^3
# Si number density = 30.562154 Si / 1000 Ang^3
#
#
#
# Elastic Constant Matrix: (Units=GPa)
#
#
# Indices 1 2 3 4 5 6 
#
# 1 186.2852 92.3158 73.8023 6.3537 -63.4272 24.6531
# 2 92.3158 364.7402 63.5324 22.4643 -44.1182 26.8648
# 3 73.8023 63.5324 87.3975 12.5647 -46.8899 -2.9647
# 4 6.3537 22.4643 12.5647 73.3723 -2.0911 -18.2796
# 5 -63.4272 -44.1182 -46.8899 -2.0911 80.6159 -0.5700
# 6 24.6531 26.8648 -2.9647 -18.2796 -0.5700 90.3227
#
#
#
# Elastic Compliance Matrix: (Units=1/GPa)
#
#
# Indices 1 2 3 4 5 6 
#
# 1 0.009628 -0.000803 -0.005513 -0.000175 0.003906 -0.002581
# 2 -0.000803 0.003380 -0.001512 -0.000953 0.000306 -0.001027
# 3 -0.005513 -0.001512 0.021464 -0.001952 0.007285 0.002310
# 4 -0.000175 -0.000953 -0.001952 0.015055 -0.001381 0.003305
# 5 0.003906 0.000306 0.007285 -0.001381 0.019839 -0.001072
# 6 -0.002581 -0.001027 0.002310 0.003305 -0.001072 0.012819
#
#
# Mechanical properties :
#
#
# Convention : Reuss Voigt Hill
#
# Bulk Modulus (GPa) = 53.14843 121.96931 87.55887
# Shear Modulus (GPa) = 48.02489 76.11367 62.06928
#
# Velocity S-wave (km/s) = 3.96837 4.99586 4.51146
# Velocity P-wave (km/s) = 6.19881 8.55999 7.47324
#
# Compressibility (1/GPa) = 0.01881523
#
# Stress axis : x y z
#
# Youngs Moduli (GPa) = 103.86735 295.88320 46.58924
#
# Poissons Ratio (x) = 0.23764 0.25684
# Poissons Ratio (y) = 0.08342 0.07045
# Poissons Ratio (z) = 0.57261 0.44741
#
# Static dielectric constant tensor:
#      x y z
#    x 2.471090 -0.071220 0.187840 
#    y -0.071220 2.224380 -0.050340 
#    z 0.187840 -0.050340 2.694740 
# 
# From -- ./inp_files/197720.got.cif
#   From: 2010.05.17/outbox.cif.g08.bks.cpg/sg2_99_cif.got.tgz:197720.got - 2010.06.03 11:33:40.
