data_PCOD9029118
_publ_section_title
;
Structure prediction by ZEFSAII (Michael W. Deem and Ramdas Pophale) SiO2 
 PCOD9029118
Probable space group: P -1
;
_chemical_formula_sum "Si O2"
_cell_formula_units_Z 12
_cell_length_a 10.092166
_cell_length_b 8.411004
_cell_length_c 14.475603
_cell_angle_alpha 116.684927
_cell_angle_beta 42.717145
_cell_angle_gamma 142.595397
_cell_volume 478.592478
_symmetry_space_group_name_H-M "P -1"
_symmetry_group_IT_number 2
_symmetry_cell_setting 'triclinic'
loop_
_space_group_symop_operation_xyz
x,y,z
-x,-y,-z
loop_
_atom_site_type_symbol
_atom_site_label
_atom_site_fract_x
_atom_site_fract_y
_atom_site_fract_z
Si Si1 0.910892 0.759421 0.139957
Si Si2 0.979634 0.097488 0.679149
Si Si3 0.167797 0.869273 0.434062
Si Si4 0.416296 0.702580 0.325124
Si Si5 0.371363 0.713449 0.965491
Si Si6 0.573209 0.351536 0.900688
O O1 0.858687 0.702640 0.262826
O O2 0.715870 0.796300 0.217994
O O3 0.810481 0.503521 0.080055
O O4 0.250481 0.025249 0.994621
O O5 0.837655 0.110101 0.669361
O O6 0.160581 0.061001 0.532201
O O7 0.684324 0.822384 0.814575
O O8 0.413853 0.915544 0.371629
O O9 0.844357 0.550697 0.539846
O O10 0.310860 0.586015 0.244380
O O11 0.209598 0.554392 0.102746
O O12 0.500000 0.000000 0.000000
O O13 0.500000 0.500000 0.000000
#
# Coordination Sequence:
#
# PCOD9029118 Si02
#       6
#     2   2   2   2   2   2
#     4  11  23  41  73 100 132 175 230 278 339 396
#     4  10  22  43  65  95 134 181 220 278 329 395
#     4  10  22  42  66  92 142 181 219 272 329 399
#     4  11  21  40  67 100 131 178 221 270 337 401
#     4  11  23  42  68  97 135 174 225 283 338 395
#     4  11  22  40  68  99 138 172 215 289 340 392
#
# _framework density 25.073523000000002
#
# number of rings (size 3 to 8) (size 9 to 14) (size 15 to 20)
#    0.000    1.333    3.333    2.500    0.000    4.000 
#    0.000    0.000    3.667    0.000    0.000    0.000 
#    0.000    0.000    0.000    0.000    0.000    0.000 
#
# Total GULP energy -66834.753117 kJ/mol
# GULP energy per Si atom -5569.562760 kJ/mol
# Density = 2.501645 g / cm^3
# Si number density = 25.073523 Si / 1000 Ang^3
#
#
#
# Elastic Constant Matrix: (Units=GPa)
#
#
# Indices 1 2 3 4 5 6 
#
# 1 145.8943 21.5555 42.1398 10.6795 4.4623 -14.2992
# 2 21.5555 104.6441 30.2101 31.1115 12.1372 1.8852
# 3 42.1398 30.2101 102.9202 15.7370 22.1157 8.2198
# 4 10.6795 31.1115 15.7370 37.3920 4.4636 9.6547
# 5 4.4623 12.1372 22.1157 4.4636 63.3214 5.0561
# 6 -14.2992 1.8852 8.2198 9.6547 5.0561 25.8106
#
#
#
# Elastic Compliance Matrix: (Units=1/GPa)
#
#
# Indices 1 2 3 4 5 6 
#
# 1 0.008854 -0.000078 -0.003827 -0.002723 0.000354 0.007079
# 2 -0.000078 0.013680 -0.002298 -0.011313 -0.001351 0.004186
# 3 -0.003827 -0.002298 0.013236 -0.000815 -0.003441 -0.005189
# 4 -0.002723 -0.011313 -0.000815 0.041306 0.001017 -0.016073
# 5 0.000354 -0.001351 -0.003441 0.001017 0.017347 -0.002388
# 6 0.007079 0.004186 -0.005189 -0.016073 -0.002388 0.050492
#
#
# Mechanical properties :
#
#
# Convention : Reuss Voigt Hill
#
# Bulk Modulus (GPa) = 42.80110 60.14105 51.47108
# Shear Modulus (GPa) = 30.28310 42.60835 36.44573
#
# Velocity S-wave (km/s) = 3.47907 4.12677 3.81669
# Velocity P-wave (km/s) = 5.76592 6.83703 6.32419
#
# Compressibility (1/GPa) = 0.02336389
#
# Stress axis : x y z
#
# Youngs Moduli (GPa) = 112.94963 73.09822 75.55003
#
# Poissons Ratio (x) = 0.00569 0.28915
# Poissons Ratio (y) = 0.00879 0.17361
# Poissons Ratio (z) = 0.43229 0.16798
#
# Static dielectric constant tensor:
#      x y z
#    x 2.216530 0.080360 -0.025480 
#    y 0.080360 2.116880 0.068300 
#    z -0.025480 0.068300 1.963610 
# 
# From -- ./inp_files/68008.got.cif
#   From: 2010.05.17/outbox.cif.g08.bks.cpg/sg2_35_cif.got.tgz:68008.got - 2010.06.03 11:33:40.
