data_PCOD9029078
_publ_section_title
;
Structure prediction by ZEFSAII (Michael W. Deem and Ramdas Pophale) SiO2 
 PCOD9029078
Probable space group: P -1
;
_chemical_formula_sum "Si O2"
_cell_formula_units_Z 16
_cell_length_a 6.965446
_cell_length_b 9.324326
_cell_length_c 26.669998
_cell_angle_alpha 135.582449
_cell_angle_beta 128.185866
_cell_angle_gamma 81.794595
_cell_volume 800.025139
_symmetry_space_group_name_H-M "P -1"
_symmetry_group_IT_number 2
_symmetry_cell_setting 'triclinic'
loop_
_space_group_symop_operation_xyz
x,y,z
-x,-y,-z
loop_
_atom_site_type_symbol
_atom_site_label
_atom_site_fract_x
_atom_site_fract_y
_atom_site_fract_z
Si Si1 0.814834 0.942599 0.005553
Si Si2 0.698198 0.454635 0.918489
Si Si3 0.284915 0.624712 0.386445
Si Si4 0.823206 0.841181 0.166517
Si Si5 0.319419 0.045363 0.558684
Si Si6 0.613228 0.140095 0.734577
Si Si7 0.376891 0.305519 0.388340
Si Si8 0.205299 0.850411 0.850896
O O1 0.750358 0.697266 0.961244
O O2 0.523794 0.922542 0.935290
O O3 0.950099 0.143473 0.121761
O O4 0.000000 0.000000 0.000000
O O5 0.470564 0.351135 0.901581
O O6 0.552476 0.248739 0.800002
O O7 0.000000 0.500000 0.000000
O O8 0.288802 0.791908 0.473824
O O9 0.391292 0.453166 0.379284
O O10 0.960445 0.422016 0.265832
O O11 0.488778 0.784274 0.413831
O O12 0.037741 0.742532 0.174946
O O13 0.781926 0.950945 0.135923
O O14 0.041169 0.095508 0.294934
O O15 0.497160 0.165168 0.668746
O O16 0.000000 0.000000 0.500000
O O17 0.486803 0.851171 0.642133
O O18 0.500000 0.500000 0.500000
#
# Coordination Sequence:
#
# PCOD9029078 Si02
#       8
#     2   2   2   2   2   2   2   2
#     4  11  26  41  64  96 129 167 224 266 330 384
#     4  12  26  42  65  98 134 171 219 280 322 390
#     4  10  22  42  66  88 132 168 211 269 322 391
#     4   9  22  43  67  90 129 167 222 261 331 385
#     4  11  25  40  63 100 131 169 217 265 335 390
#     4  10  24  41  64  95 127 170 218 261 335 385
#     4   9  18  43  67  90 122 170 211 266 319 387
#     4  10  23  43  67  91 122 178 214 269 328 385
#
# _framework density 19.999371
#
# number of rings (size 3 to 8) (size 9 to 14) (size 15 to 20)
#    0.750    1.000    1.250    1.500    5.250    5.000 
#    4.500    1.250    0.000    0.000    0.000    0.000 
#    0.000    0.000    0.000    0.000    0.000    0.000 
#
# Total GULP energy -89106.577096 kJ/mol
# GULP energy per Si atom -5569.161068 kJ/mol
# Density = 1.995385 g / cm^3
# Si number density = 19.999371 Si / 1000 Ang^3
#
#
#
# Elastic Constant Matrix: (Units=GPa)
#
#
# Indices 1 2 3 4 5 6 
#
# 1 83.1015 30.3497 13.8738 -9.5573 0.2153 14.3041
# 2 30.3497 79.2868 14.4251 -6.8393 15.6912 6.6529
# 3 13.8738 14.4251 70.0422 -7.4736 -13.1887 9.8573
# 4 -9.5573 -6.8393 -7.4736 31.3482 -4.6670 2.2257
# 5 0.2153 15.6912 -13.1887 -4.6670 32.7665 -1.8191
# 6 14.3041 6.6529 9.8573 2.2257 -1.8191 27.3035
#
#
#
# Elastic Compliance Matrix: (Units=1/GPa)
#
#
# Indices 1 2 3 4 5 6 
#
# 1 0.015826 -0.005649 0.000055 0.004539 0.002875 -0.007113
# 2 -0.005649 0.017606 -0.004433 -0.000439 -0.010262 -0.000378
# 3 0.000055 -0.004433 0.018375 0.005296 0.009976 -0.005350
# 4 0.004539 -0.000439 0.005296 0.035974 0.007067 -0.006644
# 5 0.002875 -0.010262 0.009976 0.007067 0.040409 -0.000491
# 6 -0.007113 -0.000378 -0.005350 -0.006644 -0.000491 0.042884
#
#
# Mechanical properties :
#
#
# Convention : Reuss Voigt Hill
#
# Bulk Modulus (GPa) = 31.49114 38.85865 35.17489
# Shear Modulus (GPa) = 24.78777 29.86908 27.32843
#
# Velocity S-wave (km/s) = 3.52437 3.86878 3.70058
# Velocity P-wave (km/s) = 5.68699 6.27923 5.99043
#
# Compressibility (1/GPa) = 0.03175496
#
# Stress axis : x y z
#
# Youngs Moduli (GPa) = 63.18666 56.79936 54.42032
#
# Poissons Ratio (x) = 0.32083 -0.00300
# Poissons Ratio (y) = 0.35691 0.24124
# Poissons Ratio (z) = -0.00349 0.25178
#
# Static dielectric constant tensor:
#      x y z
#    x 1.712260 0.001630 -0.041100 
#    y 0.001630 1.766990 -0.089420 
#    z -0.041100 -0.089420 1.860710 
# 
# From -- ./inp_files/604087.got.cif
#   From: 2010.05.17/outbox.cif.g08.bks.cpg/sg2_303_cif.got.tgz:604087.got - 2010.06.03 11:33:40.
