data_PCOD9029819
_publ_section_title
;
Structure prediction by ZEFSAII (Michael W. Deem and Ramdas Pophale) SiO2 
 PCOD9029819
Probable space group: P -1
;
_chemical_formula_sum "Si O2"
_cell_formula_units_Z 13
_cell_length_a 8.003278
_cell_length_b 11.127375
_cell_length_c 13.817244
_cell_angle_alpha 149.550470
_cell_angle_beta 105.845919
_cell_angle_gamma 94.110095
_cell_volume 465.950113
_symmetry_space_group_name_H-M "P -1"
_symmetry_group_IT_number 2
_symmetry_cell_setting 'triclinic'
loop_
_space_group_symop_operation_xyz
x,y,z
-x,-y,-z
loop_
_atom_site_type_symbol
_atom_site_label
_atom_site_fract_x
_atom_site_fract_y
_atom_site_fract_z
Si Si1 0.589285 0.257381 0.907670
Si Si2 0.255063 0.201423 0.054827
Si Si3 0.693382 0.723210 0.407686
Si Si4 0.168881 0.892022 0.020651
Si Si5 0.000000 0.500000 0.000000
Si Si6 0.276808 0.847824 0.417426
Si Si7 0.040584 0.679610 0.532905
O O1 0.771983 0.414260 0.960488
O O2 0.350612 0.018879 0.648966
O O3 0.634724 0.532413 0.167778
O O4 0.657461 0.091856 0.870929
O O5 0.458886 0.557960 0.312134
O O6 0.995828 0.048938 0.923874
O O7 0.305248 0.112331 0.102579
O O8 0.251174 0.018310 0.835343
O O9 0.830410 0.071031 0.631546
O O10 0.849295 0.695996 0.478458
O O11 0.989040 0.547825 0.710484
O O12 0.901928 0.504287 0.875983
O O13 0.500000 0.000000 0.500000
O O14 0.000000 0.500000 0.500000
#
# Coordination Sequence:
#
# PCOD9029819 Si02
#       7
#     2   2   2   2   1   2   2
#     4  10  23  41  66  97 129 170 223 269 330 391
#     4  10  22  42  68  95 140 174 215 278 324 395
#     4  11  24  42  68  99 129 171 226 267 329 401
#     4   9  21  42  65 100 134 177 221 261 341 391
#     4  10  24  44  64  90 136 170 214 282 322 384
#     4  10  24  42  65  98 129 170 223 268 333 393
#     4   9  21  40  62  97 133 172 220 263 328 394
#
# _framework density 27.899982999999999
#
# number of rings (size 3 to 8) (size 9 to 14) (size 15 to 20)
#    0.000    2.154    0.000    0.462    8.615    8.615 
#    2.769    8.462    0.000    0.000    0.000    0.000 
#    0.000    0.000    0.000    0.000    0.000    0.000 
#
# Total GULP energy -72435.843340 kJ/mol
# GULP energy per Si atom -5571.987949 kJ/mol
# Density = 2.783648 g / cm^3
# Si number density = 27.899983 Si / 1000 Ang^3
#
#
#
# Elastic Constant Matrix: (Units=GPa)
#
#
# Indices 1 2 3 4 5 6 
#
# 1 59.2644 22.6218 16.1417 -15.3037 -4.5799 2.2280
# 2 22.6218 164.3097 60.2654 -33.5296 7.5627 -6.5255
# 3 16.1417 60.2654 155.2319 -34.6628 1.6648 19.8512
# 4 -15.3037 -33.5296 -34.6628 56.1475 17.1491 0.9067
# 5 -4.5799 7.5627 1.6648 17.1491 41.9485 -9.7335
# 6 2.2280 -6.5255 19.8512 0.9067 -9.7335 44.6412
#
#
#
# Elastic Compliance Matrix: (Units=1/GPa)
#
#
# Indices 1 2 3 4 5 6 
#
# 1 0.018668 -0.001779 -0.000318 0.003646 0.000653 -0.000982
# 2 -0.001779 0.008136 -0.002317 0.003748 -0.002721 0.001639
# 3 -0.000318 -0.002317 0.009297 0.005402 -0.003427 -0.005314
# 4 0.003646 0.003748 0.005402 0.028579 -0.013464 -0.005552
# 5 0.000653 -0.002721 -0.003427 -0.013464 0.031976 0.008339
# 6 -0.000982 0.001639 -0.005314 -0.005552 0.008339 0.026984
#
#
# Mechanical properties :
#
#
# Convention : Reuss Voigt Hill
#
# Bulk Modulus (GPa) = 36.66532 64.09599 50.38065
# Shear Modulus (GPa) = 35.32126 47.19926 41.26026
#
# Velocity S-wave (km/s) = 3.56194 4.11753 3.84977
# Velocity P-wave (km/s) = 5.48515 6.75490 6.15287
#
# Compressibility (1/GPa) = 0.02727373
#
# Stress axis : x y z
#
# Youngs Moduli (GPa) = 53.56772 122.91114 107.55926
#
# Poissons Ratio (x) = 0.21860 0.03420
# Poissons Ratio (y) = 0.09527 0.24924
# Poissons Ratio (z) = 0.01703 0.28481
#
# Static dielectric constant tensor:
#      x y z
#    x 2.214170 -0.072900 0.140620 
#    y -0.072900 2.280940 0.027340 
#    z 0.140620 0.027340 3.074190 
# 
# From -- ./inp_files/373228.got.cif
#   From: 2010.05.17/outbox.cif.g08.bks.cpg/sg2_187_cif.got.tgz:373228.got - 2010.06.03 11:33:40.
