data_PCOD9029315
_publ_section_title
;
Structure prediction by ZEFSAII (Michael W. Deem and Ramdas Pophale) SiO2 
 PCOD9029315
Probable space group: P -1
;
_chemical_formula_sum "Si O2"
_cell_formula_units_Z 16
_cell_length_a 18.094046
_cell_length_b 10.976351
_cell_length_c 9.004185
_cell_angle_alpha 72.447754
_cell_angle_beta 115.141836
_cell_angle_gamma 50.212403
_cell_volume 704.118127
_symmetry_space_group_name_H-M "P -1"
_symmetry_group_IT_number 2
_symmetry_cell_setting 'triclinic'
loop_
_space_group_symop_operation_xyz
x,y,z
-x,-y,-z
loop_
_atom_site_type_symbol
_atom_site_label
_atom_site_fract_x
_atom_site_fract_y
_atom_site_fract_z
Si Si1 0.669871 0.266377 0.901111
Si Si2 0.109905 0.264570 0.565499
Si Si3 0.321006 0.587352 0.405585
Si Si4 0.354625 0.594850 0.872624
Si Si5 0.963145 0.242578 0.302583
Si Si6 0.361024 0.278539 0.376024
Si Si7 0.185801 0.637130 0.554955
Si Si8 0.680138 0.788769 0.320578
O O1 0.481260 0.457477 0.643478
O O2 0.767311 0.197680 0.871496
O O3 0.643689 0.413759 0.945987
O O4 0.788001 0.991878 0.172670
O O5 0.252199 0.162734 0.656449
O O6 0.000000 0.500000 0.500000
O O7 0.984183 0.364389 0.307361
O O8 0.408699 0.345206 0.479810
O O9 0.193634 0.711614 0.381517
O O10 0.368291 0.441797 0.857464
O O11 0.500000 0.500000 0.000000
O O12 0.157439 0.920701 0.535357
O O13 0.924441 0.225021 0.434193
O O14 0.807673 0.449098 0.972413
O O15 0.321401 0.244731 0.496301
O O16 0.500000 0.000000 0.500000
O O17 0.184930 0.496500 0.541676
O O18 0.500000 0.000000 0.000000
#
# Coordination Sequence:
#
# PCOD9029315 Si02
#       8
#     2   2   2   2   2   2   2   2
#     4  10  22  42  67 101 137 180 238 299 347 423
#     4  11  23  44  68  98 137 185 237 289 357 417
#     4  10  22  42  69 103 137 181 243 286 359 421
#     4  11  23  43  69  98 137 185 232 291 359 418
#     4  11  25  43  68 104 141 183 238 295 354 428
#     4  11  25  45  69 105 144 185 232 298 355 420
#     4  11  21  42  70 101 136 183 231 287 358 426
#     4  11  24  43  74 101 135 190 238 283 353 432
#
# _framework density 22.723459999999999
#
# number of rings (size 3 to 8) (size 9 to 14) (size 15 to 20)
#    0.000    1.250    2.500    3.375    3.500    1.500 
#    2.250    3.750    0.000    0.000    0.000    0.000 
#    0.000    0.000    0.000    0.000    0.000    0.000 
#
# Total GULP energy -89171.498808 kJ/mol
# GULP energy per Si atom -5573.218675 kJ/mol
# Density = 2.267174 g / cm^3
# Si number density = 22.723460 Si / 1000 Ang^3
#
#
#
# Elastic Constant Matrix: (Units=GPa)
#
#
# Indices 1 2 3 4 5 6 
#
# 1 175.7092 33.8212 42.9593 16.5347 -8.8811 -3.4093
# 2 33.8212 121.8153 26.0508 20.0545 2.0533 -1.4186
# 3 42.9593 26.0508 80.2018 17.6440 -4.6670 -19.3740
# 4 16.5347 20.0545 17.6440 32.8984 -0.2149 8.9447
# 5 -8.8811 2.0533 -4.6670 -0.2149 35.6904 12.2803
# 6 -3.4093 -1.4186 -19.3740 8.9447 12.2803 46.0977
#
#
#
# Elastic Compliance Matrix: (Units=1/GPa)
#
#
# Indices 1 2 3 4 5 6 
#
# 1 0.006857 -0.001129 -0.003396 -0.000566 0.001777 -0.001319
# 2 -0.001129 0.009639 -0.001291 -0.004892 -0.001373 0.000985
# 3 -0.003396 -0.001291 0.019528 -0.010855 -0.001906 0.010530
# 4 -0.000566 -0.004892 -0.010855 0.043371 0.003869 -0.014201
# 5 0.001777 -0.001373 -0.001906 0.003869 0.031725 -0.009914
# 6 -0.001319 0.000985 0.010530 -0.014201 -0.009914 0.031448
#
#
# Mechanical properties :
#
#
# Convention : Reuss Voigt Hill
#
# Bulk Modulus (GPa) = 41.00233 64.82098 52.91165
# Shear Modulus (GPa) = 30.80101 41.26364 36.03232
#
# Velocity S-wave (km/s) = 3.68567 4.26597 3.98639
# Velocity P-wave (km/s) = 6.01626 7.26998 6.67263
#
# Compressibility (1/GPa) = 0.02438886
#
# Stress axis : x y z
#
# Youngs Moduli (GPa) = 145.84667 103.74541 51.20826
#
# Poissons Ratio (x) = 0.11718 0.17393
# Poissons Ratio (y) = 0.16473 0.06613
# Poissons Ratio (z) = 0.49536 0.13398
#
# Static dielectric constant tensor:
#      x y z
#    x 1.894910 0.003700 0.012200 
#    y 0.003700 1.986650 -0.012750 
#    z 0.012200 -0.012750 1.924150 
# 
# From -- ./inp_files/333145.got.cif
#   From: 2010.05.17/outbox.cif.g08.bks.cpg/sg2_167_cif.got.tgz:333145.got - 2010.06.03 11:33:40.
