data_PCOD9029202
_publ_section_title
;
Structure prediction by ZEFSAII (Michael W. Deem and Ramdas Pophale) SiO2 
 PCOD9029202
Probable space group: P -1
;
_chemical_formula_sum "Si O2"
_cell_formula_units_Z 16
_cell_length_a 9.062193
_cell_length_b 8.590992
_cell_length_c 11.654875
_cell_angle_alpha 108.152119
_cell_angle_beta 115.105145
_cell_angle_gamma 73.703628
_cell_volume 769.056579
_symmetry_space_group_name_H-M "P -1"
_symmetry_group_IT_number 2
_symmetry_cell_setting 'triclinic'
loop_
_space_group_symop_operation_xyz
x,y,z
-x,-y,-z
loop_
_atom_site_type_symbol
_atom_site_label
_atom_site_fract_x
_atom_site_fract_y
_atom_site_fract_z
Si Si1 0.791626 0.852248 0.135199
Si Si2 0.699606 0.836983 0.620069
Si Si3 0.320528 0.286298 0.156386
Si Si4 0.879841 0.391537 0.754398
Si Si5 0.315905 0.769669 0.831612
Si Si6 0.016750 0.595262 0.644278
Si Si7 0.421348 0.770089 0.349657
Si Si8 0.506940 0.314635 0.909732
O O1 0.661973 0.757131 0.138288
O O2 0.976875 0.755073 0.190929
O O3 0.757716 0.047071 0.198263
O O4 0.744324 0.834224 0.982811
O O5 0.672925 0.780207 0.727751
O O6 0.889417 0.768767 0.639046
O O7 0.586522 0.753223 0.475720
O O8 0.649089 0.033793 0.638264
O O9 0.193631 0.460846 0.147926
O O10 0.506548 0.294890 0.181928
O O11 0.956376 0.483727 0.698155
O O12 0.716270 0.316626 0.653707
O O13 0.194807 0.639987 0.739217
O O14 0.353353 0.785387 0.983242
O O15 0.000000 0.500000 0.500000
O O16 0.452308 0.702969 0.214855
O O17 0.500000 0.500000 0.000000
#
# Coordination Sequence:
#
# PCOD9029202 Si02
#       8
#     2   2   2   2   2   2   2   2
#     4  11  22  41  67 100 130 167 216 270 321 381
#     4  10  24  42  65  93 134 172 214 262 331 380
#     4  10  22  42  66  96 130 169 214 261 321 391
#     4  11  25  40  64  93 130 167 217 265 328 376
#     4  11  23  42  68  95 130 173 217 268 325 377
#     4  11  27  44  64  92 130 171 220 271 322 391
#     4  11  23  42  65  98 130 173 214 265 320 398
#     4  11  23  40  69 101 134 172 216 266 322 382
#
# _framework density 20.80471
#
# number of rings (size 3 to 8) (size 9 to 14) (size 15 to 20)
#    0.000    1.250    0.000    6.375    7.000    3.000 
#    0.000    5.625    0.000    0.000    0.000    0.000 
#    0.000    0.000    0.000    0.000    0.000    0.000 
#
# Total GULP energy -89431.023024 kJ/mol
# GULP energy per Si atom -5589.438939 kJ/mol
# Density = 2.075736 g / cm^3
# Si number density = 20.804710 Si / 1000 Ang^3
#
#
#
# Elastic Constant Matrix: (Units=GPa)
#
#
# Indices 1 2 3 4 5 6 
#
# 1 82.9982 24.8152 34.7865 12.0089 -0.2813 -11.0102
# 2 24.8152 91.1477 -2.3732 10.6325 -4.7470 -8.7466
# 3 34.7865 -2.3732 57.5123 13.6152 -8.7241 -6.7852
# 4 12.0089 10.6325 13.6152 26.7169 0.0343 9.2341
# 5 -0.2813 -4.7470 -8.7241 0.0343 31.3206 1.2758
# 6 -11.0102 -8.7466 -6.7852 9.2341 1.2758 30.0400
#
#
#
# Elastic Compliance Matrix: (Units=1/GPa)
#
#
# Indices 1 2 3 4 5 6 
#
# 1 0.019171 -0.005136 -0.011498 -0.001992 -0.003958 0.003714
# 2 -0.005136 0.014538 0.007378 -0.009592 0.003946 0.006798
# 3 -0.011498 0.007378 0.031285 -0.017135 0.009346 0.009871
# 4 -0.001992 -0.009592 -0.017135 0.059702 -0.005270 -0.025521
# 5 -0.003958 0.003946 0.009346 -0.005270 0.035020 0.001942
# 6 0.003714 0.006798 0.009871 -0.025521 0.001942 0.046622
#
#
# Mechanical properties :
#
#
# Convention : Reuss Voigt Hill
#
# Bulk Modulus (GPa) = 21.51388 38.45724 29.98556
# Shear Modulus (GPa) = 20.80352 29.24415 25.02383
#
# Velocity S-wave (km/s) = 3.16562 3.75327 3.47190
# Velocity P-wave (km/s) = 4.87081 6.10800 5.52415
#
# Compressibility (1/GPa) = 0.04648161
#
# Stress axis : x y z
#
# Youngs Moduli (GPa) = 52.16319 68.78414 31.96412
#
# Poissons Ratio (x) = 0.35327 0.36752
# Poissons Ratio (y) = 0.26790 -0.23582
# Poissons Ratio (z) = 0.59976 -0.50746
#
# Static dielectric constant tensor:
#      x y z
#    x 1.720540 -0.001200 -0.008640 
#    y -0.001200 1.788680 -0.008480 
#    z -0.008640 -0.008480 1.717820 
# 
# From -- ./inp_files/243202.got.cif
#   From: 2010.05.17/outbox.cif.g08.bks.cpg/sg2_122_cif.got.tgz:243202.got - 2010.06.03 11:33:40.
