data_PCOD9029532
_publ_section_title
;
Structure prediction by ZEFSAII (Michael W. Deem and Ramdas Pophale) SiO2 
 PCOD9029532
Probable space group: P -1
;
_chemical_formula_sum "Si O2"
_cell_formula_units_Z 16
_cell_length_a 9.988419
_cell_length_b 16.213613
_cell_length_c 22.139045
_cell_angle_alpha 160.776562
_cell_angle_beta 137.255207
_cell_angle_gamma 39.378335
_cell_volume 748.778236
_symmetry_space_group_name_H-M "P -1"
_symmetry_group_IT_number 2
_symmetry_cell_setting 'triclinic'
loop_
_space_group_symop_operation_xyz
x,y,z
-x,-y,-z
loop_
_atom_site_type_symbol
_atom_site_label
_atom_site_fract_x
_atom_site_fract_y
_atom_site_fract_z
Si Si1 0.357639 0.972379 0.990072
Si Si2 0.841866 0.552170 0.075648
Si Si3 0.607967 0.979828 0.740860
Si Si4 0.796278 0.538431 0.413322
Si Si5 0.890604 0.317123 0.062026
Si Si6 0.468702 0.807245 0.690373
Si Si7 0.982836 0.130310 0.723137
Si Si8 0.271429 0.235261 0.587970
O O1 0.481221 0.013324 0.117505
O O2 0.135104 0.217245 0.090449
O O3 0.500000 0.000000 0.000000
O O4 0.289552 0.709587 0.784125
O O5 0.605620 0.766014 0.147994
O O6 0.878826 0.417337 0.059307
O O7 0.005145 0.700629 0.215169
O O8 0.873930 0.337452 0.884155
O O9 0.613319 0.797646 0.559445
O O10 0.617922 0.806023 0.682993
O O11 0.804272 0.075480 0.868036
O O12 0.812246 0.626684 0.409802
O O13 0.000000 0.500000 0.500000
O O14 0.744944 0.532042 0.209142
O O15 0.500000 0.500000 0.500000
O O16 0.225705 0.966620 0.705078
O O17 0.874568 0.913589 0.535012
O O18 0.500000 0.000000 0.500000
#
# Coordination Sequence:
#
# PCOD9029532 Si02
#       8
#     2   2   2   2   2   2   2   2
#     4  12  27  43  68 105 138 184 236 287 348 425
#     4  10  22  42  67  97 130 182 231 280 352 418
#     4  11  23  42  69  96 131 183 229 279 353 419
#     4  12  27  46  71 100 145 187 230 293 355 416
#     4  12  24  41  68  98 139 178 229 294 342 418
#     4  11  24  42  69 100 139 180 233 287 353 419
#     4  10  23  43  70  96 139 183 225 290 354 420
#     4  12  27  44  71 104 139 182 238 292 351 420
#
# _framework density 21.368141999999999
#
# number of rings (size 3 to 8) (size 9 to 14) (size 15 to 20)
#    0.000    0.750    1.250    5.625    5.250    5.500 
#    0.000    0.000    0.000    0.000    0.000    0.000 
#    0.000    0.000    0.000    0.000    0.000    0.000 
#
# Total GULP energy -89382.626246 kJ/mol
# GULP energy per Si atom -5586.414140 kJ/mol
# Density = 2.131951 g / cm^3
# Si number density = 21.368142 Si / 1000 Ang^3
#
#
#
# Elastic Constant Matrix: (Units=GPa)
#
#
# Indices 1 2 3 4 5 6 
#
# 1 110.3263 27.0465 38.1822 3.4853 5.6884 13.3702
# 2 27.0465 30.7641 2.6199 4.2768 23.5656 -14.4536
# 3 38.1822 2.6199 125.3178 3.9832 15.1651 1.4755
# 4 3.4853 4.2768 3.9832 29.1072 -5.4183 -2.8745
# 5 5.6884 23.5656 15.1651 -5.4183 50.4174 10.9174
# 6 13.3702 -14.4536 1.4755 -2.8745 10.9174 34.9522
#
#
#
# Elastic Compliance Matrix: (Units=1/GPa)
#
#
# Indices 1 2 3 4 5 6 
#
# 1 -0.013814 0.069969 0.008091 -0.013515 -0.045183 0.046878
# 2 0.069969 -0.199660 -0.032344 0.035281 0.130528 -0.145834
# 3 0.008091 -0.032344 0.004105 0.004441 0.018204 -0.021964
# 4 -0.013515 0.035281 0.004441 0.029371 -0.019205 0.027986
# 5 -0.045183 0.130528 0.018204 -0.019205 -0.062787 0.088524
# 6 0.046878 -0.145834 -0.021964 0.027986 0.088524 -0.074050
#
#
# Mechanical properties :
#
#
# Convention : Reuss Voigt Hill
#
# Bulk Modulus (GPa) = -8.47917 44.67839 18.09961
# Shear Modulus (GPa) = -11.17121 36.13266 12.48073
#
# Velocity S-wave (km/s) = -2.28896 4.11659 2.41940
# Velocity P-wave (km/s) = 3.31097 6.59919 4.03651
#
# Compressibility (1/GPa) = -0.11793607
#
# Stress axis : x y z
#
# Youngs Moduli (GPa) = -72.39163 -5.00850 243.59624
#
# Poissons Ratio (x) = 0.35044 -1.97103
# Poissons Ratio (y) = 5.06519 7.87894
# Poissons Ratio (z) = 0.58575 -0.16200
#
# Static dielectric constant tensor:
#      x y z
#    x 1.784720 0.041060 -0.024500 
#    y 0.041060 1.855280 -0.060530 
#    z -0.024500 -0.060530 1.822460 
# 
# From -- ./inp_files/184819.got.cif
#   From: 2010.05.17/outbox.cif.g08.bks.cpg/sg2_93_cif.got.tgz:184819.got - 2010.06.03 11:33:40.
