data_PCOD9029102
_publ_section_title
;
Structure prediction by ZEFSAII (Michael W. Deem and Ramdas Pophale) SiO2 
 PCOD9029102
Probable space group: P -1
;
_chemical_formula_sum "Si O2"
_cell_formula_units_Z 16
_cell_length_a 31.349162
_cell_length_b 12.394754
_cell_length_c 18.740737
_cell_angle_alpha 152.216200
_cell_angle_beta 19.424221
_cell_angle_gamma 161.945487
_cell_volume 745.489256
_symmetry_space_group_name_H-M "P -1"
_symmetry_group_IT_number 2
_symmetry_cell_setting 'triclinic'
loop_
_space_group_symop_operation_xyz
x,y,z
-x,-y,-z
loop_
_atom_site_type_symbol
_atom_site_label
_atom_site_fract_x
_atom_site_fract_y
_atom_site_fract_z
Si Si1 0.102993 0.084529 0.659093
Si Si2 0.064541 0.666903 0.918111
Si Si3 0.954386 0.685972 0.800174
Si Si4 0.566966 0.444372 0.795076
Si Si5 0.030207 0.820097 0.470386
Si Si6 0.283107 0.239967 0.717964
Si Si7 0.785469 0.347833 0.450845
Si Si8 0.525473 0.757783 0.330754
O O1 0.329970 0.387455 0.456949
O O2 0.992624 0.905867 0.653128
O O3 0.020701 0.795824 0.677927
O O4 0.058929 0.276886 0.873556
O O5 0.058269 0.459602 0.747179
O O6 0.290570 0.035256 0.788892
O O7 0.000000 0.500000 0.000000
O O8 0.924614 0.382739 0.694913
O O9 0.772057 0.603933 0.059584
O O10 0.135612 0.030708 0.761545
O O11 0.597753 0.222715 0.643207
O O12 0.445668 0.296889 0.827341
O O13 0.780776 0.818280 0.653397
O O14 0.500000 0.500000 0.000000
O O15 0.863122 0.582120 0.535454
O O16 0.500000 0.500000 0.500000
O O17 0.242014 0.955131 0.661889
O O18 0.500000 0.000000 0.500000
#
# Coordination Sequence:
#
# PCOD9029102 Si02
#       8
#     2   2   2   2   2   2   2   2
#     4  11  23  41  66  91 128 168 207 261 314 378
#     4  12  23  39  65  92 126 165 210 261 313 366
#     4  10  22  42  66  92 124 171 209 255 320 368
#     4  11  25  39  63  91 127 169 202 263 322 372
#     4  10  24  43  61  92 130 163 213 257 314 386
#     4  10  23  40  65  98 127 159 213 265 305 374
#     4  11  23  42  63  95 123 167 212 256 320 370
#     4  11  23  41  59  97 125 161 216 259 308 379
#
# _framework density 21.462416000000001
#
# number of rings (size 3 to 8) (size 9 to 14) (size 15 to 20)
#    0.000    1.250    3.750    1.500    7.000    0.000 
#    0.000    0.000    0.000    4.500    0.000    0.000 
#    0.000    0.000    0.000    0.000    0.000    0.000 
#
# Total GULP energy -89390.222759 kJ/mol
# GULP energy per Si atom -5586.888922 kJ/mol
# Density = 2.141357 g / cm^3
# Si number density = 21.462416 Si / 1000 Ang^3
#
#
#
# Elastic Constant Matrix: (Units=GPa)
#
#
# Indices 1 2 3 4 5 6 
#
# 1 112.6409 11.1087 30.4041 -8.5337 23.1290 3.3352
# 2 11.1087 33.2883 8.1134 -1.7648 5.1657 0.2144
# 3 30.4041 8.1134 95.7951 1.1149 19.9182 -0.0457
# 4 -8.5337 -1.7648 1.1149 28.4824 3.4042 -1.6096
# 5 23.1290 5.1657 19.9182 3.4042 38.0613 4.9534
# 6 3.3352 0.2144 -0.0457 -1.6096 4.9534 32.2418
#
#
#
# Elastic Compliance Matrix: (Units=1/GPa)
#
#
# Indices 1 2 3 4 5 6 
#
# 1 0.011154 -0.002087 -0.002230 0.003974 -0.005674 -0.000073
# 2 -0.002087 0.031574 -0.001526 0.001708 -0.002431 0.000463
# 3 -0.002230 -0.001526 0.012314 -0.000596 -0.004958 0.000990
# 4 0.003974 0.001708 -0.000596 0.037276 -0.005975 0.002356
# 5 -0.005674 -0.002431 -0.004958 -0.005975 0.033817 -0.004898
# 6 -0.000073 0.000463 0.000990 0.002356 -0.004898 0.031892
#
#
# Mechanical properties :
#
#
# Convention : Reuss Voigt Hill
#
# Bulk Modulus (GPa) = 23.06483 37.88629 30.47556
# Shear Modulus (GPa) = 27.14964 32.56363 29.85664
#
# Velocity S-wave (km/s) = 3.56052 3.89940 3.73381
# Velocity P-wave (km/s) = 5.26052 6.16153 5.72877
#
# Compressibility (1/GPa) = 0.04335605
#
# Stress axis : x y z
#
# Youngs Moduli (GPa) = 89.65657 31.67181 81.20747
#
# Poissons Ratio (x) = 0.06610 0.18108
# Poissons Ratio (y) = 0.18712 0.12391
# Poissons Ratio (z) = 0.19992 0.04833
#
# Static dielectric constant tensor:
#      x y z
#    x 1.835340 -0.020540 0.016930 
#    y -0.020540 1.806120 0.017310 
#    z 0.016930 0.017310 1.787090 
# 
# From -- ./inp_files/272605.got.cif
#   From: 2010.05.17/outbox.cif.g08.bks.cpg/sg2_137_cif.got.tgz:272605.got - 2010.06.03 11:33:40.
