data_PCOD9029231
_publ_section_title
;
Structure prediction by ZEFSAII (Michael W. Deem and Ramdas Pophale) SiO2 
 PCOD9029231
Probable space group: P -1
;
_chemical_formula_sum "Si O2"
_cell_formula_units_Z 10
_cell_length_a 7.646947
_cell_length_b 6.655810
_cell_length_c 14.554022
_cell_angle_alpha 62.297127
_cell_angle_beta 131.044713
_cell_angle_gamma 94.088816
_cell_volume 463.275936
_symmetry_space_group_name_H-M "P -1"
_symmetry_group_IT_number 2
_symmetry_cell_setting 'triclinic'
loop_
_space_group_symop_operation_xyz
x,y,z
-x,-y,-z
loop_
_atom_site_type_symbol
_atom_site_label
_atom_site_fract_x
_atom_site_fract_y
_atom_site_fract_z
Si Si1 0.952437 0.813246 0.627203
Si Si2 0.510043 0.709599 0.393054
Si Si3 0.074060 0.135730 0.078187
Si Si4 0.810620 0.365409 0.434031
Si Si5 0.240032 0.536405 0.953300
O O1 0.722636 0.793048 0.494202
O O2 0.175249 0.701826 0.654032
O O3 0.028908 0.650030 0.778360
O O4 0.893281 0.098125 0.565462
O O5 0.500000 0.500000 0.500000
O O6 0.564697 0.566679 0.344657
O O7 0.269709 0.942241 0.251343
O O8 0.837477 0.275638 0.029199
O O9 0.207604 0.303441 0.039395
O O10 0.000000 0.000000 0.000000
O O11 0.000000 0.500000 0.500000
O O12 0.500000 0.500000 0.000000
#
# Coordination Sequence:
#
# PCOD9029231 Si02
#       5
#     2   2   2   2   2
#     4  10  22  42  66  97 131 173 225 277 331 401
#     4  11  23  41  69  98 132 175 222 283 339 395
#     4  11  27  47  67 102 141 178 231 280 341 413
#     4   9  21  37  65  96 128 165 224 271 329 393
#     4  11  27  45  70  99 139 185 225 277 348 406
#
# _framework density 21.585408999999999
#
# number of rings (size 3 to 8) (size 9 to 14) (size 15 to 20)
#    0.000    1.600    0.000    2.400   11.200    7.200 
#    0.000    0.000    0.000    0.000    0.000    0.000 
#    0.000    0.000    0.000    0.000    0.000    0.000 
#
# Total GULP energy -55786.013238 kJ/mol
# GULP energy per Si atom -5578.601324 kJ/mol
# Density = 2.153628 g / cm^3
# Si number density = 21.585409 Si / 1000 Ang^3
#
#
#
# Elastic Constant Matrix: (Units=GPa)
#
#
# Indices 1 2 3 4 5 6 
#
# 1 123.0286 58.1560 35.0920 -15.0343 4.0284 -18.9368
# 2 58.1560 137.1836 46.9371 -19.0258 10.2926 -13.6949
# 3 35.0920 46.9371 109.8056 -10.7757 -11.0097 2.3199
# 4 -15.0343 -19.0258 -10.7757 38.0165 0.6507 -6.1107
# 5 4.0284 10.2926 -11.0097 0.6507 32.7509 -5.6263
# 6 -18.9368 -13.6949 2.3199 -6.1107 -5.6263 29.8640
#
#
#
# Elastic Compliance Matrix: (Units=1/GPa)
#
#
# Indices 1 2 3 4 5 6 
#
# 1 0.011698 -0.002977 -0.002273 0.003610 -0.000147 0.006940
# 2 -0.002977 0.011056 -0.003855 0.003900 -0.003872 0.003551
# 3 -0.002273 -0.003855 0.012048 -0.000014 0.004991 -0.003208
# 4 0.003610 0.003900 -0.000014 0.031360 -0.000511 0.010399
# 5 -0.000147 -0.003872 0.004991 -0.000511 0.034156 0.004074
# 6 0.006940 0.003551 -0.003208 0.010399 0.004074 0.042659
#
#
# Mechanical properties :
#
#
# Convention : Reuss Voigt Hill
#
# Bulk Modulus (GPa) = 60.26954 72.26533 66.26744
# Shear Modulus (GPa) = 29.99062 35.44847 32.71954
#
# Velocity S-wave (km/s) = 3.73150 4.05685 3.89757
# Velocity P-wave (km/s) = 6.82257 7.44953 7.14294
#
# Compressibility (1/GPa) = 0.01659213
#
# Stress axis : x y z
#
# Youngs Moduli (GPa) = 85.48539 90.44492 83.00016
#
# Poissons Ratio (x) = 0.26924 0.18867
# Poissons Ratio (y) = 0.25447 0.31999
# Poissons Ratio (z) = 0.19432 0.34869
#
# Static dielectric constant tensor:
#      x y z
#    x 1.912750 -0.020930 0.006510 
#    y -0.020930 1.775840 -0.010940 
#    z 0.006510 -0.010940 1.793820 
# 
# From -- ./inp_files/486379.got.cif
#   From: 2010.05.17/outbox.cif.g08.bks.cpg/sg2_244_cif.got.tgz:486379.got - 2010.06.03 11:33:40.
