data_PCOD9029995
_publ_section_title
;
Structure prediction by ZEFSAII (Michael W. Deem and Ramdas Pophale) SiO2 
 PCOD9029995
Probable space group: P -1
;
_chemical_formula_sum "Si O2"
_cell_formula_units_Z 16
_cell_length_a 11.511011
_cell_length_b 10.155258
_cell_length_c 7.186513
_cell_angle_alpha 107.427293
_cell_angle_beta 63.142793
_cell_angle_gamma 116.867581
_cell_volume 663.752162
_symmetry_space_group_name_H-M "P -1"
_symmetry_group_IT_number 2
_symmetry_cell_setting 'triclinic'
loop_
_space_group_symop_operation_xyz
x,y,z
-x,-y,-z
loop_
_atom_site_type_symbol
_atom_site_label
_atom_site_fract_x
_atom_site_fract_y
_atom_site_fract_z
Si Si1 0.546844 0.705600 0.442293
Si Si2 0.412547 0.981190 0.328592
Si Si3 0.973234 0.548477 0.242770
Si Si4 0.287162 0.994201 0.028544
Si Si5 0.168578 0.721991 0.483644
Si Si6 0.704892 0.573440 0.537745
Si Si7 0.728255 0.695946 0.967898
Si Si8 0.967933 0.148536 0.093854
O O1 0.581265 0.880418 0.491155
O O2 0.624349 0.671056 0.550109
O O3 0.386599 0.594759 0.528307
O O4 0.611347 0.655045 0.193973
O O5 0.429678 0.991734 0.833101
O O6 0.317085 0.981288 0.218051
O O7 0.332574 0.818009 0.400923
O O8 0.893158 0.405383 0.371051
O O9 0.861041 0.628074 0.366950
O O10 0.000000 0.500000 0.000000
O O11 0.291616 0.414224 0.236665
O O12 0.271663 0.149955 0.056010
O O13 0.148756 0.868532 0.986797
O O14 0.111205 0.646816 0.296982
O O15 0.099798 0.838043 0.653291
O O16 0.878545 0.723118 0.964343
O O17 0.000000 0.000000 0.000000
#
# Coordination Sequence:
#
# PCOD9029995 Si02
#       8
#     2   2   2   2   2   2   2   2
#     4  11  26  43  73 108 142 192 237 295 361 423
#     4  11  24  45  71 111 145 186 245 297 355 431
#     4  11  28  49  73 100 143 191 238 299 361 428
#     4  10  24  41  71 107 152 188 233 297 363 418
#     4  11  26  46  71 107 137 184 245 291 362 427
#     4  11  25  48  70 102 147 187 246 291 357 433
#     4  11  22  46  70 102 143 193 239 292 355 426
#     4  10  22  42  69 104 140 184 234 291 359 420
#
# _framework density 24.105381000000001
#
# number of rings (size 3 to 8) (size 9 to 14) (size 15 to 20)
#    0.000    1.250    2.500    1.875    7.000    2.000 
#    0.000    2.500    0.000    0.000    0.000    0.000 
#    0.000    0.000    0.000    0.000    0.000    0.000 
#
# Total GULP energy -89556.070166 kJ/mol
# GULP energy per Si atom -5597.254385 kJ/mol
# Density = 2.405052 g / cm^3
# Si number density = 24.105381 Si / 1000 Ang^3
#
#
#
# Elastic Constant Matrix: (Units=GPa)
#
#
# Indices 1 2 3 4 5 6 
#
# 1 179.3185 42.1144 51.0246 0.8387 10.1521 20.3489
# 2 42.1144 72.0188 -4.3251 -0.5855 7.3224 12.7434
# 3 51.0246 -4.3251 102.6977 10.2966 19.9283 14.4089
# 4 0.8387 -0.5855 10.2966 31.1738 3.4095 5.9395
# 5 10.1521 7.3224 19.9283 3.4095 46.5493 -1.3054
# 6 20.3489 12.7434 14.4089 5.9395 -1.3054 33.9767
#
#
#
# Elastic Compliance Matrix: (Units=1/GPa)
#
#
# Indices 1 2 3 4 5 6 
#
# 1 0.008017 -0.004751 -0.004246 0.001293 0.000682 -0.001419
# 2 -0.004751 0.018506 0.004782 0.000565 -0.004143 -0.006381
# 3 -0.004246 0.004782 0.014166 -0.002890 -0.005818 -0.004976
# 4 0.001293 0.000565 -0.002890 0.034317 -0.001811 -0.005829
# 5 0.000682 -0.004143 -0.005818 -0.001811 0.024746 0.004880
# 6 -0.001419 -0.006381 -0.004976 -0.005829 0.004880 0.035992
#
#
# Mechanical properties :
#
#
# Convention : Reuss Voigt Hill
#
# Bulk Modulus (GPa) = 30.99964 59.07364 45.03664
# Shear Modulus (GPa) = 32.27350 40.02135 36.14743
#
# Velocity S-wave (km/s) = 3.66300 4.07906 3.87661
# Velocity P-wave (km/s) = 5.54780 6.83700 6.22586
#
# Compressibility (1/GPa) = 0.03225844
#
# Stress axis : x y z
#
# Youngs Moduli (GPa) = 124.73389 54.03765 70.59403
#
# Poissons Ratio (x) = 0.25673 0.29976
# Poissons Ratio (y) = 0.59261 -0.33761
# Poissons Ratio (z) = 0.52966 -0.25843
#
# Static dielectric constant tensor:
#      x y z
#    x 1.941130 -0.040970 -0.005470 
#    y -0.040970 1.944440 0.011300 
#    z -0.005470 0.011300 1.891110 
# 
# From -- ./inp_files/421565.got.cif
#   From: 2010.05.17/outbox.cif.g08.bks.cpg/sg2_211_cif.got.tgz:421565.got - 2010.06.03 11:33:40.
