data_PCOD9029903
_publ_section_title
;
Structure prediction by ZEFSAII (Michael W. Deem and Ramdas Pophale) SiO2 
 PCOD9029903
Probable space group: P -1
;
_chemical_formula_sum "Si O2"
_cell_formula_units_Z 16
_cell_length_a 8.819328
_cell_length_b 6.896150
_cell_length_c 17.030114
_cell_angle_alpha 52.468818
_cell_angle_beta 121.925776
_cell_angle_gamma 118.970869
_cell_volume 676.585691
_symmetry_space_group_name_H-M "P -1"
_symmetry_group_IT_number 2
_symmetry_cell_setting 'triclinic'
loop_
_space_group_symop_operation_xyz
x,y,z
-x,-y,-z
loop_
_atom_site_type_symbol
_atom_site_label
_atom_site_fract_x
_atom_site_fract_y
_atom_site_fract_z
Si Si1 0.227731 0.046038 0.227425
Si Si2 0.847422 0.756472 0.547120
Si Si3 0.727801 0.582066 0.402480
Si Si4 0.399468 0.732475 0.918599
Si Si5 0.785139 0.451053 0.938437
Si Si6 0.045219 0.874139 0.730826
Si Si7 0.581198 0.082163 0.417597
Si Si8 0.365393 0.745140 0.220599
O O1 0.247459 0.278122 0.116778
O O2 0.417825 0.106639 0.311577
O O3 0.064092 0.062179 0.238271
O O4 0.229944 0.804460 0.235579
O O5 0.805515 0.543834 0.520344
O O6 0.905932 0.739570 0.657491
O O7 0.665000 0.859043 0.466739
O O8 0.000000 0.000000 0.500000
O O9 0.730826 0.345100 0.406312
O O10 0.516008 0.607112 0.331515
O O11 0.846857 0.849084 0.338548
O O12 0.197661 0.713010 0.827809
O O13 0.521759 0.986736 0.851267
O O14 0.500000 0.500000 0.000000
O O15 0.342363 0.750028 0.990037
O O16 0.737813 0.396728 0.847977
O O17 0.000000 0.500000 0.000000
O O18 0.500000 0.000000 0.500000
#
# Coordination Sequence:
#
# PCOD9029903 Si02
#       8
#     2   2   2   2   2   2   2   2
#     4  12  23  45  67 102 137 177 228 286 339 399
#     4  10  22  42  68  98 137 177 224 278 332 406
#     4  10  23  44  69  98 136 186 220 274 345 404
#     4  11  23  45  73  99 132 188 226 275 343 401
#     4  12  25  45  68  99 141 171 228 292 337 395
#     4  10  23  44  67 101 143 172 231 287 330 408
#     4  12  24  43  69  98 139 178 224 279 338 406
#     4  11  24  44  72  99 136 180 231 273 340 413
#
# _framework density 23.648150999999999
#
# number of rings (size 3 to 8) (size 9 to 14) (size 15 to 20)
#    0.000    1.000    6.250    0.375    0.000    3.000 
#    2.250    2.500    2.750    0.000    0.000    0.000 
#    0.000    0.000    0.000    0.000    0.000    0.000 
#
# Total GULP energy -89378.977903 kJ/mol
# GULP energy per Si atom -5586.186119 kJ/mol
# Density = 2.359433 g / cm^3
# Si number density = 23.648151 Si / 1000 Ang^3
#
#
#
# Elastic Constant Matrix: (Units=GPa)
#
#
# Indices 1 2 3 4 5 6 
#
# 1 102.0127 22.3216 36.4591 10.6481 5.7408 -6.6659
# 2 22.3216 108.8213 27.5631 14.0328 6.0243 -3.1670
# 3 36.4591 27.5631 102.1318 10.8290 14.4396 -4.5499
# 4 10.6481 14.0328 10.8290 38.2335 1.2527 -7.2856
# 5 5.7408 6.0243 14.4396 1.2527 42.8107 2.5349
# 6 -6.6659 -3.1670 -4.5499 -7.2856 2.5349 26.7689
#
#
#
# Elastic Compliance Matrix: (Units=1/GPa)
#
#
# Indices 1 2 3 4 5 6 
#
# 1 0.011621 -0.001235 -0.003549 -0.001431 -0.000251 0.001779
# 2 -0.001235 0.010342 -0.001975 -0.002906 -0.000529 -0.000160
# 3 -0.003549 -0.001975 0.012267 -0.001481 -0.003393 0.000886
# 4 -0.001431 -0.002906 -0.001481 0.029392 -0.000178 0.007064
# 5 -0.000251 -0.000529 -0.003393 -0.000178 0.024800 -0.003099
# 6 0.001779 -0.000160 0.000886 0.007064 -0.003099 0.040147
#
#
# Mechanical properties :
#
#
# Convention : Reuss Voigt Hill
#
# Bulk Modulus (GPa) = 48.27574 53.96149 51.11862
# Shear Modulus (GPa) = 33.55929 36.67077 35.11503
#
# Velocity S-wave (km/s) = 3.77119 3.94214 3.85761
# Velocity P-wave (km/s) = 6.27862 6.60217 6.44243
#
# Compressibility (1/GPa) = 0.02071434
#
# Stress axis : x y z
#
# Youngs Moduli (GPa) = 86.05180 96.69194 81.51795
#
# Poissons Ratio (x) = 0.11938 0.28929
# Poissons Ratio (y) = 0.10624 0.16096
# Poissons Ratio (z) = 0.30538 0.19092
#
# Static dielectric constant tensor:
#      x y z
#    x 1.820750 0.055290 -0.056140 
#    y 0.055290 1.865240 -0.021740 
#    z -0.056140 -0.021740 1.895390 
# 
# From -- ./inp_files/138514.got.cif
#   From: 2010.05.17/outbox.cif.g08.bks.cpg/sg2_70_cif.got.tgz:138514.got - 2010.06.03 11:33:40.
