data_PCOD9029329
_publ_section_title
;
Structure prediction by ZEFSAII (Michael W. Deem and Ramdas Pophale) SiO2 
 PCOD9029329
Probable space group: P -1
;
_chemical_formula_sum "Si O2"
_cell_formula_units_Z 16
_cell_length_a 19.832744
_cell_length_b 6.694778
_cell_length_c 5.276719
_cell_angle_alpha 107.593598
_cell_angle_beta 113.909084
_cell_angle_gamma 76.787947
_cell_volume 606.002311
_symmetry_space_group_name_H-M "P -1"
_symmetry_group_IT_number 2
_symmetry_cell_setting 'triclinic'
loop_
_space_group_symop_operation_xyz
x,y,z
-x,-y,-z
loop_
_atom_site_type_symbol
_atom_site_label
_atom_site_fract_x
_atom_site_fract_y
_atom_site_fract_z
Si Si1 0.320432 0.230041 0.807310
Si Si2 0.473612 0.585856 0.770247
Si Si3 0.795391 0.479585 0.549972
Si Si4 0.252146 0.931607 0.969900
Si Si5 0.939025 0.225517 0.695711
Si Si6 0.474153 0.089002 0.769364
Si Si7 0.907366 0.971862 0.050881
Si Si8 0.324586 0.596726 0.304152
O O1 0.244421 0.328185 0.597681
O O2 0.384910 0.141904 0.682246
O O3 0.300609 0.062053 0.916713
O O4 0.353453 0.422750 0.074277
O O5 0.500000 0.500000 0.500000
O O6 0.496177 0.344310 0.860211
O O7 0.383095 0.604386 0.619543
O O8 0.487846 0.847962 0.853171
O O9 0.774193 0.264982 0.301212
O O10 0.883151 0.440260 0.698130
O O11 0.751583 0.481549 0.746081
O O12 0.176121 0.060348 0.009761
O O13 0.301307 0.820176 0.226561
O O14 0.931256 0.134198 0.365116
O O15 0.909394 0.075178 0.813630
O O16 0.025568 0.216354 0.891303
O O17 0.500000 0.000000 0.500000
#
# Coordination Sequence:
#
# PCOD9029329 Si02
#       8
#     2   2   2   2   2   2   2   2
#     4  11  26  46  73 104 147 190 245 318 373 447
#     4  12  26  49  75 100 140 190 243 305 380 449
#     4  10  22  42  67 102 141 195 246 299 366 446
#     4  10  23  43  69 107 144 191 246 301 373 441
#     4   9  17  34  66  98 141 190 241 291 356 431
#     4  12  29  51  72 105 142 189 248 311 383 453
#     4   9  17  35  63 102 141 188 238 296 354 435
#     4  11  24  45  73 102 144 191 246 305 376 449
#
# _framework density 26.402542
#
# number of rings (size 3 to 8) (size 9 to 14) (size 15 to 20)
#    0.000    1.500    2.500    1.500    5.250    2.000 
#    0.000    0.625    0.000    0.750    0.000    0.000 
#    0.000    0.000    0.000    0.000    0.000    0.125 
#
# Total GULP energy -89627.118467 kJ/mol
# GULP energy per Si atom -5601.694904 kJ/mol
# Density = 2.634245 g / cm^3
# Si number density = 26.402542 Si / 1000 Ang^3
#
#
#
# Elastic Constant Matrix: (Units=GPa)
#
#
# Indices 1 2 3 4 5 6 
#
# 1 151.3682 64.6891 73.2169 -0.2107 -7.8994 -31.1607
# 2 64.6891 149.9611 96.8127 -18.5280 6.1441 -8.1742
# 3 73.2169 96.8127 144.8342 -24.8298 -5.0864 -0.8256
# 4 -0.2107 -18.5280 -24.8298 75.7334 5.7056 4.4065
# 5 -7.8994 6.1441 -5.0864 5.7056 47.1361 -7.6397
# 6 -31.1607 -8.1742 -0.8256 4.4065 -7.6397 58.1316
#
#
#
# Elastic Compliance Matrix: (Units=1/GPa)
#
#
# Indices 1 2 3 4 5 6 
#
# 1 0.011072 -0.001876 -0.004640 -0.002528 0.002907 0.006179
# 2 -0.001876 0.012427 -0.007312 0.000836 -0.002791 0.000208
# 3 -0.004640 -0.007312 0.014687 0.003152 0.000822 -0.003438
# 4 -0.002528 0.000836 0.003152 0.014769 -0.002406 -0.002628
# 5 0.002907 -0.002791 0.000822 -0.002406 0.023160 0.004404
# 6 0.006179 0.000208 -0.003438 -0.002628 0.004404 0.021273
#
#
# Mechanical properties :
#
#
# Convention : Reuss Voigt Hill
#
# Bulk Modulus (GPa) = 94.94972 101.73344 98.34158
# Shear Modulus (GPa) = 38.89430 50.29655 44.59542
#
# Velocity S-wave (km/s) = 3.84230 4.36935 4.11427
# Velocity P-wave (km/s) = 7.46490 8.00439 7.73935
#
# Compressibility (1/GPa) = 0.01053189
#
# Stress axis : x y z
#
# Youngs Moduli (GPa) = 90.31449 80.47017 68.08710
#
# Poissons Ratio (x) = 0.15093 0.31590
# Poissons Ratio (y) = 0.16940 0.49785
# Poissons Ratio (z) = 0.41903 0.58840
#
# Static dielectric constant tensor:
#      x y z
#    x 2.051110 -0.036310 0.002970 
#    y -0.036310 2.121580 0.031040 
#    z 0.002970 0.031040 2.044960 
# 
# From -- ./inp_files/56145.got.cif
#   From: 2010.05.17/outbox.cif.g08.bks.cpg/sg2_29_cif.got.tgz:56145.got - 2010.06.03 11:33:40.
