data_PCOD9029456
_publ_section_title
;
Structure prediction by ZEFSAII (Michael W. Deem and Ramdas Pophale) SiO2 
 PCOD9029456
Probable space group: P -1
;
_chemical_formula_sum "Si O2"
_cell_formula_units_Z 16
_cell_length_a 8.274699
_cell_length_b 10.147928
_cell_length_c 16.449175
_cell_angle_alpha 36.555660
_cell_angle_beta 80.724486
_cell_angle_gamma 89.472150
_cell_volume 794.749013
_symmetry_space_group_name_H-M "P -1"
_symmetry_group_IT_number 2
_symmetry_cell_setting 'triclinic'
loop_
_space_group_symop_operation_xyz
x,y,z
-x,-y,-z
loop_
_atom_site_type_symbol
_atom_site_label
_atom_site_fract_x
_atom_site_fract_y
_atom_site_fract_z
Si Si1 0.265268 0.063366 0.942973
Si Si2 0.385751 0.888767 0.188336
Si Si3 0.102883 0.476620 0.583233
Si Si4 0.015060 0.355468 0.826120
Si Si5 0.409682 0.991019 0.598179
Si Si6 0.981195 0.158904 0.344067
Si Si7 0.356027 0.407173 0.494825
Si Si8 0.286067 0.996454 0.318241
O O1 0.417633 0.086998 0.857021
O O2 0.197649 0.292692 0.848315
O O3 0.318640 0.984068 0.065511
O O4 0.115463 0.863604 0.024742
O O5 0.321362 0.622743 0.342232
O O6 0.338305 0.011006 0.212319
O O7 0.001290 0.387433 0.714689
O O8 0.210997 0.306754 0.620680
O O9 0.000000 0.500000 0.500000
O O10 0.215242 0.724481 0.473539
O O11 0.989027 0.581890 0.758313
O O12 0.209928 0.887986 0.652675
O O13 0.545294 0.913035 0.687230
O O14 0.500000 0.000000 0.500000
O O15 0.402597 0.234780 0.513790
O O16 0.129164 0.110399 0.297156
O O17 0.000000 0.000000 0.500000
O O18 0.500000 0.500000 0.500000
#
# Coordination Sequence:
#
# PCOD9029456 Si02
#       8
#     2   2   2   2   2   2   2   2
#     4  10  24  42  67  90 130 184 229 279 318 392
#     4  10  22  42  67  95 128 173 239 274 328 398
#     4  11  20  34  65  99 130 164 214 287 349 383
#     4  11  23  43  62  97 134 176 226 276 332 413
#     4  12  24  38  63 105 140 177 205 272 374 405
#     4  12  25  42  65 100 143 172 217 276 361 414
#     4  11  21  36  65 101 129 162 221 290 343 396
#     4  11  23  43  64 103 136 171 222 283 344 412
#
# _framework density 20.132144
#
# number of rings (size 3 to 8) (size 9 to 14) (size 15 to 20)
#    0.000    1.000    5.000    3.000    3.500    0.000 
#    4.500    1.250    0.000    0.000    0.000    0.000 
#    0.000    0.000    0.000    0.000    0.000    0.000 
#
# Total GULP energy -89151.902547 kJ/mol
# GULP energy per Si atom -5571.993909 kJ/mol
# Density = 2.008632 g / cm^3
# Si number density = 20.132144 Si / 1000 Ang^3
#
#
#
# Elastic Constant Matrix: (Units=GPa)
#
#
# Indices 1 2 3 4 5 6 
#
# 1 142.5817 54.3399 25.7704 5.5344 -4.8488 -24.4197
# 2 54.3399 148.0842 32.3505 3.2085 -5.7542 -46.4890
# 3 25.7704 32.3505 53.4915 1.1780 -2.7225 -14.0736
# 4 5.5344 3.2085 1.1780 30.0670 -8.2291 0.7948
# 5 -4.8488 -5.7542 -2.7225 -8.2291 32.6566 7.7024
# 6 -24.4197 -46.4890 -14.0736 0.7948 7.7024 45.8253
#
#
#
# Elastic Compliance Matrix: (Units=1/GPa)
#
#
# Indices 1 2 3 4 5 6 
#
# 1 0.008581 -0.002030 -0.002404 -0.001329 -0.000045 0.001806
# 2 -0.002030 0.011172 -0.003324 -0.001254 -0.001154 0.009447
# 3 -0.002404 -0.003324 0.022457 -0.000028 0.000409 0.002175
# 4 -0.001329 -0.001254 -0.000028 0.036423 0.009763 -0.004261
# 5 -0.000045 -0.001154 0.000409 0.009763 0.034568 -0.007049
# 6 0.001806 0.009447 0.002175 -0.004261 -0.007049 0.034295
#
#
# Mechanical properties :
#
#
# Convention : Reuss Voigt Hill
#
# Bulk Modulus (GPa) = 37.46281 63.23099 50.34690
# Shear Modulus (GPa) = 29.08479 37.15620 33.12050
#
# Velocity S-wave (km/s) = 3.80504 4.30072 4.06045
# Velocity P-wave (km/s) = 6.16062 7.49252 6.85897
#
# Compressibility (1/GPa) = 0.02669314
#
# Stress axis : x y z
#
# Youngs Moduli (GPa) = 116.53745 89.50931 44.52932
#
# Poissons Ratio (x) = 0.18166 0.10707
# Poissons Ratio (y) = 0.23652 0.14804
# Poissons Ratio (z) = 0.28021 0.29757
#
# Static dielectric constant tensor:
#      x y z
#    x 1.796860 0.022370 -0.007660 
#    y 0.022370 1.680710 0.011130 
#    z -0.007660 0.011130 1.710070 
# 
# From -- ./inp_files/494266.got.cif
#   From: 2010.05.17/outbox.cif.g08.bks.cpg/sg2_248_cif.got.tgz:494266.got - 2010.06.03 11:33:40.
