data_PCOD9029485
_publ_section_title
;
Structure prediction by ZEFSAII (Michael W. Deem and Ramdas Pophale) SiO2 
 PCOD9029485
Probable space group: P -1
;
_chemical_formula_sum "Si O2"
_cell_formula_units_Z 14
_cell_length_a 8.043183
_cell_length_b 12.185800
_cell_length_c 11.124079
_cell_angle_alpha 69.966945
_cell_angle_beta 39.975998
_cell_angle_gamma 81.323777
_cell_volume 646.740290
_symmetry_space_group_name_H-M "P -1"
_symmetry_group_IT_number 2
_symmetry_cell_setting 'triclinic'
loop_
_space_group_symop_operation_xyz
x,y,z
-x,-y,-z
loop_
_atom_site_type_symbol
_atom_site_label
_atom_site_fract_x
_atom_site_fract_y
_atom_site_fract_z
Si Si1 0.710872 0.921274 0.453898
Si Si2 0.803037 0.717079 0.106886
Si Si3 0.782343 0.394106 0.829619
Si Si4 0.348719 0.498301 0.889463
Si Si5 0.279151 0.040534 0.026207
Si Si6 0.662137 0.158202 0.106982
Si Si7 0.339927 0.334575 0.534249
O O1 0.605939 0.870310 0.659830
O O2 0.707632 0.805607 0.416645
O O3 0.500000 0.000000 0.500000
O O4 0.997763 0.001051 0.260756
O O5 0.387873 0.541805 0.188928
O O6 0.637592 0.658198 0.336405
O O7 0.817939 0.616080 0.039638
O O8 0.673199 0.821511 0.083976
O O9 0.076305 0.386275 0.631544
O O10 0.783529 0.455785 0.937264
O O11 0.644489 0.256999 0.979321
O O12 0.089492 0.781909 0.971515
O O13 0.435201 0.597377 0.702278
O O14 0.500000 0.000000 0.000000
O O15 0.273874 0.962064 0.938086
#
# Coordination Sequence:
#
# PCOD9029485 Si02
#       7
#     2   2   2   2   2   2   2
#     4  12  23  42  72  97 133 178 228 279 337 402
#     4  11  23  41  67  99 135 177 222 281 336 402
#     4  10  22  42  67  95 136 181 221 281 341 397
#     4  11  23  42  65 101 135 175 230 275 339 405
#     4  12  25  45  69  99 138 177 229 284 342 401
#     4  11  22  43  67  95 134 179 226 278 342 398
#     4  11  23  42  67  97 133 181 224 280 337 403
#
# _framework density 21.647020999999999
#
# number of rings (size 3 to 8) (size 9 to 14) (size 15 to 20)
#    0.000    0.857    5.714    3.000    0.000    2.857 
#    2.571    0.000    0.000    0.000    0.000    0.000 
#    0.000    0.000    0.000    0.000    0.000    0.000 
#
# Total GULP energy -78321.921875 kJ/mol
# GULP energy per Si atom -5594.422991 kJ/mol
# Density = 2.159775 g / cm^3
# Si number density = 21.647021 Si / 1000 Ang^3
#
#
#
# Elastic Constant Matrix: (Units=GPa)
#
#
# Indices 1 2 3 4 5 6 
#
# 1 89.9249 25.3061 27.5538 -0.4123 -12.1314 -11.3497
# 2 25.3061 98.0969 20.0671 3.2835 -6.9382 -6.6125
# 3 27.5538 20.0671 106.0592 9.3139 1.1572 1.7579
# 4 -0.4123 3.2835 9.3139 30.1192 -13.6000 1.0987
# 5 -12.1314 -6.9382 1.1572 -13.6000 23.6539 3.8204
# 6 -11.3497 -6.6125 1.7579 1.0987 3.8204 36.9800
#
#
#
# Elastic Compliance Matrix: (Units=1/GPa)
#
#
# Indices 1 2 3 4 5 6 
#
# 1 0.014821 -0.002254 -0.004134 0.006230 0.010223 0.003101
# 2 -0.002254 0.011332 -0.001616 0.000160 0.002148 0.001185
# 3 -0.004134 -0.001616 0.011460 -0.006367 -0.006617 -0.001230
# 4 0.006230 0.000160 -0.006367 0.050152 0.032815 -0.002637
# 5 0.010223 0.002148 -0.006617 0.032815 0.068013 -0.004165
# 6 0.003101 0.001185 -0.001230 -0.002637 -0.004165 0.028772
#
#
# Mechanical properties :
#
#
# Convention : Reuss Voigt Hill
#
# Bulk Modulus (GPa) = 46.28391 48.88166 47.58278
# Shear Modulus (GPa) = 24.06631 32.89421 28.48026
#
# Velocity S-wave (km/s) = 3.33793 3.90240 3.63115
# Velocity P-wave (km/s) = 6.02356 6.55250 6.29359
#
# Compressibility (1/GPa) = 0.02160578
#
# Stress axis : x y z
#
# Youngs Moduli (GPa) = 67.47410 88.24265 87.25917
#
# Poissons Ratio (x) = 0.19890 0.36072
# Poissons Ratio (y) = 0.15209 0.14098
# Poissons Ratio (z) = 0.27893 0.14257
#
# Static dielectric constant tensor:
#      x y z
#    x 1.823510 -0.003150 0.011700 
#    y -0.003150 1.791640 0.004070 
#    z 0.011700 0.004070 1.793580 
# 
# From -- ./inp_files/389896.got.cif
#   From: 2010.05.17/outbox.cif.g08.bks.cpg/sg2_195_cif.got.tgz:389896.got - 2010.06.03 11:33:40.
