data_PCOD9029669
_publ_section_title
;
Structure prediction by ZEFSAII (Michael W. Deem and Ramdas Pophale) SiO2 
 PCOD9029669
Probable space group: P -1
;
_chemical_formula_sum "Si O2"
_cell_formula_units_Z 14
_cell_length_a 5.156511
_cell_length_b 12.485204
_cell_length_c 11.642768
_cell_angle_alpha 62.383716
_cell_angle_beta 58.230259
_cell_angle_gamma 81.290516
_cell_volume 560.369090
_symmetry_space_group_name_H-M "P -1"
_symmetry_group_IT_number 2
_symmetry_cell_setting 'triclinic'
loop_
_space_group_symop_operation_xyz
x,y,z
-x,-y,-z
loop_
_atom_site_type_symbol
_atom_site_label
_atom_site_fract_x
_atom_site_fract_y
_atom_site_fract_z
Si Si1 0.375861 0.988592 0.726002
Si Si2 0.147025 0.735694 0.658663
Si Si3 0.093603 0.450714 0.780376
Si Si4 0.234810 0.612132 0.337524
Si Si5 0.029737 0.245626 0.058821
Si Si6 0.790922 0.883770 0.502330
Si Si7 0.527209 0.125659 0.856363
O O1 0.129654 0.033650 0.670239
O O2 0.419743 0.077349 0.779195
O O3 0.666967 0.969848 0.587283
O O4 0.256340 0.852684 0.860445
O O5 0.135670 0.594131 0.710135
O O6 0.491490 0.794418 0.576190
O O7 0.951665 0.755886 0.808131
O O8 0.014293 0.800793 0.550043
O O9 0.426276 0.411282 0.687376
O O10 0.828002 0.409605 0.771923
O O11 0.001824 0.380005 0.954328
O O12 0.207272 0.757622 0.285352
O O13 0.000000 0.500000 0.500000
O O14 0.299399 0.197393 0.948803
O O15 0.500000 0.000000 0.000000
#
# Coordination Sequence:
#
# PCOD9029669 Si02
#       7
#     2   2   2   2   2   2   2
#     4  10  22  42  68 102 144 185 233 290 353 415
#     4  11  23  44  70 102 140 182 236 285 352 413
#     4  11  24  46  70 103 137 186 235 287 352 416
#     4  11  26  47  71 102 146 183 238 288 351 426
#     4  10  23  43  69 102 143 181 235 291 347 420
#     4  10  24  42  68 104 140 184 233 291 343 419
#     4  11  23  42  71 108 139 190 233 292 358 420
#
# _framework density 24.983536000000001
#
# number of rings (size 3 to 8) (size 9 to 14) (size 15 to 20)
#    0.000    1.429    0.000    3.857    2.000   10.857 
#    7.714    7.143    0.000    0.000    0.000    0.000 
#    0.000    0.000    0.000    0.000    0.000    0.000 
#
# Total GULP energy -78284.184256 kJ/mol
# GULP energy per Si atom -5591.727447 kJ/mol
# Density = 2.492667 g / cm^3
# Si number density = 24.983536 Si / 1000 Ang^3
#
#
#
# Elastic Constant Matrix: (Units=GPa)
#
#
# Indices 1 2 3 4 5 6 
#
# 1 78.2319 29.6564 38.3496 -14.4966 17.2465 0.5014
# 2 29.6564 154.5905 49.3394 -45.5985 15.2947 9.6286
# 3 38.3496 49.3394 153.6719 -29.9664 17.7444 8.2669
# 4 -14.4966 -45.5985 -29.9664 65.0025 7.9625 1.1933
# 5 17.2465 15.2947 17.7444 7.9625 38.4796 -3.7845
# 6 0.5014 9.6286 8.2669 1.1933 -3.7845 27.2569
#
#
#
# Elastic Compliance Matrix: (Units=1/GPa)
#
#
# Indices 1 2 3 4 5 6 
#
# 1 0.016234 -0.000907 -0.002512 0.002604 -0.006317 -0.000208
# 2 -0.000907 0.009667 -0.000733 0.006922 -0.004940 -0.004165
# 3 -0.002512 -0.000733 0.008594 0.003374 -0.003533 -0.002939
# 4 0.002604 0.006922 0.003374 0.023836 -0.011006 -0.006088
# 5 -0.006317 -0.004940 -0.003533 -0.011006 0.035510 0.008345
# 6 -0.000208 -0.004165 -0.002939 -0.006088 0.008345 0.040480
#
#
# Mechanical properties :
#
#
# Convention : Reuss Voigt Hill
#
# Bulk Modulus (GPa) = 38.18106 69.02054 53.60080
# Shear Modulus (GPa) = 33.03540 44.09107 38.56323
#
# Velocity S-wave (km/s) = 3.64027 4.20552 3.93306
# Velocity P-wave (km/s) = 5.74321 7.16018 6.49048
#
# Compressibility (1/GPa) = 0.02619100
#
# Stress axis : x y z
#
# Youngs Moduli (GPa) = 61.59955 103.44913 116.36587
#
# Poissons Ratio (x) = 0.09379 0.29229
# Poissons Ratio (y) = 0.05585 0.08530
# Poissons Ratio (z) = 0.15473 0.07583
#
# Static dielectric constant tensor:
#      x y z
#    x 2.019040 -0.037500 -0.064060 
#    y -0.037500 1.938120 -0.012650 
#    z -0.064060 -0.012650 2.079620 
# 
# From -- ./inp_files/362634.got.cif
#   From: 2010.05.17/outbox.cif.g08.bks.cpg/sg2_182_cif.got.tgz:362634.got - 2010.06.03 11:33:40.
