data_PCOD9029396
_publ_section_title
;
Structure prediction by ZEFSAII (Michael W. Deem and Ramdas Pophale) SiO2 
 PCOD9029396
Probable space group: P -1
;
_chemical_formula_sum "Si O2"
_cell_formula_units_Z 16
_cell_length_a 16.468495
_cell_length_b 9.302321
_cell_length_c 21.623729
_cell_angle_alpha 137.201995
_cell_angle_beta 17.886642
_cell_angle_gamma 132.766622
_cell_volume 688.303217
_symmetry_space_group_name_H-M "P -1"
_symmetry_group_IT_number 2
_symmetry_cell_setting 'triclinic'
loop_
_space_group_symop_operation_xyz
x,y,z
-x,-y,-z
loop_
_atom_site_type_symbol
_atom_site_label
_atom_site_fract_x
_atom_site_fract_y
_atom_site_fract_z
Si Si1 0.784157 0.997868 0.918043
Si Si2 0.153029 0.805051 0.189482
Si Si3 0.823614 0.814232 0.094377
Si Si4 0.105728 0.252485 0.840844
Si Si5 0.065530 0.262638 0.452487
Si Si6 0.766988 0.608954 0.337496
Si Si7 0.269578 0.692116 0.410395
Si Si8 0.342930 0.689225 0.136964
O O1 0.027818 0.831632 0.665420
O O2 0.747450 0.172646 0.945391
O O3 0.524616 0.879801 0.074391
O O4 0.865372 0.109798 0.956674
O O5 0.299100 0.647276 0.082967
O O6 0.850716 0.753421 0.379359
O O7 0.178683 0.032982 0.274060
O O8 0.759935 0.831608 0.219846
O O9 0.547666 0.787450 0.250969
O O10 0.004506 0.588605 0.888846
O O11 0.000000 0.000000 0.000000
O O12 0.251792 0.253433 0.668853
O O13 0.000000 0.500000 0.000000
O O14 0.823228 0.312384 0.594956
O O15 0.942030 0.260124 0.608915
O O16 0.251272 0.452614 0.372038
O O17 0.500000 0.500000 0.500000
O O18 0.500000 0.500000 0.000000
#
# Coordination Sequence:
#
# PCOD9029396 Si02
#       8
#     2   2   2   2   2   2   2   2
#     4  10  22  42  67  92 137 172 218 271 332 394
#     4  10  24  42  66  95 133 180 212 267 337 396
#     4  11  26  41  70  96 130 176 227 271 336 391
#     4   9  22  43  61  93 128 175 216 272 326 387
#     4  10  23  42  67  93 139 172 216 270 332 397
#     4  10  24  45  68  96 131 174 226 276 324 394
#     4  10  23  43  64  97 134 176 214 277 335 389
#     4  12  24  39  67 104 130 166 226 271 329 388
#
# _framework density 23.245569
#
# number of rings (size 3 to 8) (size 9 to 14) (size 15 to 20)
#    0.000    1.750    1.250    0.750    8.750    5.500 
#    0.000    0.000    0.000    0.000    0.000    0.000 
#    0.000    0.000    0.000    0.000    0.000    0.000 
#
# Total GULP energy -89392.143622 kJ/mol
# GULP energy per Si atom -5587.008976 kJ/mol
# Density = 2.319266 g / cm^3
# Si number density = 23.245569 Si / 1000 Ang^3
#
#
#
# Elastic Constant Matrix: (Units=GPa)
#
#
# Indices 1 2 3 4 5 6 
#
# 1 100.2368 46.5609 15.0160 -10.9731 -18.5715 -1.3473
# 2 46.5609 121.8398 28.0648 -26.6632 -15.8987 4.9577
# 3 15.0160 28.0648 65.4464 -11.3386 -16.4020 0.0549
# 4 -10.9731 -26.6632 -11.3386 49.8170 7.2288 -5.7523
# 5 -18.5715 -15.8987 -16.4020 7.2288 31.1323 -1.3934
# 6 -1.3473 4.9577 0.0549 -5.7523 -1.3934 41.6349
#
#
#
# Elastic Compliance Matrix: (Units=1/GPa)
#
#
# Indices 1 2 3 4 5 6 
#
# 1 0.013033 -0.004366 0.000313 -0.000105 0.005784 0.001120
# 2 -0.004366 0.011668 -0.003072 0.004382 0.000678 -0.000899
# 3 0.000313 -0.003072 0.018865 0.001624 0.008218 0.000850
# 4 -0.000105 0.004382 0.001624 0.023400 -0.002285 0.002629
# 5 0.005784 0.000678 0.008218 -0.002285 0.040829 0.001146
# 6 0.001120 -0.000899 0.000850 0.002629 0.001146 0.024562
#
#
# Mechanical properties :
#
#
# Convention : Reuss Voigt Hill
#
# Bulk Modulus (GPa) = 34.11240 51.86737 42.98989
# Shear Modulus (GPa) = 31.97341 37.70893 34.84117
#
# Velocity S-wave (km/s) = 3.71275 4.03202 3.87567
# Velocity P-wave (km/s) = 5.75204 6.63608 6.20981
#
# Compressibility (1/GPa) = 0.02931485
#
# Stress axis : x y z
#
# Youngs Moduli (GPa) = 76.72860 85.70801 53.00700
#
# Poissons Ratio (x) = 0.37423 -0.01657
# Poissons Ratio (y) = 0.33502 0.16282
# Poissons Ratio (z) = -0.02398 0.26327
#
# Static dielectric constant tensor:
#      x y z
#    x 1.902040 -0.012630 -0.003990 
#    y -0.012630 1.935380 0.045600 
#    z -0.003990 0.045600 1.948690 
# 
# From -- ./inp_files/316215.got.cif
#   From: 2010.05.17/outbox.cif.g08.bks.cpg/sg2_159_cif.got.tgz:316215.got - 2010.06.03 11:33:40.
