data_PCOD9029034
_publ_section_title
;
Structure prediction by ZEFSAII (Michael W. Deem and Ramdas Pophale) SiO2 
 PCOD9029034
Probable space group: P -1
;
_chemical_formula_sum "Si O2"
_cell_formula_units_Z 14
_cell_length_a 19.355288
_cell_length_b 10.417723
_cell_length_c 4.889508
_cell_angle_alpha 105.213869
_cell_angle_beta 78.804500
_cell_angle_gamma 148.514529
_cell_volume 496.017782
_symmetry_space_group_name_H-M "P -1"
_symmetry_group_IT_number 2
_symmetry_cell_setting 'triclinic'
loop_
_space_group_symop_operation_xyz
x,y,z
-x,-y,-z
loop_
_atom_site_type_symbol
_atom_site_label
_atom_site_fract_x
_atom_site_fract_y
_atom_site_fract_z
Si Si1 0.623623 0.737455 0.717640
Si Si2 0.880803 0.369794 0.331419
Si Si3 0.113527 0.880092 0.175498
Si Si4 0.125406 0.204455 0.320091
Si Si5 0.394461 0.940234 0.406733
Si Si6 0.734476 0.467577 0.083774
Si Si7 0.540129 0.360103 0.882989
O O1 0.500000 0.500000 0.500000
O O2 0.613478 0.613873 0.900604
O O3 0.767914 0.948960 0.595520
O O4 0.586148 0.815551 0.927941
O O5 0.750442 0.235037 0.471878
O O6 0.000000 0.500000 0.500000
O O7 0.963608 0.614725 0.237430
O O8 0.852246 0.193045 0.075783
O O9 0.132418 0.059735 0.158188
O O10 0.138622 0.312797 0.095821
O O11 0.233541 0.441080 0.580190
O O12 0.000000 0.000000 0.500000
O O13 0.346089 0.794866 0.078548
O O14 0.500000 0.000000 0.500000
O O15 0.485054 0.211180 0.562297
O O16 0.639516 0.427030 0.005822
#
# Coordination Sequence:
#
# PCOD9029034 Si02
#       7
#     2   2   2   2   2   2   2
#     4  11  22  39  70 103 141 185 246 302 370 442
#     4  11  26  44  73 106 143 194 245 309 385 442
#     4  11  25  44  69 106 146 187 247 312 376 452
#     4  12  26  45  73 102 144 194 249 305 372 452
#     4  10  23  48  71 102 148 195 249 307 371 459
#     4  11  25  46  69 104 142 194 248 301 373 438
#     4  10  22  42  66 101 141 187 242 301 370 435
#
# _framework density 28.224795
#
# number of rings (size 3 to 8) (size 9 to 14) (size 15 to 20)
#    0.000    1.143    2.857    2.143    6.000    0.000 
#    2.571    2.143    0.000    0.000    0.000    0.000 
#    0.000    0.000    0.000    0.000    0.000    0.000 
#
# Total GULP energy -78170.604343 kJ/mol
# GULP energy per Si atom -5583.614596 kJ/mol
# Density = 2.816055 g / cm^3
# Si number density = 28.224795 Si / 1000 Ang^3
#
#
#
# Elastic Constant Matrix: (Units=GPa)
#
#
# Indices 1 2 3 4 5 6 
#
# 1 126.9995 52.0947 48.1260 11.0672 -17.2928 6.7118
# 2 52.0947 117.0587 39.0922 -0.0041 -17.8355 31.7884
# 3 48.1260 39.0922 145.8169 28.8759 5.2466 -9.2404
# 4 11.0672 -0.0041 28.8759 48.6710 -2.6438 -9.0859
# 5 -17.2928 -17.8355 5.2466 -2.6438 43.9198 9.2652
# 6 6.7118 31.7884 -9.2404 -9.0859 9.2652 72.1743
#
#
#
# Elastic Compliance Matrix: (Units=1/GPa)
#
#
# Indices 1 2 3 4 5 6 
#
# 1 0.010766 -0.003297 -0.002660 -0.000769 0.003257 -0.000405
# 2 -0.003297 0.014169 -0.003794 0.002049 0.006508 -0.006997
# 3 -0.002660 -0.003794 0.010131 -0.005070 -0.004776 0.003190
# 4 -0.000769 0.002049 -0.005070 0.024089 0.002320 0.001255
# 5 0.003257 0.006508 -0.004776 0.002320 0.028924 -0.007202
# 6 -0.000405 -0.006997 0.003190 0.001255 -0.007202 0.018466
#
#
# Mechanical properties :
#
#
# Convention : Reuss Voigt Hill
#
# Bulk Modulus (GPa) = 64.24842 74.27788 69.26315
# Shear Modulus (GPa) = 38.09982 49.65716 43.87849
#
# Velocity S-wave (km/s) = 3.67804 4.19901 3.94713
# Velocity P-wave (km/s) = 6.39139 7.06276 6.73544
#
# Compressibility (1/GPa) = 0.01556459
#
# Stress axis : x y z
#
# Youngs Moduli (GPa) = 92.88211 70.57810 98.70763
#
# Poissons Ratio (x) = 0.23269 0.26257
# Poissons Ratio (y) = 0.30622 0.37447
# Poissons Ratio (z) = 0.24707 0.26775
#
# Static dielectric constant tensor:
#      x y z
#    x 2.285160 0.010230 0.068560 
#    y 0.010230 2.571850 -0.139180 
#    z 0.068560 -0.139180 2.289220 
# 
# From -- ./inp_files/118843.got.cif
#   From: 2010.05.17/outbox.cif.g08.bks.cpg/sg2_60_cif.got.tgz:118843.got - 2010.06.03 11:33:40.
