data_PCOD9029837
_publ_section_title
;
Structure prediction by ZEFSAII (Michael W. Deem and Ramdas Pophale) SiO2 
 PCOD9029837
Probable space group: P -1
;
_chemical_formula_sum "Si O2"
_cell_formula_units_Z 16
_cell_length_a 5.336768
_cell_length_b 8.530238
_cell_length_c 15.847405
_cell_angle_alpha 90.362457
_cell_angle_beta 117.225566
_cell_angle_gamma 78.664809
_cell_volume 626.098517
_symmetry_space_group_name_H-M "P -1"
_symmetry_group_IT_number 2
_symmetry_cell_setting 'triclinic'
loop_
_space_group_symop_operation_xyz
x,y,z
-x,-y,-z
loop_
_atom_site_type_symbol
_atom_site_label
_atom_site_fract_x
_atom_site_fract_y
_atom_site_fract_z
Si Si1 0.875890 0.910009 0.350732
Si Si2 0.724905 0.798946 0.065698
Si Si3 0.811414 0.635022 0.907633
Si Si4 0.846542 0.120756 0.048144
Si Si5 0.636158 0.925640 0.608753
Si Si6 0.357674 0.531188 0.709025
Si Si7 0.342524 0.653253 0.532256
Si Si8 0.049157 0.638691 0.252169
O O1 0.042176 0.046865 0.347553
O O2 0.092385 0.780242 0.444347
O O3 0.572669 0.980242 0.349479
O O4 0.880585 0.802789 0.269092
O O5 0.962221 0.661583 0.142042
O O6 0.769441 0.977149 0.091706
O O7 0.676851 0.762835 0.960175
O O8 0.414872 0.780997 0.049541
O O9 0.564064 0.603670 0.805573
O O10 0.004069 0.744891 0.889756
O O11 0.000000 0.500000 0.000000
O O12 0.000000 0.000000 0.000000
O O13 0.500000 0.000000 0.500000
O O14 0.586104 0.747524 0.598814
O O15 0.214413 0.615363 0.601992
O O16 0.107778 0.483872 0.725630
O O17 0.605785 0.394353 0.698730
O O18 0.500000 0.500000 0.500000
#
# Coordination Sequence:
#
# PCOD9029837 Si02
#       8
#     2   2   2   2   2   2   2   2
#     4  11  24  47  72  99 139 185 229 284 342 416
#     4  10  22  42  68  96 134 183 226 286 338 409
#     4  11  22  41  69  94 140 177 220 288 342 411
#     4   9  21  41  66  96 129 175 235 275 345 399
#     4  10  23  45  72 101 132 184 234 276 353 409
#     4  12  28  43  66 109 134 177 236 281 350 416
#     4  11  24  47  73 102 143 181 225 296 346 411
#     4  12  26  44  69 102 139 183 230 279 347 415
#
# _framework density 25.555084999999998
#
# number of rings (size 3 to 8) (size 9 to 14) (size 15 to 20)
#    0.000    1.250    2.500    3.000    5.250    5.500 
#    6.750    0.000    0.000    0.000    0.000    0.000 
#    0.000    0.000    0.000    0.000    0.000    0.000 
#
# Total GULP energy -89108.742662 kJ/mol
# GULP energy per Si atom -5569.296416 kJ/mol
# Density = 2.549692 g / cm^3
# Si number density = 25.555085 Si / 1000 Ang^3
#
#
#
# Elastic Constant Matrix: (Units=GPa)
#
#
# Indices 1 2 3 4 5 6 
#
# 1 78.0288 22.0313 7.8066 -11.0234 -10.7222 -8.6316
# 2 22.0313 85.6244 19.3512 10.5488 -14.1296 -0.6194
# 3 7.8066 19.3512 88.7858 0.9144 -24.6977 -0.7251
# 4 -11.0234 10.5488 0.9144 34.1324 -7.3295 0.9543
# 5 -10.7222 -14.1296 -24.6977 -7.3295 31.0109 1.4061
# 6 -8.6316 -0.6194 -0.7251 0.9543 1.4061 42.8386
#
#
#
# Elastic Compliance Matrix: (Units=1/GPa)
#
#
# Indices 1 2 3 4 5 6 
#
# 1 0.016209 -0.004347 0.001222 0.007823 0.006317 0.002842
# 2 -0.004347 0.014265 -0.002090 -0.005285 0.002112 -0.000657
# 3 0.001222 -0.002090 0.014958 0.003249 0.012151 -0.000002
# 4 0.007823 -0.005285 0.003249 0.035792 0.011327 0.000386
# 5 0.006317 0.002112 0.012151 0.011327 0.047762 -0.000311
# 6 0.002842 -0.000657 -0.000002 0.000386 -0.000311 0.023908
#
#
# Mechanical properties :
#
#
# Convention : Reuss Voigt Hill
#
# Bulk Modulus (GPa) = 28.57124 38.97970 33.77547
# Shear Modulus (GPa) = 28.57300 35.14638 31.85969
#
# Velocity S-wave (km/s) = 3.34742 3.71255 3.53470
# Velocity P-wave (km/s) = 5.11320 5.80204 5.46848
#
# Compressibility (1/GPa) = 0.03500023
#
# Stress axis : x y z
#
# Youngs Moduli (GPa) = 61.69588 70.10259 66.85506
#
# Poissons Ratio (x) = 0.30477 -0.08171
# Poissons Ratio (y) = 0.26822 0.13974
# Poissons Ratio (z) = -0.07540 0.14652
#
# Static dielectric constant tensor:
#      x y z
#    x 2.553710 0.083030 -0.091960 
#    y 0.083030 2.097680 -0.037030 
#    z -0.091960 -0.037030 2.179280 
# 
# From -- ./inp_files/547249.got.cif
#   From: 2010.05.17/outbox.cif.g08.bks.cpg/sg2_274_cif.got.tgz:547249.got - 2010.06.03 11:33:40.
