data_PCOD9029820
_publ_section_title
;
Structure prediction by ZEFSAII (Michael W. Deem and Ramdas Pophale) SiO2 
 PCOD9029820
Probable space group: P -1
;
_chemical_formula_sum "Si O2"
_cell_formula_units_Z 14
_cell_length_a 5.271212
_cell_length_b 16.152300
_cell_length_c 14.587961
_cell_angle_alpha 143.208228
_cell_angle_beta 51.038857
_cell_angle_gamma 122.788126
_cell_volume 576.489471
_symmetry_space_group_name_H-M "P -1"
_symmetry_group_IT_number 2
_symmetry_cell_setting 'triclinic'
loop_
_space_group_symop_operation_xyz
x,y,z
-x,-y,-z
loop_
_atom_site_type_symbol
_atom_site_label
_atom_site_fract_x
_atom_site_fract_y
_atom_site_fract_z
Si Si1 0.181946 0.388602 0.139552
Si Si2 0.130864 0.903406 0.306113
Si Si3 0.226432 0.878656 0.924757
Si Si4 0.942050 0.386139 0.989345
Si Si5 0.850689 0.137758 0.271429
Si Si6 0.305114 0.001182 0.641372
Si Si7 0.852412 0.571188 0.508007
O O1 0.546390 0.367539 0.076070
O O2 0.915829 0.259577 0.112172
O O3 0.136905 0.410729 0.061073
O O4 0.080422 0.528174 0.335285
O O5 0.945345 0.755228 0.204585
O O6 0.061511 0.975026 0.287578
O O7 0.490335 0.880469 0.241967
O O8 0.000000 0.000000 0.500000
O O9 0.310240 0.828235 0.758545
O O10 0.500000 0.000000 0.000000
O O11 0.931260 0.980610 0.090989
O O12 0.000000 0.500000 0.000000
O O13 0.688833 0.122352 0.395478
O O14 0.130119 0.264030 0.331135
O O15 0.500000 0.000000 0.500000
O O16 0.500000 0.500000 0.500000
O O17 0.000000 0.500000 0.500000
#
# Coordination Sequence:
#
# PCOD9029820 Si02
#       7
#     2   2   2   2   2   2   2
#     4  12  27  47  74 103 150 193 243 304 371 431
#     4  10  22  42  68  95 140 180 230 292 351 416
#     4  11  25  43  71 108 139 184 243 305 373 431
#     4  12  27  47  71 107 146 194 243 296 366 445
#     4  11  25  41  72 102 138 185 239 293 368 435
#     4  10  23  41  66 102 137 175 230 291 356 424
#     4  12  26  48  70 103 145 191 245 303 359 438
#
# _framework density 24.284918999999999
#
# number of rings (size 3 to 8) (size 9 to 14) (size 15 to 20)
#    0.000    0.857    1.429    4.714    8.000    4.571 
#    0.000    0.000    0.000    0.000    0.000    0.000 
#    0.000    0.000    0.000    0.000    0.000    0.000 
#
# Total GULP energy -77986.547143 kJ/mol
# GULP energy per Si atom -5570.467653 kJ/mol
# Density = 2.422965 g / cm^3
# Si number density = 24.284919 Si / 1000 Ang^3
#
#
#
# Elastic Constant Matrix: (Units=GPa)
#
#
# Indices 1 2 3 4 5 6 
#
# 1 157.6007 18.5307 13.1354 -10.3123 33.4450 -19.4360
# 2 18.5307 124.1558 17.2375 -6.7237 21.6608 -22.9168
# 3 13.1354 17.2375 96.0544 6.8473 21.5052 -9.7693
# 4 -10.3123 -6.7237 6.8473 36.4293 2.5100 3.2763
# 5 33.4450 21.6608 21.5052 2.5100 40.0569 -3.4307
# 6 -19.4360 -22.9168 -9.7693 3.2763 -3.4307 37.8166
#
#
#
# Elastic Compliance Matrix: (Units=1/GPa)
#
#
# Indices 1 2 3 4 5 6 
#
# 1 0.008514 0.000901 0.000646 0.002615 -0.007750 0.004159
# 2 0.000901 0.010144 -0.000205 0.002035 -0.005753 0.005859
# 3 0.000646 -0.000205 0.012289 -0.001972 -0.006650 0.002950
# 4 0.002615 0.002035 -0.001972 0.029298 -0.004134 -0.000845
# 5 -0.007750 -0.005753 -0.006650 -0.004134 0.037914 -0.005390
# 6 0.004159 0.005859 0.002950 -0.000845 -0.005390 0.032478
#
#
# Mechanical properties :
#
#
# Convention : Reuss Voigt Hill
#
# Bulk Modulus (GPa) = 29.73462 52.84646 41.29054
# Shear Modulus (GPa) = 35.92931 44.78771 40.35851
#
# Velocity S-wave (km/s) = 3.85059 4.29914 4.08103
# Velocity P-wave (km/s) = 5.66039 6.81555 6.26465
#
# Compressibility (1/GPa) = 0.03363083
#
# Stress axis : x y z
#
# Youngs Moduli (GPa) = 117.45158 98.58258 81.37662
#
# Poissons Ratio (x) = -0.08883 -0.05255
# Poissons Ratio (y) = -0.10583 0.01665
# Poissons Ratio (z) = -0.07585 0.02017
#
# Static dielectric constant tensor:
#      x y z
#    x 2.166540 0.017400 -0.191960 
#    y 0.017400 2.023170 -0.071500 
#    z -0.191960 -0.071500 2.060870 
# 
# From -- ./inp_files/484416.got.cif
#   From: 2010.05.17/outbox.cif.g08.bks.cpg/sg2_243_cif.got.tgz:484416.got - 2010.06.03 11:33:40.
