data_PCOD9029193
_publ_section_title
;
Structure prediction by ZEFSAII (Michael W. Deem and Ramdas Pophale) SiO2 
 PCOD9029193
Probable space group: P -1
;
_chemical_formula_sum "Si O2"
_cell_formula_units_Z 16
_cell_length_a 21.775617
_cell_length_b 8.475876
_cell_length_c 6.563131
_cell_angle_alpha 101.946872
_cell_angle_beta 121.722088
_cell_angle_gamma 44.641688
_cell_volume 695.141566
_symmetry_space_group_name_H-M "P -1"
_symmetry_group_IT_number 2
_symmetry_cell_setting 'triclinic'
loop_
_space_group_symop_operation_xyz
x,y,z
-x,-y,-z
loop_
_atom_site_type_symbol
_atom_site_label
_atom_site_fract_x
_atom_site_fract_y
_atom_site_fract_z
Si Si1 0.883013 0.175684 0.751048
Si Si2 0.585594 0.906624 0.955335
Si Si3 0.077338 0.378869 0.791101
Si Si4 0.546906 0.578039 0.230708
Si Si5 0.739395 0.226625 0.256206
Si Si6 0.066951 0.576128 0.223640
Si Si7 0.763576 0.844491 0.322718
Si Si8 0.310388 0.570092 0.209192
O O1 0.851389 0.088625 0.511819
O O2 0.879899 0.338835 0.647910
O O3 0.791793 0.312902 0.800598
O O4 0.000000 0.000000 0.000000
O O5 0.629063 0.688333 0.836626
O O6 0.536191 0.142140 0.814329
O O7 0.684868 0.827953 0.215069
O O8 0.500000 0.000000 0.000000
O O9 0.186836 0.239019 0.840568
O O10 0.000000 0.500000 0.500000
O O11 0.045599 0.267388 0.826102
O O12 0.055667 0.551355 0.962251
O O13 0.643740 0.490206 0.240458
O O14 0.604988 0.465098 0.519928
O O15 0.500000 0.500000 0.000000
O O16 0.714205 0.099714 0.291948
O O17 0.730398 0.259608 0.008607
O O18 0.145787 0.321218 0.396480
#
# Coordination Sequence:
#
# PCOD9029193 Si02
#       8
#     2   2   2   2   2   2   2   2
#     4  11  27  44  72 104 149 191 241 302 369 434
#     4  12  24  47  76 105 142 191 244 304 361 436
#     4   9  21  39  66  94 130 174 237 283 352 418
#     4  11  24  49  71 106 145 187 244 304 366 435
#     4  11  25  46  67 105 144 187 245 296 360 439
#     4  10  22  42  66  95 137 182 233 295 353 423
#     4  11  24  42  70  99 139 184 235 297 355 429
#     4  11  26  47  74 106 148 192 243 300 373 434
#
# _framework density 23.016894000000001
#
# number of rings (size 3 to 8) (size 9 to 14) (size 15 to 20)
#    0.000    1.250    2.500    1.875    8.750    3.000 
#    2.250    0.000    0.000    0.000    0.000    0.000 
#    0.000    0.000    0.000    0.000    0.000    0.000 
#
# Total GULP energy -89125.960400 kJ/mol
# GULP energy per Si atom -5570.372525 kJ/mol
# Density = 2.296451 g / cm^3
# Si number density = 23.016894 Si / 1000 Ang^3
#
#
#
# Elastic Constant Matrix: (Units=GPa)
#
#
# Indices 1 2 3 4 5 6 
#
# 1 88.0497 27.6927 39.6601 -1.6145 20.6155 -5.0335
# 2 27.6927 100.0690 52.0848 -6.6080 3.3086 0.7646
# 3 39.6601 52.0848 153.6018 -4.1996 22.7304 -0.7577
# 4 -1.6145 -6.6080 -4.1996 34.0699 -0.6997 1.2773
# 5 20.6155 3.3086 22.7304 -0.6997 36.1677 -1.7777
# 6 -5.0335 0.7646 -0.7577 1.2773 -1.7777 36.3467
#
#
#
# Elastic Compliance Matrix: (Units=1/GPa)
#
#
# Indices 1 2 3 4 5 6 
#
# 1 0.014825 -0.002976 -0.001786 -0.000304 -0.006975 0.001748
# 2 -0.002976 0.012944 -0.004021 0.001962 0.003043 -0.000688
# 3 -0.001786 -0.004021 0.008968 0.000161 -0.004257 -0.000190
# 4 -0.000304 0.001962 0.000161 0.029787 0.000415 -0.001106
# 5 -0.006975 0.003043 -0.004257 0.000415 0.034056 0.000532
# 6 0.001748 -0.000688 -0.000190 -0.001106 0.000532 0.027830
#
#
# Mechanical properties :
#
#
# Convention : Reuss Voigt Hill
#
# Bulk Modulus (GPa) = 52.16055 64.51065 58.33560
# Shear Modulus (GPa) = 32.81552 36.13572 34.47562
#
# Velocity S-wave (km/s) = 3.77996 3.96658 3.87439
# Velocity P-wave (km/s) = 6.46234 7.00476 6.73901
#
# Compressibility (1/GPa) = 0.01917158
#
# Stress axis : x y z
#
# Youngs Moduli (GPa) = 67.45239 77.25831 111.50342
#
# Poissons Ratio (x) = 0.22990 0.19918
# Poissons Ratio (y) = 0.20072 0.44833
# Poissons Ratio (z) = 0.12049 0.31064
#
# Static dielectric constant tensor:
#      x y z
#    x 1.920540 0.000410 -0.006270 
#    y 0.000410 2.099180 -0.006070 
#    z -0.006270 -0.006070 1.886800 
# 
# From -- ./inp_files/117190.got.cif
#   From: 2010.05.17/outbox.cif.g08.bks.cpg/sg2_59_cif.got.tgz:117190.got - 2010.06.03 11:33:40.
