data_PCOD9029270
_publ_section_title
;
Structure prediction by ZEFSAII (Michael W. Deem and Ramdas Pophale) SiO2 
 PCOD9029270
Probable space group: P -1
;
_chemical_formula_sum "Si O2"
_cell_formula_units_Z 16
_cell_length_a 14.452910
_cell_length_b 11.981353
_cell_length_c 8.830592
_cell_angle_alpha 74.264720
_cell_angle_beta 115.193734
_cell_angle_gamma 50.441252
_cell_volume 671.097799
_symmetry_space_group_name_H-M "P -1"
_symmetry_group_IT_number 2
_symmetry_cell_setting 'triclinic'
loop_
_space_group_symop_operation_xyz
x,y,z
-x,-y,-z
loop_
_atom_site_type_symbol
_atom_site_label
_atom_site_fract_x
_atom_site_fract_y
_atom_site_fract_z
Si Si1 0.000095 0.280802 0.358145
Si Si2 0.290318 0.684902 0.392183
Si Si3 0.786802 0.345212 0.934133
Si Si4 0.998056 0.931713 0.365388
Si Si5 0.782193 0.660989 0.249086
Si Si6 0.534377 0.849665 0.288021
Si Si7 0.204714 0.241801 0.305481
Si Si8 0.367454 0.857195 0.391016
O O1 0.055646 0.144102 0.586989
O O2 0.806456 0.542984 0.178361
O O3 0.163525 0.214486 0.444668
O O4 0.940570 0.266955 0.172806
O O5 0.500000 0.500000 0.500000
O O6 0.191463 0.682298 0.220885
O O7 0.208907 0.729820 0.489236
O O8 0.226521 0.882834 0.279407
O O9 0.564351 0.617836 0.709880
O O10 0.825900 0.172078 0.068232
O O11 0.000000 0.000000 0.500000
O O12 0.696915 0.682886 0.330102
O O13 0.000000 0.500000 0.500000
O O14 0.638952 0.900259 0.995509
O O15 0.639926 0.809582 0.520764
O O16 0.443413 0.818636 0.291974
O O17 0.278578 0.064449 0.316138
O O18 0.000000 0.500000 0.000000
#
# Coordination Sequence:
#
# PCOD9029270 Si02
#       8
#     2   2   2   2   2   2   2   2
#     4  11  23  42  71  97 138 193 234 296 380 420
#     4  10  23  42  65 100 140 181 246 301 357 440
#     4  10  22  43  65 100 135 185 245 299 351 444
#     4  10  22  42  66  98 138 183 240 303 357 439
#     4  11  24  46  68 100 147 183 245 301 365 442
#     4  11  25  43  68 104 142 188 239 302 358 444
#     4  12  24  44  71 107 145 191 248 297 363 456
#     4  11  23  41  69  96 140 185 239 295 375 415
#
# _framework density 23.841532000000001
#
# number of rings (size 3 to 8) (size 9 to 14) (size 15 to 20)
#    0.000    1.250    1.250    4.500    3.500    1.000 
#    0.000   15.625    0.000    0.000    0.000    0.000 
#    0.000    0.000    0.000    0.000    0.000    0.000 
#
# Total GULP energy -89143.900254 kJ/mol
# GULP energy per Si atom -5571.493766 kJ/mol
# Density = 2.378727 g / cm^3
# Si number density = 23.841532 Si / 1000 Ang^3
#
#
#
# Elastic Constant Matrix: (Units=GPa)
#
#
# Indices 1 2 3 4 5 6 
#
# 1 117.3253 25.0273 7.8256 -7.5428 -29.1556 -17.6280
# 2 25.0273 125.7122 8.3281 12.2364 7.1885 -16.6612
# 3 7.8256 8.3281 74.3779 -10.9685 2.1717 -9.0197
# 4 -7.5428 12.2364 -10.9685 37.3552 2.6433 1.8962
# 5 -29.1556 7.1885 2.1717 2.6433 34.6374 5.2406
# 6 -17.6280 -16.6612 -9.0197 1.8962 5.2406 41.1751
#
#
#
# Elastic Compliance Matrix: (Units=1/GPa)
#
#
# Indices 1 2 3 4 5 6 
#
# 1 0.012311 -0.002906 -0.000617 0.002390 0.010441 0.002521
# 2 -0.002906 0.009652 -0.000812 -0.003826 -0.004597 0.003245
# 3 -0.000617 -0.000812 0.014638 0.004447 -0.002011 0.002665
# 4 0.002390 -0.003826 0.004447 0.029833 0.000398 -0.000976
# 5 0.010441 -0.004597 -0.002011 0.000398 0.039137 -0.002830
# 6 0.002521 0.003245 0.002665 -0.000976 -0.002830 0.027668
#
#
# Mechanical properties :
#
#
# Convention : Reuss Voigt Hill
#
# Bulk Modulus (GPa) = 35.79847 44.41971 40.10909
# Shear Modulus (GPa) = 33.06469 41.04917 37.05693
#
# Velocity S-wave (km/s) = 3.72809 4.15390 3.94674
# Velocity P-wave (km/s) = 5.79476 6.45586 6.13423
#
# Compressibility (1/GPa) = 0.02793415
#
# Stress axis : x y z
#
# Youngs Moduli (GPa) = 81.22678 103.60189 68.31402
#
# Poissons Ratio (x) = 0.30103 0.04213
# Poissons Ratio (y) = 0.23602 0.05544
# Poissons Ratio (z) = 0.05009 0.08408
#
# Static dielectric constant tensor:
#      x y z
#    x 1.945720 -0.028680 0.003410 
#    y -0.028680 2.015550 -0.030770 
#    z 0.003410 -0.030770 1.981830 
# 
# From -- ./inp_files/307090.got.cif
#   From: 2010.05.17/outbox.cif.g08.bks.cpg/sg2_154_cif.got.tgz:307090.got - 2010.06.03 11:33:40.
