data_PCOD9029279
_publ_section_title
;
Structure prediction by ZEFSAII (Michael W. Deem and Ramdas Pophale) SiO2 
 PCOD9029279
Probable space group: P -1
;
_chemical_formula_sum "Si O2"
_cell_formula_units_Z 16
_cell_length_a 13.947837
_cell_length_b 8.671551
_cell_length_c 14.305273
_cell_angle_alpha 37.911588
_cell_angle_beta 134.118803
_cell_angle_gamma 134.660372
_cell_volume 715.401919
_symmetry_space_group_name_H-M "P -1"
_symmetry_group_IT_number 2
_symmetry_cell_setting 'triclinic'
loop_
_space_group_symop_operation_xyz
x,y,z
-x,-y,-z
loop_
_atom_site_type_symbol
_atom_site_label
_atom_site_fract_x
_atom_site_fract_y
_atom_site_fract_z
Si Si1 0.832834 0.384481 0.466104
Si Si2 0.399842 0.117589 0.043447
Si Si3 0.466588 0.612905 0.327251
Si Si4 0.804891 0.806232 0.732826
Si Si5 0.018925 0.202811 0.327125
Si Si6 0.958740 0.704961 0.065124
Si Si7 0.288030 0.520089 0.854609
Si Si8 0.721670 0.823381 0.262456
O O1 0.750783 0.362595 0.322734
O O2 0.783281 0.584301 0.400116
O O3 0.000000 0.500000 0.500000
O O4 0.802324 0.093150 0.625974
O O5 0.558120 0.299480 0.092468
O O6 0.386166 0.818363 0.195555
O O7 0.292810 0.227720 0.972880
O O8 0.373992 0.158897 0.898251
O O9 0.500000 0.500000 0.500000
O O10 0.357262 0.392957 0.291631
O O11 0.617855 0.763693 0.308535
O O12 0.876215 0.833007 0.665108
O O13 0.902561 0.724654 0.912920
O O14 0.058114 0.520051 0.222478
O O15 0.859151 0.089962 0.230762
O O16 0.000000 0.000000 0.500000
O O17 0.828217 0.519812 0.127441
O O18 0.000000 0.000000 0.000000
#
# Coordination Sequence:
#
# PCOD9029279 Si02
#       8
#     2   2   2   2   2   2   2   2
#     4  11  22  43  70 100 137 185 236 280 343 420
#     4  10  22  42  70  92 134 179 235 272 341 419
#     4  12  25  42  66 102 138 177 226 295 352 406
#     4  12  26  43  69 100 146 174 229 299 351 406
#     4  12  26  46  71  99 136 191 239 279 345 430
#     4  12  27  40  68 103 143 176 229 290 358 398
#     4  10  22  42  66  99 132 184 227 281 335 428
#     4  11  24  43  74  93 133 188 235 276 342 422
#
# _framework density 22.365051000000001
#
# number of rings (size 3 to 8) (size 9 to 14) (size 15 to 20)
#    0.000    0.750    1.250    6.000    5.250    1.500 
#    0.000    0.000    0.000    0.000    0.000    0.000 
#    0.000    0.000    0.000    0.000    0.000    0.000 
#
# Total GULP energy -89505.788774 kJ/mol
# GULP energy per Si atom -5594.111798 kJ/mol
# Density = 2.231415 g / cm^3
# Si number density = 22.365051 Si / 1000 Ang^3
#
#
#
# Elastic Constant Matrix: (Units=GPa)
#
#
# Indices 1 2 3 4 5 6 
#
# 1 74.3773 -17.9910 3.5410 -3.6634 0.9804 -5.3211
# 2 -17.9910 71.8315 15.9613 -8.1579 6.9427 -6.2455
# 3 3.5410 15.9613 113.0082 -14.3565 9.7145 -27.0699
# 4 -3.6634 -8.1579 -14.3565 49.1227 -7.7328 11.8640
# 5 0.9804 6.9427 9.7145 -7.7328 22.3712 1.8766
# 6 -5.3211 -6.2455 -27.0699 11.8640 1.8766 33.8598
#
#
#
# Elastic Compliance Matrix: (Units=1/GPa)
#
#
# Indices 1 2 3 4 5 6 
#
# 1 0.014741 0.004236 -0.000122 0.000790 -0.001872 0.002828
# 2 0.004236 0.016047 -0.001289 0.001351 -0.004337 0.002362
# 3 -0.000122 -0.001289 0.011775 0.000079 -0.005472 0.009432
# 4 0.000790 0.001351 0.000079 0.024051 0.008536 -0.008464
# 5 -0.001872 -0.004337 -0.005472 0.008536 0.052408 -0.011364
# 6 0.002828 0.002362 0.009432 -0.008464 -0.011364 0.041550
#
#
# Mechanical properties :
#
#
# Convention : Reuss Voigt Hill
#
# Bulk Modulus (GPa) = 20.74147 29.13772 24.93960
# Shear Modulus (GPa) = 29.24113 38.25113 33.74613
#
# Velocity S-wave (km/s) = 3.61979 4.14007 3.88864
# Velocity P-wave (km/s) = 5.17346 5.99251 5.59798
#
# Compressibility (1/GPa) = 0.04821260
#
# Stress axis : x y z
#
# Youngs Moduli (GPa) = 67.83732 62.31808 84.92929
#
# Poissons Ratio (x) = -0.26395 0.01032
# Poissons Ratio (y) = -0.28733 0.10947
# Poissons Ratio (z) = 0.00824 0.08032
#
# Static dielectric constant tensor:
#      x y z
#    x 1.803710 -0.006550 0.039560 
#    y -0.006550 1.675450 -0.134140 
#    z 0.039560 -0.134140 1.747480 
# 
# From -- ./inp_files/307240.got.cif
#   From: 2010.05.17/outbox.cif.g08.bks.cpg/sg2_154_cif.got.tgz:307240.got - 2010.06.03 11:33:40.
