data_PCOD9029864
_publ_section_title
;
Structure prediction by ZEFSAII (Michael W. Deem and Ramdas Pophale) SiO2 
 PCOD9029864
Probable space group: P -1
;
_chemical_formula_sum "Si O2"
_cell_formula_units_Z 16
_cell_length_a 7.047644
_cell_length_b 5.353740
_cell_length_c 28.847664
_cell_angle_alpha 89.922501
_cell_angle_beta 137.952161
_cell_angle_gamma 88.719519
_cell_volume 728.552148
_symmetry_space_group_name_H-M "P -1"
_symmetry_group_IT_number 2
_symmetry_cell_setting 'triclinic'
loop_
_space_group_symop_operation_xyz
x,y,z
-x,-y,-z
loop_
_atom_site_type_symbol
_atom_site_label
_atom_site_fract_x
_atom_site_fract_y
_atom_site_fract_z
Si Si1 0.033332 0.026750 0.559843
Si Si2 0.858031 0.712748 0.078716
Si Si3 0.717324 0.588285 0.341866
Si Si4 0.517099 0.790181 0.210529
Si Si5 0.388582 0.258930 0.344274
Si Si6 0.284018 0.325106 0.432809
Si Si7 0.256536 0.720271 0.791409
Si Si8 0.395625 0.779469 0.923360
O O1 0.351218 0.916121 0.626447
O O2 0.793438 0.898748 0.546207
O O3 0.061784 0.306055 0.580990
O O4 0.000000 0.000000 0.500000
O O5 0.776702 0.442056 0.083501
O O6 0.192083 0.737817 0.140916
O O7 0.721840 0.943969 0.083841
O O8 0.711367 0.745486 0.001776
O O9 0.592167 0.756609 0.278187
O O10 0.463107 0.502182 0.327952
O O11 0.955291 0.409121 0.360276
O O12 0.693607 0.565496 0.216527
O O13 0.580486 0.071534 0.207742
O O14 0.410011 0.275526 0.404116
O O15 0.073656 0.195663 0.273282
O O16 0.500000 0.500000 0.500000
O O17 0.364086 0.741166 0.863328
#
# Coordination Sequence:
#
# PCOD9029864 Si02
#       8
#     2   2   2   2   2   2   2   2
#     4  11  25  41  65  97 125 174 223 276 344 401
#     4  10  22  42  68  97 136 178 225 278 330 401
#     4  11  25  42  65  92 131 172 223 277 337 402
#     4  12  26  42  67  99 137 175 226 283 333 396
#     4  11  25  42  65  93 130 175 222 278 335 403
#     4  11  23  43  65  92 131 165 220 279 335 405
#     4  12  26  42  67 100 135 178 226 279 337 397
#     4  10  22  42  68  98 133 181 226 271 339 397
#
# _framework density 21.961368
#
# number of rings (size 3 to 8) (size 9 to 14) (size 15 to 20)
#    0.000    1.000    1.250    4.500    5.250    7.000 
#    0.000    0.000    0.000    0.000    0.000    0.000 
#    0.000    0.000    0.000    0.000    0.000    0.000 
#
# Total GULP energy -89273.366257 kJ/mol
# GULP energy per Si atom -5579.585391 kJ/mol
# Density = 2.191138 g / cm^3
# Si number density = 21.961368 Si / 1000 Ang^3
#
#
#
# Elastic Constant Matrix: (Units=GPa)
#
#
# Indices 1 2 3 4 5 6 
#
# 1 91.0333 -8.4163 41.9211 -0.6400 -4.4910 6.1735
# 2 -8.4163 25.2395 -6.7683 6.2878 -5.0604 2.7912
# 3 41.9211 -6.7683 121.5774 2.8525 -8.1929 5.3133
# 4 -0.6400 6.2878 2.8525 30.2945 0.9763 0.2929
# 5 -4.4910 -5.0604 -8.1929 0.9763 57.9632 3.8861
# 6 6.1735 2.7912 5.3133 0.2929 3.8861 32.6180
#
#
#
# Elastic Compliance Matrix: (Units=1/GPa)
#
#
# Indices 1 2 3 4 5 6 
#
# 1 0.013511 0.003827 -0.004280 -0.000114 0.000932 -0.002297
# 2 0.003827 0.045467 0.002019 -0.009657 0.005080 -0.005462
# 3 -0.004280 0.002019 0.009989 -0.001483 0.001358 -0.001138
# 4 -0.000114 -0.009657 -0.001483 0.035197 -0.001720 0.000978
# 5 0.000932 0.005080 0.001358 -0.001720 0.018189 -0.002984
# 6 -0.002297 -0.005462 -0.001138 0.000978 -0.002984 0.032092
#
#
# Mechanical properties :
#
#
# Convention : Reuss Voigt Hill
#
# Bulk Modulus (GPa) = 13.86975 32.36923 23.11949
# Shear Modulus (GPa) = 28.51523 38.24939 33.38231
#
# Velocity S-wave (km/s) = 3.60728 4.17786 3.90301
# Velocity P-wave (km/s) = 4.86613 6.16797 5.55531
#
# Compressibility (1/GPa) = 0.07209934
#
# Stress axis : x y z
#
# Youngs Moduli (GPa) = 74.01620 21.99419 100.10654
#
# Poissons Ratio (x) = -0.08417 0.42842
# Poissons Ratio (y) = -0.28325 -0.20214
# Poissons Ratio (z) = 0.31676 -0.04441
#
# Static dielectric constant tensor:
#      x y z
#    x 1.089360 -0.016330 -0.196050 
#    y -0.016330 1.992270 -0.006750 
#    z -0.196050 -0.006750 1.724470 
# 
# From -- ./inp_files/11104.got.cif
#   From: 2010.05.17/outbox.cif.g08.bks.cpg/sg2_6_cif.got.tgz:11104.got - 2010.06.03 11:33:40.
