data_PCOD9029361
_publ_section_title
;
Structure prediction by ZEFSAII (Michael W. Deem and Ramdas Pophale) SiO2 
 PCOD9029361
Probable space group: P -1
;
_chemical_formula_sum "Si O2"
_cell_formula_units_Z 10
_cell_length_a 7.863490
_cell_length_b 15.581380
_cell_length_c 6.868135
_cell_angle_alpha 111.970183
_cell_angle_beta 93.216488
_cell_angle_gamma 34.166626
_cell_volume 382.879990
_symmetry_space_group_name_H-M "P -1"
_symmetry_group_IT_number 2
_symmetry_cell_setting 'triclinic'
loop_
_space_group_symop_operation_xyz
x,y,z
-x,-y,-z
loop_
_atom_site_type_symbol
_atom_site_label
_atom_site_fract_x
_atom_site_fract_y
_atom_site_fract_z
Si Si1 0.702251 0.703847 0.057749
Si Si2 0.809792 0.998458 0.409697
Si Si3 0.751101 0.765016 0.708198
Si Si4 0.450514 0.383072 0.270761
Si Si5 0.829910 0.294765 0.545743
O O1 0.800937 0.724440 0.904668
O O2 0.453187 0.744133 0.974796
O O3 0.522179 0.846944 0.335445
O O4 0.000000 0.500000 0.000000
O O5 0.633648 0.076940 0.254788
O O6 0.000000 0.000000 0.500000
O O7 0.041952 0.802583 0.323973
O O8 0.045585 0.562095 0.452542
O O9 0.865192 0.809706 0.663925
O O10 0.657425 0.294659 0.409137
O O11 0.437833 0.492969 0.275698
#
# Coordination Sequence:
#
# PCOD9029361 Si02
#       5
#     2   2   2   2   2
#     4  12  24  40  69  96 122 173 216 254 319 378
#     4  12  26  41  65  97 132 164 210 267 319 369
#     4  10  22  42  67  89 132 165 210 263 309 377
#     4   9  20  41  67  91 129 165 211 255 314 378
#     4   9  21  41  67  92 131 169 203 264 321 365
#
# _framework density 26.117847000000001
#
# number of rings (size 3 to 8) (size 9 to 14) (size 15 to 20)
#    1.200    0.400    2.000    2.400    2.800    4.000 
#    0.000    6.000    0.000    0.000    0.000    0.000 
#    0.000    0.000    0.000    0.000    0.000    0.000 
#
# Total GULP energy -55885.302583 kJ/mol
# GULP energy per Si atom -5588.530258 kJ/mol
# Density = 2.605840 g / cm^3
# Si number density = 26.117847 Si / 1000 Ang^3
#
#
#
# Elastic Constant Matrix: (Units=GPa)
#
#
# Indices 1 2 3 4 5 6 
#
# 1 77.5045 32.0676 -13.3392 -22.9726 -0.7104 -7.3380
# 2 32.0676 123.2241 21.7943 -38.4729 -13.5756 -5.9830
# 3 -13.3392 21.7943 78.4445 -14.6771 4.0171 8.9318
# 4 -22.9726 -38.4729 -14.6771 34.7202 9.2537 2.9904
# 5 -0.7104 -13.5756 4.0171 9.2537 33.8236 -7.5005
# 6 -7.3380 -5.9830 8.9318 2.9904 -7.5005 41.1609
#
#
#
# Elastic Compliance Matrix: (Units=1/GPa)
#
#
# Indices 1 2 3 4 5 6 
#
# 1 0.019324 -0.002308 0.007011 0.014693 -0.005479 -0.000478
# 2 -0.002308 0.012923 -0.002267 0.010949 0.002783 0.001671
# 3 0.007011 -0.002267 0.017782 0.012034 -0.007308 -0.005144
# 4 0.014693 0.010949 0.012034 0.060028 -0.014341 -0.005375
# 5 -0.005479 0.002783 -0.007308 -0.014341 0.037322 0.008856
# 6 -0.000478 0.001671 -0.005144 -0.005375 0.008856 0.027573
#
#
# Mechanical properties :
#
#
# Convention : Reuss Voigt Hill
#
# Bulk Modulus (GPa) = 18.21469 40.02427 29.11948
# Shear Modulus (GPa) = 26.54212 37.85097 32.19654
#
# Velocity S-wave (km/s) = 3.19132 3.81102 3.51485
# Velocity P-wave (km/s) = 4.53525 5.89261 5.25792
#
# Compressibility (1/GPa) = 0.05490074
#
# Stress axis : x y z
#
# Youngs Moduli (GPa) = 51.74922 77.38135 56.23792
#
# Poissons Ratio (x) = 0.17861 -0.39431
# Poissons Ratio (y) = 0.11945 0.12750
# Poissons Ratio (z) = -0.36284 0.17543
#
# Static dielectric constant tensor:
#      x y z
#    x 2.100330 -0.024830 -0.047470 
#    y -0.024830 2.049490 0.021170 
#    z -0.047470 0.021170 2.056210 
# 
# From -- ./inp_files/15560.got.cif
#   From: 2010.05.17/outbox.cif.g08.bks.cpg/sg2_8_cif.got.tgz:15560.got - 2010.06.03 11:33:40.
