data_PCOD9029269
_publ_section_title
;
Structure prediction by ZEFSAII (Michael W. Deem and Ramdas Pophale) SiO2 
 PCOD9029269
Probable space group: P -1
;
_chemical_formula_sum "Si O2"
_cell_formula_units_Z 16
_cell_length_a 7.262676
_cell_length_b 14.371727
_cell_length_c 9.412348
_cell_angle_alpha 65.288793
_cell_angle_beta 61.603732
_cell_angle_gamma 106.722810
_cell_volume 622.795622
_symmetry_space_group_name_H-M "P -1"
_symmetry_group_IT_number 2
_symmetry_cell_setting 'triclinic'
loop_
_space_group_symop_operation_xyz
x,y,z
-x,-y,-z
loop_
_atom_site_type_symbol
_atom_site_label
_atom_site_fract_x
_atom_site_fract_y
_atom_site_fract_z
Si Si1 0.764900 0.990223 0.012770
Si Si2 0.422199 0.762197 0.483259
Si Si3 0.611698 0.650548 0.257123
Si Si4 0.687817 0.738311 0.658602
Si Si5 0.881022 0.525204 0.895340
Si Si6 0.154611 0.749734 0.116373
Si Si7 0.300791 0.156705 0.141965
Si Si8 0.871961 0.589433 0.560455
O O1 0.514396 0.879213 0.269301
O O2 0.764404 0.955335 0.870533
O O3 0.802928 0.121198 0.933878
O O4 0.000000 0.000000 0.000000
O O5 0.494510 0.682076 0.411419
O O6 0.595973 0.793396 0.540016
O O7 0.119868 0.681988 0.699465
O O8 0.682612 0.747261 0.040188
O O9 0.389498 0.509725 0.369960
O O10 0.881825 0.671427 0.181067
O O11 0.858551 0.701412 0.547542
O O12 0.432540 0.589085 0.891950
O O13 0.834942 0.836494 0.673718
O O14 0.889196 0.514184 0.729216
O O15 0.000000 0.500000 0.000000
O O16 0.418430 0.789027 0.922775
O O17 0.120255 0.666429 0.318139
#
# Coordination Sequence:
#
# PCOD9029269 Si02
#       8
#     2   2   2   2   2   2   2   2
#     4  11  21  47  71  97 134 179 232 288 330 399
#     4  10  22  42  66  98 138 177 224 284 337 399
#     4  11  23  42  68 103 138 172 233 281 333 402
#     4  11  23  43  62 102 142 175 218 283 343 404
#     4  10  23  38  63  95 140 180 213 275 345 402
#     4  12  25  43  75  99 133 186 229 282 336 400
#     4  11  25  42  68 100 135 177 234 277 343 402
#     4  12  23  42  69 102 139 180 232 271 342 415
#
# _framework density 25.690612999999999
#
# number of rings (size 3 to 8) (size 9 to 14) (size 15 to 20)
#    0.000    1.000    5.000    2.625    1.750    3.000 
#    0.000    3.125    0.000    0.000    0.000    0.000 
#    0.000    0.000    0.000    0.000    0.000    0.000 
#
# Total GULP energy -89274.268297 kJ/mol
# GULP energy per Si atom -5579.641769 kJ/mol
# Density = 2.563214 g / cm^3
# Si number density = 25.690613 Si / 1000 Ang^3
#
#
#
# Elastic Constant Matrix: (Units=GPa)
#
#
# Indices 1 2 3 4 5 6 
#
# 1 91.8940 15.5051 7.5588 1.7933 16.3930 24.9927
# 2 15.5051 95.8333 25.2765 18.3327 23.1801 11.8420
# 3 7.5588 25.2765 94.3984 -2.1065 22.7351 2.0380
# 4 1.7933 18.3327 -2.1065 33.4629 8.4085 -1.1857
# 5 16.3930 23.1801 22.7351 8.4085 37.1652 3.3171
# 6 24.9927 11.8420 2.0380 -1.1857 3.3171 35.8527
#
#
#
# Elastic Compliance Matrix: (Units=1/GPa)
#
#
# Indices 1 2 3 4 5 6 
#
# 1 0.014495 0.000091 0.000466 0.000360 -0.005960 -0.009597
# 2 0.000091 0.014241 -0.002569 -0.006757 -0.005435 -0.004342
# 3 0.000466 -0.002569 0.013167 0.004156 -0.007653 0.000621
# 4 0.000360 -0.006757 0.004156 0.035682 -0.006878 0.003561
# 5 -0.005960 -0.005435 -0.007653 -0.006878 0.038935 0.002555
# 6 -0.009597 -0.004342 0.000621 0.003561 0.002555 0.035862
#
#
# Mechanical properties :
#
#
# Convention : Reuss Voigt Hill
#
# Bulk Modulus (GPa) = 26.40072 42.08961 34.24517
# Shear Modulus (GPa) = 29.57998 36.88185 33.23092
#
# Velocity S-wave (km/s) = 3.39690 3.79306 3.60043
# Velocity P-wave (km/s) = 5.06793 5.96674 5.53561
#
# Compressibility (1/GPa) = 0.03787775
#
# Stress axis : x y z
#
# Youngs Moduli (GPa) = 68.98989 70.21873 75.95013
#
# Poissons Ratio (x) = -0.00636 -0.03537
# Poissons Ratio (y) = -0.00625 0.19509
# Poissons Ratio (z) = -0.03213 0.18037
#
# Static dielectric constant tensor:
#      x y z
#    x 2.036070 0.037350 -0.033070 
#    y 0.037350 2.072010 -0.008790 
#    z -0.033070 -0.008790 2.076520 
# 
# From -- ./inp_files/206784.got.cif
#   From: 2010.05.17/outbox.cif.g08.bks.cpg/sg2_104_cif.got.tgz:206784.got - 2010.06.03 11:33:40.
