data_PCOD9029497
_publ_section_title
;
Structure prediction by ZEFSAII (Michael W. Deem and Ramdas Pophale) SiO2 
 PCOD9029497
Probable space group: P -1
;
_chemical_formula_sum "Si O2"
_cell_formula_units_Z 16
_cell_length_a 12.741457
_cell_length_b 8.729127
_cell_length_c 10.780862
_cell_angle_alpha 78.788287
_cell_angle_beta 41.860107
_cell_angle_gamma 53.904737
_cell_volume 576.368271
_symmetry_space_group_name_H-M "P -1"
_symmetry_group_IT_number 2
_symmetry_cell_setting 'triclinic'
loop_
_space_group_symop_operation_xyz
x,y,z
-x,-y,-z
loop_
_atom_site_type_symbol
_atom_site_label
_atom_site_fract_x
_atom_site_fract_y
_atom_site_fract_z
Si Si1 0.974657 0.698583 0.961320
Si Si2 0.774392 0.725513 0.511204
Si Si3 0.624732 0.128645 0.307655
Si Si4 0.616282 0.644515 0.902462
Si Si5 0.181227 0.994035 0.403723
Si Si6 0.758487 0.229144 0.942704
Si Si7 0.243051 0.776523 0.596508
Si Si8 0.809547 0.748361 0.851915
O O1 0.801181 0.821193 0.983741
O O2 0.181930 0.647892 0.729725
O O3 0.849589 0.879390 0.148104
O O4 0.000000 0.500000 0.000000
O O5 0.578849 0.832602 0.568521
O O6 0.728245 0.645832 0.684712
O O7 0.798971 0.882329 0.521535
O O8 0.986402 0.504531 0.300021
O O9 0.616528 0.221283 0.430805
O O10 0.658234 0.243431 0.158371
O O11 0.388196 0.744964 0.040245
O O12 0.603261 0.785229 0.996012
O O13 0.740761 0.419857 0.890437
O O14 0.167696 0.132273 0.284894
O O15 0.317143 0.763474 0.392918
O O16 0.000000 0.000000 0.500000
O O17 0.999217 0.007443 0.768025
#
# Coordination Sequence:
#
# PCOD9029497 Si02
#       8
#     2   2   2   2   2   2   2   2
#     4  11  25  42  63  95 133 169 214 270 324 380
#     4  10  22  42  67  96 129 171 220 260 320 388
#     4  10  24  43  65  96 127 176 219 258 321 388
#     4   9  18  33  61  96 124 161 209 264 309 376
#     4  11  22  42  65  96 130 170 218 266 323 379
#     4   9  17  34  61  94 124 158 216 255 310 375
#     4  11  22  42  67  90 129 176 216 261 319 387
#     4  11  22  41  67  97 130 170 211 267 326 379
#
# _framework density 27.760028999999999
#
# number of rings (size 3 to 8) (size 9 to 14) (size 15 to 20)
#    0.000    1.750    1.250    4.500    5.250    0.500 
#    2.250    4.375    0.000    0.000    0.000    0.000 
#    0.000    0.000    0.000    0.000    0.000    0.000 
#
# Total GULP energy -89424.549216 kJ/mol
# GULP energy per Si atom -5589.034326 kJ/mol
# Density = 2.769685 g / cm^3
# Si number density = 27.760029 Si / 1000 Ang^3
#
#
#
# Elastic Constant Matrix: (Units=GPa)
#
#
# Indices 1 2 3 4 5 6 
#
# 1 175.7637 39.7052 28.9627 -20.1181 -6.1238 5.2451
# 2 39.7052 176.0426 50.1609 -24.5851 -22.2310 -6.6237
# 3 28.9627 50.1609 84.0340 -30.0306 -6.7702 -8.3733
# 4 -20.1181 -24.5851 -30.0306 57.6763 -1.5382 -10.2106
# 5 -6.1238 -22.2310 -6.7702 -1.5382 37.5880 -13.9015
# 6 5.2451 -6.6237 -8.3733 -10.2106 -13.9015 41.3892
#
#
#
# Elastic Compliance Matrix: (Units=1/GPa)
#
#
# Indices 1 2 3 4 5 6 
#
# 1 0.006260 -0.000953 -0.001404 0.000852 -0.000159 -0.001073
# 2 -0.000953 0.007768 -0.002798 0.002204 0.005163 0.003076
# 3 -0.001404 -0.002798 0.018491 0.009359 0.004530 0.007301
# 4 0.000852 0.002204 0.009359 0.025666 0.008348 0.011274
# 5 -0.000159 0.005163 0.004530 0.008348 0.036771 0.016172
# 6 -0.001073 0.003076 0.007301 0.011274 0.016172 0.034479
#
#
# Mechanical properties :
#
#
# Convention : Reuss Voigt Hill
#
# Bulk Modulus (GPa) = 45.02768 74.83310 59.93039
# Shear Modulus (GPa) = 33.97913 48.46479 41.22196
#
# Velocity S-wave (km/s) = 3.50241 4.18287 3.85767
# Velocity P-wave (km/s) = 5.71064 7.09536 6.44032
#
# Compressibility (1/GPa) = 0.02220856
#
# Stress axis : x y z
#
# Youngs Moduli (GPa) = 159.74036 128.72799 54.08019
#
# Poissons Ratio (x) = 0.12273 0.07591
# Poissons Ratio (y) = 0.15229 0.15134
# Poissons Ratio (z) = 0.22422 0.36024
#
# Static dielectric constant tensor:
#      x y z
#    x 2.153090 0.027820 0.048020 
#    y 0.027820 2.201410 0.051040 
#    z 0.048020 0.051040 2.508110 
# 
# From -- ./inp_files/416788.got.cif
#   From: 2010.05.17/outbox.cif.g08.bks.cpg/sg2_209_cif.got.tgz:416788.got - 2010.06.03 11:33:40.
