data_PCOD9029770
_publ_section_title
;
Structure prediction by ZEFSAII (Michael W. Deem and Ramdas Pophale) SiO2 
 PCOD9029770
Probable space group: P -1
;
_chemical_formula_sum "Si O2"
_cell_formula_units_Z 14
_cell_length_a 7.637753
_cell_length_b 5.022905
_cell_length_c 14.428651
_cell_angle_alpha 82.815297
_cell_angle_beta 91.103475
_cell_angle_gamma 107.549423
_cell_volume 523.529763
_symmetry_space_group_name_H-M "P -1"
_symmetry_group_IT_number 2
_symmetry_cell_setting 'triclinic'
loop_
_space_group_symop_operation_xyz
x,y,z
-x,-y,-z
loop_
_atom_site_type_symbol
_atom_site_label
_atom_site_fract_x
_atom_site_fract_y
_atom_site_fract_z
Si Si1 0.409844 0.599755 0.385715
Si Si2 0.275600 0.607603 0.046469
Si Si3 0.704948 0.821374 0.072560
Si Si4 0.238915 0.850912 0.222164
Si Si5 0.114911 0.291408 0.533389
Si Si6 0.892385 0.969689 0.258116
Si Si7 0.586890 0.189249 0.298900
O O1 0.247201 0.645231 0.316053
O O2 0.310731 0.428706 0.480491
O O3 0.530763 0.925319 0.382672
O O4 0.515742 0.427715 0.333409
O O5 0.488189 0.657101 0.074954
O O6 0.185275 0.672583 0.136551
O O7 0.207230 0.318544 0.002270
O O8 0.270865 0.857072 0.966299
O O9 0.785358 0.807783 0.174806
O O10 0.448635 0.060431 0.216948
O O11 0.105244 0.036635 0.232370
O O12 0.127689 0.225854 0.643586
O O13 0.000000 0.500000 0.500000
O O14 0.000000 0.000000 0.500000
O O15 0.792903 0.204874 0.271570
#
# Coordination Sequence:
#
# PCOD9029770 Si02
#       7
#     2   2   2   2   2   2   2
#     4  10  22  45  67  96 147 179 225 284 356 386
#     4  10  22  42  68  93 147 171 229 284 350 395
#     4  10  23  42  66 103 129 187 224 287 338 411
#     4  10  23  44  70 102 141 183 222 299 336 413
#     4  12  25  46  71 108 139 185 228 292 345 412
#     4  12  25  46  75 103 140 184 240 280 347 420
#     4  10  24  44  66 105 137 182 231 283 343 404
#
# _framework density 26.741554000000001
#
# number of rings (size 3 to 8) (size 9 to 14) (size 15 to 20)
#    0.857    0.571    2.857    1.714    2.000    6.857 
#    5.143    0.000    0.000    0.000    0.000    0.000 
#    0.000    0.000    0.000    0.000    0.000    0.000 
#
# Total GULP energy -78449.914309 kJ/mol
# GULP energy per Si atom -5603.565308 kJ/mol
# Density = 2.668069 g / cm^3
# Si number density = 26.741554 Si / 1000 Ang^3
#
#
#
# Elastic Constant Matrix: (Units=GPa)
#
#
# Indices 1 2 3 4 5 6 
#
# 1 134.9842 34.7439 18.8602 5.8251 1.5212 -42.5594
# 2 34.7439 133.1576 12.3339 3.0604 14.6490 -26.5931
# 3 18.8602 12.3339 140.9455 -10.9407 23.2294 -10.5965
# 4 5.8251 3.0604 -10.9407 39.3192 -3.4530 -3.1556
# 5 1.5212 14.6490 23.2294 -3.4530 41.2207 1.8356
# 6 -42.5594 -26.5931 -10.5965 -3.1556 1.8356 40.7748
#
#
#
# Elastic Compliance Matrix: (Units=1/GPa)
#
#
# Indices 1 2 3 4 5 6 
#
# 1 0.011182 -0.000579 -0.000613 -0.000931 -0.000433 0.011082
# 2 -0.000579 0.009163 0.000266 -0.000428 -0.003669 0.005573
# 3 -0.000613 0.000266 0.008234 0.002119 -0.004626 0.002045
# 4 -0.000931 -0.000428 0.002119 0.026398 0.001146 0.001291
# 5 -0.000433 -0.003669 -0.004626 0.001146 0.028516 -0.005242
# 6 0.011082 0.005573 0.002045 0.001291 -0.005242 0.040594
#
#
# Mechanical properties :
#
#
# Convention : Reuss Voigt Hill
#
# Bulk Modulus (GPa) = 37.41503 60.10705 48.76104
# Shear Modulus (GPa) = 37.07867 47.13957 42.10912
#
# Velocity S-wave (km/s) = 3.72769 4.20311 3.97252
# Velocity P-wave (km/s) = 5.70520 6.78827 6.27016
#
# Compressibility (1/GPa) = 0.02672723
#
# Stress axis : x y z
#
# Youngs Moduli (GPa) = 89.42889 109.13806 121.44135
#
# Poissons Ratio (x) = 0.06315 0.07449
# Poissons Ratio (y) = 0.05174 -0.03231
# Poissons Ratio (z) = 0.05486 -0.02903
#
# Static dielectric constant tensor:
#      x y z
#    x 2.146780 0.036740 0.005560 
#    y 0.036740 2.066290 -0.022410 
#    z 0.005560 -0.022410 2.069550 
# 
# From -- ./inp_files/487101.got.cif
#   From: 2010.05.17/outbox.cif.g08.bks.cpg/sg2_244_cif.got.tgz:487101.got - 2010.06.03 11:33:40.
