data_PCOD9029737
_publ_section_title
;
Structure prediction by ZEFSAII (Michael W. Deem and Ramdas Pophale) SiO2 
 PCOD9029737
Probable space group: P -1
;
_chemical_formula_sum "Si O2"
_cell_formula_units_Z 16
_cell_length_a 10.032817
_cell_length_b 5.170716
_cell_length_c 32.162523
_cell_angle_alpha 118.380377
_cell_angle_beta 147.866219
_cell_angle_gamma 67.512877
_cell_volume 780.087541
_symmetry_space_group_name_H-M "P -1"
_symmetry_group_IT_number 2
_symmetry_cell_setting 'triclinic'
loop_
_space_group_symop_operation_xyz
x,y,z
-x,-y,-z
loop_
_atom_site_type_symbol
_atom_site_label
_atom_site_fract_x
_atom_site_fract_y
_atom_site_fract_z
Si Si1 0.800680 0.448541 0.347228
Si Si2 0.024099 0.070536 0.441751
Si Si3 0.951146 0.505228 0.848795
Si Si4 0.884458 0.832588 0.777125
Si Si5 0.716548 0.389717 0.927603
Si Si6 0.601946 0.310457 0.067849
Si Si7 0.387511 0.514917 0.610014
Si Si8 0.388834 0.304696 0.158002
O O1 0.639043 0.545771 0.352196
O O2 0.619156 0.365102 0.255070
O O3 0.945935 0.176811 0.383427
O O4 0.988850 0.724256 0.409088
O O5 0.283290 0.232342 0.536006
O O6 0.815253 0.226847 0.428024
O O7 0.674452 0.039385 0.891746
O O8 0.853347 0.568335 0.873199
O O9 0.244574 0.526000 0.916419
O O10 0.862774 0.174282 0.788486
O O11 0.665423 0.638184 0.682676
O O12 0.846437 0.761434 0.811084
O O13 0.171598 0.740675 0.842742
O O14 0.610973 0.523858 0.952175
O O15 0.565238 0.521202 0.859008
O O16 0.000000 0.500000 0.000000
O O17 0.500000 0.000000 0.000000
#
# Coordination Sequence:
#
# PCOD9029737 Si02
#       8
#     2   2   2   2   2   2   2   2
#     4  10  17  32  50  81 119 160 191 233 309 351
#     4   9  18  26  50  83 129 152 190 248 302 347
#     4  10  21  38  63  86 117 157 206 238 305 357
#     4  10  21  35  61  87 119 159 206 238 304 359
#     4  12  28  43  62  92 122 155 207 256 308 358
#     4  10  25  45  65  86 121 161 202 250 309 365
#     4   9  18  28  51  85 126 151 197 246 301 344
#     4  12  23  41  64  90 124 160 201 257 299 367
#
# _framework density 20.510518000000001
#
# number of rings (size 3 to 8) (size 9 to 14) (size 15 to 20)
#    1.500    0.250    1.250    3.750    3.500    0.500 
#    0.000    0.000    0.000    0.000    0.000    5.250 
#    0.000    0.000    0.000    0.000    0.000    0.000 
#
# Total GULP energy -89174.114755 kJ/mol
# GULP energy per Si atom -5573.382172 kJ/mol
# Density = 2.046384 g / cm^3
# Si number density = 20.510518 Si / 1000 Ang^3
#
#
#
# Elastic Constant Matrix: (Units=GPa)
#
#
# Indices 1 2 3 4 5 6 
#
# 1 73.3777 5.2249 26.6659 7.8666 3.7624 -8.1403
# 2 5.2249 49.8210 12.2770 18.1001 10.8247 6.9656
# 3 26.6659 12.2770 122.7709 8.5109 20.9508 -14.1459
# 4 7.8666 18.1001 8.5109 31.2985 9.9480 -3.0458
# 5 3.7624 10.8247 20.9508 9.9480 26.7622 -0.9804
# 6 -8.1403 6.9656 -14.1459 -3.0458 -0.9804 26.7108
#
#
#
# Elastic Compliance Matrix: (Units=1/GPa)
#
#
# Indices 1 2 3 4 5 6 
#
# 1 0.015319 -0.000565 -0.003005 -0.002937 0.001627 0.002949
# 2 -0.000565 0.028787 -0.002150 -0.015537 -0.004499 -0.010755
# 3 -0.003005 -0.002150 0.010803 0.002034 -0.007726 0.005314
# 4 -0.002937 -0.015537 0.002034 0.045666 -0.011540 0.009018
# 5 0.001627 -0.004499 -0.007726 -0.011540 0.049224 -0.001932
# 6 0.002949 -0.010755 0.005314 0.009018 -0.001932 0.044913
#
#
# Mechanical properties :
#
#
# Convention : Reuss Voigt Hill
#
# Bulk Modulus (GPa) = 23.00535 37.14502 30.07519
# Shear Modulus (GPa) = 22.66108 30.40776 26.53442
#
# Velocity S-wave (km/s) = 3.32754 3.85456 3.60070
# Velocity P-wave (km/s) = 5.09942 6.16115 5.65525
#
# Compressibility (1/GPa) = 0.04346815
#
# Stress axis : x y z
#
# Youngs Moduli (GPa) = 65.27843 34.73786 92.56902
#
# Poissons Ratio (x) = 0.01963 0.27817
# Poissons Ratio (y) = 0.03689 0.19904
# Poissons Ratio (z) = 0.19616 0.07469
#
# Static dielectric constant tensor:
#      x y z
#    x 1.810010 0.043530 -0.011340 
#    y 0.043530 1.759490 -0.078500 
#    z -0.011340 -0.078500 1.778450 
# 
# From -- ./inp_files/622164.got.cif
#   From: 2010.05.17/outbox.cif.g08.bks.cpg/sg2_312_cif.got.tgz:622164.got - 2010.06.03 11:33:40.
