data_PCOD9029431
_publ_section_title
;
Structure prediction by ZEFSAII (Michael W. Deem and Ramdas Pophale) SiO2 
 PCOD9029431
Probable space group: P -1
;
_chemical_formula_sum "Si O2"
_cell_formula_units_Z 16
_cell_length_a 14.970320
_cell_length_b 9.491189
_cell_length_c 11.945687
_cell_angle_alpha 75.290586
_cell_angle_beta 150.693763
_cell_angle_gamma 113.901969
_cell_volume 740.574090
_symmetry_space_group_name_H-M "P -1"
_symmetry_group_IT_number 2
_symmetry_cell_setting 'triclinic'
loop_
_space_group_symop_operation_xyz
x,y,z
-x,-y,-z
loop_
_atom_site_type_symbol
_atom_site_label
_atom_site_fract_x
_atom_site_fract_y
_atom_site_fract_z
Si Si1 0.489831 0.910266 0.891374
Si Si2 0.848492 0.822252 0.351217
Si Si3 0.415145 0.771657 0.203071
Si Si4 0.063596 0.215898 0.054754
Si Si5 0.235798 0.314934 0.465229
Si Si6 0.952812 0.345899 0.555998
Si Si7 0.346027 0.075635 0.355068
Si Si8 0.996257 0.507930 0.174992
O O1 0.273320 0.778138 0.665855
O O2 0.548824 0.054657 0.839637
O O3 0.643524 0.827495 0.086028
O O4 0.500000 0.000000 0.000000
O O5 0.835982 0.744731 0.475578
O O6 0.925463 0.742944 0.353507
O O7 0.000000 0.000000 0.500000
O O8 0.544476 0.687556 0.298148
O O9 0.517500 0.807830 0.426599
O O10 0.186539 0.660725 0.982128
O O11 0.118264 0.210763 0.248681
O O12 0.230577 0.187864 0.165999
O O13 0.049309 0.383387 0.987527
O O14 0.854006 0.082441 0.815356
O O15 0.194846 0.475163 0.379177
O O16 0.000000 0.500000 0.500000
O O17 0.999446 0.404458 0.721259
O O18 0.500000 0.000000 0.500000
#
# Coordination Sequence:
#
# PCOD9029431 Si02
#       8
#     2   2   2   2   2   2   2   2
#     4  12  23  42  69  95 131 175 225 271 336 400
#     4  12  24  42  71  98 134 181 225 275 340 399
#     4  11  24  42  68  98 130 177 225 275 333 410
#     4  10  24  42  66  99 130 174 222 279 330 402
#     4  11  23  41  65  94 134 175 222 271 337 394
#     4  12  26  43  66 102 138 173 224 283 338 400
#     4  10  22  42  67  94 132 168 223 272 336 394
#     4  12  25  43  67  96 140 172 222 279 340 397
#
# _framework density 21.604861
#
# number of rings (size 3 to 8) (size 9 to 14) (size 15 to 20)
#    0.000    0.750    3.750    3.375    0.000    7.500 
#    0.000    0.000    0.000    0.000    0.000    0.000 
#    0.000    0.000    0.000    0.000    0.000    0.000 
#
# Total GULP energy -89191.913055 kJ/mol
# GULP energy per Si atom -5574.494566 kJ/mol
# Density = 2.155569 g / cm^3
# Si number density = 21.604861 Si / 1000 Ang^3
#
#
#
# Elastic Constant Matrix: (Units=GPa)
#
#
# Indices 1 2 3 4 5 6 
#
# 1 48.2141 13.2743 30.6388 -8.7133 13.1143 -36.0398
# 2 13.2743 106.7704 34.6932 -20.5717 21.7283 -13.9516
# 3 30.6388 34.6932 109.7479 -7.3914 24.3943 -7.5535
# 4 -8.7133 -20.5717 -7.3914 49.3367 -12.6851 7.2243
# 5 13.1143 21.7283 24.3943 -12.6851 27.1386 -5.4252
# 6 -36.0398 -13.9516 -7.5535 7.2243 -5.4252 47.2711
#
#
#
# Elastic Compliance Matrix: (Units=1/GPa)
#
#
# Indices 1 2 3 4 5 6 
#
# 1 0.072253 0.006128 -0.015034 0.001486 -0.015112 0.052531
# 2 0.006128 0.012637 -0.003434 0.003006 -0.007276 0.006558
# 3 -0.015034 -0.003434 0.014976 -0.001966 -0.006470 -0.010524
# 4 0.001486 0.003006 -0.001966 0.024122 0.009745 -0.000862
# 5 -0.015112 -0.007276 -0.006470 0.009745 0.058450 -0.009484
# 6 0.052531 0.006558 -0.010524 -0.000862 -0.009484 0.060502
#
#
# Mechanical properties :
#
#
# Convention : Reuss Voigt Hill
#
# Bulk Modulus (GPa) = 13.30052 46.88274 30.09163
# Shear Modulus (GPa) = 17.08339 37.15768 27.12054
#
# Velocity S-wave (km/s) = 2.81502 4.15164 3.54686
# Velocity P-wave (km/s) = 4.09090 6.68795 5.54365
#
# Compressibility (1/GPa) = 0.07518502
#
# Stress axis : x y z
#
# Youngs Moduli (GPa) = 13.84027 79.13451 66.77445
#
# Poissons Ratio (x) = -0.48492 1.00386
# Poissons Ratio (y) = -0.08481 0.22933
# Poissons Ratio (z) = 0.20807 0.27178
#
# Static dielectric constant tensor:
#      x y z
#    x 1.857330 -0.030640 0.009150 
#    y -0.030640 1.770120 -0.019210 
#    z 0.009150 -0.019210 1.799170 
# 
# From -- ./inp_files/447424.got.cif
#   From: 2010.05.17/outbox.cif.g08.bks.cpg/sg2_224_cif.got.tgz:447424.got - 2010.06.03 11:33:40.
