data_PCOD9029527
_publ_section_title
;
Structure prediction by ZEFSAII (Michael W. Deem and Ramdas Pophale) SiO2 
 PCOD9029527
Probable space group: P -1
;
_chemical_formula_sum "Si O2"
_cell_formula_units_Z 14
_cell_length_a 24.053369
_cell_length_b 10.879355
_cell_length_c 8.386219
_cell_angle_alpha 111.469341
_cell_angle_beta 133.087005
_cell_angle_gamma 27.900795
_cell_volume 538.846717
_symmetry_space_group_name_H-M "P -1"
_symmetry_group_IT_number 2
_symmetry_cell_setting 'triclinic'
loop_
_space_group_symop_operation_xyz
x,y,z
-x,-y,-z
loop_
_atom_site_type_symbol
_atom_site_label
_atom_site_fract_x
_atom_site_fract_y
_atom_site_fract_z
Si Si1 0.542917 0.260752 0.360892
Si Si2 0.970787 0.840860 0.478624
Si Si3 0.670108 0.581210 0.173614
Si Si4 0.755161 0.596175 0.670426
Si Si5 0.323946 0.746707 0.644665
Si Si6 0.901624 0.795272 0.007928
Si Si7 0.375216 0.410651 0.377368
O O1 0.638093 0.205156 0.390763
O O2 0.339472 0.542878 0.201432
O O3 0.660727 0.143945 0.683658
O O4 0.543699 0.123958 0.189860
O O5 0.801500 0.232907 0.298186
O O6 0.900996 0.894399 0.536104
O O7 0.194874 0.544853 0.741051
O O8 0.937287 0.784486 0.251502
O O9 0.659998 0.671099 0.366598
O O10 0.774112 0.464172 0.791385
O O11 0.596769 0.972544 0.581366
O O12 0.976971 0.295428 0.906413
O O13 0.369145 0.530793 0.557328
O O14 0.500000 0.500000 0.000000
O O15 0.000000 0.500000 0.000000
#
# Coordination Sequence:
#
# PCOD9029527 Si02
#       7
#     2   2   2   2   2   2   2
#     4  12  25  40  70 101 131 169 227 272 324 387
#     4  10  22  43  68  91 136 175 211 267 336 386
#     4  10  22  42  67  97 127 175 218 268 324 397
#     4  10  22  45  68  90 136 179 214 266 337 386
#     4  12  23  41  67 102 133 173 217 274 330 386
#     4  11  24  44  68  99 131 172 218 279 330 382
#     4  11  23  40  67  98 130 176 221 267 321 397
#
# _framework density 25.981413
#
# number of rings (size 3 to 8) (size 9 to 14) (size 15 to 20)
#    0.000    1.143    4.286    1.286    2.000    1.714 
#    0.000    2.143    0.000    0.000    0.000    0.000 
#    0.000    0.000    0.000    0.000    0.000    0.000 
#
# Total GULP energy -78122.910374 kJ/mol
# GULP energy per Si atom -5580.207884 kJ/mol
# Density = 2.592228 g / cm^3
# Si number density = 25.981413 Si / 1000 Ang^3
#
#
#
# Elastic Constant Matrix: (Units=GPa)
#
#
# Indices 1 2 3 4 5 6 
#
# 1 221.0328 57.4117 37.8550 16.8552 36.8251 -39.5887
# 2 57.4117 153.2533 45.6603 23.5438 21.8154 -8.1983
# 3 37.8550 45.6603 131.5203 43.8250 40.2108 -0.9707
# 4 16.8552 23.5438 43.8250 45.4335 9.3732 -3.3911
# 5 36.8251 21.8154 40.2108 9.3732 28.6688 4.3897
# 6 -39.5887 -8.1983 -0.9707 -3.3911 4.3897 45.4239
#
#
#
# Elastic Compliance Matrix: (Units=1/GPa)
#
#
# Indices 1 2 3 4 5 6 
#
# 1 0.008551 -0.001249 0.003463 -0.002009 -0.015558 0.008655
# 2 -0.001249 0.007990 -0.000859 -0.002283 -0.002588 0.000415
# 3 0.003463 -0.000859 0.020426 -0.014282 -0.028538 0.004991
# 4 -0.002009 -0.002283 -0.014282 0.034928 0.013104 -0.001127
# 5 -0.015558 -0.002588 -0.028538 0.013104 0.096091 -0.022945
# 6 0.008655 0.000415 0.004991 -0.001127 -0.022945 0.031873
#
#
# Mechanical properties :
#
#
# Convention : Reuss Voigt Hill
#
# Bulk Modulus (GPa) = 25.20381 87.51784 56.36082
# Shear Modulus (GPa) = 23.76697 48.23054 35.99875
#
# Velocity S-wave (km/s) = 3.02779 4.31321 3.72635
# Velocity P-wave (km/s) = 4.68457 7.65264 6.34461
#
# Compressibility (1/GPa) = 0.03967655
#
# Stress axis : x y z
#
# Youngs Moduli (GPa) = 116.94584 125.15075 48.95653
#
# Poissons Ratio (x) = 0.15626 -0.16951
# Poissons Ratio (y) = 0.14602 0.04208
# Poissons Ratio (z) = -0.40493 0.10756
#
# Static dielectric constant tensor:
#      x y z
#    x 2.095550 0.012320 -0.083940 
#    y 0.012320 1.976110 0.029120 
#    z -0.083940 0.029120 2.017670 
# 
# From -- ./inp_files/353584.got.cif
#   From: 2010.05.17/outbox.cif.g08.bks.cpg/sg2_177_cif.got.tgz:353584.got - 2010.06.03 11:33:40.
