data_PCOD9029077
_publ_section_title
;
Structure prediction by ZEFSAII (Michael W. Deem and Ramdas Pophale) SiO2 
 PCOD9029077
Probable space group: P -1
;
_chemical_formula_sum "Si O2"
_cell_formula_units_Z 16
_cell_length_a 9.219461
_cell_length_b 11.340998
_cell_length_c 13.772032
_cell_angle_alpha 148.657222
_cell_angle_beta 94.730287
_cell_angle_gamma 72.047808
_cell_volume 663.292635
_symmetry_space_group_name_H-M "P -1"
_symmetry_group_IT_number 2
_symmetry_cell_setting 'triclinic'
loop_
_space_group_symop_operation_xyz
x,y,z
-x,-y,-z
loop_
_atom_site_type_symbol
_atom_site_label
_atom_site_fract_x
_atom_site_fract_y
_atom_site_fract_z
Si Si1 0.663500 0.515475 0.414024
Si Si2 0.184288 0.406335 0.718234
Si Si3 0.561438 0.706863 0.824260
Si Si4 0.190781 0.426540 0.954628
Si Si5 0.901995 0.642650 0.748701
Si Si6 0.497035 0.899169 0.161683
Si Si7 0.991200 0.819021 0.706375
Si Si8 0.216958 0.899372 0.276293
O O1 0.708921 0.556221 0.334580
O O2 0.525679 0.424461 0.333732
O O3 0.823378 0.301494 0.327917
O O4 0.597015 0.798140 0.654211
O O5 0.240820 0.399061 0.824891
O O6 0.003627 0.633847 0.842898
O O7 0.174256 0.142415 0.513086
O O8 0.753077 0.592918 0.735031
O O9 0.518111 0.725397 0.947787
O O10 0.500000 0.000000 0.000000
O O11 0.321794 0.176560 0.841040
O O12 0.217416 0.660502 0.161544
O O13 0.000000 0.500000 0.000000
O O14 0.016140 0.402676 0.518019
O O15 0.878612 0.868066 0.831395
O O16 0.387527 0.848062 0.199180
O O17 0.912001 0.039580 0.777852
#
# Coordination Sequence:
#
# PCOD9029077 Si02
#       8
#     2   2   2   2   2   2   2   2
#     4  10  23  41  65  92 123 162 205 250 303 368
#     4   9  21  42  64  86 116 166 209 244 303 365
#     4  12  24  37  60  95 128 158 196 252 313 360
#     4  12  26  41  62  92 124 160 208 257 303 360
#     4   9  18  35  60  89 123 157 199 249 302 361
#     4  11  25  43  62  90 125 163 206 252 303 362
#     4   9  18  39  65  89 120 162 204 245 300 365
#     4  10  22  42  66  88 122 164 205 254 303 360
#
# _framework density 24.122084000000001
#
# number of rings (size 3 to 8) (size 9 to 14) (size 15 to 20)
#    0.000    1.750    0.000    5.625    0.000    9.500 
#    0.000    3.125    0.000    0.000    0.000    0.000 
#    0.000    0.000    0.000    0.000    0.000    0.000 
#
# Total GULP energy -89409.408139 kJ/mol
# GULP energy per Si atom -5588.088009 kJ/mol
# Density = 2.406718 g / cm^3
# Si number density = 24.122084 Si / 1000 Ang^3
#
#
#
# Elastic Constant Matrix: (Units=GPa)
#
#
# Indices 1 2 3 4 5 6 
#
# 1 101.4065 -1.7153 20.7899 18.0692 -1.6535 -16.7844
# 2 -1.7153 52.7959 17.2422 1.9787 -8.9662 -22.8931
# 3 20.7899 17.2422 69.1329 -0.0579 8.9456 -3.6576
# 4 18.0692 1.9787 -0.0579 28.1389 0.9267 4.8126
# 5 -1.6535 -8.9662 8.9456 0.9267 32.2355 2.5044
# 6 -16.7844 -22.8931 -3.6576 4.8126 2.5044 32.7971
#
#
#
# Elastic Compliance Matrix: (Units=1/GPa)
#
#
# Indices 1 2 3 4 5 6 
#
# 1 0.018064 0.013517 -0.008555 -0.016124 0.005998 0.019634
# 2 0.013517 0.043584 -0.014864 -0.018636 0.014578 0.037304
# 3 -0.008555 -0.014864 0.021327 0.009121 -0.009746 -0.012969
# 4 -0.016124 -0.018636 0.009121 0.052149 -0.007921 -0.027290
# 5 0.005998 0.014578 -0.009746 -0.007921 0.037504 0.010457
# 6 0.019634 0.037304 -0.012969 -0.027290 0.010457 0.068337
#
#
# Mechanical properties :
#
#
# Convention : Reuss Voigt Hill
#
# Bulk Modulus (GPa) = 15.82931 32.88542 24.35737
# Shear Modulus (GPa) = 17.74145 31.10220 24.42183
#
# Velocity S-wave (km/s) = 2.71493 3.59467 3.18532
# Velocity P-wave (km/s) = 4.05021 5.55800 4.86290
#
# Compressibility (1/GPa) = 0.06317395
#
# Stress axis : x y z
#
# Youngs Moduli (GPa) = 55.35779 22.94409 46.88858
#
# Poissons Ratio (x) = -0.31014 0.40111
# Poissons Ratio (y) = -0.74829 0.69693
# Poissons Ratio (z) = 0.47356 0.34103
#
# Static dielectric constant tensor:
#      x y z
#    x 6.006230 -0.839480 -1.714840 
#    y -0.839480 2.171510 0.383890 
#    z -1.714840 0.383890 2.643920 
# 
# From -- ./inp_files/399928.got.cif
#   From: 2010.05.17/outbox.cif.g08.bks.cpg/sg2_200_cif.got.tgz:399928.got - 2010.06.03 11:33:40.
