data_PCOD9029353
_publ_section_title
;
Structure prediction by ZEFSAII (Michael W. Deem and Ramdas Pophale) SiO2 
 PCOD9029353
Probable space group: P -1
;
_chemical_formula_sum "Si O2"
_cell_formula_units_Z 12
_cell_length_a 12.114840
_cell_length_b 5.034382
_cell_length_c 18.105110
_cell_angle_alpha 122.480377
_cell_angle_beta 149.849205
_cell_angle_gamma 66.291655
_cell_volume 462.796856
_symmetry_space_group_name_H-M "P -1"
_symmetry_group_IT_number 2
_symmetry_cell_setting 'triclinic'
loop_
_space_group_symop_operation_xyz
x,y,z
-x,-y,-z
loop_
_atom_site_type_symbol
_atom_site_label
_atom_site_fract_x
_atom_site_fract_y
_atom_site_fract_z
Si Si1 0.686558 0.966836 0.793846
Si Si2 0.489042 0.739001 0.127625
Si Si3 0.122013 0.690339 0.190373
Si Si4 0.799498 0.283906 0.309538
Si Si5 0.697736 0.322586 0.558925
Si Si6 0.115868 0.821329 0.822551
O O1 0.825789 0.670128 0.831391
O O2 0.424114 0.871531 0.607716
O O3 0.678187 0.136082 0.891637
O O4 0.782835 0.181796 0.813365
O O5 0.688828 0.008781 0.258416
O O6 0.332452 0.683425 0.956622
O O7 0.104513 0.166906 0.904896
O O8 0.247139 0.851439 0.360190
O O9 0.884152 0.152226 0.261877
O O10 0.000000 0.500000 0.500000
O O11 0.604978 0.474736 0.196732
O O12 0.500000 0.500000 0.500000
O O13 0.910029 0.565432 0.693362
#
# Coordination Sequence:
#
# PCOD9029353 Si02
#       6
#     2   2   2   2   2   2
#     4  11  24  43  70 102 151 185 244 288 351 436
#     4  12  29  49  72 111 146 191 240 302 363 426
#     4  11  23  41  69 106 142 192 234 290 360 415
#     4  12  29  52  78 103 140 194 251 298 359 432
#     4  10  22  42  67 107 140 194 235 285 352 428
#     4  12  27  45  78 106 152 186 242 303 363 423
#
# _framework density 25.929300999999999
#
# number of rings (size 3 to 8) (size 9 to 14) (size 15 to 20)
#    0.000    0.667    3.333    4.000    9.333    1.333 
#    0.000    0.000    0.000    0.000    0.000    0.000 
#    0.000    0.000    0.000    0.000    0.000    0.000 
#
# Total GULP energy -67202.198275 kJ/mol
# GULP energy per Si atom -5600.183190 kJ/mol
# Density = 2.587028 g / cm^3
# Si number density = 25.929301 Si / 1000 Ang^3
#
#
#
# Elastic Constant Matrix: (Units=GPa)
#
#
# Indices 1 2 3 4 5 6 
#
# 1 163.5663 38.2063 11.3311 6.8700 8.1709 12.2003
# 2 38.2063 131.4806 10.1835 -0.7448 6.7176 16.5422
# 3 11.3311 10.1835 113.9229 -0.7563 15.5199 14.0393
# 4 6.8700 -0.7448 -0.7563 44.4196 10.2340 9.7968
# 5 8.1709 6.7176 15.5199 10.2340 41.1699 -4.1939
# 6 12.2003 16.5422 14.0393 9.7968 -4.1939 39.7402
#
#
#
# Elastic Compliance Matrix: (Units=1/GPa)
#
#
# Indices 1 2 3 4 5 6 
#
# 1 0.006696 -0.001731 -0.000240 -0.000588 -0.000932 -0.001204
# 2 -0.001731 0.008678 0.000131 0.001684 -0.001922 -0.003745
# 3 -0.000240 0.000131 0.010027 0.002332 -0.004803 -0.004605
# 4 -0.000588 0.001684 0.002332 0.026580 -0.008541 -0.008798
# 5 -0.000932 -0.001922 -0.004803 -0.008541 0.029537 0.008005
# 6 -0.001204 -0.003745 -0.004605 -0.008798 0.008005 0.031732
#
#
# Mechanical properties :
#
#
# Convention : Reuss Voigt Hill
#
# Bulk Modulus (GPa) = 46.03996 58.71242 52.37619
# Shear Modulus (GPa) = 40.26726 48.34920 44.30823
#
# Velocity S-wave (km/s) = 3.94504 4.32285 4.13826
# Velocity P-wave (km/s) = 6.20851 6.89989 6.56331
#
# Compressibility (1/GPa) = 0.02172026
#
# Stress axis : x y z
#
# Youngs Moduli (GPa) = 149.34670 115.23990 99.72805
#
# Poissons Ratio (x) = 0.19953 0.02391
# Poissons Ratio (y) = 0.25858 -0.01307
# Poissons Ratio (z) = 0.03581 -0.01510
#
# Static dielectric constant tensor:
#      x y z
#    x 2.014850 -0.099900 -0.065760 
#    y -0.099900 2.054320 -0.014950 
#    z -0.065760 -0.014950 2.196900 
# 
# From -- ./inp_files/596672.got.cif
#   From: 2010.05.17/outbox.cif.g08.bks.cpg/sg2_299_cif.got.tgz:596672.got - 2010.06.03 11:33:40.
