data_PCOD9029320
_publ_section_title
;
Structure prediction by ZEFSAII (Michael W. Deem and Ramdas Pophale) SiO2 
 PCOD9029320
Probable space group: P -1
;
_chemical_formula_sum "Si O2"
_cell_formula_units_Z 14
_cell_length_a 12.195483
_cell_length_b 10.678056
_cell_length_c 12.749919
_cell_angle_alpha 32.611154
_cell_angle_beta 119.756557
_cell_angle_gamma 93.079713
_cell_volume 487.352561
_symmetry_space_group_name_H-M "P -1"
_symmetry_group_IT_number 2
_symmetry_cell_setting 'triclinic'
loop_
_space_group_symop_operation_xyz
x,y,z
-x,-y,-z
loop_
_atom_site_type_symbol
_atom_site_label
_atom_site_fract_x
_atom_site_fract_y
_atom_site_fract_z
Si Si1 0.992503 0.450532 0.406323
Si Si2 0.799590 0.480574 0.952424
Si Si3 0.329564 0.510866 0.483914
Si Si4 0.014431 0.379201 0.944348
Si Si5 0.341809 0.613732 0.202092
Si Si6 0.650703 0.656697 0.172506
Si Si7 0.359299 0.742172 0.860690
O O1 0.802192 0.552030 0.236903
O O2 0.000000 0.500000 0.500000
O O3 0.971549 0.657228 0.151161
O O4 0.198000 0.010287 0.799714
O O5 0.980501 0.235454 0.122301
O O6 0.623347 0.659214 0.661114
O O7 0.767523 0.309004 0.136101
O O8 0.816484 0.688797 0.880771
O O9 0.224095 0.714803 0.181415
O O10 0.455745 0.556635 0.544226
O O11 0.234190 0.561498 0.509769
O O12 0.488947 0.085010 0.824826
O O13 0.806884 0.822731 0.544376
O O14 0.527208 0.607874 0.114617
O O15 0.500000 0.500000 0.000000
#
# Coordination Sequence:
#
# PCOD9029320 Si02
#       7
#     2   2   2   2   2   2   2
#     4  12  25  44  70 105 141 190 230 289 350 420
#     4  11  24  46  74 100 134 191 229 289 353 414
#     4  10  22  42  67 101 139 186 226 297 342 417
#     4  11  26  48  70  99 148 180 234 293 348 413
#     4  11  22  41  69 100 138 182 235 279 354 416
#     4  11  23  42  69 102 141 182 234 286 359 401
#     4  12  25  44  74 104 136 184 232 291 349 425
#
# _framework density 28.726635000000002
#
# number of rings (size 3 to 8) (size 9 to 14) (size 15 to 20)
#    0.000    0.857    4.286    2.143    6.000    1.143 
#    0.000    2.857    0.000    0.000    0.000    0.000 
#    0.000    0.000    0.000    0.000    0.000    0.000 
#
# Total GULP energy -78252.563622 kJ/mol
# GULP energy per Si atom -5589.468830 kJ/mol
# Density = 2.866125 g / cm^3
# Si number density = 28.726635 Si / 1000 Ang^3
#
#
#
# Elastic Constant Matrix: (Units=GPa)
#
#
# Indices 1 2 3 4 5 6 
#
# 1 226.0601 47.6910 27.0181 -4.4913 -7.3520 -19.5614
# 2 47.6910 135.5189 41.3321 37.0882 3.1813 -8.5323
# 3 27.0181 41.3321 75.4023 -0.9884 -9.1740 -12.1385
# 4 -4.4913 37.0882 -0.9884 52.3134 -5.5708 0.7301
# 5 -7.3520 3.1813 -9.1740 -5.5708 48.0045 6.3309
# 6 -19.5614 -8.5323 -12.1385 0.7301 6.3309 52.5006
#
#
#
# Elastic Compliance Matrix: (Units=1/GPa)
#
#
# Indices 1 2 3 4 5 6 
#
# 1 0.005114 -0.002238 -0.000246 0.002104 0.000952 0.001341
# 2 -0.002238 0.013137 -0.006940 -0.010039 -0.003742 0.000287
# 3 -0.000246 -0.006940 0.018127 0.005658 0.004229 0.002383
# 4 0.002104 -0.010039 0.005658 0.027091 0.005286 -0.000554
# 5 0.000952 -0.003742 0.004229 0.005286 0.022925 -0.002114
# 6 0.001341 0.000287 0.002383 -0.000554 -0.002114 0.020407
#
#
# Mechanical properties :
#
#
# Convention : Reuss Voigt Hill
#
# Bulk Modulus (GPa) = 57.04827 74.34040 65.69433
# Shear Modulus (GPa) = 38.02501 51.95970 44.99236
#
# Velocity S-wave (km/s) = 3.64219 4.25757 3.96185
# Velocity P-wave (km/s) = 6.13103 7.07841 6.62169
#
# Compressibility (1/GPa) = 0.01752902
#
# Stress axis : x y z
#
# Youngs Moduli (GPa) = 195.54121 76.12285 55.16737
#
# Poissons Ratio (x) = 0.17038 0.01359
# Poissons Ratio (y) = 0.43768 0.38284
# Poissons Ratio (z) = 0.04816 0.52826
#
# Static dielectric constant tensor:
#      x y z
#    x 2.378500 -0.051590 -0.095640 
#    y -0.051590 2.322110 0.036820 
#    z -0.095640 0.036820 2.269030 
# 
# From -- ./inp_files/427429.got.cif
#   From: 2010.05.17/outbox.cif.g08.bks.cpg/sg2_214_cif.got.tgz:427429.got - 2010.06.03 11:33:40.
