data_PCOD9029643
_publ_section_title
;
Structure prediction by ZEFSAII (Michael W. Deem and Ramdas Pophale) SiO2 
 PCOD9029643
Probable space group: P -1
;
_chemical_formula_sum "Si O2"
_cell_formula_units_Z 16
_cell_length_a 12.063933
_cell_length_b 11.161782
_cell_length_c 15.117747
_cell_angle_alpha 117.263168
_cell_angle_beta 151.913067
_cell_angle_gamma 80.491434
_cell_volume 699.453747
_symmetry_space_group_name_H-M "P -1"
_symmetry_group_IT_number 2
_symmetry_cell_setting 'triclinic'
loop_
_space_group_symop_operation_xyz
x,y,z
-x,-y,-z
loop_
_atom_site_type_symbol
_atom_site_label
_atom_site_fract_x
_atom_site_fract_y
_atom_site_fract_z
Si Si1 0.053413 0.699862 0.389103
Si Si2 0.042936 0.099335 0.319772
Si Si3 0.856975 0.307211 0.344280
Si Si4 0.349124 0.064328 0.177435
Si Si5 0.007430 0.522563 0.134721
Si Si6 0.791987 0.873924 0.233194
Si Si7 0.092975 0.245074 0.134194
Si Si8 0.512854 0.322068 0.604998
O O1 0.151391 0.716203 0.563729
O O2 0.318937 0.851366 0.574053
O O3 0.996591 0.550031 0.239836
O O4 0.790118 0.714667 0.198336
O O5 0.331821 0.167497 0.490359
O O6 0.046854 0.249033 0.416997
O O7 0.951898 0.967308 0.287031
O O8 0.799551 0.020850 0.047825
O O9 0.000000 0.500000 0.500000
O O10 0.539422 0.191460 0.037317
O O11 0.269639 0.195150 0.183608
O O12 0.196023 0.926230 0.098347
O O13 0.040724 0.372159 0.098405
O O14 0.270832 0.668955 0.312735
O O15 0.718260 0.472324 0.865309
O O16 0.000000 0.000000 0.500000
O O17 0.282409 0.325087 0.383988
#
# Coordination Sequence:
#
# PCOD9029643 Si02
#       8
#     2   2   2   2   2   2   2   2
#     4  12  26  44  71 105 138 184 233 281 358 415
#     4  11  24  47  74  98 139 184 236 287 350 413
#     4  12  29  48  72 106 142 184 240 297 352 415
#     4  10  22  42  68 101 133 179 236 277 345 418
#     4  11  25  42  69 102 146 178 224 282 355 418
#     4  12  26  48  74 100 143 187 239 297 342 418
#     4  10  22  43  67  95 141 184 222 283 342 414
#     4  10  24  42  66 103 135 176 229 279 343 419
#
# _framework density 22.874994000000001
#
# number of rings (size 3 to 8) (size 9 to 14) (size 15 to 20)
#    0.000    1.000    3.750    1.500    7.000    3.500 
#    0.000    2.500    0.000    0.000    0.000    0.000 
#    0.000    0.000    0.000    0.000    0.000    0.000 
#
# Total GULP energy -89324.797640 kJ/mol
# GULP energy per Si atom -5582.799853 kJ/mol
# Density = 2.282293 g / cm^3
# Si number density = 22.874994 Si / 1000 Ang^3
#
#
#
# Elastic Constant Matrix: (Units=GPa)
#
#
# Indices 1 2 3 4 5 6 
#
# 1 94.9033 30.7198 23.3974 -2.9362 -16.7851 3.0012
# 2 30.7198 81.0620 21.2165 -0.1723 3.3429 -4.7705
# 3 23.3974 21.2165 63.7359 -6.3632 -11.7810 0.6983
# 4 -2.9362 -0.1723 -6.3632 22.5656 0.2955 -3.7329
# 5 -16.7851 3.3429 -11.7810 0.2955 36.7015 8.8854
# 6 3.0012 -4.7705 0.6983 -3.7329 8.8854 27.9860
#
#
#
# Elastic Compliance Matrix: (Units=1/GPa)
#
#
# Indices 1 2 3 4 5 6 
#
# 1 0.014297 -0.005507 -0.001924 0.000386 0.007576 -0.004778
# 2 -0.005507 0.016297 -0.004832 -0.000946 -0.006890 0.005551
# 3 -0.001924 -0.004832 0.019701 0.004766 0.006457 -0.002523
# 4 0.000386 -0.000946 0.004766 0.046680 -0.000014 0.005909
# 5 0.007576 -0.006890 0.006457 -0.000014 0.036758 -0.013820
# 6 -0.004778 0.005551 -0.002523 0.005909 -0.013820 0.042430
#
#
# Mechanical properties :
#
#
# Convention : Reuss Voigt Hill
#
# Bulk Modulus (GPa) = 38.80652 43.37428 41.09040
# Shear Modulus (GPa) = 23.89149 28.40845 26.14997
#
# Velocity S-wave (km/s) = 3.23528 3.52788 3.38475
# Velocity P-wave (km/s) = 5.56395 5.96634 5.76865
#
# Compressibility (1/GPa) = 0.02576886
#
# Stress axis : x y z
#
# Youngs Moduli (GPa) = 69.94421 61.36152 50.75759
#
# Poissons Ratio (x) = 0.33794 0.09765
# Poissons Ratio (y) = 0.38521 0.24526
# Poissons Ratio (z) = 0.13456 0.29650
#
# Static dielectric constant tensor:
#      x y z
#    x 1.851620 -0.015880 0.000980 
#    y -0.015880 1.833440 0.032550 
#    z 0.000980 0.032550 1.917790 
# 
# From -- ./inp_files/519883.got.cif
#   From: 2010.05.17/outbox.cif.g08.bks.cpg/sg2_260_cif.got.tgz:519883.got - 2010.06.03 11:33:40.
