data_PCOD9029124
_publ_section_title
;
Structure prediction by ZEFSAII (Michael W. Deem and Ramdas Pophale) SiO2 
 PCOD9029124
Probable space group: P -1
;
_chemical_formula_sum "Si O2"
_cell_formula_units_Z 12
_cell_length_a 8.588837
_cell_length_b 9.585889
_cell_length_c 7.812308
_cell_angle_alpha 105.076316
_cell_angle_beta 129.963030
_cell_angle_gamma 60.902166
_cell_volume 429.454379
_symmetry_space_group_name_H-M "P -1"
_symmetry_group_IT_number 2
_symmetry_cell_setting 'triclinic'
loop_
_space_group_symop_operation_xyz
x,y,z
-x,-y,-z
loop_
_atom_site_type_symbol
_atom_site_label
_atom_site_fract_x
_atom_site_fract_y
_atom_site_fract_z
Si Si1 0.237164 0.815108 0.790159
Si Si2 0.864888 0.254040 0.938026
Si Si3 0.355017 0.031892 0.138416
Si Si4 0.473206 0.697382 0.589389
Si Si5 0.054178 0.481439 0.257715
Si Si6 0.171082 0.235498 0.577581
O O1 0.381524 0.687969 0.709839
O O2 0.980532 0.861202 0.572913
O O3 0.263722 0.739436 0.973997
O O4 0.302604 0.963605 0.901280
O O5 0.721836 0.245790 0.672586
O O6 0.109257 0.102124 0.072716
O O7 0.930594 0.403962 0.022613
O O8 0.430144 0.172031 0.263932
O O9 0.570737 0.878701 0.307632
O O10 0.692253 0.550842 0.622426
O O11 0.092401 0.366742 0.414159
O O12 0.892444 0.661610 0.258964
#
# Coordination Sequence:
#
# PCOD9029124 Si02
#       6
#     2   2   2   2   2   2
#     4  11  24  40  66  98 127 167 214 260 318 377
#     4  10  23  43  67  95 127 168 213 260 318 377
#     4  11  23  41  64  94 131 167 209 263 318 374
#     4  11  24  43  66  96 131 165 212 267 314 374
#     4   9  22  43  65  93 129 169 212 261 317 376
#     4  10  22  42  66  93 129 170 212 260 316 379
#
# _framework density 27.942433000000001
#
# number of rings (size 3 to 8) (size 9 to 14) (size 15 to 20)
#    0.000    1.667    0.000    3.000    0.000   16.667 
#    0.000    6.667    0.000    0.000    0.000    0.000 
#    0.000    0.000    0.000    0.000    0.000    0.000 
#
# Total GULP energy -67272.823216 kJ/mol
# GULP energy per Si atom -5606.068601 kJ/mol
# Density = 2.787883 g / cm^3
# Si number density = 27.942433 Si / 1000 Ang^3
#
#
#
# Elastic Constant Matrix: (Units=GPa)
#
#
# Indices 1 2 3 4 5 6 
#
# 1 146.0607 40.9950 67.0874 12.3971 8.2779 -20.7957
# 2 40.9950 137.9060 65.9266 17.8800 8.2543 -15.6472
# 3 67.0874 65.9266 188.2303 20.3000 20.2648 -2.6948
# 4 12.3971 17.8800 20.3000 48.5086 -7.3315 -6.6169
# 5 8.2779 8.2543 20.2648 -7.3315 45.3399 17.0352
# 6 -20.7957 -15.6472 -2.6948 -6.6169 17.0352 29.4515
#
#
#
# Elastic Compliance Matrix: (Units=1/GPa)
#
#
# Indices 1 2 3 4 5 6 
#
# 1 0.009659 -0.000294 -0.002747 -0.000627 -0.003757 0.008445
# 2 -0.000294 0.009760 -0.002665 -0.002052 -0.003155 0.006097
# 3 -0.002747 -0.002665 0.007641 -0.002087 -0.002034 -0.001949
# 4 -0.000627 -0.002052 -0.002087 0.023238 0.004937 0.000642
# 5 -0.003757 -0.003155 -0.002034 0.004937 0.033606 -0.022844
# 6 0.008445 0.006097 -0.001949 0.000642 -0.022844 0.056335
#
#
# Mechanical properties :
#
#
# Convention : Reuss Voigt Hill
#
# Bulk Modulus (GPa) = 63.90674 91.13499 77.52087
# Shear Modulus (GPa) = 31.87410 44.53919 38.20665
#
# Velocity S-wave (km/s) = 3.38110 3.99678 3.70176
# Velocity P-wave (km/s) = 6.17762 7.34745 6.78778
#
# Compressibility (1/GPa) = 0.01564780
#
# Stress axis : x y z
#
# Youngs Moduli (GPa) = 103.53042 102.46423 130.87004
#
# Poissons Ratio (x) = 0.03012 0.35946
# Poissons Ratio (y) = 0.03044 0.34880
# Poissons Ratio (z) = 0.28437 0.27309
#
# Static dielectric constant tensor:
#      x y z
#    x 2.224520 0.064230 -0.041790 
#    y 0.064230 2.228370 0.044540 
#    z -0.041790 0.044540 2.156840 
# 
# From -- ./inp_files/165816.got.cif
#   From: 2010.05.17/outbox.cif.g08.bks.cpg/sg2_83_cif.got.tgz:165816.got - 2010.06.03 11:33:40.
