data_PCOD9029448
_publ_section_title
;
Structure prediction by ZEFSAII (Michael W. Deem and Ramdas Pophale) SiO2 
 PCOD9029448
Probable space group: P -1
;
_chemical_formula_sum "Si O2"
_cell_formula_units_Z 14
_cell_length_a 8.945610
_cell_length_b 7.522740
_cell_length_c 11.829353
_cell_angle_alpha 112.668254
_cell_angle_beta 98.923882
_cell_angle_gamma 50.465874
_cell_volume 561.963718
_symmetry_space_group_name_H-M "P -1"
_symmetry_group_IT_number 2
_symmetry_cell_setting 'triclinic'
loop_
_space_group_symop_operation_xyz
x,y,z
-x,-y,-z
loop_
_atom_site_type_symbol
_atom_site_label
_atom_site_fract_x
_atom_site_fract_y
_atom_site_fract_z
Si Si1 0.700566 0.505086 0.808274
Si Si2 0.689690 0.063225 0.731192
Si Si3 0.364256 0.429282 0.933835
Si Si4 0.031660 0.195162 0.596196
Si Si5 0.397397 0.803373 0.669246
Si Si6 0.262482 0.366882 0.487913
Si Si7 0.145148 0.691911 0.750042
O O1 0.653777 0.311276 0.745871
O O2 0.898266 0.361637 0.727401
O O3 0.528439 0.749631 0.781035
O O4 0.721658 0.557718 0.951988
O O5 0.518748 0.165617 0.826754
O O6 0.685337 0.893734 0.600298
O O7 0.910856 0.887367 0.762077
O O8 0.210478 0.624658 0.870667
O O9 0.500000 0.500000 0.000000
O O10 0.938843 0.399099 0.536816
O O11 0.000000 0.000000 0.500000
O O12 0.248273 0.038991 0.630563
O O13 0.574997 0.631168 0.556776
O O14 0.243473 0.781981 0.708553
O O15 0.239389 0.436065 0.632264
#
# Coordination Sequence:
#
# PCOD9029448 Si02
#       7
#     2   2   2   2   2   2   2
#     4  10  22  42  67  95 124 167 222 259 307 383
#     4  11  23  41  62  97 132 162 210 273 321 372
#     4  10  23  40  65  96 126 165 223 263 308 378
#     4  11  22  39  65  93 128 167 213 256 311 388
#     4  11  22  40  65  91 124 173 212 254 318 384
#     4  11  26  39  62 100 136 158 208 273 331 371
#     4  12  22  39  68  95 124 172 214 259 320 381
#
# _framework density 24.912642000000002
#
# number of rings (size 3 to 8) (size 9 to 14) (size 15 to 20)
#    0.000    1.143    5.714    0.857    2.000    6.286 
#    0.000    2.857    0.000    5.143    0.000    0.000 
#    0.000    0.000    0.000    0.000    0.000    0.000 
#
# Total GULP energy -78215.615881 kJ/mol
# GULP energy per Si atom -5586.829706 kJ/mol
# Density = 2.485594 g / cm^3
# Si number density = 24.912642 Si / 1000 Ang^3
#
#
#
# Elastic Constant Matrix: (Units=GPa)
#
#
# Indices 1 2 3 4 5 6 
#
# 1 57.0443 57.5956 5.1757 -9.8492 -2.8819 1.7584
# 2 57.5956 153.7716 53.0072 -23.3192 -5.4893 -4.7410
# 3 5.1757 53.0072 137.5496 -24.9197 -25.0222 -2.8617
# 4 -9.8492 -23.3192 -24.9197 42.9087 -3.8783 4.0617
# 5 -2.8819 -5.4893 -25.0222 -3.8783 28.5784 10.4673
# 6 1.7584 -4.7410 -2.8617 4.0617 10.4673 50.8274
#
#
#
# Elastic Compliance Matrix: (Units=1/GPa)
#
#
# Indices 1 2 3 4 5 6 
#
# 1 0.031451 -0.012982 0.006087 0.004815 0.008132 -0.004016
# 2 -0.012982 0.013159 -0.005155 0.000611 -0.004004 0.002162
# 3 0.006087 -0.005155 0.012647 0.007410 0.012883 -0.003225
# 4 0.004815 0.000611 0.007410 0.030680 0.013022 -0.004826
# 5 0.008132 -0.004004 0.012883 0.013022 0.052397 -0.011761
# 6 -0.004016 0.002162 -0.003225 -0.004826 -0.011761 0.022641
#
#
# Mechanical properties :
#
#
# Convention : Reuss Voigt Hill
#
# Bulk Modulus (GPa) = 30.15925 64.43584 47.29754
# Shear Modulus (GPa) = 25.23628 39.96872 32.60250
#
# Velocity S-wave (km/s) = 3.18620 4.00979 3.62148
# Velocity P-wave (km/s) = 5.06637 6.88177 6.04263
#
# Compressibility (1/GPa) = 0.03315732
#
# Stress axis : x y z
#
# Youngs Moduli (GPa) = 31.79526 75.99319 79.07114
#
# Poissons Ratio (x) = 0.98654 -0.48134
# Poissons Ratio (y) = 0.41276 0.40764
# Poissons Ratio (z) = -0.19355 0.39178
#
# Static dielectric constant tensor:
#      x y z
#    x 2.135490 0.048600 -0.006350 
#    y 0.048600 1.941320 0.001420 
#    z -0.006350 0.001420 2.015520 
# 
# From -- ./inp_files/450423.got.cif
#   From: 2010.05.17/outbox.cif.g08.bks.cpg/sg2_226_cif.got.tgz:450423.got - 2010.06.03 11:33:40.
