data_PCOD9029567
_publ_section_title
;
Structure prediction by ZEFSAII (Michael W. Deem and Ramdas Pophale) SiO2 
 PCOD9029567
Probable space group: P -1
;
_chemical_formula_sum "Si O2"
_cell_formula_units_Z 14
_cell_length_a 9.582720
_cell_length_b 6.565440
_cell_length_c 21.565616
_cell_angle_alpha 104.488871
_cell_angle_beta 143.599018
_cell_angle_gamma 101.547276
_cell_volume 557.566365
_symmetry_space_group_name_H-M "P -1"
_symmetry_group_IT_number 2
_symmetry_cell_setting 'triclinic'
loop_
_space_group_symop_operation_xyz
x,y,z
-x,-y,-z
loop_
_atom_site_type_symbol
_atom_site_label
_atom_site_fract_x
_atom_site_fract_y
_atom_site_fract_z
Si Si1 0.429856 0.289641 0.530416
Si Si2 0.100827 0.689078 0.391147
Si Si3 0.791521 0.574887 0.148393
Si Si4 0.818729 0.931847 0.769600
Si Si5 0.827074 0.195892 0.054543
Si Si6 0.784736 0.115624 0.280483
Si Si7 0.289551 0.713939 0.170144
O O1 0.668693 0.320545 0.569628
O O2 0.593720 0.592876 0.644960
O O3 0.094215 0.174357 0.373176
O O4 0.306324 0.021193 0.509542
O O5 0.830575 0.600479 0.237775
O O6 0.932321 0.443410 0.364581
O O7 0.801782 0.339269 0.113504
O O8 0.500000 0.500000 0.000000
O O9 0.091022 0.883992 0.245838
O O10 0.125810 0.008631 0.919086
O O11 0.706430 0.045591 0.784052
O O12 0.157802 0.471598 0.156655
O O13 0.510544 0.043134 0.886795
O O14 0.629629 0.909765 0.269688
O O15 0.000000 0.500000 0.000000
#
# Coordination Sequence:
#
# PCOD9029567 Si02
#       7
#     2   2   2   2   2   2   2
#     4  11  26  41  63  97 133 176 213 261 323 389
#     4  11  25  40  64  95 137 173 213 258 325 390
#     4  11  23  38  65 100 131 166 221 267 316 390
#     4  11  24  42  70  92 133 172 210 273 329 371
#     4  10  22  42  67  98 126 169 217 272 323 376
#     4  11  24  42  68  93 131 172 218 265 324 385
#     4   9  23  45  69  96 128 164 223 272 325 381
#
# _framework density 25.109117000000001
#
# number of rings (size 3 to 8) (size 9 to 14) (size 15 to 20)
#    0.000    1.429    1.429    2.143    8.000    7.429 
#    0.000    1.429    0.000    0.000    0.000    0.000 
#    0.000    0.000    0.000    0.000    0.000    0.000 
#
# Total GULP energy -78249.309436 kJ/mol
# GULP energy per Si atom -5589.236388 kJ/mol
# Density = 2.505197 g / cm^3
# Si number density = 25.109117 Si / 1000 Ang^3
#
#
#
# Elastic Constant Matrix: (Units=GPa)
#
#
# Indices 1 2 3 4 5 6 
#
# 1 53.2117 13.9140 23.5420 12.2829 -4.3079 -12.3935
# 2 13.9140 125.3783 39.3911 18.7927 8.0373 -1.3942
# 3 23.5420 39.3911 125.0835 -0.6696 8.2200 -6.9890
# 4 12.2829 18.7927 -0.6696 69.1869 -6.2233 -1.1229
# 5 -4.3079 8.0373 8.2200 -6.2233 21.2356 7.6773
# 6 -12.3935 -1.3942 -6.9890 -1.1229 7.6773 33.7416
#
#
#
# Elastic Compliance Matrix: (Units=1/GPa)
#
#
# Indices 1 2 3 4 5 6 
#
# 1 0.023480 -0.000952 -0.003954 -0.003556 0.003102 0.006942
# 2 -0.000952 0.009552 -0.002585 -0.002781 -0.003718 0.000263
# 3 -0.003954 -0.002585 0.009888 0.001180 -0.003810 0.001395
# 4 -0.003556 -0.002781 0.001180 0.016300 0.005318 -0.001844
# 5 0.003102 -0.003718 -0.003810 0.005318 0.056688 -0.012525
# 6 0.006942 0.000263 0.001395 -0.001844 -0.012525 0.035275
#
#
# Mechanical properties :
#
#
# Convention : Reuss Voigt Hill
#
# Bulk Modulus (GPa) = 35.79469 50.81863 43.30666
# Shear Modulus (GPa) = 28.49373 39.95458 34.22415
#
# Velocity S-wave (km/s) = 3.37233 3.99336 3.69591
# Velocity P-wave (km/s) = 5.42679 6.44559 5.95801
#
# Compressibility (1/GPa) = 0.02793710
#
# Stress axis : x y z
#
# Youngs Moduli (GPa) = 42.58905 104.69476 101.13763
#
# Poissons Ratio (x) = 0.09966 0.39995
# Poissons Ratio (y) = 0.04054 0.26141
# Poissons Ratio (z) = 0.16842 0.27060
#
# Static dielectric constant tensor:
#      x y z
#    x 1.977940 0.028470 0.037810 
#    y 0.028470 1.995930 0.007970 
#    z 0.037810 0.007970 2.144080 
# 
# From -- ./inp_files/617853.got.cif
#   From: 2010.05.17/outbox.cif.g08.bks.cpg/sg2_309_cif.got.tgz:617853.got - 2010.06.03 11:33:40.
