data_PCOD9029162
_publ_section_title
;
Structure prediction by ZEFSAII (Michael W. Deem and Ramdas Pophale) SiO2 
 PCOD9029162
Probable space group: P -1
;
_chemical_formula_sum "Si O2"
_cell_formula_units_Z 16
_cell_length_a 8.974233
_cell_length_b 16.036895
_cell_length_c 8.728003
_cell_angle_alpha 100.633726
_cell_angle_beta 127.864312
_cell_angle_gamma 112.844504
_cell_volume 743.703592
_symmetry_space_group_name_H-M "P -1"
_symmetry_group_IT_number 2
_symmetry_cell_setting 'triclinic'
loop_
_space_group_symop_operation_xyz
x,y,z
-x,-y,-z
loop_
_atom_site_type_symbol
_atom_site_label
_atom_site_fract_x
_atom_site_fract_y
_atom_site_fract_z
Si Si1 0.637150 0.057900 0.264148
Si Si2 0.530891 0.496583 0.333768
Si Si3 0.115606 0.484558 0.922183
Si Si4 0.103210 0.637009 0.733217
Si Si5 0.135995 0.129470 0.641785
Si Si6 0.656099 0.234151 0.511322
Si Si7 0.429680 0.832865 0.217754
Si Si8 0.439726 0.277150 0.161477
O O1 0.593784 0.137884 0.329067
O O2 0.932663 0.135957 0.459944
O O3 0.542498 0.956418 0.284574
O O4 0.500000 0.000000 0.000000
O O5 0.500000 0.500000 0.500000
O O6 0.421397 0.372476 0.182196
O O7 0.819044 0.573795 0.495508
O O8 0.377078 0.522224 0.152765
O O9 0.117942 0.554720 0.813782
O O10 0.928566 0.354269 0.717923
O O11 0.000000 0.500000 0.000000
O O12 0.301659 0.678989 0.738463
O O13 0.197945 0.741995 0.934360
O O14 0.377311 0.185832 0.711331
O O15 0.226400 0.176178 0.886225
O O16 0.000000 0.000000 0.500000
O O17 0.625840 0.191695 0.648828
O O18 0.464393 0.250948 0.341282
#
# Coordination Sequence:
#
# PCOD9029162 Si02
#       8
#     2   2   2   2   2   2   2   2
#     4  11  23  44  66  95 128 170 220 271 330 388
#     4  12  23  40  66  95 132 180 216 268 334 386
#     4  12  23  42  66 100 136 173 218 279 325 393
#     4  11  23  45  64  97 140 173 221 274 326 392
#     4   9  20  42  64  88 123 165 213 267 325 383
#     4  12  22  41  68  94 133 171 214 275 328 383
#     4  10  22  42  66  94 132 170 215 274 324 391
#     4  11  24  43  65  97 134 172 219 275 325 398
#
# _framework density 21.513947999999999
#
# number of rings (size 3 to 8) (size 9 to 14) (size 15 to 20)
#    0.000    1.000    3.750    3.750    0.000    0.500 
#    9.000    8.125    0.000    0.000    0.000    0.000 
#    0.000    0.000    0.000    0.000    0.000    0.000 
#
# Total GULP energy -89450.794939 kJ/mol
# GULP energy per Si atom -5590.674684 kJ/mol
# Density = 2.146498 g / cm^3
# Si number density = 21.513948 Si / 1000 Ang^3
#
#
#
# Elastic Constant Matrix: (Units=GPa)
#
#
# Indices 1 2 3 4 5 6 
#
# 1 31.5376 21.9815 25.2130 -2.6368 -2.6487 -10.0985
# 2 21.9815 94.1913 29.1076 1.9198 4.8912 -3.7214
# 3 25.2130 29.1076 133.1873 4.5520 10.0205 -8.4075
# 4 -2.6368 1.9198 4.5520 40.1228 -13.9055 -3.0970
# 5 -2.6487 4.8912 10.0205 -13.9055 41.6806 -6.9883
# 6 -10.0985 -3.7214 -8.4075 -3.0970 -6.9883 29.7197
#
#
#
# Elastic Compliance Matrix: (Units=1/GPa)
#
#
# Indices 1 2 3 4 5 6 
#
# 1 0.053268 -0.010111 -0.008063 0.010972 0.013328 0.018830
# 2 -0.010111 0.013348 -0.000852 -0.002620 -0.003394 -0.003077
# 3 -0.008063 -0.000852 0.009535 -0.003050 -0.003956 -0.001397
# 4 0.010972 -0.002620 -0.003050 0.031600 0.013802 0.009076
# 5 0.013328 -0.003394 -0.003956 0.013802 0.032829 0.012142
# 6 0.018830 -0.003077 -0.001397 0.009076 0.012142 0.043066
#
#
# Mechanical properties :
#
#
# Convention : Reuss Voigt Hill
#
# Bulk Modulus (GPa) = 26.24882 45.72449 35.98666
# Shear Modulus (GPa) = 21.33127 34.47889 27.90508
#
# Velocity S-wave (km/s) = 3.15224 4.00763 3.60539
# Velocity P-wave (km/s) = 5.04739 6.53562 5.83911
#
# Compressibility (1/GPa) = 0.03809695
#
# Stress axis : x y z
#
# Youngs Moduli (GPa) = 18.77303 74.91846 104.88136
#
# Poissons Ratio (x) = 0.75752 0.84568
# Poissons Ratio (y) = 0.18982 0.08939
# Poissons Ratio (z) = 0.15137 0.06385
#
# Static dielectric constant tensor:
#      x y z
#    x 1.825980 -0.006440 0.009280 
#    y -0.006440 1.795030 0.000350 
#    z 0.009280 0.000350 1.800890 
# 
# From -- ./inp_files/187058.got.cif
#   From: 2010.05.17/outbox.cif.g08.bks.cpg/sg2_94_cif.got.tgz:187058.got - 2010.06.03 11:33:40.
