data_PCOD9029407
_publ_section_title
;
Structure prediction by ZEFSAII (Michael W. Deem and Ramdas Pophale) SiO2 
 PCOD9029407
Probable space group: P -1
;
_chemical_formula_sum "Si O2"
_cell_formula_units_Z 14
_cell_length_a 11.559399
_cell_length_b 11.684847
_cell_length_c 11.437007
_cell_angle_alpha 143.637601
_cell_angle_beta 42.581305
_cell_angle_gamma 139.969596
_cell_volume 559.318989
_symmetry_space_group_name_H-M "P -1"
_symmetry_group_IT_number 2
_symmetry_cell_setting 'triclinic'
loop_
_space_group_symop_operation_xyz
x,y,z
-x,-y,-z
loop_
_atom_site_type_symbol
_atom_site_label
_atom_site_fract_x
_atom_site_fract_y
_atom_site_fract_z
Si Si1 0.192933 0.636443 0.113472
Si Si2 0.201828 0.869528 0.644609
Si Si3 0.452101 0.697979 0.173757
Si Si4 0.746817 0.069590 0.879421
Si Si5 0.152001 0.725638 0.807055
Si Si6 0.116916 0.015137 0.592746
Si Si7 0.516802 0.696476 0.571157
O O1 0.381306 0.674773 0.074198
O O2 0.222412 0.700208 0.008514
O O3 0.030339 0.414758 0.095335
O O4 0.130923 0.813485 0.356582
O O5 0.287596 0.722334 0.394414
O O6 0.088892 0.751239 0.746030
O O7 0.372257 0.078052 0.744143
O O8 0.106341 0.958065 0.691047
O O9 0.500000 0.500000 0.000000
O O10 0.937539 0.038127 0.696156
O O11 0.586004 0.891758 0.774810
O O12 0.736978 0.066407 0.024149
O O13 0.316155 0.642037 0.613372
O O14 0.313099 0.218896 0.580908
O O15 0.500000 0.500000 0.500000
#
# Coordination Sequence:
#
# PCOD9029407 Si02
#       7
#     2   2   2   2   2   2   2
#     4  10  22  42  67  93 130 175 219 269 331 393
#     4  10  23  45  64  97 139 171 221 276 327 393
#     4  10  22  44  70  94 129 183 223 264 333 399
#     4  11  23  42  66  96 132 172 219 267 336 396
#     4  12  24  41  63  98 137 164 215 283 325 388
#     4  10  22  43  69  89 131 179 215 268 333 397
#     4  11  22  41  67  95 126 171 222 273 329 383
#
# _framework density 25.030439000000001
#
# number of rings (size 3 to 8) (size 9 to 14) (size 15 to 20)
#    0.000    1.429    0.000    7.714    2.000    2.857 
#   10.286    0.000    0.000    0.000    0.000    0.000 
#    0.000    0.000    0.000    0.000    0.000    0.000 
#
# Total GULP energy -78303.021811 kJ/mol
# GULP energy per Si atom -5593.072987 kJ/mol
# Density = 2.497347 g / cm^3
# Si number density = 25.030439 Si / 1000 Ang^3
#
#
#
# Elastic Constant Matrix: (Units=GPa)
#
#
# Indices 1 2 3 4 5 6 
#
# 1 160.0652 34.3462 17.9651 -6.6139 10.0579 -27.4403
# 2 34.3462 111.0921 19.7450 -0.6657 10.2020 -15.5378
# 3 17.9651 19.7450 52.1542 7.0123 -2.1083 -16.7604
# 4 -6.6139 -0.6657 7.0123 31.8553 -5.6390 5.5249
# 5 10.0579 10.2020 -2.1083 -5.6390 43.0356 -6.9482
# 6 -27.4403 -15.5378 -16.7604 5.5249 -6.9482 49.1075
#
#
#
# Elastic Compliance Matrix: (Units=1/GPa)
#
#
# Indices 1 2 3 4 5 6 
#
# 1 0.007315 -0.001564 -0.001151 0.001088 -0.000773 0.002968
# 2 -0.001564 0.010381 -0.003146 0.000037 -0.002077 0.001039
# 3 -0.001151 -0.003146 0.024228 -0.006519 0.002596 0.007731
# 4 0.001088 0.000037 -0.006519 0.034481 0.003121 -0.005043
# 5 -0.000773 -0.002077 0.002596 0.003121 0.024926 0.002972
# 6 0.002968 0.001039 0.007731 -0.005043 0.002972 0.025977
#
#
# Mechanical properties :
#
#
# Convention : Reuss Voigt Hill
#
# Bulk Modulus (GPa) = 33.11365 51.93602 42.52483
# Shear Modulus (GPa) = 33.53543 41.55002 37.54273
#
# Velocity S-wave (km/s) = 3.66428 4.07870 3.87703
# Velocity P-wave (km/s) = 5.58217 6.55555 6.08835
#
# Compressibility (1/GPa) = 0.03019902
#
# Stress axis : x y z
#
# Youngs Moduli (GPa) = 136.71284 96.33389 41.27541
#
# Poissons Ratio (x) = 0.15069 0.04752
# Poissons Ratio (y) = 0.21385 0.12987
# Poissons Ratio (z) = 0.15739 0.30310
#
# Static dielectric constant tensor:
#      x y z
#    x 1.947300 -0.015350 0.025030 
#    y -0.015350 2.067800 -0.065310 
#    z 0.025030 -0.065310 2.079850 
# 
# From -- ./inp_files/426827.got.cif
#   From: 2010.05.17/outbox.cif.g08.bks.cpg/sg2_214_cif.got.tgz:426827.got - 2010.06.03 11:33:40.
