data_PCOD9029623
_publ_section_title
;
Structure prediction by ZEFSAII (Michael W. Deem and Ramdas Pophale) SiO2 
 PCOD9029623
Probable space group: P -1
;
_chemical_formula_sum "Si O2"
_cell_formula_units_Z 16
_cell_length_a 9.231060
_cell_length_b 5.332001
_cell_length_c 17.226209
_cell_angle_alpha 76.482611
_cell_angle_beta 105.155989
_cell_angle_gamma 127.174672
_cell_volume 648.913797
_symmetry_space_group_name_H-M "P -1"
_symmetry_group_IT_number 2
_symmetry_cell_setting 'triclinic'
loop_
_space_group_symop_operation_xyz
x,y,z
-x,-y,-z
loop_
_atom_site_type_symbol
_atom_site_label
_atom_site_fract_x
_atom_site_fract_y
_atom_site_fract_z
Si Si1 0.475899 0.934038 0.347375
Si Si2 0.059327 0.221925 0.916467
Si Si3 0.354551 0.334950 0.700128
Si Si4 0.285840 0.845816 0.177635
Si Si5 0.318418 0.676517 0.026913
Si Si6 0.569092 0.532426 0.132032
Si Si7 0.012353 0.206280 0.605319
Si Si8 0.806537 0.528780 0.552999
O O1 0.627847 0.883455 0.341402
O O2 0.314276 0.744603 0.272555
O O3 0.397586 0.749215 0.430151
O O4 0.533291 0.291372 0.333302
O O5 0.229871 0.268754 0.890586
O O6 0.886225 0.127286 0.846959
O O7 0.163259 0.562183 0.949470
O O8 0.000000 0.000000 0.000000
O O9 0.424929 0.317847 0.795509
O O10 0.144699 0.217707 0.687167
O O11 0.249811 0.668408 0.104003
O O12 0.487060 0.173668 0.168451
O O13 0.405016 0.477935 0.060193
O O14 0.500000 0.000000 0.000000
O O15 0.147290 0.383940 0.537080
O O16 0.925131 0.391992 0.601047
O O17 0.867326 0.848739 0.582543
#
# Coordination Sequence:
#
# PCOD9029623 Si02
#       8
#     2   2   2   2   2   2   2   2
#     4  11  24  43  66  97 134 173 218 275 322 391
#     4  12  24  41  67  91 118 174 221 268 338 400
#     4  11  24  43  67  95 133 177 217 263 339 391
#     4  11  24  43  62  94 129 166 221 273 332 397
#     4  12  22  43  65  85 126 166 211 279 329 388
#     4  11  24  44  61  91 135 164 211 285 330 387
#     4  10  22  42  68 100 136 176 215 264 327 389
#     4  10  22  42  68 100 138 171 216 273 317 381
#
# _framework density 24.656586999999998
#
# number of rings (size 3 to 8) (size 9 to 14) (size 15 to 20)
#    0.000    1.000    3.750    3.000    1.750    1.000 
#    4.500    0.000    0.000    0.000    0.000    0.000 
#    0.000    0.000    0.000    0.000    0.000    0.000 
#
# Total GULP energy -89364.419271 kJ/mol
# GULP energy per Si atom -5585.276204 kJ/mol
# Density = 2.460047 g / cm^3
# Si number density = 24.656587 Si / 1000 Ang^3
#
#
#
# Elastic Constant Matrix: (Units=GPa)
#
#
# Indices 1 2 3 4 5 6 
#
# 1 93.8659 21.9752 8.3700 -11.4426 0.0990 1.9574
# 2 21.9752 61.3869 19.5313 -11.3758 -10.3067 4.2587
# 3 8.3700 19.5313 38.0228 -4.2158 -3.3616 1.7901
# 4 -11.4426 -11.3758 -4.2158 24.8528 9.8213 2.9594
# 5 0.0990 -10.3067 -3.3616 9.8213 42.2324 -2.2819
# 6 1.9574 4.2587 1.7901 2.9594 -2.2819 35.0587
#
#
#
# Elastic Compliance Matrix: (Units=1/GPa)
#
#
# Indices 1 2 3 4 5 6 
#
# 1 0.012141 -0.003623 -0.000432 0.004777 -0.002099 -0.000756
# 2 -0.003623 0.022481 -0.009693 0.005989 0.003205 -0.002330
# 3 -0.000432 -0.009693 0.031478 0.000788 -0.000068 -0.000477
# 4 0.004777 0.005989 0.000788 0.050159 -0.010473 -0.005950
# 5 -0.002099 0.003205 -0.000068 -0.010473 0.027024 0.002374
# 6 -0.000756 -0.002330 -0.000477 -0.005950 0.002374 0.029530
#
#
# Mechanical properties :
#
#
# Convention : Reuss Voigt Hill
#
# Bulk Modulus (GPa) = 25.90468 32.55874 29.23171
# Shear Modulus (GPa) = 23.45483 29.98871 26.72177
#
# Velocity S-wave (km/s) = 3.08760 3.49127 3.29562
# Velocity P-wave (km/s) = 4.82079 5.43005 5.13447
#
# Compressibility (1/GPa) = 0.03860306
#
# Stress axis : x y z
#
# Youngs Moduli (GPa) = 82.36803 44.48250 31.76836
#
# Poissons Ratio (x) = 0.16118 0.01371
# Poissons Ratio (y) = 0.29846 0.30793
# Poissons Ratio (z) = 0.03555 0.43117
#
# Static dielectric constant tensor:
#      x y z
#    x 2.000650 -0.034390 0.005850 
#    y -0.034390 2.056790 -0.032600 
#    z 0.005850 -0.032600 2.047680 
# 
# From -- ./inp_files/12771.got.cif
#   From: 2010.05.17/outbox.cif.g08.bks.cpg/sg2_7_cif.got.tgz:12771.got - 2010.06.03 11:33:40.
