data_PCOD9029530
_publ_section_title
;
Structure prediction by ZEFSAII (Michael W. Deem and Ramdas Pophale) SiO2 
 PCOD9029530
Probable space group: P -1
;
_chemical_formula_sum "Si O2"
_cell_formula_units_Z 16
_cell_length_a 15.898841
_cell_length_b 13.278337
_cell_length_c 11.844093
_cell_angle_alpha 83.355094
_cell_angle_beta 154.440037
_cell_angle_gamma 115.459799
_cell_volume 697.069987
_symmetry_space_group_name_H-M "P -1"
_symmetry_group_IT_number 2
_symmetry_cell_setting 'triclinic'
loop_
_space_group_symop_operation_xyz
x,y,z
-x,-y,-z
loop_
_atom_site_type_symbol
_atom_site_label
_atom_site_fract_x
_atom_site_fract_y
_atom_site_fract_z
Si Si1 0.057951 0.436802 0.484257
Si Si2 0.625864 0.072583 0.812223
Si Si3 0.461144 0.153849 0.397575
Si Si4 0.296812 0.425208 0.582655
Si Si5 0.470396 0.281007 0.757308
Si Si6 0.446234 0.891785 0.037158
Si Si7 0.135784 0.421249 0.141351
Si Si8 0.718337 0.739009 0.703512
O O1 0.000000 0.500000 0.500000
O O2 0.321151 0.510710 0.707364
O O3 0.789871 0.369503 0.083634
O O4 0.908080 0.276803 0.375268
O O5 0.484187 0.087966 0.542266
O O6 0.477870 0.035089 0.757487
O O7 0.625089 0.954780 0.793149
O O8 0.967540 0.244814 0.213101
O O9 0.249975 0.162738 0.176991
O O10 0.799427 0.328978 0.760537
O O11 0.499298 0.403793 0.832451
O O12 0.298385 0.476117 0.453990
O O13 0.400137 0.160027 0.772945
O O14 0.259967 0.208893 0.403422
O O15 0.500000 0.000000 0.000000
O O16 0.375158 0.564381 0.328534
O O17 0.088260 0.286218 0.057849
#
# Coordination Sequence:
#
# PCOD9029530 Si02
#       8
#     2   2   2   2   2   2   2   2
#     4   9  19  35  54  76 100 130 175 221 257 301
#     4   9  18  33  50  74 103 131 171 211 245 309
#     4  10  17  32  50  76 104 133 167 205 256 298
#     4   9  17  35  53  73 102 136 170 204 258 314
#     4   9  18  33  56  71  98 142 166 206 268 302
#     4   9  18  37  53  71 101 136 171 215 261 307
#     4   9  19  30  50  77 104 136 165 203 248 307
#     4  10  17  33  49  74 107 134 169 199 251 314
#
# _framework density 22.953220999999999
#
# number of rings (size 3 to 8) (size 9 to 14) (size 15 to 20)
#    0.750    2.000    1.250    1.125    0.000    0.500 
#    6.750    5.000    0.000    0.000    0.000    0.000 
#    0.000    0.000    0.000    0.000    0.000    0.000 
#
# Total GULP energy -89100.617937 kJ/mol
# GULP energy per Si atom -5568.788621 kJ/mol
# Density = 2.290098 g / cm^3
# Si number density = 22.953221 Si / 1000 Ang^3
#
#
#
# Elastic Constant Matrix: (Units=GPa)
#
#
# Indices 1 2 3 4 5 6 
#
# 1 123.5704 50.2077 11.0512 -0.9301 4.0342 -25.0156
# 2 50.2077 103.3899 10.8255 -6.8355 -2.4110 3.6654
# 3 11.0512 10.8255 24.8823 -7.3518 11.4785 -2.1486
# 4 -0.9301 -6.8355 -7.3518 28.8996 -13.1505 4.0890
# 5 4.0342 -2.4110 11.4785 -13.1505 26.3761 -3.3596
# 6 -25.0156 3.6654 -2.1486 4.0890 -3.3596 52.7927
#
#
#
# Elastic Compliance Matrix: (Units=1/GPa)
#
#
# Indices 1 2 3 4 5 6 
#
# 1 0.012096 -0.006178 -0.002048 -0.003627 -0.002543 0.006196
# 2 -0.006178 0.013858 -0.005089 0.005355 0.006575 -0.004093
# 3 -0.002048 -0.005089 0.054463 0.002241 -0.022739 -0.000021
# 4 -0.003627 0.005355 0.002241 0.047476 0.023204 -0.004200
# 5 -0.002543 0.006575 -0.022739 0.023204 0.060298 -0.000547
# 6 0.006196 -0.004093 -0.000021 -0.004200 -0.000547 0.022452
#
#
# Mechanical properties :
#
#
# Convention : Reuss Voigt Hill
#
# Bulk Modulus (GPa) = 18.59231 44.00126 31.29678
# Shear Modulus (GPa) = 19.59222 33.59755 26.59489
#
# Velocity S-wave (km/s) = 2.92476 3.83004 3.40760
# Velocity P-wave (km/s) = 4.41852 6.22660 5.39879
#
# Compressibility (1/GPa) = 0.05378569
#
# Stress axis : x y z
#
# Youngs Moduli (GPa) = 82.67105 72.16129 18.36101
#
# Poissons Ratio (x) = 0.44584 0.03760
# Poissons Ratio (y) = 0.51077 0.09345
# Poissons Ratio (z) = 0.16930 0.36726
#
# Static dielectric constant tensor:
#      x y z
#    x 1.934240 -0.055660 -0.066380 
#    y -0.055660 1.911060 0.034890 
#    z -0.066380 0.034890 1.991700 
# 
# From -- ./inp_files/454810.got.cif
#   From: 2010.05.17/outbox.cif.g08.bks.cpg/sg2_228_cif.got.tgz:454810.got - 2010.06.03 11:33:40.
