data_PCOD9029125
_publ_section_title
;
Structure prediction by ZEFSAII (Michael W. Deem and Ramdas Pophale) SiO2 
 PCOD9029125
Probable space group: P -1
;
_chemical_formula_sum "Si O2"
_cell_formula_units_Z 14
_cell_length_a 13.094272
_cell_length_b 11.299691
_cell_length_c 18.024393
_cell_angle_alpha 37.010459
_cell_angle_beta 22.327685
_cell_angle_gamma 49.613462
_cell_volume 559.849580
_symmetry_space_group_name_H-M "P -1"
_symmetry_group_IT_number 2
_symmetry_cell_setting 'triclinic'
loop_
_space_group_symop_operation_xyz
x,y,z
-x,-y,-z
loop_
_atom_site_type_symbol
_atom_site_label
_atom_site_fract_x
_atom_site_fract_y
_atom_site_fract_z
Si Si1 0.629499 0.301880 0.661801
Si Si2 0.849271 0.724666 0.391008
Si Si3 0.559293 0.993060 0.196109
Si Si4 0.972651 0.707187 0.877018
Si Si5 0.868468 0.806853 0.626878
Si Si6 0.368862 0.989919 0.701890
Si Si7 0.327981 0.527236 0.947695
O O1 0.777335 0.549214 0.461470
O O2 0.852498 0.206028 0.595549
O O3 0.604240 0.220981 0.634380
O O4 0.296582 0.239073 0.941264
O O5 0.652346 0.606778 0.652729
O O6 0.740187 0.900541 0.344381
O O7 0.196715 0.843691 0.104075
O O8 0.367191 0.122814 0.288267
O O9 0.698273 0.951913 0.198713
O O10 0.888527 0.639047 0.882569
O O11 0.278402 0.896327 0.593594
O O12 0.000000 0.500000 0.000000
O O13 0.710922 0.591682 0.888383
O O14 0.000000 0.000000 0.500000
O O15 0.256611 0.736770 0.894578
#
# Coordination Sequence:
#
# PCOD9029125 Si02
#       7
#     2   2   2   2   2   2   2
#     4  10  22  42  66  93 130 172 216 273 321 386
#     4  11  24  41  64 103 132 170 222 269 331 394
#     4  11  25  42  66  95 135 179 222 263 331 381
#     4  11  22  42  67  98 133 172 210 268 337 389
#     4  10  23  47  66  93 134 176 226 273 316 391
#     4  12  24  41  67 102 137 173 214 274 328 398
#     4  11  24  42  70  95 137 171 220 276 325 385
#
# _framework density 25.006716999999998
#
# number of rings (size 3 to 8) (size 9 to 14) (size 15 to 20)
#    0.000    1.143    2.857    4.286    2.000    3.429 
#    0.000   19.286    0.000    0.000    0.000    0.000 
#    0.000    0.000    0.000    0.000    0.000    0.000 
#
# Total GULP energy -78290.849645 kJ/mol
# GULP energy per Si atom -5592.203546 kJ/mol
# Density = 2.494980 g / cm^3
# Si number density = 25.006717 Si / 1000 Ang^3
#
#
#
# Elastic Constant Matrix: (Units=GPa)
#
#
# Indices 1 2 3 4 5 6 
#
# 1 52.1162 20.3477 -1.3440 -0.1088 0.5549 1.6872
# 2 20.3477 139.2901 42.3301 -2.8514 -4.6778 2.7547
# 3 -1.3440 42.3301 95.7066 16.8169 11.2423 -4.7244
# 4 -0.1088 -2.8514 16.8169 51.0832 -0.4212 -6.9973
# 5 0.5549 -4.6778 11.2423 -0.4212 25.4976 -4.2299
# 6 1.6872 2.7547 -4.7244 -6.9973 -4.2299 43.5607
#
#
#
# Elastic Compliance Matrix: (Units=1/GPa)
#
#
# Indices 1 2 3 4 5 6 
#
# 1 0.020807 -0.003869 0.002439 -0.001090 -0.002372 -0.000702
# 2 -0.003869 0.009492 -0.005133 0.002210 0.004083 -0.000256
# 3 0.002439 -0.005133 0.014535 -0.005091 -0.007444 0.000266
# 4 -0.001090 0.002210 -0.005091 0.021841 0.003566 0.003205
# 5 -0.002372 0.004083 -0.007444 0.003566 0.044003 0.003872
# 6 -0.000702 -0.000256 0.000266 0.003205 0.003872 0.023920
#
#
# Mechanical properties :
#
#
# Convention : Reuss Voigt Hill
#
# Bulk Modulus (GPa) = 31.53758 45.53117 38.53438
# Shear Modulus (GPa) = 31.58692 39.08024 35.33358
#
# Velocity S-wave (km/s) = 3.55792 3.95750 3.76302
# Velocity P-wave (km/s) = 5.43299 6.25536 5.85862
#
# Compressibility (1/GPa) = 0.03170820
#
# Stress axis : x y z
#
# Youngs Moduli (GPa) = 48.06078 105.35480 68.79845
#
# Poissons Ratio (x) = 0.40760 -0.16779
# Poissons Ratio (y) = 0.18594 0.35314
# Poissons Ratio (z) = -0.11722 0.54078
#
# Static dielectric constant tensor:
#      x y z
#    x 1.994790 -0.003530 -0.018300 
#    y -0.003530 2.003310 0.121780 
#    z -0.018300 0.121780 2.052770 
# 
# From -- ./inp_files/154666.got.cif
#   From: 2010.05.17/outbox.cif.g08.bks.cpg/sg2_78_cif.got.tgz:154666.got - 2010.06.03 11:33:40.
