data_PCOD9029598
_publ_section_title
;
Structure prediction by ZEFSAII (Michael W. Deem and Ramdas Pophale) SiO2 
 PCOD9029598
Probable space group: P -1
;
_chemical_formula_sum "Si O2"
_cell_formula_units_Z 16
_cell_length_a 16.518708
_cell_length_b 11.890590
_cell_length_c 24.052386
_cell_angle_alpha 154.165015
_cell_angle_beta 22.668499
_cell_angle_gamma 142.303500
_cell_volume 771.457078
_symmetry_space_group_name_H-M "P -1"
_symmetry_group_IT_number 2
_symmetry_cell_setting 'triclinic'
loop_
_space_group_symop_operation_xyz
x,y,z
-x,-y,-z
loop_
_atom_site_type_symbol
_atom_site_label
_atom_site_fract_x
_atom_site_fract_y
_atom_site_fract_z
Si Si1 0.200689 0.912272 0.793318
Si Si2 0.093291 0.932126 0.746446
Si Si3 0.764054 0.673169 0.238903
Si Si4 0.326106 0.057141 0.471919
Si Si5 0.602989 0.576104 0.692717
Si Si6 0.392069 0.008550 0.938796
Si Si7 0.234325 0.517534 0.332633
Si Si8 0.376475 0.339934 0.463733
O O1 0.137295 0.014882 0.817344
O O2 0.410852 0.011721 0.724363
O O3 0.253551 0.590269 0.616972
O O4 0.000000 0.000000 0.000000
O O5 0.168659 0.614467 0.554334
O O6 0.241641 0.043085 0.658807
O O7 0.848308 0.043184 0.933073
O O8 0.731815 0.715074 0.343269
O O9 0.579071 0.558898 0.277427
O O10 0.000000 0.500000 0.000000
O O11 0.253549 0.183257 0.514088
O O12 0.233279 0.811096 0.441648
O O13 0.544161 0.856749 0.824032
O O14 0.607459 0.570165 0.753685
O O15 0.492153 0.881594 0.760529
O O16 0.330473 0.316987 0.132305
O O17 0.000000 0.500000 0.500000
O O18 0.500000 0.500000 0.500000
#
# Coordination Sequence:
#
# PCOD9029598 Si02
#       8
#     2   2   2   2   2   2   2   2
#     4  11  23  40  70 103 136 175 224 291 353 409
#     4  12  21  39  67  96 135 174 222 284 358 397
#     4  12  23  37  69 104 136 173 222 296 360 404
#     4  11  23  44  64 100 143 175 228 287 345 410
#     4  12  22  43  64  98 136 172 228 285 341 403
#     4  12  24  43  68  94 135 188 226 279 338 407
#     4  12  26  45  69  98 141 192 232 275 338 412
#     4  10  22  42  67  99 134 170 231 291 344 407
#
# _framework density 20.739974
#
# number of rings (size 3 to 8) (size 9 to 14) (size 15 to 20)
#    0.000    0.500    6.250    3.750    1.750    0.500 
#    0.000    0.000    0.000    2.250    0.000    0.000 
#    0.000    0.000    0.000    0.000    0.000    0.000 
#
# Total GULP energy -89231.408896 kJ/mol
# GULP energy per Si atom -5576.963056 kJ/mol
# Density = 2.069277 g / cm^3
# Si number density = 20.739974 Si / 1000 Ang^3
#
#
#
# Elastic Constant Matrix: (Units=GPa)
#
#
# Indices 1 2 3 4 5 6 
#
# 1 75.8921 21.4300 23.3894 5.7064 18.2009 -10.5703
# 2 21.4300 95.2629 24.0935 -1.3477 6.1054 -7.3760
# 3 23.3894 24.0935 119.2294 -0.9678 15.4674 6.5496
# 4 5.7064 -1.3477 -0.9678 27.6294 -2.0136 5.1428
# 5 18.2009 6.1054 15.4674 -2.0136 42.1872 4.8870
# 6 -10.5703 -7.3760 6.5496 5.1428 4.8870 26.3695
#
#
#
# Elastic Compliance Matrix: (Units=1/GPa)
#
#
# Indices 1 2 3 4 5 6 
#
# 1 0.018538 -0.002251 -0.002739 -0.006542 -0.008170 0.010272
# 2 -0.002251 0.011770 -0.002053 0.000411 -0.000293 0.002874
# 3 -0.002739 -0.002053 0.009779 0.001457 -0.001562 -0.004096
# 4 -0.006542 0.000411 0.001457 0.040200 0.005506 -0.011730
# 5 -0.008170 -0.000293 -0.001562 0.005506 0.029202 -0.009455
# 6 0.010272 0.002874 -0.004096 -0.011730 -0.009455 0.047901
#
#
# Mechanical properties :
#
#
# Convention : Reuss Voigt Hill
#
# Bulk Modulus (GPa) = 38.46170 47.57890 43.02030
# Shear Modulus (GPa) = 27.75533 34.00198 30.87866
#
# Velocity S-wave (km/s) = 3.66218 4.05339 3.86274
# Velocity P-wave (km/s) = 6.03880 6.70053 6.37825
#
# Compressibility (1/GPa) = 0.02599989
#
# Stress axis : x y z
#
# Youngs Moduli (GPa) = 53.94180 84.96088 102.25971
#
# Poissons Ratio (x) = 0.19126 0.28012
# Poissons Ratio (y) = 0.12143 0.20998
# Poissons Ratio (z) = 0.14776 0.17446
#
# Static dielectric constant tensor:
#      x y z
#    x 1.674250 0.152920 0.008660 
#    y 0.152920 1.576500 0.024470 
#    z 0.008660 0.024470 1.760680 
# 
# From -- ./inp_files/522692.got.cif
#   From: 2010.05.17/outbox.cif.g08.bks.cpg/sg2_262_cif.got.tgz:522692.got - 2010.06.03 11:33:40.
