data_PCOD9029028
_publ_section_title
;
Structure prediction by ZEFSAII (Michael W. Deem and Ramdas Pophale) SiO2 
 PCOD9029028
Probable space group: P -1
;
_chemical_formula_sum "Si O2"
_cell_formula_units_Z 14
_cell_length_a 9.244465
_cell_length_b 9.031398
_cell_length_c 12.028444
_cell_angle_alpha 59.750563
_cell_angle_beta 71.040234
_cell_angle_gamma 48.770487
_cell_volume 652.401801
_symmetry_space_group_name_H-M "P -1"
_symmetry_group_IT_number 2
_symmetry_cell_setting 'triclinic'
loop_
_space_group_symop_operation_xyz
x,y,z
-x,-y,-z
loop_
_atom_site_type_symbol
_atom_site_label
_atom_site_fract_x
_atom_site_fract_y
_atom_site_fract_z
Si Si1 0.018934 0.655392 0.861803
Si Si2 0.199308 0.914742 0.114140
Si Si3 0.414696 0.570759 0.799000
Si Si4 0.533374 0.309078 0.491487
Si Si5 0.884373 0.897415 0.586544
Si Si6 0.779810 0.021548 0.162659
Si Si7 0.199590 0.269457 0.546398
O O1 0.986803 0.694853 0.721363
O O2 0.237878 0.563509 0.863534
O O3 0.861837 0.898178 0.854718
O O4 0.000000 0.500000 0.000000
O O5 0.379888 0.662961 0.176868
O O6 0.998672 0.944461 0.149189
O O7 0.242714 0.980073 0.962227
O O8 0.374783 0.689721 0.646995
O O9 0.379466 0.736677 0.841038
O O10 0.500000 0.500000 0.500000
O O11 0.358892 0.309224 0.495162
O O12 0.679058 0.098148 0.607179
O O13 0.818622 0.847480 0.508819
O O14 0.000000 0.000000 0.500000
O O15 0.770411 0.860490 0.300820
O O16 0.000000 0.500000 0.500000
#
# Coordination Sequence:
#
# PCOD9029028 Si02
#       7
#     2   2   2   2   2   2   2
#     4  11  26  43  68 101 139 187 236 291 353 423
#     4  10  22  42  67  98 138 185 229 284 361 428
#     4  11  22  44  68  96 136 183 235 286 361 420
#     4  12  25  43  72 102 139 186 237 292 361 426
#     4  12  23  47  70  97 145 185 231 296 351 420
#     4  10  22  42  66 101 138 177 231 294 353 423
#     4  12  26  42  70 106 137 181 242 294 355 429
#
# _framework density 21.459167000000001
#
# number of rings (size 3 to 8) (size 9 to 14) (size 15 to 20)
#    0.000    0.857    2.857    4.286    2.000    1.714 
#    2.571    0.000    0.000    0.000    0.000    0.000 
#    0.000    0.000    0.000    0.000    0.000    0.000 
#
# Total GULP energy -78063.816128 kJ/mol
# GULP energy per Si atom -5575.986866 kJ/mol
# Density = 2.141033 g / cm^3
# Si number density = 21.459167 Si / 1000 Ang^3
#
#
#
# Elastic Constant Matrix: (Units=GPa)
#
#
# Indices 1 2 3 4 5 6 
#
# 1 105.0023 31.8649 31.5427 -4.5619 -14.0763 5.9278
# 2 31.8649 120.5426 -0.2358 -10.8445 5.3992 -17.4664
# 3 31.5427 -0.2358 97.6827 -4.8821 -11.5991 9.0511
# 4 -4.5619 -10.8445 -4.8821 41.1777 -1.7026 10.6349
# 5 -14.0763 5.3992 -11.5991 -1.7026 36.4908 -2.6415
# 6 5.9278 -17.4664 9.0511 10.6349 -2.6415 31.8016
#
#
#
# Elastic Compliance Matrix: (Units=1/GPa)
#
#
# Indices 1 2 3 4 5 6 
#
# 1 0.012467 -0.003912 -0.003153 0.001076 0.004176 -0.003588
# 2 -0.003912 0.010350 0.000498 0.000748 -0.002426 0.005820
# 3 -0.003153 0.000498 0.011923 0.002076 0.002378 -0.003029
# 4 0.001076 0.000748 0.002076 0.027338 0.001560 -0.009393
# 5 0.004176 -0.002426 0.002378 0.001560 0.030144 -0.000805
# 6 -0.003588 0.005820 -0.003029 -0.009393 -0.000805 0.039247
#
#
# Mechanical properties :
#
#
# Convention : Reuss Voigt Hill
#
# Bulk Modulus (GPa) = 46.28094 49.95235 48.11664
# Shear Modulus (GPa) = 32.93686 39.23108 36.08397
#
# Velocity S-wave (km/s) = 3.92198 4.28035 4.10508
# Velocity P-wave (km/s) = 6.49023 6.91064 6.70373
#
# Compressibility (1/GPa) = 0.02160716
#
# Stress axis : x y z
#
# Youngs Moduli (GPa) = 80.21112 96.61642 83.86923
#
# Poissons Ratio (x) = 0.37796 0.26444
# Poissons Ratio (y) = 0.31378 -0.04178
# Poissons Ratio (z) = 0.25291 -0.04813
#
# Static dielectric constant tensor:
#      x y z
#    x 1.537180 -0.189280 -0.066630 
#    y -0.189280 1.659500 -0.088540 
#    z -0.066630 -0.088540 1.927130 
# 
# From -- ./inp_files/226606.got.cif
#   From: 2010.05.17/outbox.cif.g08.bks.cpg/sg2_114_cif.got.tgz:226606.got - 2010.06.03 11:33:40.
