data_PCOD9029909
_publ_section_title
;
Structure prediction by ZEFSAII (Michael W. Deem and Ramdas Pophale) SiO2 
 PCOD9029909
Probable space group: P -1
;
_chemical_formula_sum "Si O2"
_cell_formula_units_Z 15
_cell_length_a 8.609123
_cell_length_b 8.127705
_cell_length_c 12.812719
_cell_angle_alpha 95.123508
_cell_angle_beta 78.876352
_cell_angle_gamma 126.101303
_cell_volume 710.435890
_symmetry_space_group_name_H-M "P -1"
_symmetry_group_IT_number 2
_symmetry_cell_setting 'triclinic'
loop_
_space_group_symop_operation_xyz
x,y,z
-x,-y,-z
loop_
_atom_site_type_symbol
_atom_site_label
_atom_site_fract_x
_atom_site_fract_y
_atom_site_fract_z
Si Si1 0.662048 0.769970 0.224483
Si Si2 0.265805 0.489093 0.182069
Si Si3 0.933986 0.126810 0.070920
Si Si4 0.323569 0.984872 0.577599
Si Si5 0.961260 0.156084 0.726484
Si Si6 0.012514 0.532647 0.624189
Si Si7 0.709631 0.157512 0.928629
Si Si8 0.000000 0.000000 0.500000
O O1 0.483811 0.564302 0.183735
O O2 0.603912 0.831828 0.340694
O O3 0.849777 0.774722 0.225730
O O4 0.739383 0.960232 0.149266
O O5 0.283301 0.659002 0.114425
O O6 0.108976 0.279319 0.134215
O O7 0.172185 0.487980 0.303758
O O8 0.872957 0.226925 0.000604
O O9 0.000000 0.000000 0.000000
O O10 0.179274 0.988740 0.516175
O O11 0.500000 0.000000 0.500000
O O12 0.195947 0.762746 0.635879
O O13 0.016280 0.358003 0.669428
O O14 0.776653 0.075889 0.820736
O O15 0.943634 0.006574 0.631546
O O16 0.000000 0.500000 0.500000
O O17 0.500000 0.000000 0.000000
#
# Coordination Sequence:
#
# PCOD9029909 Si02
#       8
#     2   2   2   2   2   2   2   1
#     4  11  23  45  66 103 137 177 234 286 351 419
#     4  11  25  44  70  98 140 180 231 290 348 424
#     4  12  24  45  67  97 138 179 227 286 349 409
#     4  11  23  42  69 102 136 185 234 288 354 424
#     4  10  23  42  67 102 139 180 235 291 347 426
#     4  11  21  42  68  97 136 180 231 285 350 415
#     4  11  23  43  72  99 137 184 235 286 351 420
#     4  10  22  42  68  98 142 178 228 296 350 414
#
# _framework density 21.113797999999999
#
# number of rings (size 3 to 8) (size 9 to 14) (size 15 to 20)
#    0.000    1.067    5.333    1.200    1.867    0.533 
#    2.400    3.333    0.000    0.000    0.000    0.000 
#    0.000    0.000    0.000    0.000    0.000    0.000 
#
# Total GULP energy -83510.682420 kJ/mol
# GULP energy per Si atom -5567.378828 kJ/mol
# Density = 2.106574 g / cm^3
# Si number density = 21.113798 Si / 1000 Ang^3
#
#
#
# Elastic Constant Matrix: (Units=GPa)
#
#
# Indices 1 2 3 4 5 6 
#
# 1 112.1404 22.9387 57.7348 1.0775 -13.1181 7.3801
# 2 22.9387 67.9801 26.1082 0.7419 -3.9728 23.7556
# 3 57.7348 26.1082 111.1423 -4.2169 1.1765 14.8405
# 4 1.0775 0.7419 -4.2169 31.8171 6.4476 2.3779
# 5 -13.1181 -3.9728 1.1765 6.4476 29.8632 -3.1270
# 6 7.3801 23.7556 14.8405 2.3779 -3.1270 24.1176
#
#
#
# Elastic Compliance Matrix: (Units=1/GPa)
#
#
# Indices 1 2 3 4 5 6 
#
# 1 0.013841 -0.002960 -0.007274 -0.003132 0.007108 0.004387
# 2 -0.002960 0.023771 -0.001048 0.001191 -0.000665 -0.022067
# 3 -0.007274 -0.001048 0.014084 0.003709 -0.005368 -0.006470
# 4 -0.003132 0.001191 0.003709 0.034468 -0.009552 -0.007134
# 5 0.007108 -0.000665 -0.005368 -0.009552 0.039617 0.007861
# 6 0.004387 -0.022067 -0.006470 -0.007134 0.007861 0.067561
#
#
# Mechanical properties :
#
#
# Convention : Reuss Voigt Hill
#
# Bulk Modulus (GPa) = 34.32681 56.09180 45.20931
# Shear Modulus (GPa) = 22.16148 29.45834 25.80991
#
# Velocity S-wave (km/s) = 3.24330 3.73931 3.50010
# Velocity P-wave (km/s) = 5.50623 6.72810 6.14760
#
# Compressibility (1/GPa) = 0.02913175
#
# Stress axis : x y z
#
# Youngs Moduli (GPa) = 72.24916 42.06829 71.00326
#
# Poissons Ratio (x) = 0.12452 0.51651
# Poissons Ratio (y) = 0.21386 0.07438
# Poissons Ratio (z) = 0.52557 0.04407
#
# Static dielectric constant tensor:
#      x y z
#    x 1.753050 -0.005700 -0.016150 
#    y -0.005700 1.764370 0.013220 
#    z -0.016150 0.013220 1.630800 
# 
# From -- ./inp_files/202768.got.cif
#   From: 2010.05.17/outbox.cif.g08.bks.cpg/sg2_102_cif.got.tgz:202768.got - 2010.06.03 11:33:40.
