data_PCOD9029858
_publ_section_title
;
Structure prediction by ZEFSAII (Michael W. Deem and Ramdas Pophale) SiO2 
 PCOD9029858
Probable space group: P -1
;
_chemical_formula_sum "Si O2"
_cell_formula_units_Z 16
_cell_length_a 15.705752
_cell_length_b 8.400519
_cell_length_c 9.746961
_cell_angle_alpha 73.594813
_cell_angle_beta 61.959671
_cell_angle_gamma 37.916604
_cell_volume 688.156994
_symmetry_space_group_name_H-M "P -1"
_symmetry_group_IT_number 2
_symmetry_cell_setting 'triclinic'
loop_
_space_group_symop_operation_xyz
x,y,z
-x,-y,-z
loop_
_atom_site_type_symbol
_atom_site_label
_atom_site_fract_x
_atom_site_fract_y
_atom_site_fract_z
Si Si1 0.312106 0.036743 0.952767
Si Si2 0.552958 0.204820 0.815008
Si Si3 0.447403 0.214416 0.389330
Si Si4 0.795367 0.654227 0.615842
Si Si5 0.639169 0.355060 0.529109
Si Si6 0.778481 0.460815 0.081032
Si Si7 0.903815 0.955915 0.983863
Si Si8 0.910084 0.794870 0.325327
O O1 0.236775 0.316940 0.977139
O O2 0.192628 0.042870 0.036435
O O3 0.400693 0.924928 0.768378
O O4 0.440672 0.834725 0.019820
O O5 0.589518 0.343870 0.714954
O O6 0.399757 0.350188 0.819884
O O7 0.695893 0.915226 0.715613
O O8 0.325225 0.319055 0.346198
O O9 0.358223 0.456792 0.495967
O O10 0.500000 0.000000 0.500000
O O11 0.858600 0.674854 0.431936
O O12 0.929598 0.405353 0.668657
O O13 0.500000 0.500000 0.500000
O O14 0.788089 0.074960 0.423620
O O15 0.831871 0.236207 0.992162
O O16 0.916906 0.261814 0.134340
O O17 0.911630 0.851465 0.152943
#
# Coordination Sequence:
#
# PCOD9029858 Si02
#       8
#     2   2   2   2   2   2   2   2
#     4  12  25  43  70 100 139 176 228 290 334 410
#     4  11  23  45  70 100 131 179 228 277 347 402
#     4  12  25  40  68 102 129 178 233 275 337 412
#     4  10  22  42  68  97 131 173 228 274 342 410
#     4  11  24  44  70  95 136 178 223 280 341 402
#     4  11  24  42  67  98 135 181 222 280 341 409
#     4  11  25  43  65 102 137 180 228 274 350 408
#     4  10  22  43  67  92 138 177 214 288 338 399
#
# _framework density 23.250506999999999
#
# number of rings (size 3 to 8) (size 9 to 14) (size 15 to 20)
#    0.000    1.000    1.250    6.000    3.500    2.500 
#    2.250    1.250    0.000    0.000    0.000    0.000 
#    0.000    0.000    0.000    0.000    0.000    0.000 
#
# Total GULP energy -89333.527549 kJ/mol
# GULP energy per Si atom -5583.345472 kJ/mol
# Density = 2.319759 g / cm^3
# Si number density = 23.250507 Si / 1000 Ang^3
#
#
#
# Elastic Constant Matrix: (Units=GPa)
#
#
# Indices 1 2 3 4 5 6 
#
# 1 110.7315 41.4093 0.6838 3.7526 -11.1813 -6.8904
# 2 41.4093 153.6097 23.1527 13.3951 -4.6702 -6.4363
# 3 0.6838 23.1527 73.9299 -4.4314 -1.1735 -7.4888
# 4 3.7526 13.3951 -4.4314 16.7599 -7.0013 -3.0413
# 5 -11.1813 -4.6702 -1.1735 -7.0013 19.2449 7.2441
# 6 -6.8904 -6.4363 -7.4888 -3.0413 7.2441 39.7691
#
#
#
# Elastic Compliance Matrix: (Units=1/GPa)
#
#
# Indices 1 2 3 4 5 6 
#
# 1 0.010794 -0.003160 0.001257 0.003288 0.006530 0.000657
# 2 -0.003160 0.008456 -0.003136 -0.008097 -0.002978 0.000154
# 3 0.001257 -0.003136 0.015287 0.007911 0.002767 0.002690
# 4 0.003288 -0.008097 0.007911 0.079845 0.028875 0.001595
# 5 0.006530 -0.002978 0.002767 0.028875 0.069178 -0.009222
# 6 0.000657 0.000154 0.002690 0.001595 -0.009222 0.027592
#
#
# Mechanical properties :
#
#
# Convention : Reuss Voigt Hill
#
# Bulk Modulus (GPa) = 40.88348 52.08475 46.48412
# Shear Modulus (GPa) = 21.79758 33.35647 27.57703
#
# Velocity S-wave (km/s) = 3.06520 3.79179 3.44769
# Velocity P-wave (km/s) = 5.49084 6.45139 5.99040
#
# Compressibility (1/GPa) = 0.02445976
#
# Stress axis : x y z
#
# Youngs Moduli (GPa) = 92.64793 118.25315 65.41326
#
# Poissons Ratio (x) = 0.37366 -0.08223
# Poissons Ratio (y) = 0.29275 0.20514
# Poissons Ratio (z) = -0.11646 0.37085
#
# Static dielectric constant tensor:
#      x y z
#    x 1.891580 0.010700 -0.089500 
#    y 0.010700 1.832150 -0.029910 
#    z -0.089500 -0.029910 1.940190 
# 
# From -- ./inp_files/298200.got.cif
#   From: 2010.05.17/outbox.cif.g08.bks.cpg/sg2_150_cif.got.tgz:298200.got - 2010.06.03 11:33:40.
