data_PCOD9029278
_publ_section_title
;
Structure prediction by ZEFSAII (Michael W. Deem and Ramdas Pophale) SiO2 
 PCOD9029278
Probable space group: P -1
;
_chemical_formula_sum "Si O2"
_cell_formula_units_Z 16
_cell_length_a 10.090424
_cell_length_b 10.516868
_cell_length_c 13.972565
_cell_angle_alpha 61.930402
_cell_angle_beta 89.327427
_cell_angle_gamma 39.509398
_cell_volume 649.257813
_symmetry_space_group_name_H-M "P -1"
_symmetry_group_IT_number 2
_symmetry_cell_setting 'triclinic'
loop_
_space_group_symop_operation_xyz
x,y,z
-x,-y,-z
loop_
_atom_site_type_symbol
_atom_site_label
_atom_site_fract_x
_atom_site_fract_y
_atom_site_fract_z
Si Si1 0.192538 0.244747 0.011622
Si Si2 0.315081 0.888790 0.266226
Si Si3 0.944914 0.402335 0.240327
Si Si4 0.108859 0.893492 0.928374
Si Si5 0.856918 0.882433 0.294407
Si Si6 0.323135 0.430528 0.165135
Si Si7 0.885330 0.244792 0.471583
Si Si8 0.262769 0.336081 0.373744
O O1 0.276897 0.306980 0.927401
O O2 0.978921 0.333264 0.936472
O O3 0.000000 0.500000 0.000000
O O4 0.384139 0.958376 0.170079
O O5 0.579195 0.545979 0.404259
O O6 0.157052 0.112373 0.276537
O O7 0.102239 0.985598 0.182158
O O8 0.073265 0.422839 0.276882
O O9 0.888109 0.358748 0.346513
O O10 0.156001 0.001717 0.839538
O O11 0.356164 0.551653 0.068141
O O12 0.000000 0.000000 0.000000
O O13 0.935971 0.889999 0.388876
O O14 0.090770 0.547377 0.390548
O O15 0.556665 0.108924 0.234510
O O16 0.357149 0.386782 0.294676
O O17 0.000000 0.000000 0.500000
O O18 0.500000 0.000000 0.500000
#
# Coordination Sequence:
#
# PCOD9029278 Si02
#       8
#     2   2   2   2   2   2   2   2
#     4   8  18  40  67  96 128 171 216 271 329 385
#     4  10  23  45  69  94 135 174 220 280 335 386
#     4  10  22  43  66  97 133 170 223 271 331 398
#     4  11  23  45  71  95 131 176 226 281 339 387
#     4  12  26  43  68 100 138 177 222 280 333 395
#     4  10  22  42  66  99 131 169 224 277 331 392
#     4  12  28  43  65 100 135 180 226 267 330 407
#     4  11  23  40  66  96 135 179 219 265 331 402
#
# _framework density 24.643523999999999
#
# number of rings (size 3 to 8) (size 9 to 14) (size 15 to 20)
#    0.000    1.500    1.250    2.625    1.750    8.500 
#    6.750    0.000    0.000    0.000    0.000    0.000 
#    0.000    0.000    0.000    0.000    0.000    0.000 
#
# Total GULP energy -89165.511000 kJ/mol
# GULP energy per Si atom -5572.844437 kJ/mol
# Density = 2.458743 g / cm^3
# Si number density = 24.643524 Si / 1000 Ang^3
#
#
#
# Elastic Constant Matrix: (Units=GPa)
#
#
# Indices 1 2 3 4 5 6 
#
# 1 31.9121 25.1220 12.7970 4.1785 -7.8666 8.4888
# 2 25.1220 143.9281 43.3575 -4.5174 2.0751 15.4405
# 3 12.7970 43.3575 105.3960 -12.5179 -22.2392 -11.2023
# 4 4.1785 -4.5174 -12.5179 49.8293 -2.1829 -6.9278
# 5 -7.8666 2.0751 -22.2392 -2.1829 29.5949 15.5794
# 6 8.4888 15.4405 -11.2023 -6.9278 15.5794 39.3332
#
#
#
# Elastic Compliance Matrix: (Units=1/GPa)
#
#
# Indices 1 2 3 4 5 6 
#
# 1 0.047659 -0.006551 -0.001311 -0.006437 0.020875 -0.017489
# 2 -0.006551 0.009670 -0.004401 -0.000134 -0.004813 -0.001753
# 3 -0.001311 -0.004401 0.014248 0.004130 0.009342 0.003095
# 4 -0.006437 -0.000134 0.004130 0.022556 -0.000510 0.006793
# 5 0.020875 -0.004813 0.009342 -0.000510 0.058980 -0.023406
# 6 -0.017489 -0.001753 0.003095 0.006793 -0.023406 0.041235
#
#
# Mechanical properties :
#
#
# Convention : Reuss Voigt Hill
#
# Bulk Modulus (GPa) = 21.25218 49.30990 35.28104
# Shear Modulus (GPa) = 21.31680 37.08213 29.19947
#
# Velocity S-wave (km/s) = 2.94429 3.88331 3.44593
# Velocity P-wave (km/s) = 4.49455 6.33715 5.49366
#
# Compressibility (1/GPa) = 0.04705400
#
# Stress axis : x y z
#
# Youngs Moduli (GPa) = 20.98231 103.41095 70.18412
#
# Poissons Ratio (x) = 0.67740 0.09199
# Poissons Ratio (y) = 0.13745 0.30885
# Poissons Ratio (z) = 0.02750 0.45507
#
# Static dielectric constant tensor:
#      x y z
#    x 2.024930 -0.094390 -0.165500 
#    y -0.094390 2.143470 0.182530 
#    z -0.165500 0.182530 2.416450 
# 
# From -- ./inp_files/519590.got.cif
#   From: 2010.05.17/outbox.cif.g08.bks.cpg/sg2_260_cif.got.tgz:519590.got - 2010.06.03 11:33:40.
