data_PCOD9029510
_publ_section_title
;
Structure prediction by ZEFSAII (Michael W. Deem and Ramdas Pophale) SiO2 
 PCOD9029510
Probable space group: P -1
;
_chemical_formula_sum "Si O2"
_cell_formula_units_Z 16
_cell_length_a 13.900425
_cell_length_b 11.585264
_cell_length_c 8.133292
_cell_angle_alpha 71.184156
_cell_angle_beta 100.232280
_cell_angle_gamma 149.914551
_cell_volume 607.128959
_symmetry_space_group_name_H-M "P -1"
_symmetry_group_IT_number 2
_symmetry_cell_setting 'triclinic'
loop_
_space_group_symop_operation_xyz
x,y,z
-x,-y,-z
loop_
_atom_site_type_symbol
_atom_site_label
_atom_site_fract_x
_atom_site_fract_y
_atom_site_fract_z
Si Si1 0.084833 0.525153 0.177857
Si Si2 0.778051 0.307502 0.393263
Si Si3 0.073061 0.321678 0.525824
Si Si4 0.372976 0.729499 0.940776
Si Si5 0.794181 0.810764 0.381650
Si Si6 0.132142 0.224248 0.064372
Si Si7 0.425519 0.382770 0.265469
Si Si8 0.309612 0.020742 0.270996
O O1 0.006516 0.316158 0.338769
O O2 0.003287 0.529238 0.292546
O O3 0.298495 0.709606 0.096262
O O4 0.000000 0.500000 0.000000
O O5 0.779395 0.420959 0.466485
O O6 0.653799 0.201541 0.243370
O O7 0.703110 0.106734 0.552465
O O8 0.171710 0.298044 0.547116
O O9 0.894546 0.127354 0.694079
O O10 0.594288 0.916922 0.901420
O O11 0.215535 0.452165 0.969440
O O12 0.623066 0.653200 0.272067
O O13 0.721595 0.779823 0.548172
O O14 0.992462 0.077431 0.247807
O O15 0.321692 0.349529 0.110849
O O16 0.000000 0.000000 0.000000
O O17 0.461785 0.285182 0.264615
#
# Coordination Sequence:
#
# PCOD9029510 Si02
#       8
#     2   2   2   2   2   2   2   2
#     4   9  20  38  63  96 132 175 222 284 350 406
#     4  10  22  42  67  96 132 186 234 276 350 424
#     4  11  21  43  70  97 135 185 235 281 353 420
#     4  11  24  40  64  99 139 177 230 288 352 410
#     4  11  25  45  71 103 139 188 240 293 336 426
#     4  12  25  43  68 101 145 185 226 293 360 409
#     4  11  25  45  72 105 137 185 248 281 348 421
#     4  11  22  38  69  97 135 177 234 288 338 421
#
# _framework density 26.353543999999999
#
# number of rings (size 3 to 8) (size 9 to 14) (size 15 to 20)
#    0.000    1.250    1.250    5.250    3.500    2.000 
#    0.000    2.500    0.000    0.000    0.000    0.000 
#    0.000    0.000    0.000    0.000    0.000    0.000 
#
# Total GULP energy -89426.015104 kJ/mol
# GULP energy per Si atom -5589.125944 kJ/mol
# Density = 2.629356 g / cm^3
# Si number density = 26.353544 Si / 1000 Ang^3
#
#
#
# Elastic Constant Matrix: (Units=GPa)
#
#
# Indices 1 2 3 4 5 6 
#
# 1 147.9023 29.8727 62.0208 -4.0407 -33.8651 -8.8610
# 2 29.8727 72.7930 29.7010 10.9029 -0.8636 4.6411
# 3 62.0208 29.7010 116.6808 -14.3167 -11.0513 0.1505
# 4 -4.0407 10.9029 -14.3167 40.5065 9.9665 -7.0266
# 5 -33.8651 -0.8636 -11.0513 9.9665 64.0312 -2.2009
# 6 -8.8610 4.6411 0.1505 -7.0266 -2.2009 55.9336
#
#
#
# Elastic Compliance Matrix: (Units=1/GPa)
#
#
# Indices 1 2 3 4 5 6 
#
# 1 0.010342 -0.002335 -0.004545 -0.000803 0.004845 0.001934
# 2 -0.002335 0.017537 -0.004111 -0.006685 -0.000760 -0.002684
# 3 -0.004545 -0.004111 0.012591 0.005418 -0.001122 0.000224
# 4 -0.000803 -0.006685 0.005418 0.030032 -0.004116 0.004024
# 5 0.004845 -0.000760 -0.001122 -0.004116 0.018653 0.001051
# 6 0.001934 -0.002684 0.000224 0.004024 0.001051 0.018954
#
#
# Mechanical properties :
#
#
# Convention : Reuss Voigt Hill
#
# Bulk Modulus (GPa) = 54.09297 64.50724 59.30010
# Shear Modulus (GPa) = 36.69602 46.47970 41.58786
#
# Velocity S-wave (km/s) = 3.73560 4.20420 3.97681
# Velocity P-wave (km/s) = 6.25913 6.93526 6.60585
#
# Compressibility (1/GPa) = 0.01848669
#
# Stress axis : x y z
#
# Youngs Moduli (GPa) = 96.69198 57.02275 79.42161
#
# Poissons Ratio (x) = 0.13317 0.36096
# Poissons Ratio (y) = 0.22581 0.32653
# Poissons Ratio (z) = 0.43945 0.23444
#
# Static dielectric constant tensor:
#      x y z
#    x 2.082930 0.031730 -0.043210 
#    y 0.031730 2.162540 -0.009300 
#    z -0.043210 -0.009300 2.046290 
# 
# From -- ./inp_files/307059.got.cif
#   From: 2010.05.17/outbox.cif.g08.bks.cpg/sg2_154_cif.got.tgz:307059.got - 2010.06.03 11:33:40.
