data_PCOD9029740
_publ_section_title
;
Structure prediction by ZEFSAII (Michael W. Deem and Ramdas Pophale) SiO2 
 PCOD9029740
Probable space group: P -1
;
_chemical_formula_sum "Si O2"
_cell_formula_units_Z 16
_cell_length_a 29.132285
_cell_length_b 5.758546
_cell_length_c 12.869162
_cell_angle_alpha 134.936300
_cell_angle_beta 24.214985
_cell_angle_gamma 128.322318
_cell_volume 624.683676
_symmetry_space_group_name_H-M "P -1"
_symmetry_group_IT_number 2
_symmetry_cell_setting 'triclinic'
loop_
_space_group_symop_operation_xyz
x,y,z
-x,-y,-z
loop_
_atom_site_type_symbol
_atom_site_label
_atom_site_fract_x
_atom_site_fract_y
_atom_site_fract_z
Si Si1 0.466297 0.000102 0.689946
Si Si2 0.660382 0.682793 0.777702
Si Si3 0.119117 0.274986 0.195145
Si Si4 0.196273 0.735354 0.342465
Si Si5 0.602718 0.727141 0.692804
Si Si6 0.352039 0.407854 0.673819
Si Si7 0.988569 0.157539 0.855548
Si Si8 0.178948 0.884591 0.655571
O O1 0.370384 0.744631 0.800426
O O2 0.568921 0.855755 0.505463
O O3 0.500000 0.000000 0.500000
O O4 0.409141 0.311385 0.969166
O O5 0.605350 0.561488 0.747859
O O6 0.766164 0.423469 0.490111
O O7 0.692148 0.061835 0.816399
O O8 0.178774 0.383075 0.214054
O O9 0.000000 0.500000 0.500000
O O10 0.083016 0.911358 0.122405
O O11 0.222230 0.341261 0.926461
O O12 0.153030 0.743493 0.552124
O O13 0.111984 0.985431 0.530207
O O14 0.601486 0.566898 0.531168
O O15 0.723890 0.875308 0.483775
O O16 0.500000 0.000000 0.000000
O O17 0.925238 0.964965 0.015710
O O18 0.000000 0.500000 0.000000
#
# Coordination Sequence:
#
# PCOD9029740 Si02
#       8
#     2   2   2   2   2   2   2   2
#     4  11  26  40  69  98 135 177 221 278 338 412
#     4  11  23  41  64  98 128 174 227 274 333 406
#     4  10  22  42  70  97 134 177 223 281 337 401
#     4  10  22  42  68  91 136 174 220 278 338 399
#     4  11  24  42  63  94 131 174 217 280 332 395
#     4  11  23  46  67  95 137 177 227 273 344 404
#     4  11  21  42  68  98 132 176 227 281 334 407
#     4  11  24  39  67  94 131 177 220 276 342 399
#
# _framework density 25.612964999999999
#
# number of rings (size 3 to 8) (size 9 to 14) (size 15 to 20)
#    0.000    1.250    5.000    0.375    3.500    1.500 
#    0.000    0.625    2.750    0.000    0.000    0.000 
#    0.000    0.000    0.000    0.000    0.000    0.000 
#
# Total GULP energy -89210.751667 kJ/mol
# GULP energy per Si atom -5575.671979 kJ/mol
# Density = 2.555467 g / cm^3
# Si number density = 25.612965 Si / 1000 Ang^3
#
#
#
# Elastic Constant Matrix: (Units=GPa)
#
#
# Indices 1 2 3 4 5 6 
#
# 1 163.5319 36.0470 31.7720 6.6941 28.4386 24.8854
# 2 36.0470 63.3841 0.2380 -0.5037 -4.7727 38.9346
# 3 31.7720 0.2380 97.2546 -16.6234 9.9717 5.3157
# 4 6.6941 -0.5037 -16.6234 33.0783 8.6639 9.4854
# 5 28.4386 -4.7727 9.9717 8.6639 43.1389 4.4854
# 6 24.8854 38.9346 5.3157 9.4854 4.4854 52.0713
#
#
#
# Elastic Compliance Matrix: (Units=1/GPa)
#
#
# Indices 1 2 3 4 5 6 
#
# 1 0.008943 -0.006750 -0.002842 -0.002418 -0.005707 0.001995
# 2 -0.006750 0.037289 0.004449 0.009886 0.008435 -0.027638
# 3 -0.002842 0.004449 0.013250 0.009221 -0.002047 -0.004824
# 4 -0.002418 0.009886 0.009221 0.041197 -0.006247 -0.014144
# 5 -0.005707 0.008435 -0.002047 -0.006247 0.030106 -0.004826
# 6 0.001995 -0.027638 -0.004824 -0.014144 -0.004826 0.042401
#
#
# Mechanical properties :
#
#
# Convention : Reuss Voigt Hill
#
# Bulk Modulus (GPa) = 20.32681 51.14273 35.73477
# Shear Modulus (GPa) = 25.01626 42.73193 33.87410
#
# Velocity S-wave (km/s) = 3.12862 4.08900 3.64062
# Velocity P-wave (km/s) = 4.58305 6.50416 5.62621
#
# Compressibility (1/GPa) = 0.04919612
#
# Stress axis : x y z
#
# Youngs Moduli (GPa) = 111.82060 26.81740 75.47365
#
# Poissons Ratio (x) = 0.18101 0.21452
# Poissons Ratio (y) = 0.75477 -0.33580
# Poissons Ratio (z) = 0.31783 -0.11932
#
# Static dielectric constant tensor:
#      x y z
#    x 2.112650 0.060070 0.075040 
#    y 0.060070 2.139020 -0.017480 
#    z 0.075040 -0.017480 2.165410 
# 
# From -- ./inp_files/39878.got.cif
#   From: 2010.05.17/outbox.cif.g08.bks.cpg/sg2_20_cif.got.tgz:39878.got - 2010.06.03 11:33:40.
