data_PCOD9029054
_publ_section_title
;
Structure prediction by ZEFSAII (Michael W. Deem and Ramdas Pophale) SiO2 
 PCOD9029054
Probable space group: P -1
;
_chemical_formula_sum "Si O2"
_cell_formula_units_Z 15
_cell_length_a 11.654428
_cell_length_b 11.633204
_cell_length_c 5.895448
_cell_angle_alpha 54.386883
_cell_angle_beta 101.975996
_cell_angle_gamma 109.115213
_cell_volume 613.825046
_symmetry_space_group_name_H-M "P -1"
_symmetry_group_IT_number 2
_symmetry_cell_setting 'triclinic'
loop_
_space_group_symop_operation_xyz
x,y,z
-x,-y,-z
loop_
_atom_site_type_symbol
_atom_site_label
_atom_site_fract_x
_atom_site_fract_y
_atom_site_fract_z
Si Si1 0.000000 0.500000 0.500000
Si Si2 0.707590 0.244587 0.109955
Si Si3 0.977158 0.332164 0.109139
Si Si4 0.471063 0.743645 0.600439
Si Si5 0.124859 0.123151 0.440017
Si Si6 0.338459 0.030603 0.881472
Si Si7 0.680576 0.772183 0.978510
Si Si8 0.718919 0.489434 0.506512
O O1 0.853016 0.491780 0.467372
O O2 0.977926 0.347887 0.820885
O O3 0.844232 0.249282 0.234878
O O4 0.615182 0.199940 0.326400
O O5 0.676943 0.135369 0.009331
O O6 0.707228 0.406579 0.838037
O O7 0.079690 0.264642 0.329509
O O8 0.000000 0.500000 0.000000
O O9 0.550390 0.870400 0.329022
O O10 0.385263 0.612708 0.575030
O O11 0.572714 0.698782 0.847036
O O12 0.214561 0.068774 0.704021
O O13 0.198778 0.165957 0.188812
O O14 0.000000 0.000000 0.500000
O O15 0.353805 0.092018 0.069943
O O16 0.697643 0.650194 0.302769
#
# Coordination Sequence:
#
# PCOD9029054 Si02
#       8
#     1   2   2   2   2   2   2   2
#     4  10  22  42  66 104 138 170 218 282 346 408
#     4  11  25  43  69 102 137 182 234 285 346 407
#     4  11  23  42  70 101 138 177 227 283 346 412
#     4  11  25  45  72  98 139 182 238 286 342 407
#     4  11  24  46  68 103 140 183 228 279 353 416
#     4  11  26  46  68 102 140 186 232 286 344 416
#     4  11  26  46  71 100 141 182 230 288 345 415
#     4  11  24  43  71 104 137 179 232 286 349 407
#
# _framework density 24.43693
#
# number of rings (size 3 to 8) (size 9 to 14) (size 15 to 20)
#    0.000    1.067    2.667    2.400    3.733    8.000 
#    4.800    0.000    0.000    0.000    0.000    0.000 
#    0.000    0.000    0.000    0.000    0.000    0.000 
#
# Total GULP energy -83749.910795 kJ/mol
# GULP energy per Si atom -5583.327386 kJ/mol
# Density = 2.438131 g / cm^3
# Si number density = 24.436930 Si / 1000 Ang^3
#
#
#
# Elastic Constant Matrix: (Units=GPa)
#
#
# Indices 1 2 3 4 5 6 
#
# 1 142.6688 29.0963 38.4018 -9.7370 -20.8857 33.5127
# 2 29.0963 86.0700 -2.4551 -11.5385 -9.0272 9.7569
# 3 38.4018 -2.4551 55.3097 -12.8064 9.7402 3.8728
# 4 -9.7370 -11.5385 -12.8064 27.0023 -3.3246 2.5135
# 5 -20.8857 -9.0272 9.7402 -3.3246 37.2375 -9.5018
# 6 33.5127 9.7569 3.8728 2.5135 -9.5018 36.6783
#
#
#
# Elastic Compliance Matrix: (Units=1/GPa)
#
#
# Indices 1 2 3 4 5 6 
#
# 1 0.013439 -0.003030 -0.010037 0.000485 0.007288 -0.008559
# 2 -0.003030 0.014011 0.004387 0.007228 0.000756 -0.001721
# 3 -0.010037 0.004387 0.029598 0.010817 -0.011015 0.001284
# 4 0.000485 0.007228 0.010817 0.046221 0.001733 -0.006227
# 5 0.007288 0.000756 -0.011015 0.001733 0.034991 0.003249
# 6 -0.008559 -0.001721 0.001284 -0.006227 0.003249 0.036675
#
#
# Mechanical properties :
#
#
# Convention : Reuss Voigt Hill
#
# Bulk Modulus (GPa) = 25.19678 46.01494 35.60586
# Shear Modulus (GPa) = 24.32792 34.78400 29.55596
#
# Velocity S-wave (km/s) = 3.15864 3.77692 3.48153
# Velocity P-wave (km/s) = 4.86169 6.15557 5.54649
#
# Compressibility (1/GPa) = 0.03968761
#
# Stress axis : x y z
#
# Youngs Moduli (GPa) = 74.40802 71.37091 33.78599
#
# Poissons Ratio (x) = 0.21625 0.33912
# Poissons Ratio (y) = 0.22545 -0.14821
# Poissons Ratio (z) = 0.74686 -0.31308
#
# Static dielectric constant tensor:
#      x y z
#    x 1.916050 -0.037110 0.025520 
#    y -0.037110 1.977470 0.051680 
#    z 0.025520 0.051680 1.991010 
# 
# From -- ./inp_files/68726.got.cif
#   From: 2010.05.17/outbox.cif.g08.bks.cpg/sg2_35_cif.got.tgz:68726.got - 2010.06.03 11:33:40.
