data_PCOD9029942
_publ_section_title
;
Structure prediction by ZEFSAII (Michael W. Deem and Ramdas Pophale) SiO2 
 PCOD9029942
Probable space group: P -1
;
_chemical_formula_sum "Si O2"
_cell_formula_units_Z 16
_cell_length_a 10.808930
_cell_length_b 9.594473
_cell_length_c 13.598242
_cell_angle_alpha 134.117662
_cell_angle_beta 135.085872
_cell_angle_gamma 75.971985
_cell_volume 621.352868
_symmetry_space_group_name_H-M "P -1"
_symmetry_group_IT_number 2
_symmetry_cell_setting 'triclinic'
loop_
_space_group_symop_operation_xyz
x,y,z
-x,-y,-z
loop_
_atom_site_type_symbol
_atom_site_label
_atom_site_fract_x
_atom_site_fract_y
_atom_site_fract_z
Si Si1 0.875872 0.650653 0.399429
Si Si2 0.076720 0.778446 0.776820
Si Si3 0.249020 0.777880 0.551523
Si Si4 0.835984 0.170104 0.745016
Si Si5 0.412562 0.267446 0.183022
Si Si6 0.904683 0.691125 0.848554
Si Si7 0.436064 0.198426 0.730446
Si Si8 0.755876 0.537928 0.960472
O O1 0.854978 0.406849 0.264485
O O2 0.702114 0.689394 0.277719
O O3 0.914963 0.714573 0.567758
O O4 0.080879 0.800176 0.527782
O O5 0.989603 0.796625 0.841901
O O6 0.266261 0.005158 0.960038
O O7 0.372926 0.701143 0.654094
O O8 0.141391 0.563978 0.313984
O O9 0.396753 0.009346 0.694615
O O10 0.779671 0.365498 0.817472
O O11 0.650635 0.946600 0.490323
O O12 0.931122 0.177638 0.909191
O O13 0.025609 0.242614 0.813287
O O14 0.302082 0.323384 0.237452
O O15 0.398739 0.396328 0.143579
O O16 0.661485 0.394629 0.934240
#
# Coordination Sequence:
#
# PCOD9029942 Si02
#       8
#     2   2   2   2   2   2   2   2
#     4  10  24  46  67  92 134 181 233 276 325 394
#     4  10  23  43  69  96 129 183 222 282 332 398
#     4  11  25  43  67  99 139 174 223 285 330 399
#     4  10  22  45  68 101 145 171 217 283 339 403
#     4  11  23  42  65 105 134 171 219 283 345 396
#     4  10  22  42  69 100 137 172 218 279 343 404
#     4  12  24  44  72  98 132 187 225 270 346 398
#     4  10  23  40  68 102 135 175 219 271 337 408
#
# _framework density 25.750261999999999
#
# number of rings (size 3 to 8) (size 9 to 14) (size 15 to 20)
#    0.000    1.500    0.000    5.250    7.000    0.500 
#    4.500    0.625    0.000    0.000    0.000    0.000 
#    0.000    0.000    0.000    0.000    0.000    0.000 
#
# Total GULP energy -89659.715924 kJ/mol
# GULP energy per Si atom -5603.732245 kJ/mol
# Density = 2.569165 g / cm^3
# Si number density = 25.750262 Si / 1000 Ang^3
#
#
#
# Elastic Constant Matrix: (Units=GPa)
#
#
# Indices 1 2 3 4 5 6 
#
# 1 73.8628 6.9123 13.0379 6.1682 7.2626 15.9644
# 2 6.9123 113.7194 11.4141 0.6802 4.6663 11.1405
# 3 13.0379 11.4141 66.0548 4.2322 -1.7898 14.7149
# 4 6.1682 0.6802 4.2322 33.7286 -4.3445 12.0405
# 5 7.2626 4.6663 -1.7898 -4.3445 33.4457 1.6186
# 6 15.9644 11.1405 14.7149 12.0405 1.6186 44.3632
#
#
#
# Elastic Compliance Matrix: (Units=1/GPa)
#
#
# Indices 1 2 3 4 5 6 
#
# 1 0.015290 -0.000159 -0.002038 -0.001450 -0.003389 -0.004269
# 2 -0.000159 0.009157 -0.001181 0.000544 -0.001141 -0.001957
# 3 -0.002038 -0.001181 0.016820 0.000176 0.001756 -0.004661
# 4 -0.001450 0.000544 0.000176 0.033753 0.005069 -0.009019
# 5 -0.003389 -0.001141 0.001756 0.005069 0.031624 -0.001606
# 6 -0.004269 -0.001957 -0.004661 -0.009019 -0.001606 0.028621
#
#
# Mechanical properties :
#
#
# Convention : Reuss Voigt Hill
#
# Bulk Modulus (GPa) = 28.97630 35.15174 32.06402
# Shear Modulus (GPa) = 32.56776 37.12566 34.84671
#
# Velocity S-wave (km/s) = 3.56020 3.80117 3.68265
# Velocity P-wave (km/s) = 5.30822 5.73985 5.52825
#
# Compressibility (1/GPa) = 0.03451096
#
# Stress axis : x y z
#
# Youngs Moduli (GPa) = 65.40088 109.20608 59.45333
#
# Poissons Ratio (x) = 0.01735 0.12119
# Poissons Ratio (y) = 0.01039 0.07020
# Poissons Ratio (z) = 0.13332 0.12895
#
# Static dielectric constant tensor:
#      x y z
#    x 2.027110 0.020900 -0.025230 
#    y 0.020900 2.019270 -0.012270 
#    z -0.025230 -0.012270 2.023330 
# 
# From -- ./inp_files/516317.got.cif
#   From: 2010.05.17/outbox.cif.g08.bks.cpg/sg2_259_cif.got.tgz:516317.got - 2010.06.03 11:33:40.
