data_PCOD9029053
_publ_section_title
;
Structure prediction by ZEFSAII (Michael W. Deem and Ramdas Pophale) SiO2 
 PCOD9029053
Probable space group: P -1
;
_chemical_formula_sum "Si O2"
_cell_formula_units_Z 16
_cell_length_a 23.087957
_cell_length_b 10.680271
_cell_length_c 5.092002
_cell_angle_alpha 63.588346
_cell_angle_beta 115.965981
_cell_angle_gamma 146.087961
_cell_volume 621.455597
_symmetry_space_group_name_H-M "P -1"
_symmetry_group_IT_number 2
_symmetry_cell_setting 'triclinic'
loop_
_space_group_symop_operation_xyz
x,y,z
-x,-y,-z
loop_
_atom_site_type_symbol
_atom_site_label
_atom_site_fract_x
_atom_site_fract_y
_atom_site_fract_z
Si Si1 0.238767 0.459099 0.310249
Si Si2 0.154758 0.786092 0.796251
Si Si3 0.170882 0.513252 0.626187
Si Si4 0.548814 0.320928 0.532534
Si Si5 0.160683 0.074954 0.219602
Si Si6 0.672302 0.999779 0.689877
Si Si7 0.375962 0.400209 0.085799
Si Si8 0.996485 0.293128 0.089523
O O1 0.221985 0.499304 0.519804
O O2 0.362247 0.645579 0.328625
O O3 0.180741 0.212402 0.372933
O O4 0.187037 0.467217 0.977103
O O5 0.098620 0.772209 0.940524
O O6 0.160042 0.915311 0.472050
O O7 0.074733 0.520506 0.854882
O O8 0.267464 0.926242 0.986788
O O9 0.059175 0.353486 0.416897
O O10 0.238631 0.771581 0.515246
O O11 0.431310 0.082772 0.438012
O O12 0.550090 0.395006 0.751157
O O13 0.590410 0.504225 0.229523
O O14 0.261450 0.263277 0.057765
O O15 0.055912 0.916923 0.991911
O O16 0.632343 0.779599 0.726404
#
# Coordination Sequence:
#
# PCOD9029053 Si02
#       8
#     2   2   2   2   2   2   2   2
#     4  11  26  46  63  96 137 177 234 269 305 397
#     4  10  22  42  66 104 133 162 222 272 342 406
#     4  11  28  45  66  97 134 180 231 269 315 393
#     4  11  25  43  72  99 134 174 217 276 335 391
#     4  11  23  40  74  91 138 178 212 276 341 380
#     4  11  23  44  70 100 135 175 213 276 342 392
#     4  11  23  42  69 108 132 164 219 275 340 408
#     4  10  23  42  67  99 131 173 215 278 337 395
#
# _framework density 25.746008
#
# number of rings (size 3 to 8) (size 9 to 14) (size 15 to 20)
#    0.000    1.250    1.250    4.125    3.500    7.000 
#    0.000    0.000    0.000    0.000    0.000    0.000 
#    0.000    0.000    0.000    0.000    0.000    0.000 
#
# Total GULP energy -89675.718273 kJ/mol
# GULP energy per Si atom -5604.732392 kJ/mol
# Density = 2.568741 g / cm^3
# Si number density = 25.746008 Si / 1000 Ang^3
#
#
#
# Elastic Constant Matrix: (Units=GPa)
#
#
# Indices 1 2 3 4 5 6 
#
# 1 57.9368 17.2420 16.1038 16.7020 10.7133 -11.4163
# 2 17.2420 92.5350 30.9106 29.4066 17.0367 19.8417
# 3 16.1038 30.9106 120.8260 8.6194 12.7638 13.4133
# 4 16.7020 29.4066 8.6194 31.9690 12.6408 7.9741
# 5 10.7133 17.0367 12.7638 12.6408 32.6806 3.7405
# 6 -11.4163 19.8417 13.4133 7.9741 3.7405 33.2659
#
#
#
# Elastic Compliance Matrix: (Units=1/GPa)
#
#
# Indices 1 2 3 4 5 6 
#
# 1 0.026250 -0.002264 -0.003372 -0.013483 -0.002638 0.015247
# 2 -0.002264 0.017741 -0.002350 -0.011811 -0.002181 -0.007335
# 3 -0.003372 -0.002350 0.009805 0.003229 -0.002264 -0.004229
# 4 -0.013483 -0.011811 0.003229 0.055328 -0.010834 -0.010929
# 5 -0.002638 -0.002181 -0.002264 -0.010834 0.037714 -0.000335
# 6 0.015247 -0.007335 -0.004229 -0.010929 -0.000335 0.044031
#
#
# Mechanical properties :
#
#
# Convention : Reuss Voigt Hill
#
# Bulk Modulus (GPa) = 26.43679 44.42338 35.43008
# Shear Modulus (GPa) = 22.78445 33.38585 28.08515
#
# Velocity S-wave (km/s) = 2.97807 3.60493 3.30639
# Velocity P-wave (km/s) = 4.70275 5.88382 5.32612
#
# Compressibility (1/GPa) = 0.03782608
#
# Stress axis : x y z
#
# Youngs Moduli (GPa) = 38.09523 56.36612 101.98754
#
# Poissons Ratio (x) = 0.12760 0.34386
# Poissons Ratio (y) = 0.08624 0.23964
# Poissons Ratio (z) = 0.12844 0.13244
#
# Static dielectric constant tensor:
#      x y z
#    x 2.101700 0.017750 0.016640 
#    y 0.017750 1.993340 -0.007480 
#    z 0.016640 -0.007480 1.978320 
# 
# From -- ./inp_files/126837.got.cif
#   From: 2010.05.17/outbox.cif.g08.bks.cpg/sg2_64_cif.got.tgz:126837.got - 2010.06.03 11:33:40.
