data_PCOD9029140
_publ_section_title
;
Structure prediction by ZEFSAII (Michael W. Deem and Ramdas Pophale) SiO2 
 PCOD9029140
Probable space group: P -1
;
_chemical_formula_sum "Si O2"
_cell_formula_units_Z 12
_cell_length_a 14.879790
_cell_length_b 6.376444
_cell_length_c 9.648383
_cell_angle_alpha 76.210859
_cell_angle_beta 47.415389
_cell_angle_gamma 57.839389
_cell_volume 559.589159
_symmetry_space_group_name_H-M "P -1"
_symmetry_group_IT_number 2
_symmetry_cell_setting 'triclinic'
loop_
_space_group_symop_operation_xyz
x,y,z
-x,-y,-z
loop_
_atom_site_type_symbol
_atom_site_label
_atom_site_fract_x
_atom_site_fract_y
_atom_site_fract_z
Si Si1 0.251007 0.031532 0.036010
Si Si2 0.837314 0.159266 0.095599
Si Si3 0.456483 0.063768 0.195148
Si Si4 0.076731 0.567613 0.242129
Si Si5 0.223131 0.935552 0.539034
Si Si6 0.233362 0.645101 0.311561
O O1 0.195051 0.002780 0.951660
O O2 0.395312 0.034107 0.866495
O O3 0.130872 0.277647 0.204011
O O4 0.283822 0.793010 0.134956
O O5 0.752607 0.209175 0.318420
O O6 0.830755 0.379304 0.974786
O O7 0.000000 0.000000 0.000000
O O8 0.362232 0.945123 0.353955
O O9 0.358672 0.365292 0.262194
O O10 0.500000 0.000000 0.000000
O O11 0.121188 0.613366 0.340130
O O12 0.911774 0.776248 0.354531
O O13 0.182520 0.804842 0.480566
#
# Coordination Sequence:
#
# PCOD9029140 Si02
#       6
#     2   2   2   2   2   2
#     4  11  23  42  68  90 129 168 206 254 311 372
#     4   9  23  43  63  92 126 167 206 256 311 365
#     4  12  24  41  63  95 127 166 206 256 316 368
#     4  10  22  42  66  94 123 165 212 255 311 364
#     4  11  24  39  64  96 127 162 208 259 310 368
#     4  11  22  40  67  90 129 161 213 257 310 363
#
# _framework density 21.444306000000001
#
# number of rings (size 3 to 8) (size 9 to 14) (size 15 to 20)
#    0.000    1.333    3.333    1.000    0.000   11.333 
#    0.000    1.667    0.000    0.000    0.000    0.000 
#    0.000    0.000    0.000    0.000    0.000    0.000 
#
# Total GULP energy -67081.325202 kJ/mol
# GULP energy per Si atom -5590.110433 kJ/mol
# Density = 2.139550 g / cm^3
# Si number density = 21.444306 Si / 1000 Ang^3
#
#
#
# Elastic Constant Matrix: (Units=GPa)
#
#
# Indices 1 2 3 4 5 6 
#
# 1 137.9331 4.6250 37.5053 -3.4449 14.9281 7.5957
# 2 4.6250 50.3684 12.6341 2.4774 14.6951 -7.3019
# 3 37.5053 12.6341 119.9313 -22.6762 13.6452 2.3947
# 4 -3.4449 2.4774 -22.6762 24.1288 -3.2758 -7.4131
# 5 14.9281 14.6951 13.6452 -3.2758 35.5066 5.7306
# 6 7.5957 -7.3019 2.3947 -7.4131 5.7306 14.8208
#
#
#
# Elastic Compliance Matrix: (Units=1/GPa)
#
#
# Indices 1 2 3 4 5 6 
#
# 1 0.008441 0.000012 -0.002944 -0.003281 -0.001962 -0.004727
# 2 0.000012 0.026953 -0.001789 -0.000602 -0.013511 0.018485
# 3 -0.002944 -0.001789 0.011965 0.012485 -0.002416 0.005873
# 4 -0.003281 -0.000602 0.012485 0.062073 -0.002508 0.031385
# 5 -0.001962 -0.013511 -0.002416 -0.002508 0.038748 -0.021497
# 6 -0.004727 0.018485 0.005873 0.031385 -0.021497 0.102064
#
#
# Mechanical properties :
#
#
# Convention : Reuss Voigt Hill
#
# Bulk Modulus (GPa) = 26.37278 46.41798 36.39538
# Shear Modulus (GPa) = 18.36061 31.78914 25.07487
#
# Velocity S-wave (km/s) = 2.92926 3.85438 3.42322
# Velocity P-wave (km/s) = 4.87501 6.44214 5.71257
#
# Compressibility (1/GPa) = 0.03791789
#
# Stress axis : x y z
#
# Youngs Moduli (GPa) = 118.47509 37.10212 83.57532
#
# Poissons Ratio (x) = -0.00044 0.24601
# Poissons Ratio (y) = -0.00141 0.14949
# Poissons Ratio (z) = 0.34874 0.06636
#
# Static dielectric constant tensor:
#      x y z
#    x 1.777780 0.029730 -0.014180 
#    y 0.029730 1.803550 -0.028310 
#    z -0.014180 -0.028310 1.807500 
# 
# From -- ./inp_files/26175.got.cif
#   From: 2010.05.17/outbox.cif.g08.bks.cpg/sg2_14_cif.got.tgz:26175.got - 2010.06.03 11:33:40.
