data_PCOD9029470
_publ_section_title
;
Structure prediction by ZEFSAII (Michael W. Deem and Ramdas Pophale) SiO2 
 PCOD9029470
Probable space group: P -1
;
_chemical_formula_sum "Si O2"
_cell_formula_units_Z 16
_cell_length_a 23.233807
_cell_length_b 5.412920
_cell_length_c 18.318409
_cell_angle_alpha 98.643497
_cell_angle_beta 159.885332
_cell_angle_gamma 71.137768
_cell_volume 661.342001
_symmetry_space_group_name_H-M "P -1"
_symmetry_group_IT_number 2
_symmetry_cell_setting 'triclinic'
loop_
_space_group_symop_operation_xyz
x,y,z
-x,-y,-z
loop_
_atom_site_type_symbol
_atom_site_label
_atom_site_fract_x
_atom_site_fract_y
_atom_site_fract_z
Si Si1 0.551002 0.519620 0.353204
Si Si2 0.580235 0.602665 0.036826
Si Si3 0.006828 0.179233 0.834693
Si Si4 0.020085 0.359948 0.283238
Si Si5 0.553584 0.063312 0.242130
Si Si6 0.580634 0.204210 0.630593
Si Si7 0.236758 0.921028 0.872705
Si Si8 0.935893 0.519610 0.507609
O O1 0.544020 0.227414 0.312863
O O2 0.489830 0.664513 0.365819
O O3 0.376786 0.754394 0.101528
O O4 0.781794 0.404557 0.606215
O O5 0.699900 0.723347 0.226314
O O6 0.500000 0.500000 0.000000
O O7 0.426794 0.771481 0.796726
O O8 0.740849 0.312309 0.169699
O O9 0.075441 0.344925 0.867068
O O10 0.004321 0.901002 0.786043
O O11 0.180618 0.017857 0.094313
O O12 0.979554 0.376472 0.322267
O O13 0.250106 0.253426 0.542730
O O14 0.356041 0.069086 0.991886
O O15 0.500000 0.500000 0.500000
O O16 0.500000 0.000000 0.500000
O O17 0.011754 0.194425 0.618003
O O18 0.000000 0.500000 0.500000
#
# Coordination Sequence:
#
# PCOD9029470 Si02
#       8
#     2   2   2   2   2   2   2   2
#     4  10  25  45  74 101 144 183 237 290 349 440
#     4  11  25  40  62  92 138 187 244 311 360 421
#     4  11  25  49  76 107 141 189 233 288 356 431
#     4  11  25  43  71 100 138 187 250 290 350 429
#     4  10  22  42  67  95 132 190 241 296 353 415
#     4  12  29  48  77 115 148 180 224 285 359 438
#     4  11  22  42  65  93 132 183 243 289 365 410
#     4  12  26  38  60  96 139 188 242 314 368 412
#
# _framework density 24.193231999999998
#
# number of rings (size 3 to 8) (size 9 to 14) (size 15 to 20)
#    0.000    1.000    2.500    2.625    8.750    3.000 
#    0.000    0.000    0.000    0.000    0.000    0.000 
#    0.000    0.000    0.000    0.000    0.000    0.000 
#
# Total GULP energy -89293.832902 kJ/mol
# GULP energy per Si atom -5580.864556 kJ/mol
# Density = 2.413817 g / cm^3
# Si number density = 24.193232 Si / 1000 Ang^3
#
#
#
# Elastic Constant Matrix: (Units=GPa)
#
#
# Indices 1 2 3 4 5 6 
#
# 1 104.0518 43.4240 40.7411 3.2567 -23.7960 -0.6090
# 2 43.4240 88.4136 27.1472 -2.2001 -15.9741 -7.5333
# 3 40.7411 27.1472 150.5056 -10.4901 -13.5685 2.7823
# 4 3.2567 -2.2001 -10.4901 46.1342 3.2510 -4.4645
# 5 -23.7960 -15.9741 -13.5685 3.2510 37.7819 0.3116
# 6 -0.6090 -7.5333 2.7823 -4.4645 0.3116 37.6177
#
#
#
# Elastic Compliance Matrix: (Units=1/GPa)
#
#
# Indices 1 2 3 4 5 6 
#
# 1 0.014244 -0.005275 -0.002505 -0.002347 0.006052 -0.000969
# 2 -0.005275 0.014961 -0.001032 0.000971 0.002524 0.003081
# 3 -0.002505 -0.001032 0.007698 0.001776 0.000603 -0.000611
# 4 -0.002347 0.000971 0.001776 0.022727 -0.002408 0.002742
# 5 0.006052 0.002524 0.000603 -0.002408 0.031770 0.000010
# 6 -0.000969 0.003081 -0.000611 0.002742 0.000010 0.027555
#
#
# Mechanical properties :
#
#
# Convention : Reuss Voigt Hill
#
# Bulk Modulus (GPa) = 51.86779 62.84395 57.35587
# Shear Modulus (GPa) = 34.96395 39.75067 37.35731
#
# Velocity S-wave (km/s) = 3.80570 4.05785 3.93380
# Velocity P-wave (km/s) = 6.38722 6.92727 6.66272
#
# Compressibility (1/GPa) = 0.01927979
#
# Stress axis : x y z
#
# Youngs Moduli (GPa) = 70.20367 66.84161 129.90543
#
# Poissons Ratio (x) = 0.35256 0.32535
# Poissons Ratio (y) = 0.37029 0.13412
# Poissons Ratio (z) = 0.17583 0.06901
#
# Static dielectric constant tensor:
#      x y z
#    x 1.769590 0.017510 0.181440 
#    y 0.017510 2.030010 -0.004650 
#    z 0.181440 -0.004650 1.907190 
# 
# From -- ./inp_files/578746.got.cif
#   From: 2010.05.17/outbox.cif.g08.bks.cpg/sg2_290_cif.got.tgz:578746.got - 2010.06.03 11:33:40.
