data_PCOD9029488
_publ_section_title
;
Structure prediction by ZEFSAII (Michael W. Deem and Ramdas Pophale) SiO2 
 PCOD9029488
Probable space group: P -1
;
_chemical_formula_sum "Si O2"
_cell_formula_units_Z 16
_cell_length_a 13.703046
_cell_length_b 15.128705
_cell_length_c 8.663848
_cell_angle_alpha 85.619113
_cell_angle_beta 64.112969
_cell_angle_gamma 141.267431
_cell_volume 679.197908
_symmetry_space_group_name_H-M "P -1"
_symmetry_group_IT_number 2
_symmetry_cell_setting 'triclinic'
loop_
_space_group_symop_operation_xyz
x,y,z
-x,-y,-z
loop_
_atom_site_type_symbol
_atom_site_label
_atom_site_fract_x
_atom_site_fract_y
_atom_site_fract_z
Si Si1 0.837471 0.288775 0.141326
Si Si2 0.224495 0.712361 0.153250
Si Si3 0.316779 0.780395 0.405452
Si Si4 0.828497 0.089888 0.124909
Si Si5 0.026967 0.110528 0.745634
Si Si6 0.484189 0.713070 0.992904
Si Si7 0.248061 0.358977 0.263627
Si Si8 0.770839 0.927921 0.458558
O O1 0.707979 0.191839 0.413333
O O2 0.961229 0.282261 0.044964
O O3 0.701628 0.196321 0.078685
O O4 0.000000 0.500000 0.000000
O O5 0.275137 0.799926 0.268570
O O6 0.919084 0.465167 0.395003
O O7 0.367435 0.724328 0.073030
O O8 0.589987 0.934357 0.198809
O O9 0.700063 0.949728 0.381201
O O10 0.007988 0.152000 0.909573
O O11 0.198531 0.291074 0.480414
O O12 0.141686 0.097559 0.680271
O O13 0.742531 0.893204 0.892746
O O14 0.562555 0.753060 0.755906
O O15 0.282186 0.489302 0.213071
O O16 0.010958 0.146931 0.356489
O O17 0.500000 0.500000 0.000000
#
# Coordination Sequence:
#
# PCOD9029488 Si02
#       8
#     2   2   2   2   2   2   2   2
#     4  10  24  44  63  96 141 178 238 296 342 420
#     4  10  22  42  69 100 133 185 234 285 354 413
#     4  10  22  42  67  95 138 181 232 291 346 414
#     4  12  25  45  64 100 143 185 232 288 358 419
#     4  11  23  44  68 105 138 180 232 284 348 432
#     4  11  21  43  72 102 137 179 232 293 349 420
#     4  11  21  41  72  98 139 178 233 287 346 416
#     4  11  24  42  70 101 141 185 227 285 357 422
#
# _framework density 23.557198
#
# number of rings (size 3 to 8) (size 9 to 14) (size 15 to 20)
#    0.000    1.250    3.750    2.250    3.500    3.500 
#    4.500    0.625    0.000    0.000    0.000    0.000 
#    0.000    0.000    0.000    0.000    0.000    0.000 
#
# Total GULP energy -89426.404163 kJ/mol
# GULP energy per Si atom -5589.150260 kJ/mol
# Density = 2.350358 g / cm^3
# Si number density = 23.557198 Si / 1000 Ang^3
#
#
#
# Elastic Constant Matrix: (Units=GPa)
#
#
# Indices 1 2 3 4 5 6 
#
# 1 91.6294 36.2659 13.5267 3.4692 22.4239 -23.7034
# 2 36.2659 107.5486 37.0978 22.2276 15.2165 -10.3100
# 3 13.5267 37.0978 96.4324 14.5336 27.5143 -5.4731
# 4 3.4692 22.2276 14.5336 42.6267 2.8996 1.3502
# 5 22.4239 15.2165 27.5143 2.8996 49.9143 4.7564
# 6 -23.7034 -10.3100 -5.4731 1.3502 4.7564 45.1582
#
#
#
# Elastic Compliance Matrix: (Units=1/GPa)
#
#
# Indices 1 2 3 4 5 6 
#
# 1 0.016611 -0.004445 0.002127 0.000516 -0.008149 0.008805
# 2 -0.004445 0.013155 -0.003711 -0.005264 0.000305 0.000346
# 3 0.002127 -0.003711 0.014301 -0.002673 -0.007829 0.002907
# 4 0.000516 -0.005264 -0.002673 0.027043 0.001487 -0.002220
# 5 -0.008149 0.000305 -0.007829 0.001487 0.028614 -0.008215
# 6 0.008805 0.000346 0.002907 -0.002220 -0.008215 0.028129
#
#
# Mechanical properties :
#
#
# Convention : Reuss Voigt Hill
#
# Bulk Modulus (GPa) = 31.24122 52.15459 41.69790
# Shear Modulus (GPa) = 33.20465 41.45451 37.32958
#
# Velocity S-wave (km/s) = 3.75845 4.19947 3.98507
# Velocity P-wave (km/s) = 5.66791 6.76031 6.23807
#
# Compressibility (1/GPa) = 0.03200900
#
# Stress axis : x y z
#
# Youngs Moduli (GPa) = 60.20064 76.01654 69.92510
#
# Poissons Ratio (x) = 0.33786 -0.14872
# Poissons Ratio (y) = 0.26757 0.25952
# Poissons Ratio (z) = -0.12804 0.28212
#
# Static dielectric constant tensor:
#      x y z
#    x 1.870300 0.006730 0.013090 
#    y 0.006730 1.939150 -0.006470 
#    z 0.013090 -0.006470 1.925370 
# 
# From -- ./inp_files/313311.got.cif
#   From: 2010.05.17/outbox.cif.g08.bks.cpg/sg2_157_cif.got.tgz:313311.got - 2010.06.03 11:33:40.
