data_PCOD9029123
_publ_section_title
;
Structure prediction by ZEFSAII (Michael W. Deem and Ramdas Pophale) SiO2 
 PCOD9029123
Probable space group: P -1
;
_chemical_formula_sum "Si O2"
_cell_formula_units_Z 16
_cell_length_a 9.417100
_cell_length_b 18.379048
_cell_length_c 5.788034
_cell_angle_alpha 63.135436
_cell_angle_beta 85.714673
_cell_angle_gamma 61.542332
_cell_volume 772.952194
_symmetry_space_group_name_H-M "P -1"
_symmetry_group_IT_number 2
_symmetry_cell_setting 'triclinic'
loop_
_space_group_symop_operation_xyz
x,y,z
-x,-y,-z
loop_
_atom_site_type_symbol
_atom_site_label
_atom_site_fract_x
_atom_site_fract_y
_atom_site_fract_z
Si Si1 0.942320 0.653215 0.290970
Si Si2 0.498855 0.586384 0.004399
Si Si3 0.497335 0.097792 0.344927
Si Si4 0.663169 0.238198 0.563912
Si Si5 0.170836 0.904149 0.616798
Si Si6 0.190071 0.720762 0.114762
Si Si7 0.863850 0.531562 0.170054
Si Si8 0.611398 0.802662 0.271995
O O1 0.855502 0.623042 0.152463
O O2 0.799329 0.721241 0.382675
O O3 0.041971 0.701902 0.115330
O O4 0.069540 0.555461 0.536187
O O5 0.430596 0.679267 0.724794
O O6 0.500000 0.500000 0.000000
O O7 0.361509 0.627723 0.161364
O O8 0.683905 0.555212 0.087851
O O9 0.679799 0.084877 0.315908
O O10 0.434874 0.148422 0.535547
O O11 0.500000 0.000000 0.500000
O O12 0.403396 0.143252 0.047138
O O13 0.771931 0.135451 0.590801
O O14 0.784573 0.263203 0.646351
O O15 0.513622 0.236243 0.712022
O O16 0.164529 0.816650 0.863040
O O17 0.000000 0.000000 0.500000
O O18 0.000000 0.500000 0.000000
#
# Coordination Sequence:
#
# PCOD9029123 Si02
#       8
#     2   2   2   2   2   2   2   2
#     4  11  26  39  64  98 130 180 224 283 343 403
#     4  11  23  40  67  93 132 177 222 283 339 414
#     4  11  25  46  72 101 135 180 230 282 352 413
#     4  10  22  42  66  93 128 178 222 276 346 406
#     4  10  24  43  65  98 131 173 222 283 339 408
#     4  11  23  43  63  94 133 169 228 271 351 408
#     4  11  24  42  63  95 135 173 229 284 337 407
#     4  11  24  45  70  99 136 181 227 284 341 415
#
# _framework density 20.699856
#
# number of rings (size 3 to 8) (size 9 to 14) (size 15 to 20)
#    0.000    1.250    1.250    3.375    7.000    6.500 
#    0.000    0.000    0.000    0.000    0.000    0.000 
#    0.000    0.000    0.000    0.000    0.000    0.000 
#
# Total GULP energy -89230.506775 kJ/mol
# GULP energy per Si atom -5576.906673 kJ/mol
# Density = 2.065274 g / cm^3
# Si number density = 20.699856 Si / 1000 Ang^3
#
#
#
# Elastic Constant Matrix: (Units=GPa)
#
#
# Indices 1 2 3 4 5 6 
#
# 1 165.6258 73.7060 24.6362 -8.9474 -4.8553 5.7519
# 2 73.7060 118.8079 17.9745 -8.2541 0.7822 -9.7293
# 3 24.6362 17.9745 52.7696 -2.3716 0.8233 2.7193
# 4 -8.9474 -8.2541 -2.3716 26.2214 3.2370 -1.5209
# 5 -4.8553 0.7822 0.8233 3.2370 33.6657 -5.0820
# 6 5.7519 -9.7293 2.7193 -1.5209 -5.0820 39.6318
#
#
#
# Elastic Compliance Matrix: (Units=1/GPa)
#
#
# Indices 1 2 3 4 5 6 
#
# 1 0.008886 -0.005311 -0.002198 0.000903 0.001028 -0.002276
# 2 -0.005311 0.012479 -0.001865 0.002255 -0.000628 0.003968
# 3 -0.002198 -0.001865 0.020741 0.000576 -0.001090 -0.001680
# 4 0.000903 0.002255 0.000576 0.039728 -0.003537 0.001454
# 5 0.001028 -0.000628 -0.001090 -0.003537 0.030774 0.003582
# 6 -0.002276 0.003968 -0.001680 0.001454 0.003582 0.027167
#
#
# Mechanical properties :
#
#
# Convention : Reuss Voigt Hill
#
# Bulk Modulus (GPa) = 42.80818 63.31520 53.06169
# Shear Modulus (GPa) = 30.06467 34.62955 32.34711
#
# Velocity S-wave (km/s) = 3.81518 4.09459 3.95735
# Velocity P-wave (km/s) = 6.33505 7.28065 6.82425
#
# Compressibility (1/GPa) = 0.02336002
#
# Stress axis : x y z
#
# Youngs Moduli (GPa) = 112.53871 80.13203 48.21362
#
# Poissons Ratio (x) = 0.42554 0.10596
# Poissons Ratio (y) = 0.59764 0.08991
# Poissons Ratio (z) = 0.24734 0.14943
#
# Static dielectric constant tensor:
#      x y z
#    x 1.714430 0.004290 -0.011150 
#    y 0.004290 1.753430 0.066380 
#    z -0.011150 0.066380 1.821470 
# 
# From -- ./inp_files/39863.got.cif
#   From: 2010.05.17/outbox.cif.g08.bks.cpg/sg2_20_cif.got.tgz:39863.got - 2010.06.03 11:33:40.
