data_PCOD9029210
_publ_section_title
;
Structure prediction by ZEFSAII (Michael W. Deem and Ramdas Pophale) SiO2 
 PCOD9029210
Probable space group: P -1
;
_chemical_formula_sum "Si O2"
_cell_formula_units_Z 16
_cell_length_a 8.312627
_cell_length_b 12.645457
_cell_length_c 8.600515
_cell_angle_alpha 56.189714
_cell_angle_beta 94.701147
_cell_angle_gamma 97.516857
_cell_volume 744.668226
_symmetry_space_group_name_H-M "P -1"
_symmetry_group_IT_number 2
_symmetry_cell_setting 'triclinic'
loop_
_space_group_symop_operation_xyz
x,y,z
-x,-y,-z
loop_
_atom_site_type_symbol
_atom_site_label
_atom_site_fract_x
_atom_site_fract_y
_atom_site_fract_z
Si Si1 0.279762 0.758447 0.889439
Si Si2 0.237953 0.640224 0.646131
Si Si3 0.108309 0.000369 0.661200
Si Si4 0.448866 0.134287 0.948745
Si Si5 0.094058 0.266543 0.579023
Si Si6 0.117856 0.171512 0.007731
Si Si7 0.965048 0.594683 0.062369
Si Si8 0.561565 0.632327 0.479705
O O1 0.281625 0.684103 0.789221
O O2 0.237718 0.900860 0.725111
O O3 0.433038 0.787787 0.984307
O O4 0.140012 0.672523 0.046696
O O5 0.144407 0.497147 0.756161
O O6 0.412456 0.648722 0.571354
O O7 0.088353 0.714827 0.508937
O O8 0.015514 0.936793 0.855871
O O9 0.152877 0.144839 0.593976
O O10 0.000000 0.000000 0.500000
O O11 0.431786 0.239735 0.728813
O O12 0.279142 0.106439 0.044667
O O13 0.500000 0.000000 0.000000
O O14 0.244887 0.373501 0.462462
O O15 0.082216 0.238642 0.786032
O O16 0.134292 0.280032 0.056686
O O17 0.000000 0.500000 0.000000
O O18 0.500000 0.500000 0.500000
#
# Coordination Sequence:
#
# PCOD9029210 Si02
#       8
#     2   2   2   2   2   2   2   2
#     4  10  22  42  66  96 133 176 222 271 340 405
#     4  11  23  42  69  97 132 177 221 278 339 394
#     4  11  22  41  65  97 132 171 225 273 330 404
#     4  11  25  44  67  99 138 177 222 282 337 407
#     4  11  24  42  67  98 136 174 221 278 336 404
#     4  10  23  41  66  94 132 180 218 272 344 397
#     4   9  21  42  64  95 130 170 225 269 334 406
#     4  11  27  45  66 102 136 175 233 280 334 405
#
# _framework density 21.486080000000001
#
# number of rings (size 3 to 8) (size 9 to 14) (size 15 to 20)
#    0.000    1.500    1.250    3.375    7.000    2.000 
#    0.000    3.750    0.000    0.000    0.000    0.000 
#    0.000    0.000    0.000    0.000    0.000    0.000 
#
# Total GULP energy -89084.678031 kJ/mol
# GULP energy per Si atom -5567.792377 kJ/mol
# Density = 2.143718 g / cm^3
# Si number density = 21.486080 Si / 1000 Ang^3
#
#
#
# Elastic Constant Matrix: (Units=GPa)
#
#
# Indices 1 2 3 4 5 6 
#
# 1 79.8127 19.7675 19.6110 27.5725 -7.2555 2.0498
# 2 19.7675 118.4432 6.9872 2.0043 -1.6012 3.5235
# 3 19.6110 6.9872 42.4440 10.1695 -6.2470 9.1219
# 4 27.5725 2.0043 10.1695 28.4600 2.6462 6.3010
# 5 -7.2555 -1.6012 -6.2470 2.6462 24.3706 -0.1532
# 6 2.0498 3.5235 9.1219 6.3010 -0.1532 34.7965
#
#
#
# Elastic Compliance Matrix: (Units=1/GPa)
#
#
# Indices 1 2 3 4 5 6 
#
# 1 0.022437 -0.003136 -0.004432 -0.021556 0.007704 0.004095
# 2 -0.003136 0.008974 -0.000621 0.002949 -0.000830 -0.001099
# 3 -0.004432 -0.000621 0.029352 -0.005364 0.006706 -0.006370
# 4 -0.021556 0.002949 -0.005364 0.060990 -0.014276 -0.008730
# 5 0.007704 -0.000830 0.006706 -0.014276 0.046545 0.000662
# 6 0.004095 -0.001099 -0.006370 -0.008730 0.000662 0.031862
#
#
# Mechanical properties :
#
#
# Convention : Reuss Voigt Hill
#
# Bulk Modulus (GPa) = 22.53018 37.04793 29.78906
# Shear Modulus (GPa) = 21.61384 30.48103 26.04744
#
# Velocity S-wave (km/s) = 3.17511 3.77057 3.48558
# Velocity P-wave (km/s) = 4.89392 6.01967 5.48575
#
# Compressibility (1/GPa) = 0.04438490
#
# Stress axis : x y z
#
# Youngs Moduli (GPa) = 44.56924 111.42746 34.06970
#
# Poissons Ratio (x) = 0.34944 0.15100
# Poissons Ratio (y) = 0.13977 0.02115
# Poissons Ratio (z) = 0.19754 0.06919
#
# Static dielectric constant tensor:
#      x y z
#    x 1.900260 -0.036500 -0.014570 
#    y -0.036500 1.810530 -0.071200 
#    z -0.014570 -0.071200 1.738160 
# 
# From -- ./inp_files/175195.got.cif
#   From: 2010.05.17/outbox.cif.g08.bks.cpg/sg2_88_cif.got.tgz:175195.got - 2010.06.03 11:33:40.
