data_PCOD9029719
_publ_section_title
;
Structure prediction by ZEFSAII (Michael W. Deem and Ramdas Pophale) SiO2 
 PCOD9029719
Probable space group: P -1
;
_chemical_formula_sum "Si O2"
_cell_formula_units_Z 13
_cell_length_a 14.186914
_cell_length_b 11.376036
_cell_length_c 11.652781
_cell_angle_alpha 38.267077
_cell_angle_beta 44.812230
_cell_angle_gamma 32.003491
_cell_volume 611.804423
_symmetry_space_group_name_H-M "P -1"
_symmetry_group_IT_number 2
_symmetry_cell_setting 'triclinic'
loop_
_space_group_symop_operation_xyz
x,y,z
-x,-y,-z
loop_
_atom_site_type_symbol
_atom_site_label
_atom_site_fract_x
_atom_site_fract_y
_atom_site_fract_z
Si Si1 0.824950 0.862198 0.479311
Si Si2 0.059119 0.761985 0.559704
Si Si3 0.775266 0.927409 0.041930
Si Si4 0.000000 0.500000 0.000000
Si Si5 0.975601 0.293306 0.799481
Si Si6 0.592906 0.734573 0.453168
Si Si7 0.341880 0.580512 0.155287
O O1 0.887654 0.585344 0.649592
O O2 0.957343 0.853285 0.455471
O O3 0.863866 0.870072 0.306733
O O4 0.618946 0.085287 0.520709
O O5 0.002867 0.630738 0.781559
O O6 0.271655 0.529152 0.533160
O O7 0.000000 0.000000 0.500000
O O8 0.657052 0.885443 0.247144
O O9 0.951354 0.800567 0.064522
O O10 0.836812 0.783662 0.979427
O O11 0.684113 0.218019 0.890801
O O12 0.825853 0.296196 0.877556
O O13 0.627054 0.638973 0.628828
O O14 0.500000 0.500000 0.000000
#
# Coordination Sequence:
#
# PCOD9029719 Si02
#       7
#     2   2   2   1   2   2   2
#     4  11  22  41  71  97 132 176 218 269 339 396
#     4  11  23  46  68  93 134 175 222 273 325 392
#     4  11  23  43  67  96 133 176 223 271 329 393
#     4  10  22  42  68  90 126 178 218 264 326 386
#     4  11  21  41  66  99 132 177 214 273 342 387
#     4  11  23  44  66  99 133 174 217 274 333 388
#     4  12  24  39  65 104 135 168 222 277 331 400
#
# _framework density 21.248619000000001
#
# number of rings (size 3 to 8) (size 9 to 14) (size 15 to 20)
#    0.000    0.923    4.615    4.154    0.000    2.462 
#    0.000    3.077    0.000    0.000    0.000    0.000 
#    0.000    0.000    0.000    0.000    0.000    0.000 
#
# Total GULP energy -72375.672453 kJ/mol
# GULP energy per Si atom -5567.359419 kJ/mol
# Density = 2.120026 g / cm^3
# Si number density = 21.248619 Si / 1000 Ang^3
#
#
#
# Elastic Constant Matrix: (Units=GPa)
#
#
# Indices 1 2 3 4 5 6 
#
# 1 36.1914 54.7618 6.5718 7.3429 -15.6192 5.8549
# 2 54.7618 126.0085 16.2612 25.6689 -11.3011 3.5756
# 3 6.5718 16.2612 90.7884 12.5938 7.1332 1.0983
# 4 7.3429 25.6689 12.5938 39.0056 4.1443 -4.9570
# 5 -15.6192 -11.3011 7.1332 4.1443 31.3159 -3.6408
# 6 5.8549 3.5756 1.0983 -4.9570 -3.6408 31.8210
#
#
#
# Elastic Compliance Matrix: (Units=1/GPa)
#
#
# Indices 1 2 3 4 5 6 
#
# 1 0.122246 -0.049555 -0.003823 0.004945 0.042001 -0.011216
# 2 -0.049555 0.030028 0.000381 -0.008860 -0.012454 0.002925
# 3 -0.003823 0.000381 0.011982 -0.003045 -0.004178 -0.000705
# 4 0.004945 -0.008860 -0.003045 0.032535 -0.003782 0.004826
# 5 0.042001 -0.012454 -0.004178 -0.003782 0.049713 -0.001085
# 6 -0.011216 0.002925 -0.000705 0.004826 -0.001085 0.033813
#
#
# Mechanical properties :
#
#
# Convention : Reuss Voigt Hill
#
# Bulk Modulus (GPa) = 17.16416 45.35307 31.25861
# Shear Modulus (GPa) = 12.32337 32.12139 22.22238
#
# Velocity S-wave (km/s) = 2.41085 3.89227 3.23743
# Velocity P-wave (km/s) = 3.98057 6.44903 5.35887
#
# Compressibility (1/GPa) = 0.05826095
#
# Stress axis : x y z
#
# Youngs Moduli (GPa) = 8.18022 33.30240 83.45594
#
# Poissons Ratio (x) = 1.65032 0.31906
# Poissons Ratio (y) = 0.40537 -0.03179
# Poissons Ratio (z) = 0.03127 -0.01268
#
# Static dielectric constant tensor:
#      x y z
#    x 1.746140 0.002340 -0.026470 
#    y 0.002340 1.802320 -0.036140 
#    z -0.026470 -0.036140 1.787200 
# 
# From -- ./inp_files/351754.got.cif
#   From: 2010.05.17/outbox.cif.g08.bks.cpg/sg2_176_cif.got.tgz:351754.got - 2010.06.03 11:33:40.
