data_PCOD9029841
_publ_section_title
;
Structure prediction by ZEFSAII (Michael W. Deem and Ramdas Pophale) SiO2 
 PCOD9029841
Probable space group: P -1
;
_chemical_formula_sum "Si O2"
_cell_formula_units_Z 15
_cell_length_a 14.640784
_cell_length_b 6.398210
_cell_length_c 11.873182
_cell_angle_alpha 119.985047
_cell_angle_beta 131.893281
_cell_angle_gamma 89.493224
_cell_volume 619.424002
_symmetry_space_group_name_H-M "P -1"
_symmetry_group_IT_number 2
_symmetry_cell_setting 'triclinic'
loop_
_space_group_symop_operation_xyz
x,y,z
-x,-y,-z
loop_
_atom_site_type_symbol
_atom_site_label
_atom_site_fract_x
_atom_site_fract_y
_atom_site_fract_z
Si Si1 0.901382 0.180124 0.236100
Si Si2 0.817816 0.305056 0.428380
Si Si3 0.695022 0.333264 0.032685
Si Si4 0.483148 0.727239 0.801007
Si Si5 0.185532 0.798850 0.350156
Si Si6 0.062446 0.196109 0.995253
Si Si7 0.504701 0.779816 0.362290
Si Si8 0.500000 0.500000 0.000000
O O1 0.838658 0.139019 0.298252
O O2 0.070681 0.374447 0.426546
O O3 0.861352 0.912570 0.056182
O O4 0.847150 0.368220 0.178426
O O5 0.665052 0.277526 0.311927
O O6 0.853618 0.233179 0.559994
O O7 0.633581 0.320850 0.855928
O O8 0.593114 0.025187 0.919723
O O9 0.657819 0.533812 0.125254
O O10 0.483368 0.484985 0.659287
O O11 0.518703 0.660083 0.935973
O O12 0.072951 0.831801 0.190878
O O13 0.348847 0.044333 0.541026
O O14 0.166124 0.507523 0.208971
O O15 0.000000 0.000000 0.000000
O O16 0.500000 0.000000 0.500000
#
# Coordination Sequence:
#
# PCOD9029841 Si02
#       8
#     2   2   2   2   2   2   2   1
#     4  11  25  42  72 107 139 184 234 298 343 419
#     4  11  23  46  71 103 142 179 238 291 354 416
#     4  11  24  44  69 100 141 182 229 285 356 413
#     4  11  23  44  69  95 139 186 224 286 353 413
#     4  11  25  46  71 101 139 192 232 285 365 414
#     4  11  25  46  72  98 143 187 231 292 355 421
#     4  11  27  41  68 105 136 183 243 290 340 425
#     4  10  22  42  68  96 136 180 224 274 354 420
#
# _framework density 24.216045000000001
#
# number of rings (size 3 to 8) (size 9 to 14) (size 15 to 20)
#    0.000    1.067    4.000    1.200    3.733    1.067 
#    2.400    0.000    0.000    0.000    0.000    0.000 
#    0.000    0.000    0.000    0.000    0.000    0.000 
#
# Total GULP energy -83651.663399 kJ/mol
# GULP energy per Si atom -5576.777560 kJ/mol
# Density = 2.416093 g / cm^3
# Si number density = 24.216045 Si / 1000 Ang^3
#
#
#
# Elastic Constant Matrix: (Units=GPa)
#
#
# Indices 1 2 3 4 5 6 
#
# 1 115.1004 33.8298 31.9044 10.1913 -19.0990 -11.7796
# 2 33.8298 85.2089 27.2568 -6.6194 -5.6934 -0.7858
# 3 31.9044 27.2568 66.3494 -9.5314 -9.2463 1.1270
# 4 10.1913 -6.6194 -9.5314 41.2839 3.7556 -4.4890
# 5 -19.0990 -5.6934 -9.2463 3.7556 51.5657 9.4010
# 6 -11.7796 -0.7858 1.1270 -4.4890 9.4010 37.4909
#
#
#
# Elastic Compliance Matrix: (Units=1/GPa)
#
#
# Indices 1 2 3 4 5 6 
#
# 1 0.012218 -0.003467 -0.004723 -0.004673 0.003170 0.002554
# 2 -0.003467 0.014548 -0.004051 0.002273 -0.000523 -0.000260
# 3 -0.004723 -0.004051 0.019919 0.004779 0.001381 -0.001942
# 4 -0.004673 0.002273 0.004779 0.027393 -0.003071 0.002486
# 5 0.003170 -0.000523 0.001381 -0.003071 0.021876 -0.004910
# 6 0.002554 -0.000260 -0.001942 0.002486 -0.004910 0.029057
#
#
# Mechanical properties :
#
#
# Convention : Reuss Voigt Hill
#
# Bulk Modulus (GPa) = 45.04333 50.29343 47.66838
# Shear Modulus (GPa) = 31.86867 37.64594 34.75731
#
# Velocity S-wave (km/s) = 3.63163 3.94710 3.79265
# Velocity P-wave (km/s) = 6.01880 6.44876 6.23749
#
# Compressibility (1/GPa) = 0.02220085
#
# Stress axis : x y z
#
# Youngs Moduli (GPa) = 81.84905 68.74016 50.20336
#
# Poissons Ratio (x) = 0.23835 0.23713
# Poissons Ratio (y) = 0.28380 0.20337
# Poissons Ratio (z) = 0.38660 0.27846
#
# Static dielectric constant tensor:
#      x y z
#    x 1.947970 -0.056170 -0.075740 
#    y -0.056170 1.955480 0.064300 
#    z -0.075740 0.064300 1.993390 
# 
# From -- ./inp_files/124029.got.cif
#   From: 2010.05.17/outbox.cif.g08.bks.cpg/sg2_63_cif.got.tgz:124029.got - 2010.06.03 11:33:40.
