data_PCOD9029869
_publ_section_title
;
Structure prediction by ZEFSAII (Michael W. Deem and Ramdas Pophale) SiO2 
 PCOD9029869
Probable space group: P -1
;
_chemical_formula_sum "Si O2"
_cell_formula_units_Z 16
_cell_length_a 16.017230
_cell_length_b 9.804180
_cell_length_c 9.347235
_cell_angle_alpha 119.503191
_cell_angle_beta 116.788881
_cell_angle_gamma 36.583111
_cell_volume 757.050140
_symmetry_space_group_name_H-M "P -1"
_symmetry_group_IT_number 2
_symmetry_cell_setting 'triclinic'
loop_
_space_group_symop_operation_xyz
x,y,z
-x,-y,-z
loop_
_atom_site_type_symbol
_atom_site_label
_atom_site_fract_x
_atom_site_fract_y
_atom_site_fract_z
Si Si1 0.551491 0.093472 0.258495
Si Si2 0.856859 0.747653 0.844448
Si Si3 0.553953 0.079823 0.749863
Si Si4 0.849109 0.756032 0.178485
Si Si5 0.139037 0.881931 0.964436
Si Si6 0.137771 0.884719 0.628571
Si Si7 0.446252 0.411639 0.591309
Si Si8 0.560966 0.583510 0.916354
O O1 0.536635 0.255527 0.441962
O O2 0.455692 0.261274 0.135966
O O3 0.499400 0.006237 0.255517
O O4 0.709805 0.875893 0.213260
O O5 0.005771 0.494414 0.778163
O O6 0.716803 0.860794 0.719366
O O7 0.841381 0.720614 0.986322
O O8 0.856872 0.934761 0.929417
O O9 0.464849 0.246243 0.631931
O O10 0.537352 0.240864 0.936768
O O11 0.854163 0.937447 0.281392
O O12 0.134318 0.845138 0.773668
O O13 0.281216 0.636718 0.018863
O O14 0.000000 0.000000 0.000000
O O15 0.282205 0.637500 0.546439
O O16 0.000000 0.000000 0.500000
O O17 0.502112 0.497812 0.757081
#
# Coordination Sequence:
#
# PCOD9029869 Si02
#       8
#     2   2   2   2   2   2   2   2
#     4  12  27  41  71 108 141 179 236 291 349 412
#     4  10  22  42  68  97 138 180 225 286 346 404
#     4  12  24  45  72 102 136 188 235 286 345 416
#     4  10  23  42  66  99 138 179 228 280 347 413
#     4  11  25  42  71 104 132 180 239 288 336 411
#     4  11  25  44  68  99 142 184 224 284 356 414
#     4  12  25  46  71  99 143 185 232 290 353 409
#     4  12  23  45  75  99 133 183 245 287 328 414
#
# _framework density 21.134661999999999
#
# number of rings (size 3 to 8) (size 9 to 14) (size 15 to 20)
#    0.000    0.750    5.000    2.250    5.250    1.000 
#    0.000    0.625    0.000    0.000    0.000    0.000 
#    0.000    0.000    0.000    0.000    0.000    0.000 
#
# Total GULP energy -89564.981596 kJ/mol
# GULP energy per Si atom -5597.811350 kJ/mol
# Density = 2.108656 g / cm^3
# Si number density = 21.134662 Si / 1000 Ang^3
#
#
#
# Elastic Constant Matrix: (Units=GPa)
#
#
# Indices 1 2 3 4 5 6 
#
# 1 114.4785 55.6392 21.9357 -8.2875 -2.1449 -20.7229
# 2 55.6392 175.0147 33.1235 -16.5468 -3.4317 -31.8492
# 3 21.9357 33.1235 67.2025 -3.9315 -4.2053 -10.5031
# 4 -8.2875 -16.5468 -3.9315 31.4043 -7.8001 -1.1050
# 5 -2.1449 -3.4317 -4.2053 -7.8001 27.1638 -4.6312
# 6 -20.7229 -31.8492 -10.5031 -1.1050 -4.6312 40.2659
#
#
#
# Elastic Compliance Matrix: (Units=1/GPa)
#
#
# Indices 1 2 3 4 5 6 
#
# 1 0.011006 -0.002303 -0.001679 0.001983 0.001507 0.003632
# 2 -0.002303 0.008252 -0.002078 0.004328 0.002672 0.005226
# 3 -0.001679 -0.002078 0.017096 0.001446 0.003066 0.002343
# 4 0.001983 0.004328 0.001446 0.038367 0.013205 0.007392
# 5 0.001507 0.002672 0.003066 0.013205 0.043072 0.009005
# 6 0.003632 0.005226 0.002343 0.007392 0.009005 0.032687
#
#
# Mechanical properties :
#
#
# Convention : Reuss Voigt Hill
#
# Bulk Modulus (GPa) = 41.26819 64.23250 52.75035
# Shear Modulus (GPa) = 29.29490 36.16663 32.73076
#
# Velocity S-wave (km/s) = 3.72708 4.14121 3.93959
# Velocity P-wave (km/s) = 6.17173 7.30234 6.76071
#
# Compressibility (1/GPa) = 0.02423174
#
# Stress axis : x y z
#
# Youngs Moduli (GPa) = 90.86275 121.18491 58.49427
#
# Poissons Ratio (x) = 0.27909 0.09823
# Poissons Ratio (y) = 0.20926 0.12157
# Poissons Ratio (z) = 0.15259 0.25187
#
# Static dielectric constant tensor:
#      x y z
#    x 1.734340 0.016700 0.008850 
#    y 0.016700 1.767190 0.013080 
#    z 0.008850 0.013080 1.786850 
# 
# From -- ./inp_files/299297.got.cif
#   From: 2010.05.17/outbox.cif.g08.bks.cpg/sg2_150_cif.got.tgz:299297.got - 2010.06.03 11:33:40.
