data_PCOD9029067
_publ_section_title
;
Structure prediction by ZEFSAII (Michael W. Deem and Ramdas Pophale) SiO2 
 PCOD9029067
Probable space group: P -1
;
_chemical_formula_sum "Si O2"
_cell_formula_units_Z 14
_cell_length_a 7.744624
_cell_length_b 5.847543
_cell_length_c 15.693713
_cell_angle_alpha 100.187353
_cell_angle_beta 126.554429
_cell_angle_gamma 63.397599
_cell_volume 506.468203
_symmetry_space_group_name_H-M "P -1"
_symmetry_group_IT_number 2
_symmetry_cell_setting 'triclinic'
loop_
_space_group_symop_operation_xyz
x,y,z
-x,-y,-z
loop_
_atom_site_type_symbol
_atom_site_label
_atom_site_fract_x
_atom_site_fract_y
_atom_site_fract_z
Si Si1 0.689905 0.709730 0.544973
Si Si2 0.069331 0.172106 0.812953
Si Si3 0.500000 0.000000 0.000000
Si Si4 0.761763 0.921631 0.329942
Si Si5 0.542126 0.518038 0.662349
Si Si6 0.103669 0.599436 0.959051
Si Si7 0.000000 0.500000 0.500000
Si Si8 0.350650 0.899568 0.130929
O O1 0.632832 0.602729 0.607128
O O2 0.651690 0.576111 0.436714
O O3 0.960229 0.633334 0.598146
O O4 0.500000 0.000000 0.500000
O O5 0.084769 0.139509 0.714691
O O6 0.788746 0.307708 0.760537
O O7 0.181814 0.367031 0.897885
O O8 0.265116 0.928668 0.902257
O O9 0.567831 0.982683 0.917472
O O10 0.565362 0.810197 0.253202
O O11 0.906906 0.791499 0.447506
O O12 0.597199 0.225465 0.309992
O O13 0.884422 0.866565 0.884505
O O14 0.000000 0.500000 0.000000
O O15 0.297465 0.673194 0.062897
#
# Coordination Sequence:
#
# PCOD9029067 Si02
#       8
#     2   2   1   2   2   2   1   2
#     4  11  25  46  72 102 138 186 238 298 361 433
#     4  11  23  44  70 106 142 186 241 297 358 435
#     4  10  22  42  66 106 142 184 238 288 366 418
#     4  11  24  43  71 106 142 186 243 300 365 426
#     4  11  24  46  73  98 141 188 238 294 360 433
#     4  11  22  43  72 100 143 191 238 297 360 429
#     4  12  24  44  70 108 144 178 244 302 360 432
#     4  10  23  43  69 102 142 186 240 299 352 438
#
# _framework density 27.642408
#
# number of rings (size 3 to 8) (size 9 to 14) (size 15 to 20)
#    0.000    1.143    5.714    0.000    0.000    5.143 
#    2.571    2.857    0.000    0.000    0.000    0.000 
#    0.000    0.000    0.000    0.000    0.000    0.000 
#
# Total GULP energy -78017.953289 kJ/mol
# GULP energy per Si atom -5572.710949 kJ/mol
# Density = 2.757949 g / cm^3
# Si number density = 27.642408 Si / 1000 Ang^3
#
#
#
# Elastic Constant Matrix: (Units=GPa)
#
#
# Indices 1 2 3 4 5 6 
#
# 1 121.5131 38.4729 21.2020 5.1603 -9.6191 -23.4981
# 2 38.4729 98.2663 24.6686 13.7775 2.7814 -21.5644
# 3 21.2020 24.6686 109.1500 -11.0323 11.3185 8.6072
# 4 5.1603 13.7775 -11.0323 56.1657 -4.7283 -6.2668
# 5 -9.6191 2.7814 11.3185 -4.7283 63.2566 0.8464
# 6 -23.4981 -21.5644 8.6072 -6.2668 0.8464 46.5408
#
#
#
# Elastic Compliance Matrix: (Units=1/GPa)
#
#
# Indices 1 2 3 4 5 6 
#
# 1 0.010422 -0.002685 -0.001970 -0.000034 0.001995 0.004342
# 2 -0.002685 0.013633 -0.003213 -0.003218 -0.000742 0.005136
# 3 -0.001970 -0.003213 0.011049 0.002517 -0.001892 -0.004154
# 4 -0.000034 -0.003218 0.002517 0.019252 0.001117 0.000598
# 5 0.001995 -0.000742 -0.001892 0.001117 0.016555 0.000863
# 6 0.004342 0.005136 -0.004154 0.000598 0.000863 0.026891
#
#
# Mechanical properties :
#
#
# Convention : Reuss Voigt Hill
#
# Bulk Modulus (GPa) = 51.63154 55.29070 53.46112
# Shear Modulus (GPa) = 41.66821 49.49835 45.58328
#
# Velocity S-wave (km/s) = 3.88674 4.23622 4.06524
# Velocity P-wave (km/s) = 6.23388 6.63121 6.43561
#
# Compressibility (1/GPa) = 0.01936801
#
# Stress axis : x y z
#
# Youngs Moduli (GPa) = 95.94738 73.34896 90.50860
#
# Poissons Ratio (x) = 0.19693 0.17833
# Poissons Ratio (y) = 0.25761 0.29081
# Poissons Ratio (z) = 0.18905 0.23567
#
# Static dielectric constant tensor:
#      x y z
#    x 1.496050 0.296470 -0.349650 
#    y 0.296470 1.894550 0.297850 
#    z -0.349650 0.297850 1.810610 
# 
# From -- ./inp_files/553780.got.cif
#   From: 2010.05.17/outbox.cif.g08.bks.cpg/sg2_277_cif.got.tgz:553780.got - 2010.06.03 11:33:40.
