data_PCOD9029635
_publ_section_title
;
Structure prediction by ZEFSAII (Michael W. Deem and Ramdas Pophale) SiO2 
 PCOD9029635
Probable space group: P -1
;
_chemical_formula_sum "Si O2"
_cell_formula_units_Z 16
_cell_length_a 4.956736
_cell_length_b 15.582302
_cell_length_c 9.963920
_cell_angle_alpha 83.254224
_cell_angle_beta 74.376607
_cell_angle_gamma 57.027918
_cell_volume 621.376006
_symmetry_space_group_name_H-M "P -1"
_symmetry_group_IT_number 2
_symmetry_cell_setting 'triclinic'
loop_
_space_group_symop_operation_xyz
x,y,z
-x,-y,-z
loop_
_atom_site_type_symbol
_atom_site_label
_atom_site_fract_x
_atom_site_fract_y
_atom_site_fract_z
Si Si1 0.742726 0.623616 0.352313
Si Si2 0.517844 0.684489 0.092855
Si Si3 0.387092 0.162859 0.656707
Si Si4 0.107995 0.114235 0.172028
Si Si5 0.450323 0.446174 0.386038
Si Si6 0.655842 0.092550 0.909285
Si Si7 0.811868 0.339215 0.098154
Si Si8 0.872395 0.906618 0.509931
O O1 0.765238 0.720591 0.307016
O O2 0.552933 0.643432 0.515417
O O3 0.094994 0.521586 0.351018
O O4 0.563158 0.627165 0.238508
O O5 0.418881 0.629863 0.006497
O O6 0.857517 0.670553 0.997166
O O7 0.296417 0.810906 0.114322
O O8 0.430453 0.109871 0.803373
O O9 0.138337 0.171842 0.574857
O O10 0.775511 0.105034 0.566852
O O11 0.133667 0.107625 0.329374
O O12 0.845357 0.231233 0.148404
O O13 0.056651 0.026133 0.134565
O O14 0.437633 0.097449 0.061582
O O15 0.500000 0.500000 0.500000
O O16 0.704975 0.401637 0.239056
O O17 0.500000 0.000000 0.500000
#
# Coordination Sequence:
#
# PCOD9029635 Si02
#       8
#     2   2   2   2   2   2   2   2
#     4  10  26  46  73 104 139 185 233 295 359 420
#     4  10  25  47  71 104 140 185 233 286 346 423
#     4  11  25  45  70  98 141 186 233 287 346 420
#     4  10  22  42  68 100 142 187 229 287 340 410
#     4  11  27  47  73 107 138 183 235 298 365 425
#     4   9  21  43  65 102 136 185 228 278 340 408
#     4  11  26  46  70 103 142 185 236 288 352 412
#     4  12  25  43  66 104 141 187 235 285 344 412
#
# _framework density 25.749307000000002
#
# number of rings (size 3 to 8) (size 9 to 14) (size 15 to 20)
#    0.000    1.500    1.250    1.125    8.750    9.500 
#    0.000    0.000    0.000    0.000    0.000    0.000 
#    0.000    0.000    0.000    0.000    0.000    0.000 
#
# Total GULP energy -89392.947227 kJ/mol
# GULP energy per Si atom -5587.059202 kJ/mol
# Density = 2.569070 g / cm^3
# Si number density = 25.749307 Si / 1000 Ang^3
#
#
#
# Elastic Constant Matrix: (Units=GPa)
#
#
# Indices 1 2 3 4 5 6 
#
# 1 116.9093 11.6429 61.4307 10.5322 18.1860 -17.0196
# 2 11.6429 74.3174 38.6273 -1.0583 -0.7533 -1.5071
# 3 61.4307 38.6273 208.1738 9.1411 1.7001 -23.2995
# 4 10.5322 -1.0583 9.1411 41.4752 2.5803 8.3886
# 5 18.1860 -0.7533 1.7001 2.5803 33.1087 12.0228
# 6 -17.0196 -1.5071 -23.2995 8.3886 12.0228 26.1182
#
#
#
# Elastic Compliance Matrix: (Units=1/GPa)
#
#
# Indices 1 2 3 4 5 6 
#
# 1 0.014479 -0.001133 -0.001990 -0.005567 -0.013028 0.015379
# 2 -0.001133 0.015213 -0.003107 0.002111 0.002600 -0.004507
# 3 -0.001990 -0.003107 0.006720 -0.002147 -0.001256 0.005786
# 4 -0.005567 0.002111 -0.002147 0.029285 0.007586 -0.018319
# 5 -0.013028 0.002600 -0.001256 0.007586 0.049483 -0.034675
# 6 0.015379 -0.004507 0.005786 -0.018319 -0.034675 0.075056
#
#
# Mechanical properties :
#
#
# Convention : Reuss Voigt Hill
#
# Bulk Modulus (GPa) = 41.75146 69.20027 55.47587
# Shear Modulus (GPa) = 23.73255 39.32038 31.52647
#
# Velocity S-wave (km/s) = 3.03921 3.91198 3.50288
# Velocity P-wave (km/s) = 5.34467 6.88025 6.16049
#
# Compressibility (1/GPa) = 0.02395126
#
# Stress axis : x y z
#
# Youngs Moduli (GPa) = 69.06383 65.73260 148.81853
#
# Poissons Ratio (x) = 0.07450 0.29619
# Poissons Ratio (y) = 0.07828 0.46234
# Poissons Ratio (z) = 0.13746 0.20421
#
# Static dielectric constant tensor:
#      x y z
#    x 2.017200 0.007000 -0.137300 
#    y 0.007000 2.117030 -0.119220 
#    z -0.137300 -0.119220 1.710530 
# 
# From -- ./inp_files/138943.got.cif
#   From: 2010.05.17/outbox.cif.g08.bks.cpg/sg2_70_cif.got.tgz:138943.got - 2010.06.03 11:33:40.
