data_PCOD9029005
_publ_section_title
;
Structure prediction by ZEFSAII (Michael W. Deem and Ramdas Pophale) SiO2 
 PCOD9029005
Probable space group: P -1
;
_chemical_formula_sum "Si O2"
_cell_formula_units_Z 12
_cell_length_a 5.326080
_cell_length_b 9.488263
_cell_length_c 23.402741
_cell_angle_alpha 32.937794
_cell_angle_beta 86.218782
_cell_angle_gamma 108.803410
_cell_volume 460.663654
_symmetry_space_group_name_H-M "P -1"
_symmetry_group_IT_number 2
_symmetry_cell_setting 'triclinic'
loop_
_space_group_symop_operation_xyz
x,y,z
-x,-y,-z
loop_
_atom_site_type_symbol
_atom_site_label
_atom_site_fract_x
_atom_site_fract_y
_atom_site_fract_z
Si Si1 0.352446 0.347663 0.989606
Si Si2 0.429078 0.973625 0.577445
Si Si3 0.581067 0.605609 0.397929
Si Si4 0.856126 0.335712 0.661295
Si Si5 0.337410 0.426124 0.839698
Si Si6 0.527399 0.879953 0.144450
O O1 0.454152 0.571933 0.852800
O O2 0.500000 0.500000 0.000000
O O3 0.488612 0.154884 0.036924
O O4 0.926012 0.090572 0.086345
O O5 0.338451 0.212398 0.504754
O O6 0.820144 0.259279 0.503037
O O7 0.500000 0.000000 0.500000
O O8 0.255745 0.614325 0.736539
O O9 0.500000 0.500000 0.500000
O O10 0.965114 0.811845 0.299048
O O11 0.485401 0.830205 0.310617
O O12 0.748431 0.334194 0.726989
O O13 0.571161 0.399369 0.807238
O O14 0.000000 0.000000 0.000000
#
# Coordination Sequence:
#
# PCOD9029005 Si02
#       6
#     2   2   2   2   2   2
#     4  11  25  47  71 105 142 192 241 298 356 431
#     4  10  24  43  72 105 143 183 240 295 358 422
#     4  10  22  42  65  99 143 181 230 287 359 429
#     4  10  23  42  70 101 136 182 234 290 366 412
#     4  10  24  46  72 106 140 193 244 295 356 432
#     4  11  23  45  74  98 142 188 242 296 357 427
#
# _framework density 26.049372000000002
#
# number of rings (size 3 to 8) (size 9 to 14) (size 15 to 20)
#    1.000    0.667    0.000    3.500    4.667    4.000 
#    9.000    0.000    0.000    0.000    0.000    0.000 
#    0.000    0.000    0.000    0.000    0.000    0.000 
#
# Total GULP energy -66851.143964 kJ/mol
# GULP energy per Si atom -5570.928664 kJ/mol
# Density = 2.599008 g / cm^3
# Si number density = 26.049372 Si / 1000 Ang^3
#
#
#
# Elastic Constant Matrix: (Units=GPa)
#
#
# Indices 1 2 3 4 5 6 
#
# 1 211.1463 38.0279 30.3210 5.0126 11.6373 -2.0358
# 2 38.0279 127.6042 39.9362 16.9858 6.6987 -9.7591
# 3 30.3210 39.9362 116.2516 19.4330 15.9625 4.7299
# 4 5.0126 16.9858 19.4330 50.4691 -3.8174 -2.5455
# 5 11.6373 6.6987 15.9625 -3.8174 44.8200 2.7135
# 6 -2.0358 -9.7591 4.7299 -2.5455 2.7135 33.8758
#
#
#
# Elastic Compliance Matrix: (Units=1/GPa)
#
#
# Indices 1 2 3 4 5 6 
#
# 1 0.005121 -0.001233 -0.000831 0.000170 -0.000844 0.000149
# 2 -0.001233 0.009556 -0.002687 -0.001948 -0.000495 0.002947
# 3 -0.000831 -0.002687 0.010909 -0.003591 -0.003432 -0.002342
# 4 0.000170 -0.001948 -0.003591 0.022155 0.003331 0.001348
# 5 -0.000844 -0.000495 -0.003432 0.003331 0.024196 -0.001402
# 6 0.000149 0.002947 -0.002342 0.001348 -0.001402 0.030918
#
#
# Mechanical properties :
#
#
# Convention : Reuss Voigt Hill
#
# Bulk Modulus (GPa) = 62.17587 74.61915 68.39751
# Shear Modulus (GPa) = 42.47395 48.94746 45.71070
#
# Velocity S-wave (km/s) = 4.04235 4.33948 4.19354
# Velocity P-wave (km/s) = 6.76075 7.33591 7.05419
#
# Compressibility (1/GPa) = 0.01608341
#
# Stress axis : x y z
#
# Youngs Moduli (GPa) = 195.26041 104.64619 91.66952
#
# Poissons Ratio (x) = 0.12905 0.07615
# Poissons Ratio (y) = 0.24079 0.24636
# Poissons Ratio (z) = 0.16220 0.28124
#
# Static dielectric constant tensor:
#      x y z
#    x 2.075510 0.063830 -0.025350 
#    y 0.063830 2.176200 0.009750 
#    z -0.025350 0.009750 2.122290 
# 
# From -- ./inp_files/581808.got.cif
#   From: 2010.05.17/outbox.cif.g08.bks.cpg/sg2_291_cif.got.tgz:581808.got - 2010.06.03 11:33:40.
