data_PCOD9029306
_publ_section_title
;
Structure prediction by ZEFSAII (Michael W. Deem and Ramdas Pophale) SiO2 
 PCOD9029306
Probable space group: P -1
;
_chemical_formula_sum "Si O2"
_cell_formula_units_Z 16
_cell_length_a 9.255797
_cell_length_b 11.829208
_cell_length_c 15.209409
_cell_angle_alpha 117.623808
_cell_angle_beta 48.850521
_cell_angle_gamma 75.912538
_cell_volume 632.462783
_symmetry_space_group_name_H-M "P -1"
_symmetry_group_IT_number 2
_symmetry_cell_setting 'triclinic'
loop_
_space_group_symop_operation_xyz
x,y,z
-x,-y,-z
loop_
_atom_site_type_symbol
_atom_site_label
_atom_site_fract_x
_atom_site_fract_y
_atom_site_fract_z
Si Si1 0.224418 0.429797 0.126646
Si Si2 0.405422 0.795455 0.770350
Si Si3 0.713048 0.913222 0.469787
Si Si4 0.869422 0.179087 0.863230
Si Si5 0.594529 0.454906 0.223050
Si Si6 0.392440 0.780138 0.285103
Si Si7 0.369538 0.703805 0.567678
Si Si8 0.736724 0.883894 0.948869
O O1 0.225639 0.277860 0.086065
O O2 0.876617 0.698921 0.369431
O O3 0.489404 0.340182 0.059455
O O4 0.375663 0.369453 0.946388
O O5 0.543119 0.609179 0.713414
O O6 0.507018 0.701477 0.597239
O O7 0.438053 0.918061 0.842941
O O8 0.000000 0.000000 0.000000
O O9 0.034977 0.807955 0.260764
O O10 0.500000 0.000000 0.500000
O O11 0.524351 0.123781 0.677217
O O12 0.902433 0.247044 0.961947
O O13 0.130492 0.925352 0.685709
O O14 0.420239 0.651758 0.299169
O O15 0.627074 0.507126 0.321845
O O16 0.000000 0.000000 0.500000
O O17 0.096567 0.747955 0.726126
O O18 0.500000 0.000000 0.000000
#
# Coordination Sequence:
#
# PCOD9029306 Si02
#       8
#     2   2   2   2   2   2   2   2
#     4  12  25  48  76 104 152 196 238 303 370 429
#     4  10  22  42  67 100 143 186 232 290 357 428
#     4  12  28  47  69 111 147 187 247 305 360 436
#     4  12  22  47  77 103 144 192 248 297 363 439
#     4  12  22  42  77 101 136 192 240 292 364 427
#     4  12  25  45  78 106 138 193 249 297 365 442
#     4  11  23  44  73 103 143 188 242 297 358 436
#     4  11  23  45  70 105 146 189 241 298 357 429
#
# _framework density 25.297931999999999
#
# number of rings (size 3 to 8) (size 9 to 14) (size 15 to 20)
#    0.000    0.500    7.500    1.500    0.000    3.500 
#    4.500    1.250    0.000    0.000    0.000    0.000 
#    0.000    0.000    0.000    0.000    0.000    0.000 
#
# Total GULP energy -89456.085720 kJ/mol
# GULP energy per Si atom -5591.005358 kJ/mol
# Density = 2.524035 g / cm^3
# Si number density = 25.297932 Si / 1000 Ang^3
#
#
#
# Elastic Constant Matrix: (Units=GPa)
#
#
# Indices 1 2 3 4 5 6 
#
# 1 144.4687 47.5476 38.2814 10.3465 24.0766 -5.4468
# 2 47.5476 203.1265 33.9836 24.3593 10.7359 18.3665
# 3 38.2814 33.9836 76.6224 7.6561 39.6991 0.5424
# 4 10.3465 24.3593 7.6561 55.9104 -0.0353 14.0971
# 5 24.0766 10.7359 39.6991 -0.0353 51.3304 -3.7558
# 6 -5.4468 18.3665 0.5424 14.0971 -3.7558 30.6889
#
#
#
# Elastic Compliance Matrix: (Units=1/GPa)
#
#
# Indices 1 2 3 4 5 6 
#
# 1 0.008611 -0.001592 -0.002807 -0.001260 -0.001320 0.002948
# 2 -0.001592 0.006057 -0.002261 -0.001232 0.000995 -0.003179
# 3 -0.002807 -0.002261 0.024588 -0.001635 -0.017298 -0.000946
# 4 -0.001260 -0.001232 -0.001635 0.021148 0.001470 -0.008992
# 5 -0.001320 0.000995 -0.017298 0.001470 0.033484 0.002899
# 6 0.002948 -0.003179 -0.000946 -0.008992 0.002899 0.039513
#
#
# Mechanical properties :
#
#
# Convention : Reuss Voigt Hill
#
# Bulk Modulus (GPa) = 38.55560 73.76031 56.15795
# Shear Modulus (GPa) = 32.18228 47.87961 40.03094
#
# Velocity S-wave (km/s) = 3.57056 4.35516 3.98223
# Velocity P-wave (km/s) = 5.68087 7.38307 6.58719
#
# Compressibility (1/GPa) = 0.02593657
#
# Stress axis : x y z
#
# Youngs Moduli (GPa) = 116.13078 165.11098 40.66966
#
# Poissons Ratio (x) = 0.26280 0.11417
# Poissons Ratio (y) = 0.18484 0.09194
# Poissons Ratio (z) = 0.32600 0.37328
#
# Static dielectric constant tensor:
#      x y z
#    x 2.048960 0.076980 -0.013740 
#    y 0.076980 2.046320 0.006260 
#    z -0.013740 0.006260 2.044670 
# 
# From -- ./inp_files/272142.got.cif
#   From: 2010.05.17/outbox.cif.g08.bks.cpg/sg2_137_cif.got.tgz:272142.got - 2010.06.03 11:33:40.
