data_PCOD9029906
_publ_section_title
;
Structure prediction by ZEFSAII (Michael W. Deem and Ramdas Pophale) SiO2 
 PCOD9029906
Probable space group: P -1
;
_chemical_formula_sum "Si O2"
_cell_formula_units_Z 16
_cell_length_a 8.779935
_cell_length_b 22.636504
_cell_length_c 21.242533
_cell_angle_alpha 17.776973
_cell_angle_beta 146.023297
_cell_angle_gamma 147.851144
_cell_volume 678.979560
_symmetry_space_group_name_H-M "P -1"
_symmetry_group_IT_number 2
_symmetry_cell_setting 'triclinic'
loop_
_space_group_symop_operation_xyz
x,y,z
-x,-y,-z
loop_
_atom_site_type_symbol
_atom_site_label
_atom_site_fract_x
_atom_site_fract_y
_atom_site_fract_z
Si Si1 0.941031 0.184436 0.136557
Si Si2 0.516375 0.376760 0.798544
Si Si3 0.587434 0.652903 0.950825
Si Si4 0.092614 0.768644 0.594838
Si Si5 0.623875 0.468916 0.278465
Si Si6 0.172083 0.955154 0.302654
Si Si7 0.783300 0.607077 0.446624
Si Si8 0.278779 0.000635 0.631251
O O1 0.225122 0.367567 0.025379
O O2 0.848580 0.188034 0.173674
O O3 0.641201 0.202190 0.990115
O O4 0.017254 0.974591 0.375716
O O5 0.391569 0.380706 0.822199
O O6 0.297446 0.398322 0.648635
O O7 0.803956 0.576383 0.694314
O O8 0.342429 0.742171 0.751674
O O9 0.854036 0.842869 0.879726
O O10 0.501188 0.502846 0.133030
O O11 0.186841 0.804295 0.517802
O O12 0.446432 0.233279 0.477520
O O13 0.955010 0.483783 0.365109
O O14 0.477215 0.032386 0.294813
O O15 0.925725 0.835541 0.291850
O O16 0.500000 0.500000 0.500000
O O17 0.000000 0.000000 0.500000
#
# Coordination Sequence:
#
# PCOD9029906 Si02
#       8
#     2   2   2   2   2   2   2   2
#     4  11  24  43  67 103 139 185 235 279 351 418
#     4  12  25  44  70 102 139 187 238 285 348 412
#     4  11  24  44  68 107 140 184 236 283 356 428
#     4  11  23  44  70 103 145 181 226 294 349 418
#     4  11  26  45  70 105 143 185 234 291 352 413
#     4  10  22  42  68  98 139 181 230 289 349 409
#     4  11  23  47  71 101 138 185 242 293 343 412
#     4  11  22  40  67 100 142 180 222 288 351 415
#
# _framework density 23.564775000000001
#
# number of rings (size 3 to 8) (size 9 to 14) (size 15 to 20)
#    0.000    1.000    2.500    4.875    3.500    1.000 
#    2.250    5.000    0.000    0.000    0.000    0.000 
#    0.000    0.000    0.000    0.000    0.000    0.000 
#
# Total GULP energy -89238.079988 kJ/mol
# GULP energy per Si atom -5577.379999 kJ/mol
# Density = 2.351114 g / cm^3
# Si number density = 23.564775 Si / 1000 Ang^3
#
#
#
# Elastic Constant Matrix: (Units=GPa)
#
#
# Indices 1 2 3 4 5 6 
#
# 1 115.3999 34.3189 40.4195 4.6612 -13.3322 16.5826
# 2 34.3189 97.0114 20.8705 9.3205 4.9126 16.6298
# 3 40.4195 20.8705 90.8649 16.6641 1.8353 -1.5683
# 4 4.6612 9.3205 16.6641 32.0445 0.9816 2.4960
# 5 -13.3322 4.9126 1.8353 0.9816 51.0829 -5.9247
# 6 16.5826 16.6298 -1.5683 2.4960 -5.9247 25.8058
#
#
#
# Elastic Compliance Matrix: (Units=1/GPa)
#
#
# Indices 1 2 3 4 5 6 
#
# 1 0.012516 -0.002511 -0.005563 0.002204 0.002935 -0.006302
# 2 -0.002511 0.013131 -0.001613 -0.001959 -0.002678 -0.007371
# 3 -0.005563 -0.001613 0.015277 -0.007102 -0.001014 0.005997
# 4 0.002204 -0.001959 -0.007102 0.035468 -0.000132 -0.004046
# 5 0.002935 -0.002678 -0.001014 -0.000132 0.021178 0.004653
# 6 -0.006302 -0.007371 0.005997 -0.004046 0.004653 0.049375
#
#
# Mechanical properties :
#
#
# Convention : Reuss Voigt Hill
#
# Bulk Modulus (GPa) = 46.40347 54.94377 50.67362
# Shear Modulus (GPa) = 28.81789 35.63113 32.22451
#
# Velocity S-wave (km/s) = 3.50082 3.89273 3.70197
# Velocity P-wave (km/s) = 6.00630 6.60084 6.31058
#
# Compressibility (1/GPa) = 0.02155011
#
# Stress axis : x y z
#
# Youngs Moduli (GPa) = 79.89482 76.15685 65.45816
#
# Poissons Ratio (x) = 0.19123 0.36415
# Poissons Ratio (y) = 0.20062 0.10558
# Poissons Ratio (z) = 0.44447 0.12283
#
# Static dielectric constant tensor:
#      x y z
#    x 2.163070 -0.038170 0.100210 
#    y -0.038170 1.790640 -0.034870 
#    z 0.100210 -0.034870 2.154360 
# 
# From -- ./inp_files/591966.got.cif
#   From: 2010.05.17/outbox.cif.g08.bks.cpg/sg2_296_cif.got.tgz:591966.got - 2010.06.03 11:33:40.
