data_PCOD9029260
_publ_section_title
;
Structure prediction by ZEFSAII (Michael W. Deem and Ramdas Pophale) SiO2 
 PCOD9029260
Probable space group: P -1
;
_chemical_formula_sum "Si O2"
_cell_formula_units_Z 16
_cell_length_a 13.588778
_cell_length_b 9.561182
_cell_length_c 14.428150
_cell_angle_alpha 134.457967
_cell_angle_beta 46.231785
_cell_angle_gamma 96.992191
_cell_volume 686.436414
_symmetry_space_group_name_H-M "P -1"
_symmetry_group_IT_number 2
_symmetry_cell_setting 'triclinic'
loop_
_space_group_symop_operation_xyz
x,y,z
-x,-y,-z
loop_
_atom_site_type_symbol
_atom_site_label
_atom_site_fract_x
_atom_site_fract_y
_atom_site_fract_z
Si Si1 0.466354 0.803571 0.246599
Si Si2 0.220269 0.840602 0.293672
Si Si3 0.052162 0.650735 0.745192
Si Si4 0.050363 0.813522 0.016289
Si Si5 0.614314 0.048788 0.227175
Si Si6 0.627525 0.168956 0.483955
Si Si7 0.695463 0.903461 0.790742
Si Si8 0.644545 0.259380 0.128245
O O1 0.276790 0.879203 0.373374
O O2 0.493566 0.977537 0.255793
O O3 0.464712 0.847368 0.377241
O O4 0.645206 0.483354 0.958620
O O5 0.292317 0.933516 0.217394
O O6 0.000000 0.000000 0.500000
O O7 0.179685 0.393759 0.474653
O O8 0.121687 0.616307 0.789869
O O9 0.015660 0.906435 0.849325
O O10 0.840795 0.770188 0.944814
O O11 0.212340 0.703457 0.933110
O O12 0.855514 0.921671 0.231882
O O13 0.585611 0.152210 0.398008
O O14 0.577159 0.248926 0.266742
O O15 0.536392 0.480614 0.691627
O O16 0.500000 0.000000 0.000000
O O17 0.756052 0.967087 0.871726
#
# Coordination Sequence:
#
# PCOD9029260 Si02
#       8
#     2   2   2   2   2   2   2   2
#     4  11  24  43  67  96 131 179 224 272 334 403
#     4  11  26  46  67  93 139 183 219 275 345 407
#     4   9  20  40  62  93 136 174 218 275 332 398
#     4   9  21  39  63  93 131 176 214 270 340 387
#     4  10  22  42  66  98 134 178 220 276 337 399
#     4  11  22  41  68  97 135 171 225 276 330 403
#     4  12  24  40  68 102 133 171 230 287 330 399
#     4  11  23  40  67  99 133 175 223 276 339 393
#
# _framework density 23.308786000000001
#
# number of rings (size 3 to 8) (size 9 to 14) (size 15 to 20)
#    0.000    1.500    1.250    3.750    1.750    4.000 
#    0.000    0.000    0.000    5.250    0.000    0.000 
#    0.000    0.000    0.000    0.000    0.000    0.000 
#
# Total GULP energy -89390.507565 kJ/mol
# GULP energy per Si atom -5586.906723 kJ/mol
# Density = 2.325573 g / cm^3
# Si number density = 23.308786 Si / 1000 Ang^3
#
#
#
# Elastic Constant Matrix: (Units=GPa)
#
#
# Indices 1 2 3 4 5 6 
#
# 1 88.0139 -1.1409 50.0674 -4.8637 6.2181 3.5919
# 2 -1.1409 71.0054 11.6499 -0.1966 3.6935 6.2266
# 3 50.0674 11.6499 133.2272 14.7543 21.9904 16.2940
# 4 -4.8637 -0.1966 14.7543 16.5218 -5.8779 3.7999
# 5 6.2181 3.6935 21.9904 -5.8779 40.7191 -6.7701
# 6 3.5919 6.2266 16.2940 3.7999 -6.7701 29.0036
#
#
#
# Elastic Compliance Matrix: (Units=1/GPa)
#
#
# Indices 1 2 3 4 5 6 
#
# 1 0.016907 0.001392 -0.009030 0.014241 0.004536 0.001874
# 2 0.001392 0.014672 -0.001567 0.002361 -0.000846 -0.002949
# 3 -0.009030 -0.001567 0.015904 -0.019082 -0.011080 -0.007566
# 4 0.014241 0.002361 -0.019082 0.088874 0.021030 0.001714
# 5 0.004536 -0.000846 -0.011080 0.021030 0.034828 0.011219
# 6 0.001874 -0.002949 -0.007566 0.001714 0.011219 0.041525
#
#
# Mechanical properties :
#
#
# Convention : Reuss Voigt Hill
#
# Bulk Modulus (GPa) = 34.39677 45.93326 40.16501
# Shear Modulus (GPa) = 20.76313 32.69357 26.72835
#
# Velocity S-wave (km/s) = 2.98784 3.74923 3.38998
# Velocity P-wave (km/s) = 5.16643 6.20415 5.70892
#
# Compressibility (1/GPa) = 0.02907250
#
# Stress axis : x y z
#
# Youngs Moduli (GPa) = 59.14733 68.15646 62.87635
#
# Poissons Ratio (x) = -0.09491 0.56780
# Poissons Ratio (y) = -0.08236 0.09856
# Poissons Ratio (z) = 0.53412 0.10683
#
# Static dielectric constant tensor:
#      x y z
#    x 1.963160 0.000280 -0.005770 
#    y 0.000280 1.865510 -0.003670 
#    z -0.005770 -0.003670 1.887760 
# 
# From -- ./inp_files/530130.got.cif
#   From: 2010.05.17/outbox.cif.g08.bks.cpg/sg2_266_cif.got.tgz:530130.got - 2010.06.03 11:33:40.
