data_PCOD9029981
_publ_section_title
;
Structure prediction by ZEFSAII (Michael W. Deem and Ramdas Pophale) SiO2 
 PCOD9029981
Probable space group: P -1
;
_chemical_formula_sum "Si O2"
_cell_formula_units_Z 16
_cell_length_a 8.506811
_cell_length_b 11.298311
_cell_length_c 9.134121
_cell_angle_alpha 123.321509
_cell_angle_beta 96.049781
_cell_angle_gamma 97.773168
_cell_volume 709.511496
_symmetry_space_group_name_H-M "P -1"
_symmetry_group_IT_number 2
_symmetry_cell_setting 'triclinic'
loop_
_space_group_symop_operation_xyz
x,y,z
-x,-y,-z
loop_
_atom_site_type_symbol
_atom_site_label
_atom_site_fract_x
_atom_site_fract_y
_atom_site_fract_z
Si Si1 0.952604 0.155057 0.054050
Si Si2 0.292577 0.299316 0.212164
Si Si3 0.274636 0.982967 0.853730
Si Si4 0.438497 0.979530 0.313849
Si Si5 0.393562 0.546222 0.148836
Si Si6 0.018477 0.858089 0.494290
Si Si7 0.170797 0.722503 0.156178
Si Si8 0.669895 0.746315 0.496050
O O1 0.101108 0.273898 0.214963
O O2 0.775652 0.128102 0.092162
O O3 0.943106 0.221545 0.935832
O O4 0.000000 0.000000 0.000000
O O5 0.352186 0.424528 0.187320
O O6 0.370921 0.323965 0.396331
O O7 0.303607 0.147261 0.030411
O O8 0.426539 0.973795 0.763517
O O9 0.122179 0.927723 0.692186
O O10 0.313450 0.082070 0.356122
O O11 0.500000 0.000000 0.500000
O O12 0.346219 0.814331 0.182269
O O13 0.220904 0.570340 0.085950
O O14 0.518118 0.682007 0.332714
O O15 0.500000 0.500000 0.000000
O O16 0.120226 0.774839 0.343562
O O17 0.845088 0.751054 0.444781
O O18 0.000000 0.000000 0.500000
#
# Coordination Sequence:
#
# PCOD9029981 Si02
#       8
#     2   2   2   2   2   2   2   2
#     4  10  22  42  69 103 135 171 229 290 350 408
#     4  11  25  45  69  96 143 187 232 279 346 419
#     4  11  22  40  70 105 133 176 227 287 358 413
#     4  12  21  38  67 105 138 166 225 299 350 410
#     4  12  29  48  69  99 142 194 238 284 339 417
#     4  12  22  39  75 107 135 175 226 295 357 407
#     4  12  25  43  70 105 141 181 233 287 353 411
#     4  12  25  46  71  99 139 186 229 294 354 407
#
# _framework density 22.550726000000001
#
# number of rings (size 3 to 8) (size 9 to 14) (size 15 to 20)
#    0.000    0.500    5.000    4.125    3.500    3.500 
#    0.000    1.875    0.000    0.000    0.000    0.000 
#    0.000    0.000    0.000    0.000    0.000    0.000 
#
# Total GULP energy -89204.706039 kJ/mol
# GULP energy per Si atom -5575.294127 kJ/mol
# Density = 2.249940 g / cm^3
# Si number density = 22.550726 Si / 1000 Ang^3
#
#
#
# Elastic Constant Matrix: (Units=GPa)
#
#
# Indices 1 2 3 4 5 6 
#
# 1 87.9489 20.3597 21.8794 -9.9237 -22.5135 8.0235
# 2 20.3597 102.7693 33.5199 -27.7711 -11.6229 0.6686
# 3 21.8794 33.5199 84.0962 -26.4004 -8.5394 -11.3571
# 4 -9.9237 -27.7711 -26.4004 33.3245 3.1633 2.3370
# 5 -22.5135 -11.6229 -8.5394 3.1633 44.5644 -8.2428
# 6 8.0235 0.6686 -11.3571 2.3370 -8.2428 39.5272
#
#
#
# Elastic Compliance Matrix: (Units=1/GPa)
#
#
# Indices 1 2 3 4 5 6 
#
# 1 0.014093 -0.001003 -0.002760 0.000795 0.005816 -0.002471
# 2 -0.001003 0.013246 -0.002145 0.008930 0.001755 -0.000799
# 3 -0.002760 -0.002145 0.017806 0.010958 0.001682 0.005416
# 4 0.000795 0.008930 0.010958 0.046181 0.001635 0.000446
# 5 0.005816 0.001755 0.001682 0.001635 0.026928 0.004792
# 6 -0.002471 -0.000799 0.005416 0.000446 0.004792 0.028343
#
#
# Mechanical properties :
#
#
# Convention : Reuss Voigt Hill
#
# Bulk Modulus (GPa) = 30.00414 47.37028 38.68721
# Shear Modulus (GPa) = 29.49459 36.75358 33.12409
#
# Velocity S-wave (km/s) = 3.62044 4.04148 3.83674
# Velocity P-wave (km/s) = 5.55076 6.54445 6.06798
#
# Compressibility (1/GPa) = 0.03332873
#
# Stress axis : x y z
#
# Youngs Moduli (GPa) = 70.95723 75.49669 56.15969
#
# Poissons Ratio (x) = 0.07572 0.15502
# Poissons Ratio (y) = 0.07116 0.12046
# Poissons Ratio (z) = 0.19586 0.16193
#
# Static dielectric constant tensor:
#      x y z
#    x 1.960200 -0.045700 -0.007660 
#    y -0.045700 1.899990 -0.038270 
#    z -0.007660 -0.038270 1.888060 
# 
# From -- ./inp_files/182723.got.cif
#   From: 2010.05.17/outbox.cif.g08.bks.cpg/sg2_92_cif.got.tgz:182723.got - 2010.06.03 11:33:40.
