data_PCOD9029139
_publ_section_title
;
Structure prediction by ZEFSAII (Michael W. Deem and Ramdas Pophale) SiO2 
 PCOD9029139
Probable space group: P -1
;
_chemical_formula_sum "Si O2"
_cell_formula_units_Z 14
_cell_length_a 24.913529
_cell_length_b 14.559936
_cell_length_c 25.301065
_cell_angle_alpha 22.542482
_cell_angle_beta 10.585870
_cell_angle_gamma 20.669941
_cell_volume 594.067859
_symmetry_space_group_name_H-M "P -1"
_symmetry_group_IT_number 2
_symmetry_cell_setting 'triclinic'
loop_
_space_group_symop_operation_xyz
x,y,z
-x,-y,-z
loop_
_atom_site_type_symbol
_atom_site_label
_atom_site_fract_x
_atom_site_fract_y
_atom_site_fract_z
Si Si1 0.944535 0.451619 0.357605
Si Si2 0.259632 0.749506 0.199623
Si Si3 0.302484 0.789650 0.847387
Si Si4 0.274169 0.990220 0.357967
Si Si5 0.101099 0.567479 0.309946
Si Si6 0.663549 0.544114 0.465617
Si Si7 0.954739 0.913802 0.956311
O O1 0.641233 0.699588 0.540424
O O2 0.883070 0.445858 0.357643
O O3 0.018487 0.184985 0.459729
O O4 0.240775 0.526378 0.043639
O O5 0.900621 0.969468 0.436988
O O6 0.135071 0.511872 0.457784
O O7 0.442057 0.910817 0.966238
O O8 0.534936 0.608397 0.964662
O O9 0.000000 0.000000 0.000000
O O10 0.256398 0.907168 0.887558
O O11 0.373141 0.699588 0.396566
O O12 0.000000 0.500000 0.500000
O O13 0.047108 0.869660 0.198793
O O14 0.317701 0.749753 0.708826
O O15 0.807365 0.699090 0.204952
#
# Coordination Sequence:
#
# PCOD9029139 Si02
#       7
#     2   2   2   2   2   2   2
#     4  12  22  37  58  86 122 178 219 255 288 354
#     4  10  22  42  66  94 120 158 204 257 314 365
#     4  12  21  37  57  88 129 160 210 265 309 363
#     4  11  23  40  62  87 128 175 219 243 290 364
#     4  11  23  44  73  98 119 149 203 266 326 387
#     4  12  24  39  57  89 131 173 211 255 295 362
#     4  12  24  38  61  92 127 162 200 262 334 361
#
# _framework density 23.566330000000001
#
# number of rings (size 3 to 8) (size 9 to 14) (size 15 to 20)
#    0.000    0.571    2.857    7.286    0.000    0.000 
#    0.000    4.286    0.000   17.143    0.000    0.000 
#    0.000    0.000    0.000    0.000    0.000    0.000 
#
# Total GULP energy -78008.543830 kJ/mol
# GULP energy per Si atom -5572.038845 kJ/mol
# Density = 2.351269 g / cm^3
# Si number density = 23.566330 Si / 1000 Ang^3
#
#
#
# Elastic Constant Matrix: (Units=GPa)
#
#
# Indices 1 2 3 4 5 6 
#
# 1 23.4585 63.5182 26.7031 -32.5377 14.6969 1.6123
# 2 63.5182 45.7604 20.1279 0.0397 -17.9767 2.2197
# 3 26.7031 20.1279 166.7016 -7.6435 -12.4835 3.2339
# 4 -32.5377 0.0397 -7.6435 33.7153 10.2624 3.6345
# 5 14.6969 -17.9767 -12.4835 10.2624 28.0845 -4.1878
# 6 1.6123 2.2197 3.2339 3.6345 -4.1878 20.3968
#
#
#
# Elastic Compliance Matrix: (Units=1/GPa)
#
#
# Indices 1 2 3 4 5 6 
#
# 1 -0.004087 0.010328 -0.000114 -0.007999 0.012087 0.003124
# 2 0.010328 0.005538 -0.002266 0.012465 -0.008161 -0.004956
# 3 -0.000114 -0.002266 0.006428 0.001150 0.000930 -0.000777
# 4 -0.007999 0.012465 0.001150 0.021279 0.004332 -0.003809
# 5 0.012087 -0.008161 0.000930 0.004332 0.023459 0.003830
# 6 0.003124 -0.004956 -0.000777 -0.003809 0.003830 0.050908
#
#
# Mechanical properties :
#
#
# Convention : Reuss Voigt Hill
#
# Bulk Modulus (GPa) = 42.06553 50.73542 46.40047
# Shear Modulus (GPa) = 52.32576 24.81075 38.56826
#
# Velocity S-wave (km/s) = 4.71718 3.24822 4.04986
# Velocity P-wave (km/s) = 6.89621 5.97021 6.44985
#
# Compressibility (1/GPa) = 0.02377243
#
# Stress axis : x y z
#
# Youngs Moduli (GPa) = -244.65878 180.56910 155.56426
#
# Poissons Ratio (x) = -1.86486 0.01780
# Poissons Ratio (y) = 2.52675 0.35258
# Poissons Ratio (z) = -0.02800 0.40925
#
# Static dielectric constant tensor:
#      x y z
#    x 2.110720 -0.042420 0.014630 
#    y -0.042420 1.903010 -0.035430 
#    z 0.014630 -0.035430 1.903390 
# 
# From -- ./inp_files/544567.got.cif
#   From: 2010.05.17/outbox.cif.g08.bks.cpg/sg2_273_cif.got.tgz:544567.got - 2010.06.03 11:33:40.
