data_PCOD9029457
_publ_section_title
;
Structure prediction by ZEFSAII (Michael W. Deem and Ramdas Pophale) SiO2 
 PCOD9029457
Probable space group: P -1
;
_chemical_formula_sum "Si O2"
_cell_formula_units_Z 16
_cell_length_a 12.889028
_cell_length_b 10.343635
_cell_length_c 10.387512
_cell_angle_alpha 122.102822
_cell_angle_beta 82.012877
_cell_angle_gamma 138.144324
_cell_volume 697.254867
_symmetry_space_group_name_H-M "P -1"
_symmetry_group_IT_number 2
_symmetry_cell_setting 'triclinic'
loop_
_space_group_symop_operation_xyz
x,y,z
-x,-y,-z
loop_
_atom_site_type_symbol
_atom_site_label
_atom_site_fract_x
_atom_site_fract_y
_atom_site_fract_z
Si Si1 0.098656 0.233337 0.011591
Si Si2 0.621033 0.562911 0.119937
Si Si3 0.499095 0.175473 0.118531
Si Si4 0.038465 0.650228 0.375110
Si Si5 0.878848 0.261680 0.990609
Si Si6 0.777504 0.571273 0.485807
Si Si7 0.173251 0.099838 0.488883
Si Si8 0.313996 0.711241 0.405510
O O1 0.238636 0.505309 0.204349
O O2 0.962020 0.194983 0.962141
O O3 0.202291 0.274571 0.900019
O O4 0.000000 0.000000 0.000000
O O5 0.512495 0.292292 0.049939
O O6 0.685594 0.723566 0.324827
O O7 0.500000 0.500000 0.000000
O O8 0.674777 0.416767 0.291545
O O9 0.500000 0.000000 0.000000
O O10 0.324894 0.998156 0.137155
O O11 0.178751 0.695747 0.431398
O O12 0.897953 0.379722 0.184302
O O13 0.953492 0.673534 0.500646
O O14 0.123019 0.864574 0.369460
O O15 0.000000 0.500000 0.000000
O O16 0.778628 0.756078 0.575051
O O17 0.675766 0.380588 0.519101
O O18 0.000000 0.000000 0.500000
O O19 0.500000 0.000000 0.500000
#
# Coordination Sequence:
#
# PCOD9029457 Si02
#       8
#     2   2   2   2   2   2   2   2
#     4  11  27  45  67  97 141 177 225 279 351 408
#     4  11  25  44  71  97 131 176 232 283 332 411
#     4  11  22  40  67  98 130 172 229 274 332 403
#     4  10  22  42  67  95 128 178 223 272 334 406
#     4  11  24  40  66  98 136 176 216 278 347 402
#     4  10  22  42  68  95 131 175 225 275 331 407
#     4   9  22  41  68  97 126 168 229 271 330 390
#     4  11  27  43  65 100 138 179 222 281 345 399
#
# _framework density 22.947133000000001
#
# number of rings (size 3 to 8) (size 9 to 14) (size 15 to 20)
#    0.000    1.500    1.250    1.875   14.000    0.000 
#    0.000    0.625    0.000    0.000    0.000    0.000 
#    0.000    0.000    0.000    0.000    0.000    0.000 
#
# Total GULP energy -89344.746620 kJ/mol
# GULP energy per Si atom -5584.046664 kJ/mol
# Density = 2.289490 g / cm^3
# Si number density = 22.947133 Si / 1000 Ang^3
#
#
#
# Elastic Constant Matrix: (Units=GPa)
#
#
# Indices 1 2 3 4 5 6 
#
# 1 99.6367 40.7492 30.3256 4.4010 12.4287 -19.0275
# 2 40.7492 156.7003 18.9936 12.7624 0.6681 -23.3605
# 3 30.3256 18.9936 81.7329 19.1699 -3.3280 -16.8957
# 4 4.4010 12.7624 19.1699 32.8029 -2.9820 1.7372
# 5 12.4287 0.6681 -3.3280 -2.9820 30.5482 2.0194
# 6 -19.0275 -23.3605 -16.8957 1.7372 2.0194 47.9963
#
#
#
# Elastic Compliance Matrix: (Units=1/GPa)
#
#
# Indices 1 2 3 4 5 6 
#
# 1 0.013713 -0.002677 -0.004382 0.001061 -0.006080 0.002808
# 2 -0.002677 0.007702 0.000560 -0.003078 0.000484 0.002976
# 3 -0.004382 0.000560 0.017083 -0.009652 0.002372 0.004799
# 4 0.001061 -0.003078 -0.009652 0.037738 0.002662 -0.005953
# 5 -0.006080 0.000484 0.002372 0.002662 0.035911 -0.002947
# 6 0.002808 0.002976 0.004799 -0.005953 -0.002947 0.025425
#
#
# Mechanical properties :
#
#
# Convention : Reuss Voigt Hill
#
# Bulk Modulus (GPa) = 39.21363 57.57852 48.39608
# Shear Modulus (GPa) = 31.43290 38.80291 35.11791
#
# Velocity S-wave (km/s) = 3.70509 4.11660 3.91626
# Velocity P-wave (km/s) = 5.95226 6.90952 6.44868
#
# Compressibility (1/GPa) = 0.02550134
#
# Stress axis : x y z
#
# Youngs Moduli (GPa) = 72.92553 129.83578 58.53818
#
# Poissons Ratio (x) = 0.34752 0.25649
# Poissons Ratio (y) = 0.19519 -0.03279
# Poissons Ratio (z) = 0.31953 -0.07273
#
# Static dielectric constant tensor:
#      x y z
#    x 1.805900 -0.026660 0.040210 
#    y -0.026660 1.870880 0.023650 
#    z 0.040210 0.023650 1.935360 
# 
# From -- ./inp_files/419756.got.cif
#   From: 2010.05.17/outbox.cif.g08.bks.cpg/sg2_210_cif.got.tgz:419756.got - 2010.06.03 11:33:40.
