data_PCOD9029580
_publ_section_title
;
Structure prediction by ZEFSAII (Michael W. Deem and Ramdas Pophale) SiO2 
 PCOD9029580
Probable space group: P -1
;
_chemical_formula_sum "Si O2"
_cell_formula_units_Z 14
_cell_length_a 16.604989
_cell_length_b 6.865291
_cell_length_c 11.746921
_cell_angle_alpha 47.992616
_cell_angle_beta 127.841166
_cell_angle_gamma 142.099869
_cell_volume 600.452454
_symmetry_space_group_name_H-M "P -1"
_symmetry_group_IT_number 2
_symmetry_cell_setting 'triclinic'
loop_
_space_group_symop_operation_xyz
x,y,z
-x,-y,-z
loop_
_atom_site_type_symbol
_atom_site_label
_atom_site_fract_x
_atom_site_fract_y
_atom_site_fract_z
Si Si1 0.856843 0.446473 0.222640
Si Si2 0.308133 0.644678 0.073335
Si Si3 0.926702 0.598645 0.669659
Si Si4 0.484160 0.742833 0.824567
Si Si5 0.759223 0.348155 0.414592
Si Si6 0.974269 0.773283 0.880843
Si Si7 0.344373 0.109377 0.289230
O O1 0.828368 0.325896 0.375991
O O2 0.961781 0.420556 0.267733
O O3 0.723749 0.232819 0.113378
O O4 0.919903 0.847052 0.121870
O O5 0.165914 0.412145 0.105984
O O6 0.347889 0.423061 0.156204
O O7 0.422139 0.916995 0.152358
O O8 0.860436 0.619687 0.493007
O O9 0.965150 0.837845 0.715547
O O10 0.799120 0.221872 0.752332
O O11 0.332393 0.581490 0.746742
O O12 0.541290 0.823729 0.714592
O O13 0.500000 0.500000 0.000000
O O14 0.665439 0.998322 0.545405
O O15 0.000000 0.500000 0.000000
#
# Coordination Sequence:
#
# PCOD9029580 Si02
#       7
#     2   2   2   2   2   2   2
#     4  12  24  41  69 106 140 173 227 276 343 408
#     4  12  24  42  71 101 135 180 228 284 337 399
#     4  10  22  42  67  98 135 177 219 279 338 398
#     4  12  27  47  71  99 134 181 238 282 333 403
#     4  10  25  45  67  99 141 181 226 280 336 410
#     4  12  22  38  69 103 137 179 221 277 340 400
#     4  10  23  45  68  96 136 178 225 277 339 399
#
# _framework density 23.315752
#
# number of rings (size 3 to 8) (size 9 to 14) (size 15 to 20)
#    0.857    0.000    4.286    3.000    2.000    3.429 
#    0.000    7.143    0.000    0.000    0.000    0.000 
#    0.000    0.000    0.000    0.000    0.000    0.000 
#
# Total GULP energy -78227.308592 kJ/mol
# GULP energy per Si atom -5587.664899 kJ/mol
# Density = 2.326268 g / cm^3
# Si number density = 23.315752 Si / 1000 Ang^3
#
#
#
# Elastic Constant Matrix: (Units=GPa)
#
#
# Indices 1 2 3 4 5 6 
#
# 1 78.5338 2.8167 21.6755 18.7929 -13.6372 -20.0723
# 2 2.8167 34.9744 19.4754 11.6483 0.2949 -15.9563
# 3 21.6755 19.4754 69.9262 30.1289 -3.5712 13.8759
# 4 18.7929 11.6483 30.1289 31.1981 0.1644 -9.7243
# 5 -13.6372 0.2949 -3.5712 0.1644 51.7509 2.9070
# 6 -20.0723 -15.9563 13.8759 -9.7243 2.9070 12.2031
#
#
#
# Elastic Compliance Matrix: (Units=1/GPa)
#
#
# Indices 1 2 3 4 5 6 
#
# 1 0.011927 -0.006545 0.008872 -0.017795 0.004653 -0.014316
# 2 -0.006545 0.014374 0.016212 -0.027169 0.001216 -0.032345
# 3 0.008872 0.016212 -0.000552 0.000635 0.000133 0.036893
# 4 -0.017795 -0.027169 0.000635 0.042724 -0.002897 -0.030782
# 5 0.004653 0.001216 0.000133 -0.002897 0.020454 0.001911
# 6 -0.014316 -0.032345 0.036893 -0.030782 0.001911 -0.050830
#
#
# Mechanical properties :
#
#
# Convention : Reuss Voigt Hill
#
# Bulk Modulus (GPa) = 15.91688 30.15219 23.03453
# Shear Modulus (GPa) = 227.69020 28.32820 128.00920
#
# Velocity S-wave (km/s) = 9.89278 3.48944 7.41766
# Velocity P-wave (km/s) = 11.71883 5.40325 9.12486
#
# Compressibility (1/GPa) = 0.06282639
#
# Stress axis : x y z
#
# Youngs Moduli (GPa) = 83.84439 69.57238 -1810.57531
#
# Poissons Ratio (x) = 0.45532 16.06258
# Poissons Ratio (y) = 0.54872 29.35336
# Poissons Ratio (z) = -0.74383 -1.12792
#
# Static dielectric constant tensor:
#      x y z
#    x 1.821950 0.004190 -0.028820 
#    y 0.004190 2.064150 0.068740 
#    z -0.028820 0.068740 2.003100 
# 
# From -- ./inp_files/75285.got.cif
#   From: 2010.05.17/outbox.cif.g08.bks.cpg/sg2_38_cif.got.tgz:75285.got - 2010.06.03 11:33:40.
