data_PCOD9029523
_publ_section_title
;
Structure prediction by ZEFSAII (Michael W. Deem and Ramdas Pophale) SiO2 
 PCOD9029523
Probable space group: P -1
;
_chemical_formula_sum "Si O2"
_cell_formula_units_Z 12
_cell_length_a 7.243389
_cell_length_b 5.824852
_cell_length_c 12.303877
_cell_angle_alpha 82.163106
_cell_angle_beta 69.098216
_cell_angle_gamma 67.608181
_cell_volume 448.393698
_symmetry_space_group_name_H-M "P -1"
_symmetry_group_IT_number 2
_symmetry_cell_setting 'triclinic'
loop_
_space_group_symop_operation_xyz
x,y,z
-x,-y,-z
loop_
_atom_site_type_symbol
_atom_site_label
_atom_site_fract_x
_atom_site_fract_y
_atom_site_fract_z
Si Si1 0.295106 0.359941 0.028591
Si Si2 0.914570 0.580272 0.339075
Si Si3 0.121393 0.190476 0.876414
Si Si4 0.448019 0.684081 0.829762
Si Si5 0.453143 0.321341 0.435316
Si Si6 0.935317 0.036805 0.385634
O O1 0.420660 0.221177 0.115891
O O2 0.118815 0.618280 0.089218
O O3 0.185506 0.218789 0.984785
O O4 0.435470 0.445037 0.908136
O O5 0.780898 0.690799 0.248987
O O6 0.781194 0.635080 0.475677
O O7 0.987446 0.282600 0.325692
O O8 0.036385 0.776670 0.316391
O O9 0.215398 0.897716 0.853088
O O10 0.552001 0.636269 0.693982
O O11 0.500000 0.500000 0.500000
O O12 0.680921 0.099932 0.417707
O O13 0.000000 0.000000 0.500000
#
# Coordination Sequence:
#
# PCOD9029523 Si02
#       6
#     2   2   2   2   2   2
#     4  10  24  42  67 100 126 181 227 286 337 412
#     4  11  24  44  68 100 140 180 224 285 354 416
#     4  11  23  42  69  96 137 170 232 283 344 407
#     4  11  22  44  69  92 137 174 229 279 350 405
#     4  10  22  42  67  96 138 179 223 284 345 419
#     4  11  23  40  64  96 137 178 224 277 338 416
#
# _framework density 26.762198000000001
#
# number of rings (size 3 to 8) (size 9 to 14) (size 15 to 20)
#    0.000    1.333    1.667    4.000    0.000    4.000 
#    0.000    0.000    0.000    0.000    0.000    0.000 
#    0.000    0.000    0.000    0.000    0.000    0.000 
#
# Total GULP energy -66895.491945 kJ/mol
# GULP energy per Si atom -5574.624329 kJ/mol
# Density = 2.670129 g / cm^3
# Si number density = 26.762198 Si / 1000 Ang^3
#
#
#
# Elastic Constant Matrix: (Units=GPa)
#
#
# Indices 1 2 3 4 5 6 
#
# 1 79.0636 35.3801 34.1224 7.6133 14.0306 -17.2852
# 2 35.3801 158.0565 36.3338 3.3080 10.8008 12.3124
# 3 34.1224 36.3338 192.1495 14.6475 26.5279 -3.4277
# 4 7.6133 3.3080 14.6475 38.0769 -3.8903 5.1910
# 5 14.0306 10.8008 26.5279 -3.8903 49.7487 5.3671
# 6 -17.2852 12.3124 -3.4277 5.1910 5.3671 49.9756
#
#
#
# Elastic Compliance Matrix: (Units=1/GPa)
#
#
# Indices 1 2 3 4 5 6 
#
# 1 0.018001 -0.003939 -0.001326 -0.004328 -0.004723 0.008062
# 2 -0.003939 0.007646 -0.000940 0.000997 0.000403 -0.003457
# 3 -0.001326 -0.000940 0.006237 -0.002468 -0.003025 0.000782
# 4 -0.004328 0.000997 -0.002468 0.029274 0.005204 -0.005512
# 5 -0.004723 0.000403 -0.003025 0.005204 0.023910 -0.005049
# 6 0.008062 -0.003457 0.000782 -0.005512 -0.005049 0.024818
#
#
# Mechanical properties :
#
#
# Convention : Reuss Voigt Hill
#
# Bulk Modulus (GPa) = 51.35083 71.21578 61.28331
# Shear Modulus (GPa) = 38.82388 49.12245 43.97316
#
# Velocity S-wave (km/s) = 3.81294 4.28894 4.05792
# Velocity P-wave (km/s) = 6.21403 7.15507 6.70109
#
# Compressibility (1/GPa) = 0.01947388
#
# Stress axis : x y z
#
# Youngs Moduli (GPa) = 55.55392 130.79560 160.32900
#
# Poissons Ratio (x) = 0.51524 0.21258
# Poissons Ratio (y) = 0.21884 0.15063
# Poissons Ratio (z) = 0.07366 0.12288
#
# Static dielectric constant tensor:
#      x y z
#    x 2.165890 0.008850 -0.118290 
#    y 0.008850 2.187070 -0.005030 
#    z -0.118290 -0.005030 2.143080 
# 
# From -- ./inp_files/200036.got.cif
#   From: 2010.05.17/outbox.cif.g08.bks.cpg/sg2_101_cif.got.tgz:200036.got - 2010.06.03 11:33:40.
