data_PCOD9029824
_publ_section_title
;
Structure prediction by ZEFSAII (Michael W. Deem and Ramdas Pophale) SiO2 
 PCOD9029824
Probable space group: P -1
;
_chemical_formula_sum "Si O2"
_cell_formula_units_Z 15
_cell_length_a 12.484236
_cell_length_b 8.142523
_cell_length_c 17.013428
_cell_angle_alpha 71.606304
_cell_angle_beta 41.892661
_cell_angle_gamma 104.763713
_cell_volume 695.342533
_symmetry_space_group_name_H-M "P -1"
_symmetry_group_IT_number 2
_symmetry_cell_setting 'triclinic'
loop_
_space_group_symop_operation_xyz
x,y,z
-x,-y,-z
loop_
_atom_site_type_symbol
_atom_site_label
_atom_site_fract_x
_atom_site_fract_y
_atom_site_fract_z
Si Si1 0.500000 0.000000 0.500000
Si Si2 0.903787 0.392088 0.478770
Si Si3 0.363641 0.395389 0.007925
Si Si4 0.539843 0.576391 0.719465
Si Si5 0.886397 0.554064 0.109068
Si Si6 0.370710 0.048136 0.856625
Si Si7 0.102294 0.847823 0.623200
Si Si8 0.737901 0.090614 0.890359
O O1 0.720100 0.321813 0.301848
O O2 0.682599 0.087540 0.461986
O O3 0.601441 0.128281 0.685564
O O4 0.990817 0.308767 0.385976
O O5 0.000000 0.500000 0.500000
O O6 0.014848 0.644689 0.330933
O O7 0.120380 0.311221 0.168476
O O8 0.288663 0.136411 0.068695
O O9 0.500000 0.500000 0.000000
O O10 0.537197 0.602093 0.810570
O O11 0.293762 0.468783 0.837086
O O12 0.501242 0.342142 0.757847
O O13 0.777844 0.865434 0.505739
O O14 0.000000 0.500000 0.000000
O O15 0.129802 0.860099 0.961351
O O16 0.268275 0.880073 0.018208
O O17 0.500000 0.000000 0.000000
#
# Coordination Sequence:
#
# PCOD9029824 Si02
#       8
#     1   2   2   2   2   2   2   2
#     4  10  22  42  68  96 126 168 216 274 326 388
#     4  12  25  39  64  94 130 175 215 266 325 390
#     4  11  25  40  65  93 130 173 215 268 326 388
#     4  10  24  42  64  96 128 171 215 270 328 385
#     4  11  22  40  68  96 129 167 217 269 326 389
#     4  11  23  42  65  94 131 171 217 267 330 388
#     4  11  24  43  67  97 132 170 223 273 327 393
#     4  11  23  42  62  90 130 173 217 268 322 385
#
# _framework density 21.572102000000001
#
# number of rings (size 3 to 8) (size 9 to 14) (size 15 to 20)
#    0.000    1.067    1.333    5.200    3.733    2.667 
#    0.000    0.000    0.000   11.200    0.000    0.000 
#    0.000    0.000    0.000    0.000    0.000    0.000 
#
# Total GULP energy -83548.275265 kJ/mol
# GULP energy per Si atom -5569.885018 kJ/mol
# Density = 2.152300 g / cm^3
# Si number density = 21.572102 Si / 1000 Ang^3
#
#
#
# Elastic Constant Matrix: (Units=GPa)
#
#
# Indices 1 2 3 4 5 6 
#
# 1 65.2716 0.6400 1.4764 5.6481 9.8408 9.4320
# 2 0.6400 52.9499 -3.1595 7.2539 2.9486 -1.3849
# 3 1.4764 -3.1595 64.5929 2.8110 16.6155 1.7426
# 4 5.6481 7.2539 2.8110 31.6503 -2.4005 -3.2567
# 5 9.8408 2.9486 16.6155 -2.4005 41.1404 -2.6858
# 6 9.4320 -1.3849 1.7426 -3.2567 -2.6858 25.4613
#
#
#
# Elastic Compliance Matrix: (Units=1/GPa)
#
#
# Indices 1 2 3 4 5 6 
#
# 1 0.017664 0.000625 0.001495 -0.004660 -0.005655 -0.007805
# 2 0.000625 0.019820 0.001856 -0.005039 -0.002627 -0.000202
# 3 0.001495 0.001856 0.017832 -0.003190 -0.008070 -0.002933
# 4 -0.004660 -0.005039 -0.003190 0.034951 0.005240 0.006694
# 5 -0.005655 -0.002627 -0.008070 0.005240 0.029826 0.006321
# 6 -0.007805 -0.000202 -0.002933 0.006694 0.006321 0.043879
#
#
# Mechanical properties :
#
#
# Convention : Reuss Voigt Hill
#
# Bulk Modulus (GPa) = 15.80593 20.08091 17.94342
# Shear Modulus (GPa) = 28.23089 31.90757 30.06923
#
# Velocity S-wave (km/s) = 3.62149 3.85010 3.73754
# Velocity P-wave (km/s) = 4.98295 5.39382 5.19245
#
# Compressibility (1/GPa) = 0.06326740
#
# Stress axis : x y z
#
# Youngs Moduli (GPa) = 56.61115 50.45353 56.07901
#
# Poissons Ratio (x) = -0.03153 -0.08383
# Poissons Ratio (y) = -0.03538 -0.10406
# Poissons Ratio (z) = -0.08463 -0.09362
#
# Static dielectric constant tensor:
#      x y z
#    x 1.790860 -0.009780 -0.029560 
#    y -0.009780 1.707460 -0.022550 
#    z -0.029560 -0.022550 1.797410 
# 
# From -- ./inp_files/260433.got.cif
#   From: 2010.05.17/outbox.cif.g08.bks.cpg/sg2_131_cif.got.tgz:260433.got - 2010.06.03 11:33:40.
