data_PCOD9029318
_publ_section_title
;
Structure prediction by ZEFSAII (Michael W. Deem and Ramdas Pophale) SiO2 
 PCOD9029318
Probable space group: P -1
;
_chemical_formula_sum "Si O2"
_cell_formula_units_Z 16
_cell_length_a 10.396101
_cell_length_b 7.627776
_cell_length_c 11.721035
_cell_angle_alpha 53.803950
_cell_angle_beta 64.058054
_cell_angle_gamma 77.008399
_cell_volume 673.781094
_symmetry_space_group_name_H-M "P -1"
_symmetry_group_IT_number 2
_symmetry_cell_setting 'triclinic'
loop_
_space_group_symop_operation_xyz
x,y,z
-x,-y,-z
loop_
_atom_site_type_symbol
_atom_site_label
_atom_site_fract_x
_atom_site_fract_y
_atom_site_fract_z
Si Si1 0.649494 0.374392 0.258394
Si Si2 0.649216 0.101216 0.760400
Si Si3 0.930346 0.481342 0.707977
Si Si4 0.836434 0.154375 0.464016
Si Si5 0.677250 0.893279 0.074325
Si Si6 0.151871 0.803899 0.941114
Si Si7 0.680490 0.607229 0.602953
Si Si8 0.068859 0.102642 0.677114
O O1 0.676877 0.633847 0.163431
O O2 0.725488 0.297991 0.143482
O O3 0.479313 0.323454 0.339064
O O4 0.723133 0.255012 0.381179
O O5 0.479951 0.044648 0.843653
O O6 0.663276 0.364456 0.652173
O O7 0.744757 0.031798 0.644763
O O8 0.697057 0.002337 0.900163
O O9 0.062412 0.652922 0.598874
O O10 0.783010 0.576181 0.684613
O O11 0.968707 0.295366 0.673702
O O12 0.913895 0.373948 0.879391
O O13 0.933061 0.006522 0.403697
O O14 0.788249 0.999462 0.078925
O O15 0.048163 0.909869 0.849756
O O16 0.770958 0.780307 0.423891
#
# Coordination Sequence:
#
# PCOD9029318 Si02
#       8
#     2   2   2   2   2   2   2   2
#     4  10  26  45  69 110 136 179 235 289 348 405
#     4  10  22  43  66 101 140 178 231 279 346 411
#     4  12  25  48  67 101 146 186 232 279 345 416
#     4  11  26  45  72 104 138 184 233 287 342 415
#     4  10  22  42  67 101 139 180 222 287 349 405
#     4  11  25  44  73 101 140 185 232 286 346 413
#     4  11  24  45  69 102 144 176 233 289 341 419
#     4  11  26  43  70 104 136 189 230 282 347 411
#
# _framework density 23.746586000000001
#
# number of rings (size 3 to 8) (size 9 to 14) (size 15 to 20)
#    0.000    1.250    2.500    1.500    3.500    7.000 
#    0.000    0.000    0.000    0.000    0.000    0.000 
#    0.000    0.000    0.000    0.000    0.000    0.000 
#
# Total GULP energy -89646.247134 kJ/mol
# GULP energy per Si atom -5602.890446 kJ/mol
# Density = 2.369254 g / cm^3
# Si number density = 23.746586 Si / 1000 Ang^3
#
#
#
# Elastic Constant Matrix: (Units=GPa)
#
#
# Indices 1 2 3 4 5 6 
#
# 1 81.5104 48.1192 45.5858 14.9709 -8.9542 -21.1613
# 2 48.1192 108.0054 40.5624 23.1201 1.4490 -19.5650
# 3 45.5858 40.5624 163.0986 23.1028 5.5285 -15.6645
# 4 14.9709 23.1201 23.1028 38.4611 1.2319 1.0084
# 5 -8.9542 1.4490 5.5285 1.2319 30.4617 -0.1276
# 6 -21.1613 -19.5650 -15.6645 1.0084 -0.1276 32.2800
#
#
#
# Elastic Compliance Matrix: (Units=1/GPa)
#
#
# Indices 1 2 3 4 5 6 
#
# 1 0.021475 -0.006114 -0.003448 -0.003081 0.007391 0.008824
# 2 -0.006114 0.014309 -0.000488 -0.005981 -0.002128 0.004607
# 3 -0.003448 -0.000488 0.007854 -0.003044 -0.002287 0.001341
# 4 -0.003081 -0.005981 -0.003044 0.032883 -0.001433 -0.008155
# 5 0.007391 -0.002128 -0.002287 -0.001433 0.035586 0.002631
# 6 0.008824 0.004607 0.001341 -0.008155 0.002631 0.040472
#
#
# Mechanical properties :
#
#
# Convention : Reuss Voigt Hill
#
# Bulk Modulus (GPa) = 42.48484 69.01659 55.75071
# Shear Modulus (GPa) = 27.69697 34.79702 31.24700
#
# Velocity S-wave (km/s) = 3.41890 3.83214 3.63140
# Velocity P-wave (km/s) = 5.78921 6.97906 6.41179
#
# Compressibility (1/GPa) = 0.02353781
#
# Stress axis : x y z
#
# Youngs Moduli (GPa) = 46.56634 69.88422 127.32467
#
# Poissons Ratio (x) = 0.42725 0.43906
# Poissons Ratio (y) = 0.28469 0.06215
# Poissons Ratio (z) = 0.16058 0.03411
#
# Static dielectric constant tensor:
#      x y z
#    x 1.879820 -0.013280 0.012330 
#    y -0.013280 1.895350 -0.001390 
#    z 0.012330 -0.001390 1.887920 
# 
# From -- ./inp_files/416253.got.cif
#   From: 2010.05.17/outbox.cif.g08.bks.cpg/sg2_209_cif.got.tgz:416253.got - 2010.06.03 11:33:40.
