data_PCOD9029096
_publ_section_title
;
Structure prediction by ZEFSAII (Michael W. Deem and Ramdas Pophale) SiO2 
 PCOD9029096
Probable space group: P -1
;
_chemical_formula_sum "Si O2"
_cell_formula_units_Z 16
_cell_length_a 13.124960
_cell_length_b 8.524783
_cell_length_c 11.528531
_cell_angle_alpha 77.343362
_cell_angle_beta 73.155058
_cell_angle_gamma 134.777992
_cell_volume 685.526419
_symmetry_space_group_name_H-M "P -1"
_symmetry_group_IT_number 2
_symmetry_cell_setting 'triclinic'
loop_
_space_group_symop_operation_xyz
x,y,z
-x,-y,-z
loop_
_atom_site_type_symbol
_atom_site_label
_atom_site_fract_x
_atom_site_fract_y
_atom_site_fract_z
Si Si1 0.313377 0.706803 0.165797
Si Si2 0.807061 0.170836 0.642425
Si Si3 0.208237 0.884081 0.755039
Si Si4 0.670001 0.284512 0.314806
Si Si5 0.544441 0.741114 0.191156
Si Si6 0.846405 0.605476 0.964138
Si Si7 0.443320 0.278439 0.409006
Si Si8 0.718366 0.803695 0.913170
O O1 0.280287 0.801205 0.254028
O O2 0.359558 0.594830 0.227288
O O3 0.179195 0.511204 0.134050
O O4 0.500000 0.000000 0.000000
O O5 0.000000 0.500000 0.500000
O O6 0.677151 0.969907 0.607520
O O7 0.817407 0.020856 0.740222
O O8 0.051084 0.786951 0.891697
O O9 0.308342 0.120298 0.589252
O O10 0.365580 0.039892 0.773964
O O11 0.178655 0.673920 0.735804
O O12 0.706805 0.381300 0.150252
O O13 0.637098 0.425329 0.349768
O O14 0.500000 0.000000 0.500000
O O15 0.492785 0.507964 0.300676
O O16 0.692022 0.891260 0.015774
O O17 0.814683 0.756309 0.927465
O O18 0.500000 0.500000 0.000000
#
# Coordination Sequence:
#
# PCOD9029096 Si02
#       8
#     2   2   2   2   2   2   2   2
#     4  12  23  40  73  99 127 183 235 274 329 416
#     4  12  25  42  67 108 139 170 225 294 345 389
#     4  11  26  41  65 103 137 173 225 287 342 391
#     4  10  22  42  66  91 134 186 222 268 338 410
#     4  12  23  43  72  97 131 180 239 266 330 419
#     4  12  23  44  68 100 139 175 227 290 343 394
#     4  11  22  46  68  94 139 184 223 273 338 416
#     4  12  22  45  73  97 134 188 226 278 340 409
#
# _framework density 23.339725999999999
#
# number of rings (size 3 to 8) (size 9 to 14) (size 15 to 20)
#    0.000    0.500    5.000    3.750    0.000    1.500 
#    4.500    3.750    0.000    0.000    0.000    0.000 
#    0.000    0.000    0.000    0.000    0.000    0.000 
#
# Total GULP energy -89131.620964 kJ/mol
# GULP energy per Si atom -5570.726310 kJ/mol
# Density = 2.328660 g / cm^3
# Si number density = 23.339726 Si / 1000 Ang^3
#
#
#
# Elastic Constant Matrix: (Units=GPa)
#
#
# Indices 1 2 3 4 5 6 
#
# 1 107.0115 -1.1738 48.2367 -15.9792 8.5924 -28.9822
# 2 -1.1738 48.0220 20.9200 8.6918 -4.6976 -7.9851
# 3 48.2367 20.9200 138.1095 1.0986 0.0291 -5.0953
# 4 -15.9792 8.6918 1.0986 39.6703 -9.5749 7.9496
# 5 8.5924 -4.6976 0.0291 -9.5749 46.3077 -2.6603
# 6 -28.9822 -7.9851 -5.0953 7.9496 -2.6603 35.3945
#
#
#
# Elastic Compliance Matrix: (Units=1/GPa)
#
#
# Indices 1 2 3 4 5 6 
#
# 1 0.015873 0.004336 -0.005765 0.002824 -0.001204 0.012421
# 2 0.004336 0.025898 -0.005025 -0.005486 0.001266 0.009997
# 3 -0.005765 -0.005025 0.009862 -0.000590 0.000185 -0.004288
# 4 0.002824 -0.005486 -0.000590 0.029786 0.004772 -0.005342
# 5 -0.001204 0.001266 0.000185 0.004772 0.022932 -0.000022
# 6 0.012421 0.009997 -0.004288 -0.005342 -0.000022 0.041260
#
#
# Mechanical properties :
#
#
# Convention : Reuss Voigt Hill
#
# Bulk Modulus (GPa) = 25.82314 47.67877 36.75095
# Shear Modulus (GPa) = 29.16706 39.28518 34.22612
#
# Velocity S-wave (km/s) = 3.53891 4.10712 3.83356
# Velocity P-wave (km/s) = 5.27129 6.55467 5.94770
#
# Compressibility (1/GPa) = 0.03872496
#
# Stress axis : x y z
#
# Youngs Moduli (GPa) = 62.99932 38.61312 101.40312
#
# Poissons Ratio (x) = -0.16742 0.58455
# Poissons Ratio (y) = -0.27315 0.50955
# Poissons Ratio (z) = 0.36317 0.19403
#
# Static dielectric constant tensor:
#      x y z
#    x 1.870240 -0.042900 0.030340 
#    y -0.042900 1.841860 -0.019130 
#    z 0.030340 -0.019130 1.846130 
# 
# From -- ./inp_files/445767.got.cif
#   From: 2010.05.17/outbox.cif.g08.bks.cpg/sg2_223_cif.got.tgz:445767.got - 2010.06.03 11:33:40.
