data_PCOD9029835
_publ_section_title
;
Structure prediction by ZEFSAII (Michael W. Deem and Ramdas Pophale) SiO2 
 PCOD9029835
Probable space group: P -1
;
_chemical_formula_sum "Si O2"
_cell_formula_units_Z 16
_cell_length_a 8.778301
_cell_length_b 10.934762
_cell_length_c 8.274795
_cell_angle_alpha 107.912309
_cell_angle_beta 108.343024
_cell_angle_gamma 86.246863
_cell_volume 716.952144
_symmetry_space_group_name_H-M "P -1"
_symmetry_group_IT_number 2
_symmetry_cell_setting 'triclinic'
loop_
_space_group_symop_operation_xyz
x,y,z
-x,-y,-z
loop_
_atom_site_type_symbol
_atom_site_label
_atom_site_fract_x
_atom_site_fract_y
_atom_site_fract_z
Si Si1 0.175352 0.054245 0.521358
Si Si2 0.632023 0.731816 0.824903
Si Si3 0.678473 0.285757 0.419398
Si Si4 0.413068 0.259589 0.823866
Si Si5 0.007432 0.261102 0.368252
Si Si6 0.981050 0.853060 0.993680
Si Si7 0.715725 0.180940 0.713222
Si Si8 0.700809 0.577109 0.451460
O O1 0.274169 0.146586 0.714580
O O2 0.131036 0.148996 0.399106
O O3 0.293686 0.949073 0.449390
O O4 0.000000 0.000000 0.500000
O O5 0.469565 0.797299 0.737776
O O6 0.793547 0.818032 0.934031
O O7 0.660241 0.639460 0.639770
O O8 0.597153 0.682028 0.975779
O O9 0.851124 0.237214 0.411100
O O10 0.681029 0.290452 0.615082
O O11 0.667202 0.426423 0.395041
O O12 0.584486 0.197479 0.815400
O O13 0.378601 0.358842 0.706154
O O14 0.958949 0.245184 0.161969
O O15 0.110031 0.388809 0.492516
O O16 0.100934 0.825175 0.168211
O O17 0.000000 0.000000 0.000000
#
# Coordination Sequence:
#
# PCOD9029835 Si02
#       8
#     2   2   2   2   2   2   2   2
#     4  11  21  40  67  97 135 176 219 280 340 397
#     4  11  25  45  70 101 135 179 229 280 343 397
#     4  12  24  44  71 100 136 178 232 284 334 404
#     4  11  25  43  70 101 136 181 229 278 340 405
#     4  10  22  42  68  96 133 179 223 275 342 401
#     4  11  24  44  67  99 141 180 224 283 339 409
#     4  12  24  41  69 101 139 177 230 275 340 408
#     4  10  24  47  70  98 140 179 225 288 339 395
#
# _framework density 22.316693000000001
#
# number of rings (size 3 to 8) (size 9 to 14) (size 15 to 20)
#    0.000    1.000    3.750    2.625    1.750    1.500 
#    2.250    3.125    0.000    0.000    0.000    0.000 
#    0.000    0.000    0.000    0.000    0.000    0.000 
#
# Total GULP energy -89221.963581 kJ/mol
# GULP energy per Si atom -5576.372724 kJ/mol
# Density = 2.226590 g / cm^3
# Si number density = 22.316693 Si / 1000 Ang^3
#
#
#
# Elastic Constant Matrix: (Units=GPa)
#
#
# Indices 1 2 3 4 5 6 
#
# 1 125.1133 29.0100 36.7097 -13.0868 9.1376 0.9449
# 2 29.0100 81.6528 25.4306 -15.0929 7.2824 -1.1039
# 3 36.7097 25.4306 128.1574 -29.4780 6.1730 -0.0978
# 4 -13.0868 -15.0929 -29.4780 21.8118 0.7826 -0.2755
# 5 9.1376 7.2824 6.1730 0.7826 45.9769 2.0955
# 6 0.9449 -1.1039 -0.0978 -0.2755 2.0955 20.2050
#
#
#
# Elastic Compliance Matrix: (Units=1/GPa)
#
#
# Indices 1 2 3 4 5 6 
#
# 1 0.009322 -0.002357 -0.001774 0.001605 -0.001249 -0.000422
# 2 -0.002357 0.014968 -0.000168 0.008807 -0.002087 0.001264
# 3 -0.001774 -0.000168 0.011838 0.014879 -0.001486 0.000488
# 4 0.001605 0.008807 0.014879 0.073218 -0.005049 0.002000
# 5 -0.001249 -0.002087 -0.001486 -0.005049 0.022728 -0.002489
# 6 -0.000422 0.001264 0.000488 0.002000 -0.002489 0.049869
#
#
# Mechanical properties :
#
#
# Convention : Reuss Voigt Hill
#
# Bulk Modulus (GPa) = 36.32212 57.46933 46.89573
# Shear Modulus (GPa) = 25.03535 33.85029 29.44282
#
# Velocity S-wave (km/s) = 3.35299 3.89886 3.63618
# Velocity P-wave (km/s) = 5.59475 6.78791 6.22000
#
# Compressibility (1/GPa) = 0.02753143
#
# Stress axis : x y z
#
# Youngs Moduli (GPa) = 107.27341 66.80976 84.47060
#
# Poissons Ratio (x) = 0.15749 0.14981
# Poissons Ratio (y) = 0.25287 0.01416
# Poissons Ratio (z) = 0.19025 0.01120
#
# Static dielectric constant tensor:
#      x y z
#    x 1.884470 0.031330 -0.012200 
#    y 0.031330 1.866990 0.017260 
#    z -0.012200 0.017260 1.848670 
# 
# From -- ./inp_files/189393.got.cif
#   From: 2010.05.17/outbox.cif.g08.bks.cpg/sg2_95_cif.got.tgz:189393.got - 2010.06.03 11:33:40.
