data_PCOD9029553
_publ_section_title
;
Structure prediction by ZEFSAII (Michael W. Deem and Ramdas Pophale) SiO2 
 PCOD9029553
Probable space group: P -1
;
_chemical_formula_sum "Si O2"
_cell_formula_units_Z 12
_cell_length_a 7.777831
_cell_length_b 12.187479
_cell_length_c 10.621508
_cell_angle_alpha 145.296545
_cell_angle_beta 119.948618
_cell_angle_gamma 62.852689
_cell_volume 494.529371
_symmetry_space_group_name_H-M "P -1"
_symmetry_group_IT_number 2
_symmetry_cell_setting 'triclinic'
loop_
_space_group_symop_operation_xyz
x,y,z
-x,-y,-z
loop_
_atom_site_type_symbol
_atom_site_label
_atom_site_fract_x
_atom_site_fract_y
_atom_site_fract_z
Si Si1 0.988942 0.732130 0.221939
Si Si2 0.685656 0.839774 0.419091
Si Si3 0.069884 0.877515 0.109712
Si Si4 0.323383 0.622086 0.412878
Si Si5 0.746541 0.671696 0.681246
Si Si6 0.350740 0.524508 0.780860
O O1 0.172412 0.763908 0.412881
O O2 0.792526 0.814645 0.300649
O O3 0.020152 0.813028 0.172324
O O4 0.000000 0.500000 0.000000
O O5 0.626373 0.634510 0.251290
O O6 0.500000 0.000000 0.500000
O O7 0.844181 0.917737 0.648840
O O8 0.245911 0.725027 0.978106
O O9 0.878010 0.844852 0.924399
O O10 0.505430 0.722318 0.638424
O O11 0.218545 0.493718 0.354440
O O12 0.441469 0.476270 0.218295
O O13 0.782204 0.567558 0.462288
#
# Coordination Sequence:
#
# PCOD9029553 Si02
#       6
#     2   2   2   2   2   2
#     4  12  23  43  70  95 132 176 219 269 331 385
#     4  12  28  43  65 102 135 169 226 276 325 390
#     4  12  24  41  72  97 132 178 218 270 329 394
#     4   9  20  40  70  95 130 174 220 266 323 395
#     4   9  20  40  67 100 127 179 218 262 330 398
#     4  10  22  42  67  97 137 170 219 268 332 384
#
# _framework density 24.265495999999999
#
# number of rings (size 3 to 8) (size 9 to 14) (size 15 to 20)
#    1.000    0.333    3.333    2.000    2.333    2.000 
#    0.000    0.833    0.000    0.000    0.000    0.000 
#    0.000    0.000    0.000    0.000    0.000    0.000 
#
# Total GULP energy -67126.634226 kJ/mol
# GULP energy per Si atom -5593.886186 kJ/mol
# Density = 2.421027 g / cm^3
# Si number density = 24.265496 Si / 1000 Ang^3
#
#
#
# Elastic Constant Matrix: (Units=GPa)
#
#
# Indices 1 2 3 4 5 6 
#
# 1 96.5607 25.4063 36.5713 5.0306 -38.0310 -3.4276
# 2 25.4063 47.8960 17.7139 -14.0646 -11.1576 2.3908
# 3 36.5713 17.7139 125.7323 -4.4079 16.0688 -1.5038
# 4 5.0306 -14.0646 -4.4079 35.9145 -3.1752 6.3960
# 5 -38.0310 -11.1576 16.0688 -3.1752 48.2335 -10.6370
# 6 -3.4276 2.3908 -1.5038 6.3960 -10.6370 39.3565
#
#
#
# Elastic Compliance Matrix: (Units=1/GPa)
#
#
# Indices 1 2 3 4 5 6 
#
# 1 0.026130 -0.007372 -0.009752 -0.007416 0.023865 0.010006
# 2 -0.007372 0.030060 -0.001889 0.013484 0.001717 -0.004268
# 3 -0.009752 -0.001889 0.012751 0.001756 -0.013160 -0.004090
# 4 -0.007416 0.013484 0.001756 0.035547 -0.002717 -0.007909
# 5 0.023865 0.001717 -0.013160 -0.002717 0.047399 0.014724
# 6 0.010006 -0.004268 -0.004090 -0.007909 0.014724 0.031648
#
#
# Mechanical properties :
#
#
# Convention : Reuss Voigt Hill
#
# Bulk Modulus (GPa) = 32.34563 47.73020 40.03792
# Shear Modulus (GPa) = 21.56420 37.40074 29.48247
#
# Velocity S-wave (km/s) = 2.98430 3.93022 3.48946
# Velocity P-wave (km/s) = 5.02330 6.34887 5.72458
#
# Compressibility (1/GPa) = 0.03091607
#
# Stress axis : x y z
#
# Youngs Moduli (GPa) = 38.26967 33.26685 78.42727
#
# Poissons Ratio (x) = 0.24523 0.76484
# Poissons Ratio (y) = 0.28211 0.14812
# Poissons Ratio (z) = 0.37321 0.06283
#
# Static dielectric constant tensor:
#      x y z
#    x 1.947320 -0.037970 0.059950 
#    y -0.037970 1.918750 -0.064430 
#    z 0.059950 -0.064430 1.963930 
# 
# From -- ./inp_files/397985.got.cif
#   From: 2010.05.17/outbox.cif.g08.bks.cpg/sg2_199_cif.got.tgz:397985.got - 2010.06.03 11:33:40.
