data_PCOD9029309
_publ_section_title
;
Structure prediction by ZEFSAII (Michael W. Deem and Ramdas Pophale) SiO2 
 PCOD9029309
Probable space group: P -1
;
_chemical_formula_sum "Si O2"
_cell_formula_units_Z 16
_cell_length_a 14.329092
_cell_length_b 18.028012
_cell_length_c 6.754286
_cell_angle_alpha 77.314072
_cell_angle_beta 68.074929
_cell_angle_gamma 26.005397
_cell_volume 680.223049
_symmetry_space_group_name_H-M "P -1"
_symmetry_group_IT_number 2
_symmetry_cell_setting 'triclinic'
loop_
_space_group_symop_operation_xyz
x,y,z
-x,-y,-z
loop_
_atom_site_type_symbol
_atom_site_label
_atom_site_fract_x
_atom_site_fract_y
_atom_site_fract_z
Si Si1 0.036652 0.749899 0.229180
Si Si2 0.351772 0.515042 0.789301
Si Si3 0.150440 0.978249 0.621076
Si Si4 0.345041 0.297477 0.506893
Si Si5 0.576682 0.029798 0.184604
Si Si6 0.165746 0.802449 0.611853
Si Si7 0.047068 0.632883 0.646755
Si Si8 0.649543 0.822485 0.108348
O O1 0.987454 0.741427 0.480166
O O2 0.024443 0.848039 0.221414
O O3 0.829303 0.872927 0.167777
O O4 0.272606 0.559020 0.052423
O O5 0.247236 0.669737 0.728633
O O6 0.624054 0.325742 0.636595
O O7 0.226723 0.542385 0.721431
O O8 0.405266 0.837216 0.550777
O O9 0.146704 0.890503 0.709502
O O10 0.070310 0.043354 0.418103
O O11 0.394005 0.205209 0.346565
O O12 0.167407 0.486313 0.502845
O O13 0.257489 0.308116 0.755941
O O14 0.546690 0.958920 0.250685
O O15 0.544226 0.073037 0.954921
O O16 0.842907 0.732067 0.874339
#
# Coordination Sequence:
#
# PCOD9029309 Si02
#       8
#     2   2   2   2   2   2   2   2
#     4  11  25  42  69  97 138 175 218 272 333 390
#     4  11  23  44  69  96 135 177 213 275 339 388
#     4  10  22  42  67 101 130 170 221 283 317 392
#     4  11  25  44  68  96 140 172 225 272 327 390
#     4  10  25  41  66 100 126 172 223 275 316 398
#     4  10  22  43  71  96 132 172 224 271 333 392
#     4  12  25  45  64 101 139 173 221 273 327 399
#     4  11  25  42  74  94 131 180 223 266 337 388
#
# _framework density 23.521697
#
# number of rings (size 3 to 8) (size 9 to 14) (size 15 to 20)
#    0.000    1.250    3.750    0.750   10.500    2.500 
#    0.000    1.250    0.000    0.000    0.000    0.000 
#    0.000    0.000    0.000    0.000    0.000    0.000 
#
# Total GULP energy -89484.559311 kJ/mol
# GULP energy per Si atom -5592.784957 kJ/mol
# Density = 2.346816 g / cm^3
# Si number density = 23.521697 Si / 1000 Ang^3
#
#
#
# Elastic Constant Matrix: (Units=GPa)
#
#
# Indices 1 2 3 4 5 6 
#
# 1 81.7955 14.1865 14.8651 -5.6501 20.7385 0.6871
# 2 14.1865 64.2411 0.1683 5.8463 7.9354 22.6093
# 3 14.8651 0.1683 70.1562 13.1373 7.6501 2.5374
# 4 -5.6501 5.8463 13.1373 28.0657 5.0877 -1.5938
# 5 20.7385 7.9354 7.6501 5.0877 27.1862 6.6420
# 6 0.6871 22.6093 2.5374 -1.5938 6.6420 39.0159
#
#
#
# Elastic Compliance Matrix: (Units=1/GPa)
#
#
# Indices 1 2 3 4 5 6 
#
# 1 0.018156 -0.005136 -0.004287 0.009664 -0.014364 0.005775
# 2 -0.005136 0.021949 0.002852 -0.007968 0.001471 -0.013390
# 3 -0.004287 0.002852 0.017053 -0.009654 0.000207 -0.003116
# 4 0.009664 -0.007968 -0.009654 0.046696 -0.013328 0.009252
# 5 -0.014364 0.001471 0.000207 -0.013328 0.052202 -0.010044
# 6 0.005775 -0.013390 -0.003116 0.009252 -0.010044 0.035579
#
#
# Mechanical properties :
#
#
# Convention : Reuss Voigt Hill
#
# Bulk Modulus (GPa) = 22.71901 30.51475 26.61688
# Shear Modulus (GPa) = 22.78421 31.31842 27.05131
#
# Velocity S-wave (km/s) = 3.11569 3.65289 3.39493
# Velocity P-wave (km/s) = 4.75637 5.54911 5.16796
#
# Compressibility (1/GPa) = 0.04401601
#
# Stress axis : x y z
#
# Youngs Moduli (GPa) = 55.07703 45.56002 58.63974
#
# Poissons Ratio (x) = 0.23400 0.25138
# Poissons Ratio (y) = 0.28287 -0.16721
# Poissons Ratio (z) = 0.23611 -0.12991
#
# Static dielectric constant tensor:
#      x y z
#    x 1.884480 -0.014740 0.011900 
#    y -0.014740 1.888180 0.021940 
#    z 0.011900 0.021940 1.897990 
# 
# From -- ./inp_files/99662.got.cif
#   From: 2010.05.17/outbox.cif.g08.bks.cpg/sg2_50_cif.got.tgz:99662.got - 2010.06.03 11:33:40.
