data_PCOD9029295
_publ_section_title
;
Structure prediction by ZEFSAII (Michael W. Deem and Ramdas Pophale) SiO2 
 PCOD9029295
Probable space group: P -1
;
_chemical_formula_sum "Si O2"
_cell_formula_units_Z 16
_cell_length_a 8.888915
_cell_length_b 8.282978
_cell_length_c 18.873741
_cell_angle_alpha 30.491944
_cell_angle_beta 99.819882
_cell_angle_gamma 103.670747
_cell_volume 683.590515
_symmetry_space_group_name_H-M "P -1"
_symmetry_group_IT_number 2
_symmetry_cell_setting 'triclinic'
loop_
_space_group_symop_operation_xyz
x,y,z
-x,-y,-z
loop_
_atom_site_type_symbol
_atom_site_label
_atom_site_fract_x
_atom_site_fract_y
_atom_site_fract_z
Si Si1 0.448212 0.151612 0.840022
Si Si2 0.886807 0.483558 0.166565
Si Si3 0.434124 0.492013 0.575131
Si Si4 0.592648 0.782695 0.685390
Si Si5 0.917778 0.964086 0.582075
Si Si6 0.542352 0.506524 0.084189
Si Si7 0.911792 0.980132 0.113782
Si Si8 0.089680 0.360133 0.622835
O O1 0.502771 0.275448 0.719185
O O2 0.470706 0.484285 0.759163
O O3 0.266532 0.999652 0.890032
O O4 0.543819 0.874994 0.971538
O O5 0.709890 0.421491 0.148567
O O6 0.906268 0.695946 0.161169
O O7 0.959042 0.163033 0.308337
O O8 0.991322 0.703510 0.033730
O O9 0.500000 0.500000 0.500000
O O10 0.255329 0.319681 0.623077
O O11 0.448784 0.863085 0.462426
O O12 0.753216 0.748635 0.672311
O O13 0.587364 0.721850 0.792637
O O14 0.873382 0.314808 0.451399
O O15 0.000000 0.000000 0.500000
O O16 0.500000 0.500000 0.000000
O O17 0.981603 0.901431 0.225812
O O18 0.000000 0.500000 0.500000
#
# Coordination Sequence:
#
# PCOD9029295 Si02
#       8
#     2   2   2   2   2   2   2   2
#     4  11  23  43  68  94 136 177 224 285 335 408
#     4  11  24  41  70  98 135 171 231 282 334 414
#     4  10  23  42  64  96 135 175 224 275 341 403
#     4  11  24  42  68  99 133 179 230 283 341 409
#     4  11  24  43  68  99 135 178 232 283 341 406
#     4  12  27  44  67 101 139 182 229 282 353 412
#     4  10  22  42  67 100 130 175 227 278 343 399
#     4  10  23  42  65  97 137 175 222 279 341 408
#
# _framework density 23.405825
#
# number of rings (size 3 to 8) (size 9 to 14) (size 15 to 20)
#    0.000    1.250    2.500    2.250    3.500    8.000 
#    0.000    1.875    0.000    0.000    0.000    0.000 
#    0.000    0.000    0.000    0.000    0.000    0.000 
#
# Total GULP energy -89309.987870 kJ/mol
# GULP energy per Si atom -5581.874242 kJ/mol
# Density = 2.335255 g / cm^3
# Si number density = 23.405825 Si / 1000 Ang^3
#
#
#
# Elastic Constant Matrix: (Units=GPa)
#
#
# Indices 1 2 3 4 5 6 
#
# 1 101.1849 22.1502 54.5781 14.6164 -11.8391 -13.4245
# 2 22.1502 45.3891 23.0458 10.7386 -15.5633 -10.5904
# 3 54.5781 23.0458 178.3868 28.4182 -10.0741 -10.4698
# 4 14.6164 10.7386 28.4182 53.3059 -17.1894 -2.2996
# 5 -11.8391 -15.5633 -10.0741 -17.1894 41.2404 8.7188
# 6 -13.4245 -10.5904 -10.4698 -2.2996 8.7188 27.8541
#
#
#
# Elastic Compliance Matrix: (Units=1/GPa)
#
#
# Indices 1 2 3 4 5 6 
#
# 1 0.013008 -0.003549 -0.003151 -0.000850 0.000531 0.003499
# 2 -0.003549 0.028978 -0.001665 -0.001230 0.007693 0.006172
# 3 -0.003151 -0.001665 0.007238 -0.003004 -0.001162 0.000685
# 4 -0.000850 -0.001230 -0.003004 0.023625 0.009013 -0.002877
# 5 0.000531 0.007693 -0.001162 0.009013 0.032168 -0.006581
# 6 0.003499 0.006172 0.000685 -0.002877 -0.006581 0.042014
#
#
# Mechanical properties :
#
#
# Convention : Reuss Voigt Hill
#
# Bulk Modulus (GPa) = 30.77398 58.27879 44.52638
# Shear Modulus (GPa) = 28.63819 39.49252 34.06536
#
# Velocity S-wave (km/s) = 3.50172 4.11213 3.81914
# Velocity P-wave (km/s) = 5.43378 6.89198 6.20586
#
# Compressibility (1/GPa) = 0.03249498
#
# Stress axis : x y z
#
# Youngs Moduli (GPa) = 76.87318 34.50920 138.15763
#
# Poissons Ratio (x) = 0.12246 0.43530
# Poissons Ratio (y) = 0.27280 0.23008
# Poissons Ratio (z) = 0.24221 0.05747
#
# Static dielectric constant tensor:
#      x y z
#    x 1.708650 -0.183800 0.177270 
#    y -0.183800 1.787720 0.338360 
#    z 0.177270 0.338360 1.652070 
# 
# From -- ./inp_files/244589.got.cif
#   From: 2010.05.17/outbox.cif.g08.bks.cpg/sg2_123_cif.got.tgz:244589.got - 2010.06.03 11:33:40.
