data_PCOD9029987
_publ_section_title
;
Structure prediction by ZEFSAII (Michael W. Deem and Ramdas Pophale) SiO2 
 PCOD9029987
Probable space group: P -1
;
_chemical_formula_sum "Si O2"
_cell_formula_units_Z 16
_cell_length_a 12.191799
_cell_length_b 26.443508
_cell_length_c 5.556737
_cell_angle_alpha 129.137193
_cell_angle_beta 60.868781
_cell_angle_gamma 150.212182
_cell_volume 681.603064
_symmetry_space_group_name_H-M "P -1"
_symmetry_group_IT_number 2
_symmetry_cell_setting 'triclinic'
loop_
_space_group_symop_operation_xyz
x,y,z
-x,-y,-z
loop_
_atom_site_type_symbol
_atom_site_label
_atom_site_fract_x
_atom_site_fract_y
_atom_site_fract_z
Si Si1 0.885681 0.781694 0.747926
Si Si2 0.553869 0.347719 0.130461
Si Si3 0.628100 0.804316 0.732770
Si Si4 0.072452 0.951324 0.693063
Si Si5 0.415148 0.782737 0.508824
Si Si6 0.766102 0.608810 0.069859
Si Si7 0.689630 0.028670 0.844723
Si Si8 0.085185 0.395857 0.599863
O O1 0.645725 0.689886 0.849900
O O2 0.855013 0.718258 0.373408
O O3 0.969203 0.885862 0.861372
O O4 0.088093 0.848366 0.899088
O O5 0.496679 0.310715 0.361321
O O6 0.783830 0.480004 0.214224
O O7 0.537359 0.266658 0.814227
O O8 0.435027 0.765947 0.709613
O O9 0.842904 0.868441 0.543446
O O10 0.769476 0.918656 0.075024
O O11 0.224355 0.956405 0.463019
O O12 0.593533 0.917880 0.708034
O O13 0.180001 0.707174 0.437530
O O14 0.835527 0.598005 0.206420
O O15 0.500000 0.500000 0.000000
O O16 0.853915 0.619892 0.752926
O O17 0.500000 0.000000 0.000000
#
# Coordination Sequence:
#
# PCOD9029987 Si02
#       8
#     2   2   2   2   2   2   2   2
#     4  11  25  44  76 105 138 197 250 308 372 445
#     4  11  25  46  74 105 143 196 252 308 370 438
#     4  10  22  42  71 105 142 195 240 311 372 443
#     4  10  22  42  69 103 146 186 251 300 369 447
#     4  12  26  44  71 107 155 193 243 310 379 455
#     4  12  28  53  79 108 150 197 261 313 365 442
#     4  12  26  42  66 104 149 193 240 303 382 449
#     4  12  30  50  78 112 151 202 251 314 373 443
#
# _framework density 23.474072
#
# number of rings (size 3 to 8) (size 9 to 14) (size 15 to 20)
#    0.000    0.750    3.750    2.250    7.000    3.000 
#    0.000    0.000    0.000    0.000    0.000    0.000 
#    0.000    0.000    0.000    0.000    0.000    0.000 
#
# Total GULP energy -89212.581201 kJ/mol
# GULP energy per Si atom -5575.786325 kJ/mol
# Density = 2.342064 g / cm^3
# Si number density = 23.474072 Si / 1000 Ang^3
#
#
#
# Elastic Constant Matrix: (Units=GPa)
#
#
# Indices 1 2 3 4 5 6 
#
# 1 102.6082 25.1386 14.6276 2.5344 10.5196 12.9345
# 2 25.1386 77.8598 6.7503 19.2356 10.7198 -2.4053
# 3 14.6276 6.7503 84.9249 3.2383 -13.4627 2.0059
# 4 2.5344 19.2356 3.2383 38.3675 6.9836 -9.8045
# 5 10.5196 10.7198 -13.4627 6.9836 42.1776 5.5238
# 6 12.9345 -2.4053 2.0059 -9.8045 5.5238 45.2702
#
#
#
# Elastic Compliance Matrix: (Units=1/GPa)
#
#
# Indices 1 2 3 4 5 6 
#
# 1 0.011485 -0.003505 -0.002043 0.000865 -0.002389 -0.002898
# 2 -0.003505 0.016174 -0.000798 -0.007218 -0.002378 0.000623
# 3 -0.002043 -0.000798 0.013134 -0.001825 0.005349 -0.001089
# 4 0.000865 -0.007218 -0.001825 0.032570 -0.005293 0.007150
# 5 -0.002389 -0.002378 0.005349 -0.005293 0.028050 -0.004250
# 6 -0.002898 0.000623 -0.001089 0.007150 -0.004250 0.025066
#
#
# Mechanical properties :
#
#
# Convention : Reuss Voigt Hill
#
# Bulk Modulus (GPa) = 35.58723 39.82511 37.70617
# Shear Modulus (GPa) = 33.66128 39.75481 36.70805
#
# Velocity S-wave (km/s) = 3.79090 4.11976 3.95874
# Velocity P-wave (km/s) = 5.86126 6.29542 6.08221
#
# Compressibility (1/GPa) = 0.02809996
#
# Stress axis : x y z
#
# Youngs Moduli (GPa) = 87.07207 61.82577 76.13976
#
# Poissons Ratio (x) = 0.21672 0.15554
# Poissons Ratio (y) = 0.30522 0.06078
# Poissons Ratio (z) = 0.17787 0.04936
#
# Static dielectric constant tensor:
#      x y z
#    x 2.049260 -0.020400 0.103330 
#    y -0.020400 1.894900 -0.095710 
#    z 0.103330 -0.095710 2.055670 
# 
# From -- ./inp_files/85134.got.cif
#   From: 2010.05.17/outbox.cif.g08.bks.cpg/sg2_43_cif.got.tgz:85134.got - 2010.06.03 11:33:40.
