data_PCOD9029164
_publ_section_title
;
Structure prediction by ZEFSAII (Michael W. Deem and Ramdas Pophale) SiO2 
 PCOD9029164
Probable space group: P -1
;
_chemical_formula_sum "Si O2"
_cell_formula_units_Z 15
_cell_length_a 8.851164
_cell_length_b 10.260300
_cell_length_c 11.194042
_cell_angle_alpha 69.150757
_cell_angle_beta 53.063136
_cell_angle_gamma 45.624573
_cell_volume 577.099943
_symmetry_space_group_name_H-M "P -1"
_symmetry_group_IT_number 2
_symmetry_cell_setting 'triclinic'
loop_
_space_group_symop_operation_xyz
x,y,z
-x,-y,-z
loop_
_atom_site_type_symbol
_atom_site_label
_atom_site_fract_x
_atom_site_fract_y
_atom_site_fract_z
Si Si1 0.630374 0.343477 0.731355
Si Si2 0.922576 0.820740 0.111110
Si Si3 0.570653 0.117004 0.374467
Si Si4 0.354683 0.935658 0.039683
Si Si5 0.845977 0.550887 0.184057
Si Si6 0.254508 0.272712 0.268802
Si Si7 0.500000 0.500000 0.000000
Si Si8 0.865360 0.949978 0.504361
O O1 0.395564 0.428525 0.728501
O O2 0.904828 0.255567 0.587987
O O3 0.685041 0.160262 0.812547
O O4 0.531957 0.476958 0.845717
O O5 0.779137 0.986750 0.218429
O O6 0.789126 0.735073 0.191905
O O7 0.198101 0.664177 0.073987
O O8 0.887394 0.901765 0.969837
O O9 0.703141 0.111364 0.430577
O O10 0.500000 0.000000 0.500000
O O11 0.334552 0.289045 0.357029
O O12 0.533192 0.774298 0.908706
O O13 0.500000 0.000000 0.000000
O O14 0.012058 0.415318 0.259010
O O15 0.000000 0.500000 0.000000
O O16 0.280181 0.094292 0.333637
O O17 0.000000 0.000000 0.500000
#
# Coordination Sequence:
#
# PCOD9029164 Si02
#       8
#     2   2   2   2   2   2   1   2
#     4  12  25  42  69  97 140 176 223 281 342 401
#     4  11  22  40  66  93 135 170 224 280 333 401
#     4   9  21  42  66  89 128 175 222 271 327 406
#     4  11  20  39  70  99 118 181 234 272 320 402
#     4  12  22  41  67  97 131 177 221 274 335 407
#     4  10  22  42  66  94 132 172 225 270 337 407
#     4  12  24  42  60 100 148 174 208 286 356 392
#     4  11  24  44  68  99 132 173 228 287 334 393
#
# _framework density 25.992028000000001
#
# number of rings (size 3 to 8) (size 9 to 14) (size 15 to 20)
#    0.000    1.067    5.333    0.800    3.733    1.067 
#    2.400    2.667    2.933    0.000    0.000    0.000 
#    0.000    0.000    0.000    0.000    0.000    0.000 
#
# Total GULP energy -83646.722312 kJ/mol
# GULP energy per Si atom -5576.448154 kJ/mol
# Density = 2.593287 g / cm^3
# Si number density = 25.992028 Si / 1000 Ang^3
#
#
#
# Elastic Constant Matrix: (Units=GPa)
#
#
# Indices 1 2 3 4 5 6 
#
# 1 146.2136 47.9481 18.9913 -24.2370 21.8982 -53.5788
# 2 47.9481 103.6160 23.6043 -21.9427 11.2210 -55.8757
# 3 18.9913 23.6043 76.4222 -10.6418 5.9756 -18.0324
# 4 -24.2370 -21.9427 -10.6418 43.6962 -13.9716 7.2673
# 5 21.8982 11.2210 5.9756 -13.9716 40.0913 -10.2498
# 6 -53.5788 -55.8757 -18.0324 7.2673 -10.2498 70.1375
#
#
#
# Elastic Compliance Matrix: (Units=1/GPa)
#
#
# Indices 1 2 3 4 5 6 
#
# 1 0.010522 0.000287 -0.000209 0.003879 -0.002543 0.007440
# 2 0.000287 0.019084 -0.001634 0.007256 0.000953 0.014390
# 3 -0.000209 -0.001634 0.014433 0.002145 -0.000326 0.001979
# 4 0.003879 0.007256 0.002145 0.030562 0.008049 0.007305
# 5 -0.002543 0.000953 -0.000326 0.008049 0.029483 0.002208
# 6 0.007440 0.014390 0.001979 0.007305 0.002208 0.031479
#
#
# Mechanical properties :
#
#
# Convention : Reuss Voigt Hill
#
# Bulk Modulus (GPa) = 24.43407 56.37103 40.40255
# Shear Modulus (GPa) = 32.82608 46.49888 39.66248
#
# Velocity S-wave (km/s) = 3.55763 4.23421 3.91058
# Velocity P-wave (km/s) = 5.12802 6.75571 5.99734
#
# Compressibility (1/GPa) = 0.04092646
#
# Stress axis : x y z
#
# Youngs Moduli (GPa) = 95.03575 52.40103 69.28506
#
# Poissons Ratio (x) = -0.01505 0.01449
# Poissons Ratio (y) = -0.02730 0.11324
# Poissons Ratio (z) = 0.01987 0.08565
#
# Static dielectric constant tensor:
#      x y z
#    x 2.342020 0.265610 -0.068640 
#    y 0.265610 2.453740 -0.052690 
#    z -0.068640 -0.052690 2.068780 
# 
# From -- ./inp_files/221478.got.cif
#   From: 2010.05.17/outbox.cif.g08.bks.cpg/sg2_111_cif.got.tgz:221478.got - 2010.06.03 11:33:40.
