data_PCOD9029332
_publ_section_title
;
Structure prediction by ZEFSAII (Michael W. Deem and Ramdas Pophale) SiO2 
 PCOD9029332
Probable space group: P -1
;
_chemical_formula_sum "Si O2"
_cell_formula_units_Z 14
_cell_length_a 5.198594
_cell_length_b 12.127558
_cell_length_c 12.005737
_cell_angle_alpha 68.867323
_cell_angle_beta 95.560699
_cell_angle_gamma 131.187022
_cell_volume 520.565664
_symmetry_space_group_name_H-M "P -1"
_symmetry_group_IT_number 2
_symmetry_cell_setting 'triclinic'
loop_
_space_group_symop_operation_xyz
x,y,z
-x,-y,-z
loop_
_atom_site_type_symbol
_atom_site_label
_atom_site_fract_x
_atom_site_fract_y
_atom_site_fract_z
Si Si1 0.109488 0.059607 0.708417
Si Si2 0.314805 0.561813 0.072223
Si Si3 0.825214 0.060494 0.912371
Si Si4 0.114595 0.698175 0.303532
Si Si5 0.274270 0.269958 0.169581
Si Si6 0.139642 0.838504 0.492615
Si Si7 0.103024 0.587361 0.694824
O O1 0.474535 0.203391 0.725347
O O2 0.802376 0.002580 0.803635
O O3 0.081347 0.114014 0.568171
O O4 0.073315 0.907305 0.753718
O O5 0.308091 0.419229 0.132233
O O6 0.193986 0.564523 0.185826
O O7 0.643075 0.712097 0.965742
O O8 0.000000 0.500000 0.000000
O O9 0.994696 0.240476 0.818925
O O10 0.500000 0.000000 0.000000
O O11 0.000000 0.000000 0.000000
O O12 0.122228 0.765210 0.399343
O O13 0.875833 0.507404 0.363407
O O14 0.558091 0.302051 0.253374
O O15 0.013557 0.692406 0.617896
O O16 0.500000 0.000000 0.500000
#
# Coordination Sequence:
#
# PCOD9029332 Si02
#       7
#     2   2   2   2   2   2   2
#     4  11  25  43  74 110 143 195 251 311 368 456
#     4   9  22  39  66 100 140 186 239 299 370 445
#     4  11  24  46  74 111 157 203 244 308 381 456
#     4  11  27  44  71 111 150 189 255 311 384 439
#     4  10  22  42  67 102 143 188 245 301 373 454
#     4  11  25  47  73 102 142 196 257 309 379 448
#     4  11  24  46  69 101 146 192 247 310 378 443
#
# _framework density 26.893823999999999
#
# number of rings (size 3 to 8) (size 9 to 14) (size 15 to 20)
#    0.000    1.429    2.857    0.429    4.000    9.143 
#    0.000    0.000    0.000    0.000    0.000    0.000 
#    0.000    0.000    0.000    0.000    0.000    0.000 
#
# Total GULP energy -78158.294383 kJ/mol
# GULP energy per Si atom -5582.735313 kJ/mol
# Density = 2.683261 g / cm^3
# Si number density = 26.893824 Si / 1000 Ang^3
#
#
#
# Elastic Constant Matrix: (Units=GPa)
#
#
# Indices 1 2 3 4 5 6 
#
# 1 96.4490 4.1438 42.3173 -4.7602 27.5279 -2.0118
# 2 4.1438 143.7154 44.5577 -6.1078 19.9150 -8.6966
# 3 42.3173 44.5577 163.3204 -13.9363 40.2725 -3.4523
# 4 -4.7602 -6.1078 -13.9363 42.7571 -17.2574 13.2883
# 5 27.5279 19.9150 40.2725 -17.2574 55.8978 2.7101
# 6 -2.0118 -8.6966 -3.4523 13.2883 2.7101 31.3179
#
#
#
# Elastic Compliance Matrix: (Units=1/GPa)
#
#
# Indices 1 2 3 4 5 6 
#
# 1 0.012996 0.001237 -0.002383 -0.002304 -0.005952 0.002408
# 2 0.001237 0.007995 -0.001905 -0.001289 -0.002622 0.002863
# 3 -0.002383 -0.001905 0.008294 0.000422 -0.004013 0.000401
# 4 -0.002304 -0.001289 0.000422 0.032786 0.012160 -0.015423
# 5 -0.005952 -0.002622 -0.004013 0.012160 0.028847 -0.009208
# 6 0.002408 0.002863 0.000401 -0.015423 -0.009208 0.040265
#
#
# Mechanical properties :
#
#
# Convention : Reuss Voigt Hill
#
# Bulk Modulus (GPa) = 43.13458 65.05804 54.09631
# Shear Modulus (GPa) = 34.48010 46.82563 40.65286
#
# Velocity S-wave (km/s) = 3.58450 4.17721 3.89216
# Velocity P-wave (km/s) = 5.76240 6.89265 6.35271
#
# Compressibility (1/GPa) = 0.02318326
#
# Stress axis : x y z
#
# Youngs Moduli (GPa) = 76.94826 125.08055 120.57154
#
# Poissons Ratio (x) = -0.15467 0.28728
# Poissons Ratio (y) = -0.09515 0.22963
# Poissons Ratio (z) = 0.18334 0.23822
#
# Static dielectric constant tensor:
#      x y z
#    x 2.210020 -0.060700 -0.110770 
#    y -0.060700 2.057940 0.058970 
#    z -0.110770 0.058970 2.127350 
# 
# From -- ./inp_files/364111.got.cif
#   From: 2010.05.17/outbox.cif.g08.bks.cpg/sg2_183_cif.got.tgz:364111.got - 2010.06.03 11:33:40.
