data_PCOD9029000
_publ_section_title
;
Structure prediction by ZEFSAII (Michael W. Deem and Ramdas Pophale) SiO2 
 PCOD9029000
Probable space group: P -1
;
_chemical_formula_sum "Si O2"
_cell_formula_units_Z 16
_cell_length_a 15.560075
_cell_length_b 7.519410
_cell_length_c 12.099357
_cell_angle_alpha 127.619845
_cell_angle_beta 38.372791
_cell_angle_gamma 107.436441
_cell_volume 648.366414
_symmetry_space_group_name_H-M "P -1"
_symmetry_group_IT_number 2
_symmetry_cell_setting 'triclinic'
loop_
_space_group_symop_operation_xyz
x,y,z
-x,-y,-z
loop_
_atom_site_type_symbol
_atom_site_label
_atom_site_fract_x
_atom_site_fract_y
_atom_site_fract_z
Si Si1 0.609998 0.766430 0.867847
Si Si2 0.854508 0.575149 0.368948
Si Si3 0.682462 0.316504 0.330410
Si Si4 0.662976 0.366337 0.927740
Si Si5 0.397825 0.274465 0.691439
Si Si6 0.096118 0.954542 0.592070
Si Si7 0.768182 0.035770 0.913893
Si Si8 0.141916 0.125704 0.851999
O O1 0.759730 0.629016 0.596917
O O2 0.669282 0.869185 0.951740
O O3 0.502622 0.618124 0.929721
O O4 0.500000 0.000000 0.000000
O O5 0.737679 0.532155 0.385459
O O6 0.899788 0.801950 0.378783
O O7 0.997746 0.331143 0.126220
O O8 0.511345 0.381064 0.560751
O O9 0.778482 0.091352 0.226506
O O10 0.721060 0.219380 0.132065
O O11 0.731708 0.172113 0.884471
O O12 0.768283 0.266939 0.679377
O O13 0.652671 0.605659 0.093001
O O14 0.255133 0.264209 0.768704
O O15 0.500000 0.000000 0.500000
O O16 0.107949 0.012094 0.730714
O O17 0.944925 0.913100 0.700938
#
# Coordination Sequence:
#
# PCOD9029000 Si02
#       8
#     2   2   2   2   2   2   2   2
#     4  10  22  42  65  99 136 171 220 280 337 395
#     4  12  22  42  70  99 134 178 228 282 329 395
#     4  11  25  45  67  94 137 181 231 274 332 404
#     4  11  23  43  68 100 134 174 222 283 342 394
#     4  10  24  45  69  97 133 179 226 274 335 405
#     4  12  25  41  69 104 137 171 226 283 338 397
#     4  11  24  41  67 100 134 176 225 276 338 398
#     4  11  26  44  67  99 138 180 222 278 341 396
#
# _framework density 24.677406000000001
#
# number of rings (size 3 to 8) (size 9 to 14) (size 15 to 20)
#    0.000    1.000    5.000    1.875    5.250    0.500 
#    0.000    5.625    0.000    0.000    0.000    0.000 
#    0.000    0.000    0.000    0.000    0.000    0.000 
#
# Total GULP energy -89593.358220 kJ/mol
# GULP energy per Si atom -5599.584889 kJ/mol
# Density = 2.462124 g / cm^3
# Si number density = 24.677406 Si / 1000 Ang^3
#
#
#
# Elastic Constant Matrix: (Units=GPa)
#
#
# Indices 1 2 3 4 5 6 
#
# 1 106.3642 37.7195 29.9905 -11.4700 -12.1402 28.1234
# 2 37.7195 41.9750 -3.4628 0.6479 -2.6562 -2.9762
# 3 29.9905 -3.4628 128.7347 8.8487 -9.5119 -19.3355
# 4 -11.4700 0.6479 8.8487 33.9104 18.4199 1.9737
# 5 -12.1402 -2.6562 -9.5119 18.4199 41.0576 -3.2969
# 6 28.1234 -2.9762 -19.3355 1.9737 -3.2969 48.6933
#
#
#
# Elastic Compliance Matrix: (Units=1/GPa)
#
#
# Indices 1 2 3 4 5 6 
#
# 1 0.039462 -0.040345 -0.017867 0.025882 -0.009426 -0.034040
# 2 -0.040345 0.065620 0.019727 -0.029281 0.013011 0.037214
# 3 -0.017867 0.019727 0.017280 -0.017101 0.009251 0.019706
# 4 0.025882 -0.029281 -0.017101 0.059657 -0.027199 -0.027788
# 5 -0.009426 0.013011 0.009251 -0.027199 0.037847 0.013578
# 6 -0.034040 0.037214 0.019706 -0.027788 0.013578 0.052342
#
#
# Mechanical properties :
#
#
# Convention : Reuss Voigt Hill
#
# Bulk Modulus (GPa) = 22.02973 45.06315 33.54644
# Shear Modulus (GPa) = 13.72471 38.92070 26.32271
#
# Velocity S-wave (km/s) = 2.36087 3.97568 3.26954
# Velocity P-wave (km/s) = 4.04699 6.27497 5.27984
#
# Compressibility (1/GPa) = 0.04539319
#
# Stress axis : x y z
#
# Youngs Moduli (GPa) = 25.34077 15.23934 57.87191
#
# Poissons Ratio (x) = 0.61483 1.03397
# Poissons Ratio (y) = 1.02237 -1.14166
# Poissons Ratio (z) = 0.45275 -0.30063
#
# Static dielectric constant tensor:
#      x y z
#    x 2.017970 0.039450 -0.009260 
#    y 0.039450 2.078150 -0.018390 
#    z -0.009260 -0.018390 1.917430 
# 
# From -- ./inp_files/448153.got.cif
#   From: 2010.05.17/outbox.cif.g08.bks.cpg/sg2_225_cif.got.tgz:448153.got - 2010.06.03 11:33:40.
