data_PCOD9029926
_publ_section_title
;
Structure prediction by ZEFSAII (Michael W. Deem and Ramdas Pophale) SiO2 
 PCOD9029926
Probable space group: P -1
;
_chemical_formula_sum "Si O2"
_cell_formula_units_Z 14
_cell_length_a 14.469507
_cell_length_b 13.545239
_cell_length_c 22.918685
_cell_angle_alpha 20.618957
_cell_angle_beta 21.821718
_cell_angle_gamma 31.761824
_cell_volume 582.008633
_symmetry_space_group_name_H-M "P -1"
_symmetry_group_IT_number 2
_symmetry_cell_setting 'triclinic'
loop_
_space_group_symop_operation_xyz
x,y,z
-x,-y,-z
loop_
_atom_site_type_symbol
_atom_site_label
_atom_site_fract_x
_atom_site_fract_y
_atom_site_fract_z
Si Si1 0.237668 0.218394 0.762784
Si Si2 0.930213 0.690598 0.061052
Si Si3 0.540963 0.017887 0.397183
Si Si4 0.742745 0.061246 0.501854
Si Si5 0.281730 0.789101 0.131192
Si Si6 0.775657 0.156585 0.627808
Si Si7 0.777460 0.467465 0.566773
O O1 0.219907 0.264814 0.816553
O O2 0.485145 0.085928 0.673059
O O3 0.239864 0.535458 0.560579
O O4 0.000000 0.000000 0.000000
O O5 0.867303 0.384361 0.240877
O O6 0.854610 0.933600 0.928814
O O7 0.217482 0.749065 0.879702
O O8 0.327890 0.069458 0.448179
O O9 0.624359 0.715599 0.498756
O O10 0.500000 0.000000 0.500000
O O11 0.944242 0.918521 0.499471
O O12 0.296862 0.616341 0.277299
O O13 0.070657 0.605583 0.316955
O O14 0.552588 0.906710 0.880681
O O15 0.731904 0.204939 0.695719
#
# Coordination Sequence:
#
# PCOD9029926 Si02
#       7
#     2   2   2   2   2   2   2
#     4  12  24  53  72  99 148 188 239 296 350 418
#     4  11  24  47  74  98 146 192 229 297 352 414
#     4  11  25  46  70 105 146 185 235 294 356 421
#     4  12  27  44  72 108 136 188 240 285 358 423
#     4  10  22  42  68  99 135 189 234 282 355 412
#     4  12  26  43  71 106 142 183 238 292 353 422
#     4  10  22  44  69  98 145 190 232 293 351 417
#
# _framework density 24.054625999999999
#
# number of rings (size 3 to 8) (size 9 to 14) (size 15 to 20)
#    0.000    0.857    4.286    1.714    8.000    1.714 
#    0.000    0.000    0.000    0.000    0.000    0.000 
#    0.000    0.000    0.000    0.000    0.000    0.000 
#
# Total GULP energy -78362.782376 kJ/mol
# GULP energy per Si atom -5597.341598 kJ/mol
# Density = 2.399988 g / cm^3
# Si number density = 24.054626 Si / 1000 Ang^3
#
#
#
# Elastic Constant Matrix: (Units=GPa)
#
#
# Indices 1 2 3 4 5 6 
#
# 1 76.3607 16.5125 37.3023 15.8592 -6.8824 -14.8861
# 2 16.5125 104.3756 42.3530 13.6952 -13.2019 -21.6902
# 3 37.3023 42.3530 106.6292 0.8836 -14.7969 -20.8192
# 4 15.8592 13.6952 0.8836 19.1797 2.4317 -1.7806
# 5 -6.8824 -13.2019 -14.7969 2.4317 29.9878 6.4782
# 6 -14.8861 -21.6902 -20.8192 -1.7806 6.4782 33.1126
#
#
#
# Elastic Compliance Matrix: (Units=1/GPa)
#
#
# Indices 1 2 3 4 5 6 
#
# 1 0.021385 0.003804 -0.007219 -0.019953 0.003378 0.005833
# 2 0.003804 0.014768 -0.005189 -0.013415 0.004493 0.006521
# 3 -0.007219 -0.005189 0.014692 0.008993 0.001999 0.002686
# 4 -0.019953 -0.013415 0.008993 0.078695 -0.011202 -0.005680
# 5 0.003378 0.004493 0.001999 -0.011202 0.038518 -0.002419
# 6 0.005833 0.006521 0.002686 -0.005680 -0.002419 0.038950
#
#
# Mechanical properties :
#
#
# Convention : Reuss Voigt Hill
#
# Bulk Modulus (GPa) = 29.72893 53.30012 41.51452
# Shear Modulus (GPa) = 21.23785 29.20255 25.22020
#
# Velocity S-wave (km/s) = 2.97459 3.48804 3.24150
# Velocity P-wave (km/s) = 4.91765 6.19903 5.59515
#
# Compressibility (1/GPa) = 0.03363727
#
# Stress axis : x y z
#
# Youngs Moduli (GPa) = 46.76103 67.71327 68.06464
#
# Poissons Ratio (x) = -0.25755 0.49136
# Poissons Ratio (y) = -0.17786 0.35316
# Poissons Ratio (z) = 0.33757 0.35134
#
# Static dielectric constant tensor:
#      x y z
#    x 1.926530 -0.016830 0.001470 
#    y -0.016830 1.931780 0.046160 
#    z 0.001470 0.046160 1.933590 
# 
# From -- ./inp_files/427041.got.cif
#   From: 2010.05.17/outbox.cif.g08.bks.cpg/sg2_214_cif.got.tgz:427041.got - 2010.06.03 11:33:40.
