data_PCOD9029450
_publ_section_title
;
Structure prediction by ZEFSAII (Michael W. Deem and Ramdas Pophale) SiO2 
 PCOD9029450
Probable space group: P -1
;
_chemical_formula_sum "Si O2"
_cell_formula_units_Z 16
_cell_length_a 23.389428
_cell_length_b 24.047576
_cell_length_c 13.862910
_cell_angle_alpha 152.498360
_cell_angle_beta 149.768492
_cell_angle_gamma 11.902938
_cell_volume 742.007552
_symmetry_space_group_name_H-M "P -1"
_symmetry_group_IT_number 2
_symmetry_cell_setting 'triclinic'
loop_
_space_group_symop_operation_xyz
x,y,z
-x,-y,-z
loop_
_atom_site_type_symbol
_atom_site_label
_atom_site_fract_x
_atom_site_fract_y
_atom_site_fract_z
Si Si1 0.764963 0.322434 0.137965
Si Si2 0.042869 0.134989 0.575979
Si Si3 0.070802 0.631460 0.694342
Si Si4 0.691950 0.663348 0.031722
Si Si5 0.653801 0.620104 0.601505
Si Si6 0.514574 0.843414 0.268411
Si Si7 0.230307 0.283452 0.230118
Si Si8 0.493104 0.411436 0.441306
O O1 0.847236 0.328760 0.180398
O O2 0.740613 0.432084 0.363445
O O3 0.500000 0.500000 0.000000
O O4 0.000000 0.000000 0.000000
O O5 0.853499 0.420275 0.678154
O O6 0.776376 0.297778 0.435594
O O7 0.336097 0.894362 0.584705
O O8 0.215807 0.904758 0.567363
O O9 0.290468 0.392813 0.728525
O O10 0.089037 0.505694 0.448067
O O11 0.784693 0.916770 0.772655
O O12 0.633461 0.705690 0.124605
O O13 0.008085 0.393497 0.055027
O O14 0.498546 0.957315 0.162037
O O15 0.619173 0.605410 0.792684
O O16 0.691333 0.709005 0.734626
O O17 0.500000 0.000000 0.500000
O O18 0.500000 0.500000 0.500000
#
# Coordination Sequence:
#
# PCOD9029450 Si02
#       8
#     2   2   2   2   2   2   2   2
#     4  11  23  41  62  93 135 169 215 260 316 381
#     4  10  22  45  70  88 122 163 217 262 316 380
#     4  11  22  39  60  89 134 173 198 255 316 368
#     4  12  24  39  64  96 124 168 213 261 321 384
#     4  10  22  42  67  95 125 173 206 263 329 377
#     4  12  21  38  62  94 132 161 215 254 309 388
#     4  11  21  39  65  94 131 165 201 249 325 393
#     4  11  25  48  67  90 126 170 212 274 327 368
#
# _framework density 21.563120999999999
#
# number of rings (size 3 to 8) (size 9 to 14) (size 15 to 20)
#    0.000    1.000    2.500    4.500    0.000    4.000 
#   13.500   12.500    0.000    0.000    0.000    0.000 
#    0.000    0.000    0.000    0.000    0.000    0.000 
#
# Total GULP energy -89071.844579 kJ/mol
# GULP energy per Si atom -5566.990286 kJ/mol
# Density = 2.151404 g / cm^3
# Si number density = 21.563121 Si / 1000 Ang^3
#
#
#
# Elastic Constant Matrix: (Units=GPa)
#
#
# Indices 1 2 3 4 5 6 
#
# 1 181.8506 41.7963 35.6952 -2.3936 21.2437 16.0448
# 2 41.7963 121.4679 8.0295 -17.5300 16.5139 10.2854
# 3 35.6952 8.0295 62.3817 -6.4723 13.4519 11.0043
# 4 -2.3936 -17.5300 -6.4723 21.7828 4.5455 4.8687
# 5 21.2437 16.5139 13.4519 4.5455 29.5140 -0.3810
# 6 16.0448 10.2854 11.0043 4.8687 -0.3810 48.4553
#
#
#
# Elastic Compliance Matrix: (Units=1/GPa)
#
#
# Indices 1 2 3 4 5 6 
#
# 1 0.006904 -0.001892 -0.003100 -0.000944 -0.002367 -0.001104
# 2 -0.001892 0.012232 0.003678 0.013621 -0.009312 -0.004247
# 3 -0.003100 0.003678 0.022434 0.013227 -0.012170 -0.006274
# 4 -0.000944 0.013621 0.013227 0.068464 -0.023679 -0.012648
# 5 -0.002367 -0.009312 -0.012170 -0.023679 0.050097 0.008297
# 6 -0.001104 -0.004247 -0.006274 -0.012648 0.008297 0.024666
#
#
# Mechanical properties :
#
#
# Convention : Reuss Voigt Hill
#
# Bulk Modulus (GPa) = 25.67798 59.63802 42.65800
# Shear Modulus (GPa) = 24.94970 38.62903 31.78936
#
# Velocity S-wave (km/s) = 3.40524 4.23713 3.84376
# Velocity P-wave (km/s) = 5.23402 7.18715 6.28690
#
# Compressibility (1/GPa) = 0.03894388
#
# Stress axis : x y z
#
# Youngs Moduli (GPa) = 144.84993 81.75481 44.57523
#
# Poissons Ratio (x) = 0.15464 0.13816
# Poissons Ratio (y) = 0.27399 -0.16396
# Poissons Ratio (z) = 0.44897 -0.30072
#
# Static dielectric constant tensor:
#      x y z
#    x 1.819350 -0.065490 -0.035820 
#    y -0.065490 1.808260 0.013200 
#    z -0.035820 0.013200 1.858210 
# 
# From -- ./inp_files/543375.got.cif
#   From: 2010.05.17/outbox.cif.g08.bks.cpg/sg2_272_cif.got.tgz:543375.got - 2010.06.03 11:33:40.
