data_PCOD9029961
_publ_section_title
;
Structure prediction by ZEFSAII (Michael W. Deem and Ramdas Pophale) SiO2 
 PCOD9029961
Probable space group: P -1
;
_chemical_formula_sum "Si O2"
_cell_formula_units_Z 12
_cell_length_a 9.446403
_cell_length_b 13.953266
_cell_length_c 6.882449
_cell_angle_alpha 123.214017
_cell_angle_beta 129.242742
_cell_angle_gamma 43.034843
_cell_volume 473.170119
_symmetry_space_group_name_H-M "P -1"
_symmetry_group_IT_number 2
_symmetry_cell_setting 'triclinic'
loop_
_space_group_symop_operation_xyz
x,y,z
-x,-y,-z
loop_
_atom_site_type_symbol
_atom_site_label
_atom_site_fract_x
_atom_site_fract_y
_atom_site_fract_z
Si Si1 0.795522 0.332693 0.239926
Si Si2 0.082489 0.303733 0.755288
Si Si3 0.065621 0.949728 0.728800
Si Si4 0.510984 0.785028 0.783003
Si Si5 0.319942 0.624351 0.246247
Si Si6 0.617464 0.021319 0.449626
O O1 0.543542 0.467320 0.223654
O O2 0.982527 0.353198 0.506816
O O3 0.803181 0.309173 0.992305
O O4 0.852833 0.198516 0.262139
O O5 0.864235 0.367221 0.769441
O O6 0.262264 0.324345 0.021840
O O7 0.315803 0.914731 0.895438
O O8 0.407973 0.707270 0.516410
O O9 0.810879 0.043763 0.705237
O O10 0.000000 0.000000 0.500000
O O11 0.546028 0.854760 0.706057
O O12 0.766965 0.868941 0.301530
O O13 0.500000 0.000000 0.500000
#
# Coordination Sequence:
#
# PCOD9029961 Si02
#       6
#     2   2   2   2   2   2
#     4  10  23  46  71  99 145 184 231 291 348 410
#     4  11  24  43  70  99 144 178 232 292 350 403
#     4   9  20  43  69  98 136 181 229 277 349 410
#     4  11  23  42  71 102 136 187 234 282 351 423
#     4  11  24  46  70 103 141 189 230 287 351 418
#     4  10  22  42  69 101 141 182 232 291 348 409
#
# _framework density 25.360858
#
# number of rings (size 3 to 8) (size 9 to 14) (size 15 to 20)
#    0.000    1.667    3.333    1.000    4.667    2.000 
#    0.000   10.000    0.000    0.000    0.000    0.000 
#    0.000    0.000    0.000    0.000    0.000    0.000 
#
# Total GULP energy -66931.615102 kJ/mol
# GULP energy per Si atom -5577.634592 kJ/mol
# Density = 2.530314 g / cm^3
# Si number density = 25.360858 Si / 1000 Ang^3
#
#
#
# Elastic Constant Matrix: (Units=GPa)
#
#
# Indices 1 2 3 4 5 6 
#
# 1 127.2557 12.5198 72.7990 -17.6552 4.8789 -12.6302
# 2 12.5198 59.2227 39.2112 -18.7945 6.2242 9.9145
# 3 72.7990 39.2112 181.4521 -31.8076 13.9627 -8.1982
# 4 -17.6552 -18.7945 -31.8076 47.1847 -7.5982 2.2338
# 5 4.8789 6.2242 13.9627 -7.5982 37.3181 -15.4828
# 6 -12.6302 9.9145 -8.1982 2.2338 -15.4828 35.6466
#
#
#
# Elastic Compliance Matrix: (Units=1/GPa)
#
#
# Indices 1 2 3 4 5 6 
#
# 1 0.010624 0.000077 -0.004011 0.001434 0.001859 0.003538
# 2 0.000077 0.023938 -0.004132 0.006391 -0.005449 -0.010348
# 3 -0.004011 -0.004132 0.008565 0.002407 -0.001048 0.001092
# 4 0.001434 0.006391 0.002407 0.026393 0.002728 -0.001185
# 5 0.001859 -0.005449 -0.001048 0.002728 0.035547 0.017201
# 6 0.003538 -0.010348 0.001092 -0.001185 0.017201 0.039981
#
#
# Mechanical properties :
#
#
# Convention : Reuss Voigt Hill
#
# Bulk Modulus (GPa) = 37.04270 68.55450 52.79860
# Shear Modulus (GPa) = 29.38100 40.25658 34.81879
#
# Velocity S-wave (km/s) = 3.40739 3.98848 3.70933
# Velocity P-wave (km/s) = 5.48802 6.94989 6.26176
#
# Compressibility (1/GPa) = 0.02699588
#
# Stress axis : x y z
#
# Youngs Moduli (GPa) = 94.12764 41.77457 116.75451
#
# Poissons Ratio (x) = -0.00322 0.46828
# Poissons Ratio (y) = -0.00726 0.48241
# Poissons Ratio (z) = 0.37753 0.17260
#
# Static dielectric constant tensor:
#      x y z
#    x 2.032660 -0.017080 0.115980 
#    y -0.017080 2.054540 0.084750 
#    z 0.115980 0.084750 2.201310 
# 
# From -- ./inp_files/42698.got.cif
#   From: 2010.05.17/outbox.cif.g08.bks.cpg/sg2_22_cif.got.tgz:42698.got - 2010.06.03 11:33:40.
