data_PCOD9029008
_publ_section_title
;
Structure prediction by ZEFSAII (Michael W. Deem and Ramdas Pophale) SiO2 
 PCOD9029008
Probable space group: P -1
;
_chemical_formula_sum "Si O2"
_cell_formula_units_Z 16
_cell_length_a 9.003418
_cell_length_b 8.296638
_cell_length_c 11.346976
_cell_angle_alpha 66.670689
_cell_angle_beta 63.236644
_cell_angle_gamma 90.669376
_cell_volume 676.004991
_symmetry_space_group_name_H-M "P -1"
_symmetry_group_IT_number 2
_symmetry_cell_setting 'triclinic'
loop_
_space_group_symop_operation_xyz
x,y,z
-x,-y,-z
loop_
_atom_site_type_symbol
_atom_site_label
_atom_site_fract_x
_atom_site_fract_y
_atom_site_fract_z
Si Si1 0.260815 0.547262 0.679181
Si Si2 0.372242 0.224163 0.111423
Si Si3 0.532041 0.519573 0.787173
Si Si4 0.258511 0.663615 0.390813
Si Si5 0.167761 0.874001 0.746911
Si Si6 0.113191 0.186145 0.956362
Si Si7 0.412884 0.020952 0.831412
Si Si8 0.965468 0.070218 0.621295
O O1 0.428839 0.550899 0.698031
O O2 0.266473 0.546198 0.537482
O O3 0.206995 0.730311 0.682880
O O4 0.135089 0.360614 0.816985
O O5 0.392833 0.305859 0.212456
O O6 0.531563 0.130433 0.066790
O O7 0.197843 0.070961 0.221883
O O8 0.400445 0.390164 0.962118
O O9 0.685125 0.431574 0.715750
O O10 0.413597 0.839112 0.305358
O O11 0.088021 0.739244 0.418250
O O12 0.313253 0.934011 0.775695
O O13 0.125605 0.048450 0.649085
O O14 0.995380 0.776044 0.905134
O O15 0.294935 0.130281 0.911060
O O16 0.000000 0.000000 0.000000
O O17 0.000000 0.000000 0.500000
#
# Coordination Sequence:
#
# PCOD9029008 Si02
#       8
#     2   2   2   2   2   2   2   2
#     4  12  22  43  67  99 134 175 221 272 337 391
#     4  10  24  43  69  95 131 175 230 269 331 387
#     4  11  23  43  70  99 127 174 228 283 316 388
#     4  11  25  42  71  96 136 177 220 275 329 396
#     4  11  23  42  69  95 137 177 219 272 331 396
#     4  10  23  40  63  99 128 168 219 276 324 388
#     4  10  22  42  66 100 128 175 225 272 325 390
#     4  11  24  45  62  99 137 176 215 269 338 393
#
# _framework density 23.668465999999999
#
# number of rings (size 3 to 8) (size 9 to 14) (size 15 to 20)
#    0.000    1.250    3.750    1.500    1.750    2.500 
#    4.500    0.625    0.000    0.000    0.000    0.000 
#    0.000    0.000    0.000    0.000    0.000    0.000 
#
# Total GULP energy -89453.958770 kJ/mol
# GULP energy per Si atom -5590.872423 kJ/mol
# Density = 2.361460 g / cm^3
# Si number density = 23.668466 Si / 1000 Ang^3
#
#
#
# Elastic Constant Matrix: (Units=GPa)
#
#
# Indices 1 2 3 4 5 6 
#
# 1 79.8786 19.9417 4.1439 -10.0829 11.3331 -17.6944
# 2 19.9417 86.2794 4.3878 14.2449 3.5195 -10.1117
# 3 4.1439 4.3878 61.6834 10.4916 11.7839 -15.7233
# 4 -10.0829 14.2449 10.4916 34.1680 -7.8774 -2.4043
# 5 11.3331 3.5195 11.7839 -7.8774 21.0344 -1.5671
# 6 -17.6944 -10.1117 -15.7233 -2.4043 -1.5671 40.4570
#
#
#
# Elastic Compliance Matrix: (Units=1/GPa)
#
#
# Indices 1 2 3 4 5 6 
#
# 1 0.016423 -0.003597 0.001337 0.004882 -0.006658 0.006835
# 2 -0.003597 0.014160 0.002111 -0.008539 -0.004655 0.002099
# 3 0.001337 0.002111 0.023545 -0.011190 -0.017790 0.008908
# 4 0.004882 -0.008539 -0.011190 0.042448 0.020889 -0.001016
# 5 -0.006658 -0.004655 -0.017790 0.020889 0.069170 -0.007069
# 6 0.006835 0.002099 0.008908 -0.001016 -0.007069 0.031360
#
#
# Mechanical properties :
#
#
# Convention : Reuss Voigt Hill
#
# Bulk Modulus (GPa) = 18.57769 31.64316 25.11042
# Shear Modulus (GPa) = 23.21844 32.42308 27.82076
#
# Velocity S-wave (km/s) = 3.13547 3.70521 3.43218
# Velocity P-wave (km/s) = 4.57978 5.63055 5.13213
#
# Compressibility (1/GPa) = 0.05382800
#
# Stress axis : x y z
#
# Youngs Moduli (GPa) = 60.89191 70.62221 42.47256
#
# Poissons Ratio (x) = 0.25403 -0.05677
# Poissons Ratio (y) = 0.21903 -0.08966
# Poissons Ratio (z) = -0.08138 -0.14908
#
# Static dielectric constant tensor:
#      x y z
#    x 1.995050 -0.016800 0.018170 
#    y -0.016800 1.898020 -0.005670 
#    z 0.018170 -0.005670 1.919630 
# 
# From -- ./inp_files/258854.got.cif
#   From: 2010.05.17/outbox.cif.g08.bks.cpg/sg2_130_cif.got.tgz:258854.got - 2010.06.03 11:33:40.
