data_PCOD9029286
_publ_section_title
;
Structure prediction by ZEFSAII (Michael W. Deem and Ramdas Pophale) SiO2 
 PCOD9029286
Probable space group: P -1
;
_chemical_formula_sum "Si O2"
_cell_formula_units_Z 16
_cell_length_a 14.637488
_cell_length_b 11.783301
_cell_length_c 8.743924
_cell_angle_alpha 119.499639
_cell_angle_beta 112.208649
_cell_angle_gamma 118.223926
_cell_volume 699.227080
_symmetry_space_group_name_H-M "P -1"
_symmetry_group_IT_number 2
_symmetry_cell_setting 'triclinic'
loop_
_space_group_symop_operation_xyz
x,y,z
-x,-y,-z
loop_
_atom_site_type_symbol
_atom_site_label
_atom_site_fract_x
_atom_site_fract_y
_atom_site_fract_z
Si Si1 0.992919 0.069645 0.199589
Si Si2 0.906848 0.525876 0.890285
Si Si3 0.667514 0.795417 0.981453
Si Si4 0.281100 0.895531 0.926911
Si Si5 0.466948 0.375224 0.743641
Si Si6 0.129424 0.999310 0.437178
Si Si7 0.102921 0.458044 0.463431
Si Si8 0.535458 0.170338 0.542577
O O1 0.123247 0.330103 0.434782
O O2 0.796403 0.897270 0.993808
O O3 0.049234 0.048335 0.368185
O O4 0.000000 0.000000 0.000000
O O5 0.939213 0.571214 0.760829
O O6 0.705043 0.318288 0.652925
O O7 0.000000 0.500000 0.000000
O O8 0.987867 0.736503 0.165534
O O9 0.628158 0.905303 0.999177
O O10 0.778156 0.906847 0.280511
O O11 0.520227 0.529235 0.741312
O O12 0.267068 0.725788 0.776412
O O13 0.075755 0.702452 0.667824
O O14 0.375659 0.019801 0.228498
O O15 0.559097 0.333860 0.756459
O O16 0.269092 0.124916 0.475408
O O17 0.500000 0.500000 0.000000
O O18 0.500000 0.000000 0.500000
#
# Coordination Sequence:
#
# PCOD9029286 Si02
#       8
#     2   2   2   2   2   2   2   2
#     4  11  22  38  65 101 139 178 231 284 338 420
#     4  12  24  42  71  98 138 182 236 290 357 424
#     4  10  23  42  67  98 137 180 233 286 357 411
#     4  10  23  43  68  98 138 180 234 290 351 423
#     4  10  24  44  69 100 140 182 236 294 355 416
#     4  11  22  42  68  97 135 181 234 287 344 422
#     4  10  22  42  66  99 137 184 231 286 348 414
#     4  12  27  44  69 102 140 185 236 295 359 425
#
# _framework density 22.882408000000002
#
# number of rings (size 3 to 8) (size 9 to 14) (size 15 to 20)
#    0.000    1.250    1.250    4.125    1.750    8.000 
#    0.000    0.000    0.000    0.000    0.000    0.000 
#    0.000    0.000    0.000    0.000    0.000    0.000 
#
# Total GULP energy -89326.733416 kJ/mol
# GULP energy per Si atom -5582.920839 kJ/mol
# Density = 2.283033 g / cm^3
# Si number density = 22.882408 Si / 1000 Ang^3
#
#
#
# Elastic Constant Matrix: (Units=GPa)
#
#
# Indices 1 2 3 4 5 6 
#
# 1 72.8620 36.5279 12.2095 17.2999 -17.2624 -16.1331
# 2 36.5279 140.7679 29.8295 20.1545 -19.2745 -35.8924
# 3 12.2095 29.8295 70.9811 1.4026 -19.2034 -13.3947
# 4 17.2999 20.1545 1.4026 38.4091 2.9305 1.5064
# 5 -17.2624 -19.2745 -19.2034 2.9305 28.2836 11.5167
# 6 -16.1331 -35.8924 -13.3947 1.5064 11.5167 49.6947
#
#
#
# Elastic Compliance Matrix: (Units=1/GPa)
#
#
# Indices 1 2 3 4 5 6 
#
# 1 0.019988 -0.001755 0.001177 -0.009123 0.011461 0.003159
# 2 -0.001755 0.010700 -0.002188 -0.005196 0.002799 0.006077
# 3 0.001177 -0.002188 0.018043 -0.000933 0.011119 0.001116
# 4 -0.009123 -0.005196 -0.000933 0.033961 -0.011048 -0.005435
# 5 0.011461 0.002799 0.011119 -0.011048 0.054391 -0.003531
# 6 0.003159 0.006077 0.001116 -0.005435 -0.003531 0.026822
#
#
# Mechanical properties :
#
#
# Convention : Reuss Voigt Hill
#
# Bulk Modulus (GPa) = 23.14937 49.08277 36.11607
# Shear Modulus (GPa) = 27.19805 37.01374 32.10590
#
# Velocity S-wave (km/s) = 3.45135 4.02626 3.74984
# Velocity P-wave (km/s) = 5.10108 6.56589 5.87928
#
# Compressibility (1/GPa) = 0.04319772
#
# Stress axis : x y z
#
# Youngs Moduli (GPa) = 50.02917 93.46107 55.42402
#
# Poissons Ratio (x) = 0.16403 -0.06521
# Poissons Ratio (y) = 0.08780 0.12127
# Poissons Ratio (z) = -0.05886 0.20449
#
# Static dielectric constant tensor:
#      x y z
#    x 2.003070 -0.021570 -0.020090 
#    y -0.021570 1.859210 0.036500 
#    z -0.020090 0.036500 1.866380 
# 
# From -- ./inp_files/308356.got.cif
#   From: 2010.05.17/outbox.cif.g08.bks.cpg/sg2_155_cif.got.tgz:308356.got - 2010.06.03 11:33:40.
