data_PCOD9029414
_publ_section_title
;
Structure prediction by ZEFSAII (Michael W. Deem and Ramdas Pophale) SiO2 
 PCOD9029414
Probable space group: P -1
;
_chemical_formula_sum "Si O2"
_cell_formula_units_Z 16
_cell_length_a 14.459666
_cell_length_b 6.661076
_cell_length_c 13.258419
_cell_angle_alpha 96.200138
_cell_angle_beta 31.041044
_cell_angle_gamma 106.671729
_cell_volume 605.769673
_symmetry_space_group_name_H-M "P -1"
_symmetry_group_IT_number 2
_symmetry_cell_setting 'triclinic'
loop_
_space_group_symop_operation_xyz
x,y,z
-x,-y,-z
loop_
_atom_site_type_symbol
_atom_site_label
_atom_site_fract_x
_atom_site_fract_y
_atom_site_fract_z
Si Si1 0.808484 0.672465 0.387343
Si Si2 0.936124 0.536213 0.949320
Si Si3 0.172808 0.083165 0.139260
Si Si4 0.779494 0.012149 0.301649
Si Si5 0.796990 0.515616 0.753538
Si Si6 0.815629 0.068583 0.677678
Si Si7 0.592834 0.671607 0.771596
Si Si8 0.621363 0.061664 0.231863
O O1 0.903689 0.499731 0.273184
O O2 0.626122 0.596992 0.626437
O O3 0.781458 0.774970 0.312074
O O4 0.977597 0.874097 0.293371
O O5 0.003343 0.797868 0.883466
O O6 0.000000 0.500000 0.000000
O O7 0.735134 0.323065 0.110877
O O8 0.105811 0.275874 0.251842
O O9 0.283800 0.039070 0.130482
O O10 0.312223 0.081758 0.916913
O O11 0.705340 0.033308 0.261056
O O12 0.608609 0.012242 0.538132
O O13 0.871391 0.323920 0.646370
O O14 0.710830 0.580683 0.735887
O O15 0.615782 0.400249 0.991018
O O16 0.680081 0.934482 0.708669
O O17 0.000000 0.000000 0.500000
#
# Coordination Sequence:
#
# PCOD9029414 Si02
#       8
#     2   2   2   2   2   2   2   2
#     4  11  23  41  63  98 128 168 227 270 322 402
#     4   9  21  41  63  92 131 170 217 264 327 393
#     4  10  23  40  60  96 128 167 219 267 325 397
#     4  10  22  42  67  93 133 179 211 279 333 376
#     4  10  24  42  68  91 131 175 209 274 336 390
#     4  11  22  43  64  92 130 167 216 271 325 395
#     4  10  23  43  62  99 127 167 222 266 330 398
#     4   9  21  43  65  96 135 170 225 270 324 408
#
# _framework density 26.412680999999999
#
# number of rings (size 3 to 8) (size 9 to 14) (size 15 to 20)
#    0.000    2.000    1.250    0.375    3.500    9.500 
#    0.000    6.875    0.000    0.000    0.000    0.000 
#    0.000    0.000    0.000    0.000    0.000    0.000 
#
# Total GULP energy -89340.665879 kJ/mol
# GULP energy per Si atom -5583.791617 kJ/mol
# Density = 2.635256 g / cm^3
# Si number density = 26.412681 Si / 1000 Ang^3
#
#
#
# Elastic Constant Matrix: (Units=GPa)
#
#
# Indices 1 2 3 4 5 6 
#
# 1 42.8573 9.5535 12.5518 4.0785 19.2822 -9.5213
# 2 9.5535 114.6058 52.5728 5.3248 -1.5740 -4.3281
# 3 12.5518 52.5728 108.1831 -4.9661 22.1063 -0.4556
# 4 4.0785 5.3248 -4.9661 52.2651 3.7694 -0.9559
# 5 19.2822 -1.5740 22.1063 3.7694 38.0787 -0.8877
# 6 -9.5213 -4.3281 -0.4556 -0.9559 -0.8877 27.5139
#
#
#
# Elastic Compliance Matrix: (Units=1/GPa)
#
#
# Indices 1 2 3 4 5 6 
#
# 1 0.034168 -0.003235 0.001266 -0.000733 -0.017848 0.010735
# 2 -0.003235 0.012482 -0.007118 -0.002150 0.006519 0.000862
# 3 0.001266 -0.007118 0.014666 0.002710 -0.009733 -0.000658
# 4 -0.000733 -0.002150 0.002710 0.019903 -0.003260 0.000039
# 5 -0.017848 0.006519 -0.009733 -0.003260 0.041447 -0.004088
# 6 0.010735 0.000862 -0.000658 0.000039 -0.004088 0.040054
#
#
# Mechanical properties :
#
#
# Convention : Reuss Voigt Hill
#
# Bulk Modulus (GPa) = 23.17807 46.11139 34.64473
# Shear Modulus (GPa) = 25.60497 36.30275 30.95386
#
# Velocity S-wave (km/s) = 3.11693 3.71137 3.42706
# Velocity P-wave (km/s) = 4.66348 5.98846 5.36702
#
# Compressibility (1/GPa) = 0.04314424
#
# Stress axis : x y z
#
# Youngs Moduli (GPa) = 29.26688 80.11333 68.18411
#
# Poissons Ratio (x) = 0.25915 -0.08634
# Poissons Ratio (y) = 0.09467 0.48532
# Poissons Ratio (z) = -0.03706 0.57023
#
# Static dielectric constant tensor:
#      x y z
#    x 2.115060 0.000810 0.017610 
#    y 0.000810 2.185320 -0.049300 
#    z 0.017610 -0.049300 2.136690 
# 
# From -- ./inp_files/342488.got.cif
#   From: 2010.05.17/outbox.cif.g08.bks.cpg/sg2_172_cif.got.tgz:342488.got - 2010.06.03 11:33:40.
