data_PCOD9029817
_publ_section_title
;
Structure prediction by ZEFSAII (Michael W. Deem and Ramdas Pophale) SiO2 
 PCOD9029817
Probable space group: P -1
;
_chemical_formula_sum "Si O2"
_cell_formula_units_Z 15
_cell_length_a 18.950246
_cell_length_b 8.599009
_cell_length_c 5.645667
_cell_angle_alpha 55.986598
_cell_angle_beta 115.339144
_cell_angle_gamma 130.757579
_cell_volume 574.742262
_symmetry_space_group_name_H-M "P -1"
_symmetry_group_IT_number 2
_symmetry_cell_setting 'triclinic'
loop_
_space_group_symop_operation_xyz
x,y,z
-x,-y,-z
loop_
_atom_site_type_symbol
_atom_site_label
_atom_site_fract_x
_atom_site_fract_y
_atom_site_fract_z
Si Si1 0.297037 0.447956 0.409023
Si Si2 0.533454 0.241711 0.950840
Si Si3 0.203144 0.790068 0.655814
Si Si4 0.654251 0.853760 0.069829
Si Si5 0.038912 0.198377 0.583861
Si Si6 0.000000 0.500000 0.500000
Si Si7 0.661637 0.203929 0.483892
Si Si8 0.148116 0.095421 0.144359
O O1 0.319381 0.327569 0.750782
O O2 0.290260 0.639522 0.355267
O O3 0.204766 0.271272 0.283105
O O4 0.384343 0.562926 0.255681
O O5 0.577083 0.226377 0.272610
O O6 0.443199 0.250984 0.839854
O O7 0.500000 0.000000 0.000000
O O8 0.096523 0.590299 0.712327
O O9 0.268586 0.719541 0.699664
O O10 0.259437 0.951934 0.816937
O O11 0.193778 0.951004 0.313320
O O12 0.635358 0.958126 0.727214
O O13 0.048956 0.436619 0.391781
O O14 0.956602 0.099736 0.752716
O O15 0.000000 0.000000 0.500000
O O16 0.128934 0.208487 0.805444
#
# Coordination Sequence:
#
# PCOD9029817 Si02
#       8
#     2   2   2   2   2   1   2   2
#     4  11  26  43  72 101 139 188 233 291 356 425
#     4  12  24  45  69 100 144 185 228 297 354 420
#     4  10  23  45  67  96 140 183 224 298 354 418
#     4  11  25  47  69  99 145 180 237 290 355 424
#     4  10  22  42  68  95 136 181 232 297 355 421
#     4  10  24  42  70 102 138 184 238 290 360 430
#     4  12  25  42  71 105 134 186 237 291 354 428
#     4   9  23  44  61  97 134 173 235 289 342 429
#
# _framework density 26.098655000000001
#
# number of rings (size 3 to 8) (size 9 to 14) (size 15 to 20)
#    0.000    1.333    2.667    0.800    5.600    5.867 
#    0.000    2.667    0.000    0.000    0.000    0.000 
#    0.000    0.000    0.000    0.000    0.000    0.000 
#
# Total GULP energy -83587.545496 kJ/mol
# GULP energy per Si atom -5572.503033 kJ/mol
# Density = 2.603925 g / cm^3
# Si number density = 26.098655 Si / 1000 Ang^3
#
#
#
# Elastic Constant Matrix: (Units=GPa)
#
#
# Indices 1 2 3 4 5 6 
#
# 1 93.4981 4.4083 7.1937 3.6353 25.6089 2.6141
# 2 4.4083 68.6953 29.5924 20.7298 11.2072 6.0847
# 3 7.1937 29.5924 95.8633 -4.4761 28.4499 -2.9998
# 4 3.6353 20.7298 -4.4761 36.8739 2.7691 1.4096
# 5 25.6089 11.2072 28.4499 2.7691 41.4030 -3.9175
# 6 2.6141 6.0847 -2.9998 1.4096 -3.9175 51.4214
#
#
#
# Elastic Compliance Matrix: (Units=1/GPa)
#
#
# Indices 1 2 3 4 5 6 
#
# 1 0.013207 0.000227 0.001692 -0.000462 -0.009486 -0.001310
# 2 0.000227 0.022001 -0.007391 -0.013154 -0.000394 -0.002715
# 3 0.001692 -0.007391 0.016016 0.006687 -0.010428 0.000745
# 4 -0.000462 -0.013154 0.006687 0.035572 -0.003056 0.000762
# 5 -0.009486 -0.000394 -0.010428 -0.003056 0.037769 0.002882
# 6 -0.001310 -0.002715 0.000745 0.000762 0.002882 0.020077
#
#
# Mechanical properties :
#
#
# Convention : Reuss Voigt Hill
#
# Bulk Modulus (GPa) = 24.82664 37.82727 31.32696
# Shear Modulus (GPa) = 29.58330 40.39715 34.99022
#
# Velocity S-wave (km/s) = 3.37043 3.93856 3.66552
# Velocity P-wave (km/s) = 4.96786 5.93367 5.47211
#
# Compressibility (1/GPa) = 0.04027931
#
# Stress axis : x y z
#
# Youngs Moduli (GPa) = 75.71587 45.45331 62.43611
#
# Poissons Ratio (x) = -0.01030 -0.10561
# Poissons Ratio (y) = -0.01716 0.46144
# Poissons Ratio (z) = -0.12808 0.33593
#
# Static dielectric constant tensor:
#      x y z
#    x 2.087730 0.002290 -0.021940 
#    y 0.002290 1.807480 0.152610 
#    z -0.021940 0.152610 1.984720 
# 
# From -- ./inp_files/115945.got.cif
#   From: 2010.05.17/outbox.cif.g08.bks.cpg/sg2_58_cif.got.tgz:115945.got - 2010.06.03 11:33:40.
