data_PCOD9029093
_publ_section_title
;
Structure prediction by ZEFSAII (Michael W. Deem and Ramdas Pophale) SiO2 
 PCOD9029093
Probable space group: P -1
;
_chemical_formula_sum "Si O2"
_cell_formula_units_Z 12
_cell_length_a 8.973321
_cell_length_b 10.777833
_cell_length_c 5.189148
_cell_angle_alpha 63.138959
_cell_angle_beta 71.942634
_cell_angle_gamma 73.393648
_cell_volume 419.327538
_symmetry_space_group_name_H-M "P -1"
_symmetry_group_IT_number 2
_symmetry_cell_setting 'triclinic'
loop_
_space_group_symop_operation_xyz
x,y,z
-x,-y,-z
loop_
_atom_site_type_symbol
_atom_site_label
_atom_site_fract_x
_atom_site_fract_y
_atom_site_fract_z
Si Si1 0.739457 0.521622 0.224842
Si Si2 0.701068 0.784882 0.377495
Si Si3 0.542295 0.305384 0.011647
Si Si4 0.970829 0.693507 0.683396
Si Si5 0.146171 0.835754 0.841466
Si Si6 0.722124 0.066013 0.831511
O O1 0.721516 0.640247 0.343643
O O2 0.848671 0.380976 0.408625
O O3 0.563960 0.550125 0.164529
O O4 0.860965 0.576171 0.907731
O O5 0.565978 0.775413 0.672149
O O6 0.866692 0.783433 0.441413
O O7 0.668632 0.923525 0.088169
O O8 0.710445 0.299647 0.070437
O O9 0.590095 0.203569 0.835240
O O10 0.997504 0.782984 0.839542
O O11 0.213512 0.927684 0.496086
O O12 0.146638 0.907553 0.050698
#
# Coordination Sequence:
#
# PCOD9029093 Si02
#       6
#     2   2   2   2   2   2
#     4  10  22  42  66  91 125 171 217 259 316 372
#     4  11  22  39  67  93 127 169 212 264 311 384
#     4   9  22  40  63  99 123 168 210 263 318 373
#     4  10  24  42  62  92 129 170 215 262 311 383
#     4  10  24  43  63  98 128 170 205 264 322 373
#     4  10  24  41  67  96 131 163 212 259 325 375
#
# _framework density 28.617249999999999
#
# number of rings (size 3 to 8) (size 9 to 14) (size 15 to 20)
#    1.000    1.000    0.000    2.000    7.000    3.333 
#    0.000    1.667    0.000    0.000    0.000    0.000 
#    0.000    0.000    0.000    0.000    0.000    0.000 
#
# Total GULP energy -67212.578534 kJ/mol
# GULP energy per Si atom -5601.048211 kJ/mol
# Density = 2.855212 g / cm^3
# Si number density = 28.617250 Si / 1000 Ang^3
#
#
#
# Elastic Constant Matrix: (Units=GPa)
#
#
# Indices 1 2 3 4 5 6 
#
# 1 156.7925 12.5383 24.9879 -6.7111 43.3052 -15.0336
# 2 12.5383 68.6042 8.4347 -2.8494 10.8517 -16.9687
# 3 24.9879 8.4347 152.6058 -14.2476 -7.0468 1.8871
# 4 -6.7111 -2.8494 -14.2476 37.1731 11.7408 6.8170
# 5 43.3052 10.8517 -7.0468 11.7408 53.7742 0.2926
# 6 -15.0336 -16.9687 1.8871 6.8170 0.2926 48.5441
#
#
#
# Elastic Compliance Matrix: (Units=1/GPa)
#
#
# Indices 1 2 3 4 5 6 
#
# 1 0.009401 0.000696 -0.001703 0.003323 -0.008675 0.002806
# 2 0.000696 0.016832 -0.001206 0.001250 -0.004420 0.005997
# 3 -0.001703 -0.001206 0.007199 0.001962 0.002138 -0.001517
# 4 0.003323 0.001250 0.001962 0.031948 -0.009630 -0.003039
# 5 -0.008675 -0.004420 0.002138 -0.009630 0.028874 -0.003136
# 6 0.002806 0.005997 -0.001517 -0.003039 -0.003136 0.024070
#
#
# Mechanical properties :
#
#
# Convention : Reuss Voigt Hill
#
# Bulk Modulus (GPa) = 34.47584 52.21380 43.34482
# Shear Modulus (GPa) = 37.75910 50.03439 43.89674
#
# Velocity S-wave (km/s) = 3.63637 4.18592 3.92079
# Velocity P-wave (km/s) = 5.45016 6.45351 5.97294
#
# Compressibility (1/GPa) = 0.02900582
#
# Stress axis : x y z
#
# Youngs Moduli (GPa) = 106.37261 59.41088 138.90855
#
# Poissons Ratio (x) = -0.04132 0.23653
# Poissons Ratio (y) = -0.07399 0.16749
# Poissons Ratio (z) = 0.18113 0.07164
#
# Static dielectric constant tensor:
#      x y z
#    x 2.268730 -0.035180 0.000850 
#    y -0.035180 2.213000 0.006950 
#    z 0.000850 0.006950 2.203050 
# 
# From -- ./inp_files/21397.got.cif
#   From: 2010.05.17/outbox.cif.g08.bks.cpg/sg2_11_cif.got.tgz:21397.got - 2010.06.03 11:33:40.
