data_PCOD9029568
_publ_section_title
;
Structure prediction by ZEFSAII (Michael W. Deem and Ramdas Pophale) SiO2 
 PCOD9029568
Probable space group: P -1
;
_chemical_formula_sum "Si O2"
_cell_formula_units_Z 14
_cell_length_a 10.046593
_cell_length_b 24.625738
_cell_length_c 7.513151
_cell_angle_alpha 37.582635
_cell_angle_beta 63.060879
_cell_angle_gamma 35.560460
_cell_volume 554.797291
_symmetry_space_group_name_H-M "P -1"
_symmetry_group_IT_number 2
_symmetry_cell_setting 'triclinic'
loop_
_space_group_symop_operation_xyz
x,y,z
-x,-y,-z
loop_
_atom_site_type_symbol
_atom_site_label
_atom_site_fract_x
_atom_site_fract_y
_atom_site_fract_z
Si Si1 0.273158 0.543346 0.083633
Si Si2 0.956171 0.059598 0.173968
Si Si3 0.644158 0.844926 0.722059
Si Si4 0.174841 0.315070 0.612540
Si Si5 0.743806 0.920673 0.948654
Si Si6 0.527254 0.281017 0.343302
Si Si7 0.601385 0.613027 0.243278
O O1 0.367086 0.412836 0.248744
O O2 0.318874 0.506250 0.362777
O O3 0.500000 0.500000 0.000000
O O4 0.948472 0.718629 0.796606
O O5 0.059050 0.111038 0.983505
O O6 0.156196 0.900411 0.346365
O O7 0.000000 0.000000 0.500000
O O8 0.634719 0.221880 0.930772
O O9 0.500000 0.000000 0.500000
O O10 0.419528 0.938602 0.464393
O O11 0.693816 0.753951 0.092315
O O12 0.371091 0.264027 0.484384
O O13 0.895150 0.509128 0.297366
O O14 0.117873 0.239746 0.790064
O O15 0.500000 0.000000 0.000000
O O16 0.506904 0.343400 0.005889
#
# Coordination Sequence:
#
# PCOD9029568 Si02
#       7
#     2   2   2   2   2   2   2
#     4  11  27  44  68  98 131 178 219 276 340 390
#     4  10  24  42  65 100 134 174 220 276 333 388
#     4   9  23  43  66  96 132 168 224 275 323 400
#     4  10  22  42  67  98 128 176 221 272 335 391
#     4  11  22  39  70  95 128 176 223 265 328 397
#     4  11  24  43  67  97 133 178 223 270 333 403
#     4  10  25  44  66  99 139 169 222 280 333 393
#
# _framework density 25.234444
#
# number of rings (size 3 to 8) (size 9 to 14) (size 15 to 20)
#    0.000    1.714    1.429    0.429    4.000   15.429 
#    0.000    0.000    0.000    0.000    0.000    0.000 
#    0.000    0.000    0.000    0.000    0.000    0.000 
#
# Total GULP energy -78127.791349 kJ/mol
# GULP energy per Si atom -5580.556525 kJ/mol
# Density = 2.517701 g / cm^3
# Si number density = 25.234444 Si / 1000 Ang^3
#
#
#
# Elastic Constant Matrix: (Units=GPa)
#
#
# Indices 1 2 3 4 5 6 
#
# 1 80.7527 22.9099 30.9184 -11.3157 -16.1586 0.9459
# 2 22.9099 172.0915 39.7201 -43.2036 -6.5164 3.3496
# 3 30.9184 39.7201 77.7149 -18.4890 12.8990 -2.0510
# 4 -11.3157 -43.2036 -18.4890 64.6373 -5.5745 2.5682
# 5 -16.1586 -6.5164 12.8990 -5.5745 37.2168 3.7144
# 6 0.9459 3.3496 -2.0510 2.5682 3.7144 26.3142
#
#
#
# Elastic Compliance Matrix: (Units=1/GPa)
#
#
# Indices 1 2 3 4 5 6 
#
# 1 0.018505 0.000782 -0.009316 0.002275 0.012082 -0.003418
# 2 0.000782 0.008046 -0.004023 0.004814 0.004105 -0.002415
# 3 -0.009316 -0.004023 0.020890 0.000425 -0.012343 0.004176
# 4 0.002275 0.004814 0.000425 0.019768 0.004973 -0.003293
# 5 0.012082 0.004105 -0.012343 0.004973 0.038641 -0.007859
# 6 -0.003418 -0.002415 0.004176 -0.003293 -0.007859 0.040189
#
#
# Mechanical properties :
#
#
# Convention : Reuss Voigt Hill
#
# Bulk Modulus (GPa) = 44.78935 57.51730 51.15333
# Shear Modulus (GPa) = 27.99597 41.43440 34.71519
#
# Velocity S-wave (km/s) = 3.33443 4.05653 3.71308
# Velocity P-wave (km/s) = 5.71073 6.69203 6.22076
#
# Compressibility (1/GPa) = 0.02232674
#
# Stress axis : x y z
#
# Youngs Moduli (GPa) = 54.03927 124.27815 47.86948
#
# Poissons Ratio (x) = -0.09718 0.44595
# Poissons Ratio (y) = -0.04226 0.19260
# Poissons Ratio (z) = 0.50343 0.50002
#
# Static dielectric constant tensor:
#      x y z
#    x 2.186870 0.051030 -0.063530 
#    y 0.051030 2.035720 -0.029470 
#    z -0.063530 -0.029470 2.084670 
# 
# From -- ./inp_files/286093.got.cif
#   From: 2010.05.17/outbox.cif.g08.bks.cpg/sg2_144_cif.got.tgz:286093.got - 2010.06.03 11:33:40.
