data_PCOD9029888
_publ_section_title
;
Structure prediction by ZEFSAII (Michael W. Deem and Ramdas Pophale) SiO2 
 PCOD9029888
Probable space group: P -1
;
_chemical_formula_sum "Si O2"
_cell_formula_units_Z 16
_cell_length_a 8.908506
_cell_length_b 16.194898
_cell_length_c 11.759979
_cell_angle_alpha 146.779853
_cell_angle_beta 134.756231
_cell_angle_gamma 40.228631
_cell_volume 589.977215
_symmetry_space_group_name_H-M "P -1"
_symmetry_group_IT_number 2
_symmetry_cell_setting 'triclinic'
loop_
_space_group_symop_operation_xyz
x,y,z
-x,-y,-z
loop_
_atom_site_type_symbol
_atom_site_label
_atom_site_fract_x
_atom_site_fract_y
_atom_site_fract_z
Si Si1 0.497447 0.708503 0.429310
Si Si2 0.634301 0.299639 0.905987
Si Si3 0.422700 0.696188 0.873282
Si Si4 0.702701 0.893726 0.237795
Si Si5 0.111403 0.305817 0.112626
Si Si6 0.960797 0.665895 0.543741
Si Si7 0.127875 0.094582 0.418778
Si Si8 0.577511 0.271750 0.343024
O O1 0.467048 0.647321 0.215552
O O2 0.777034 0.655624 0.522082
O O3 0.433639 0.647900 0.444821
O O4 0.353335 0.912480 0.589050
O O5 0.707873 0.101669 0.723635
O O6 0.489983 0.369831 0.027451
O O7 0.886957 0.302181 0.046089
O O8 0.498960 0.633056 0.710550
O O9 0.158678 0.712944 0.752658
O O10 0.471268 0.861124 0.079392
O O11 0.828780 0.839933 0.363523
O O12 0.877771 0.767373 0.091939
O O13 0.384795 0.200067 0.174211
O O14 0.070101 0.496719 0.331832
O O15 0.815256 0.812614 0.546321
O O16 0.849974 0.140631 0.318560
#
# Coordination Sequence:
#
# PCOD9029888 Si02
#       8
#     2   2   2   2   2   2   2   2
#     4  11  23  42  69  99 133 174 223 275 331 397
#     4  11  23  42  69  99 133 174 223 275 331 397
#     4  10  23  39  62  93 132 172 216 267 327 388
#     4  10  22  42  68  98 132 174 224 276 330 396
#     4  11  25  42  64  98 137 175 220 275 333 394
#     4  11  25  42  64  98 137 175 220 275 333 394
#     4  10  22  42  68  98 132 174 224 276 330 396
#     4  10  23  39  62  93 132 172 216 267 327 388
#
# _framework density 27.119689999999999
#
# number of rings (size 3 to 8) (size 9 to 14) (size 15 to 20)
#    0.000    1.500    0.000    3.750    0.000   22.500 
#    0.000    2.500    0.000    0.000    0.000    0.000 
#    0.000    0.000    0.000    0.000    0.000    0.000 
#
# Total GULP energy -89445.481375 kJ/mol
# GULP energy per Si atom -5590.342586 kJ/mol
# Density = 2.705796 g / cm^3
# Si number density = 27.119690 Si / 1000 Ang^3
#
#
#
# Elastic Constant Matrix: (Units=GPa)
#
#
# Indices 1 2 3 4 5 6 
#
# 1 165.4489 51.9607 52.5113 -18.9882 -37.7801 17.2954
# 2 51.9607 88.9626 36.6329 -6.4431 -10.3542 29.7068
# 3 52.5113 36.6329 128.9346 -17.7878 -14.7284 28.6924
# 4 -18.9882 -6.4431 -17.7878 32.3660 -2.3514 -4.7077
# 5 -37.7801 -10.3542 -14.7284 -2.3514 49.2112 -23.9861
# 6 17.2954 29.7068 28.6924 -4.7077 -23.9861 55.3804
#
#
#
# Elastic Compliance Matrix: (Units=1/GPa)
#
#
# Indices 1 2 3 4 5 6 
#
# 1 0.010647 -0.005636 -0.002105 0.005391 0.009156 0.005213
# 2 -0.005636 0.017512 -0.001565 -0.002506 -0.005907 -0.009594
# 3 -0.002105 -0.001565 0.010328 0.003541 -0.000529 -0.003781
# 4 0.005391 -0.002506 0.003541 0.036832 0.008743 0.004744
# 5 0.009156 -0.005907 -0.000529 0.008743 0.034242 0.016157
# 6 0.005213 -0.009594 -0.003781 0.004744 0.016157 0.030935
#
#
# Mechanical properties :
#
#
# Convention : Reuss Voigt Hill
#
# Bulk Modulus (GPa) = 50.32085 73.95066 62.13575
# Shear Modulus (GPa) = 30.16886 43.54093 36.85489
#
# Velocity S-wave (km/s) = 3.33893 4.01123 3.69042
# Velocity P-wave (km/s) = 5.78446 6.98432 6.41252
#
# Compressibility (1/GPa) = 0.01987248
#
# Stress axis : x y z
#
# Youngs Moduli (GPa) = 93.92220 57.10369 96.82734
#
# Poissons Ratio (x) = 0.32186 0.20385
# Poissons Ratio (y) = 0.52939 0.15158
# Poissons Ratio (z) = 0.19773 0.08939
#
# Static dielectric constant tensor:
#      x y z
#    x 2.122160 0.038940 -0.010090 
#    y 0.038940 2.130840 -0.009040 
#    z -0.010090 -0.009040 2.177550 
# 
# From -- ./inp_files/403617.got.cif
#   From: 2010.05.17/outbox.cif.g08.bks.cpg/sg2_202_cif.got.tgz:403617.got - 2010.06.03 11:33:40.
