data_PCOD9029583
_publ_section_title
;
Structure prediction by ZEFSAII (Michael W. Deem and Ramdas Pophale) SiO2 
 PCOD9029583
Probable space group: P -1
;
_chemical_formula_sum "Si O2"
_cell_formula_units_Z 16
_cell_length_a 8.371452
_cell_length_b 16.566192
_cell_length_c 9.947724
_cell_angle_alpha 76.504925
_cell_angle_beta 79.294115
_cell_angle_gamma 27.379880
_cell_volume 616.225220
_symmetry_space_group_name_H-M "P -1"
_symmetry_group_IT_number 2
_symmetry_cell_setting 'triclinic'
loop_
_space_group_symop_operation_xyz
x,y,z
-x,-y,-z
loop_
_atom_site_type_symbol
_atom_site_label
_atom_site_fract_x
_atom_site_fract_y
_atom_site_fract_z
Si Si1 0.487763 0.208404 0.430273
Si Si2 0.902788 0.701895 0.791687
Si Si3 0.071321 0.923160 0.243609
Si Si4 0.508768 0.380829 0.351798
Si Si5 0.293316 0.050735 0.391539
Si Si6 0.502800 0.218679 0.992223
Si Si7 0.614085 0.351915 0.030056
Si Si8 0.733376 0.340080 0.754955
O O1 0.241821 0.283627 0.320293
O O2 0.380603 0.349124 0.432348
O O3 0.542938 0.114641 0.572817
O O4 0.862761 0.046719 0.357856
O O5 0.710949 0.878111 0.752379
O O6 0.817086 0.693121 0.946213
O O7 0.314027 0.525115 0.774301
O O8 0.169777 0.782750 0.299270
O O9 0.390354 0.829047 0.162221
O O10 0.798596 0.052475 0.112421
O O11 0.605770 0.331595 0.196326
O O12 0.240080 0.578465 0.335096
O O13 0.883413 0.229685 0.415406
O O14 0.500000 0.000000 0.500000
O O15 0.474201 0.327762 0.998226
O O16 0.500000 0.500000 0.000000
O O17 0.903679 0.241997 0.911807
#
# Coordination Sequence:
#
# PCOD9029583 Si02
#       8
#     2   2   2   2   2   2   2   2
#     4  10  18  33  55  77 100 136 176 216 249 293
#     4   9  17  32  50  77 106 132 172 209 249 300
#     4   9  17  29  49  78 105 132 172 207 249 304
#     4  10  17  32  50  77 102 130 175 216 251 298
#     4   9  19  32  53  78  98 131 177 221 252 292
#     4   9  16  30  50  75 103 138 170 205 245 309
#     4   9  16  27  46  77 104 128 160 209 250 292
#     4   9  19  30  50  79 108 136 167 205 255 307
#
# _framework density 25.964531999999998
#
# number of rings (size 3 to 8) (size 9 to 14) (size 15 to 20)
#    0.000    2.750    2.500    0.375    0.000    2.000 
#    0.000    2.500    0.000   10.500    3.250   14.000 
#    0.000    0.000    0.000    0.000    0.000    0.000 
#
# Total GULP energy -89115.856111 kJ/mol
# GULP energy per Si atom -5569.741007 kJ/mol
# Density = 2.590544 g / cm^3
# Si number density = 25.964532 Si / 1000 Ang^3
#
#
#
# Elastic Constant Matrix: (Units=GPa)
#
#
# Indices 1 2 3 4 5 6 
#
# 1 111.7460 34.1240 40.8918 -12.3728 -43.5159 22.2853
# 2 34.1240 70.8858 48.5976 -6.2446 -32.7751 8.9791
# 3 40.8918 48.5976 95.1211 -9.9030 -23.3308 17.1428
# 4 -12.3728 -6.2446 -9.9030 31.9443 24.2633 -15.6317
# 5 -43.5159 -32.7751 -23.3308 24.2633 46.7376 -25.4719
# 6 22.2853 8.9791 17.1428 -15.6317 -25.4719 34.1488
#
#
#
# Elastic Compliance Matrix: (Units=1/GPa)
#
#
# Indices 1 2 3 4 5 6 
#
# 1 0.017092 0.006148 -0.006210 -0.011252 0.025104 0.003921
# 2 0.006148 0.040719 -0.017607 -0.021466 0.047304 0.019578
# 3 -0.006210 -0.017607 0.020572 0.009295 -0.018978 -0.011546
# 4 -0.011252 -0.021466 0.009295 0.067997 -0.058454 -0.004154
# 5 0.025104 0.047304 -0.018978 -0.058454 0.124209 0.046598
# 6 0.003921 0.019578 -0.011546 -0.004154 0.046598 0.060229
#
#
# Mechanical properties :
#
#
# Convention : Reuss Voigt Hill
#
# Bulk Modulus (GPa) = 23.23129 58.33107 40.78118
# Shear Modulus (GPa) = 13.14048 32.84212 22.99130
#
# Velocity S-wave (km/s) = 2.25209 3.56038 2.97894
# Velocity P-wave (km/s) = 3.96602 6.27823 5.25097
#
# Compressibility (1/GPa) = 0.04304539
#
# Stress axis : x y z
#
# Youngs Moduli (GPa) = 58.50838 24.55841 48.61010
#
# Poissons Ratio (x) = -0.15100 0.30185
# Poissons Ratio (y) = -0.35974 0.85590
# Poissons Ratio (z) = 0.36331 0.43241
#
# Static dielectric constant tensor:
#      x y z
#    x 2.122420 -0.068030 -0.005480 
#    y -0.068030 2.163200 -0.019860 
#    z -0.005480 -0.019860 2.189090 
# 
# From -- ./inp_files/506675.got.cif
#   From: 2010.05.17/outbox.cif.g08.bks.cpg/sg2_254_cif.got.tgz:506675.got - 2010.06.03 11:33:40.
