data_PCOD9029365
_publ_section_title
;
Structure prediction by ZEFSAII (Michael W. Deem and Ramdas Pophale) SiO2 
 PCOD9029365
Probable space group: P -1
;
_chemical_formula_sum "Si O2"
_cell_formula_units_Z 16
_cell_length_a 8.166551
_cell_length_b 19.851469
_cell_length_c 7.909301
_cell_angle_alpha 150.506590
_cell_angle_beta 95.498338
_cell_angle_gamma 84.750830
_cell_volume 628.286899
_symmetry_space_group_name_H-M "P -1"
_symmetry_group_IT_number 2
_symmetry_cell_setting 'triclinic'
loop_
_space_group_symop_operation_xyz
x,y,z
-x,-y,-z
loop_
_atom_site_type_symbol
_atom_site_label
_atom_site_fract_x
_atom_site_fract_y
_atom_site_fract_z
Si Si1 0.049759 0.071624 0.830891
Si Si2 0.613359 0.043834 0.456755
Si Si3 0.121545 0.453060 0.262136
Si Si4 0.567492 0.625609 0.396013
Si Si5 0.402684 0.656001 0.808514
Si Si6 0.413888 0.770233 0.400489
Si Si7 0.985539 0.192006 0.546489
Si Si8 0.049873 0.347452 0.547221
O O1 0.247783 0.061655 0.818478
O O2 0.991927 0.965674 0.739666
O O3 0.000000 0.000000 0.500000
O O4 0.995710 0.228110 0.154665
O O5 0.522253 0.093756 0.387360
O O6 0.500000 0.000000 0.500000
O O7 0.679592 0.191076 0.854489
O O8 0.286766 0.527487 0.491781
O O9 0.000000 0.500000 0.500000
O O10 0.064528 0.522288 0.227371
O O11 0.095797 0.291206 0.891343
O O12 0.512793 0.652065 0.641666
O O13 0.491925 0.747112 0.538369
O O14 0.763604 0.612220 0.377472
O O15 0.500000 0.500000 0.000000
O O16 0.463495 0.656759 0.013419
O O17 0.213103 0.776605 0.400606
O O18 0.039048 0.250444 0.498596
#
# Coordination Sequence:
#
# PCOD9029365 Si02
#       8
#     2   2   2   2   2   2   2   2
#     4  11  23  42  64  98 132 165 217 283 331 380
#     4   9  19  40  63  88 124 172 221 259 316 403
#     4  12  21  42  69  95 124 177 225 264 323 401
#     4  12  25  43  62  99 141 169 213 278 334 389
#     4  10  22  42  67  90 129 173 225 262 324 393
#     4   9  22  42  64  91 126 176 220 260 318 397
#     4  11  22  44  66  93 134 172 225 266 325 404
#     4  12  26  40  66 104 132 167 220 281 337 380
#
# _framework density 25.466075
#
# number of rings (size 3 to 8) (size 9 to 14) (size 15 to 20)
#    0.750    0.500    1.250    5.250    0.000    1.500 
#    2.250    6.875    0.000    0.000    0.000    0.000 
#    0.000    0.000    0.000    0.000    0.000    0.000 
#
# Total GULP energy -89249.183051 kJ/mol
# GULP energy per Si atom -5578.073941 kJ/mol
# Density = 2.540811 g / cm^3
# Si number density = 25.466075 Si / 1000 Ang^3
#
#
#
# Elastic Constant Matrix: (Units=GPa)
#
#
# Indices 1 2 3 4 5 6 
#
# 1 37.3204 26.7306 8.4120 -2.3228 6.0731 17.9520
# 2 26.7306 126.4061 -18.6208 -9.8410 13.6245 13.9167
# 3 8.4120 -18.6208 70.3130 22.5176 25.8135 -3.1049
# 4 -2.3228 -9.8410 22.5176 48.9435 -1.2319 -4.3810
# 5 6.0731 13.6245 25.8135 -1.2319 27.0236 -3.8216
# 6 17.9520 13.9167 -3.1049 -4.3810 -3.8216 42.8028
#
#
#
# Elastic Compliance Matrix: (Units=1/GPa)
#
#
# Indices 1 2 3 4 5 6 
#
# 1 0.042478 -0.008858 -0.010307 0.003700 0.002805 -0.015054
# 2 -0.008858 0.013069 0.011444 -0.003591 -0.015904 -0.001491
# 3 -0.010307 0.011444 0.039620 -0.017673 -0.042404 -0.002119
# 4 0.003700 -0.003591 -0.017673 0.028781 0.019601 0.003030
# 5 0.002805 -0.015904 -0.042404 0.019601 0.087308 0.010720
# 6 -0.015054 -0.001491 -0.002119 0.003030 0.010720 0.031275
#
#
# Mechanical properties :
#
#
# Convention : Reuss Voigt Hill
#
# Bulk Modulus (GPa) = 12.54328 29.67586 21.10957
# Shear Modulus (GPa) = 17.57178 38.25517 27.91347
#
# Velocity S-wave (km/s) = 2.62965 3.88003 3.31434
# Velocity P-wave (km/s) = 3.76248 5.63482 4.79101
#
# Compressibility (1/GPa) = 0.07972396
#
# Stress axis : x y z
#
# Youngs Moduli (GPa) = 23.54163 76.51837 25.24002
#
# Poissons Ratio (x) = 0.67779 0.26015
# Poissons Ratio (y) = 0.20853 -0.28884
# Poissons Ratio (z) = 0.24265 -0.87566
#
# Static dielectric constant tensor:
#      x y z
#    x 2.120700 0.028150 -0.044790 
#    y 0.028150 2.139140 -0.056600 
#    z -0.044790 -0.056600 2.160940 
# 
# From -- ./inp_files/222755.got.cif
#   From: 2010.05.17/outbox.cif.g08.bks.cpg/sg2_112_cif.got.tgz:222755.got - 2010.06.03 11:33:40.
