data_PCOD9029836
_publ_section_title
;
Structure prediction by ZEFSAII (Michael W. Deem and Ramdas Pophale) SiO2 
 PCOD9029836
Probable space group: P -1
;
_chemical_formula_sum "Si O2"
_cell_formula_units_Z 15
_cell_length_a 21.381114
_cell_length_b 9.481373
_cell_length_c 20.907681
_cell_angle_alpha 147.508228
_cell_angle_beta 159.271365
_cell_angle_gamma 30.671329
_cell_volume 747.152738
_symmetry_space_group_name_H-M "P -1"
_symmetry_group_IT_number 2
_symmetry_cell_setting 'triclinic'
loop_
_space_group_symop_operation_xyz
x,y,z
-x,-y,-z
loop_
_atom_site_type_symbol
_atom_site_label
_atom_site_fract_x
_atom_site_fract_y
_atom_site_fract_z
Si Si1 0.435290 0.071105 0.361998
Si Si2 0.160967 0.170263 0.412638
Si Si3 0.371612 0.142773 0.993145
Si Si4 0.974123 0.318340 0.615769
Si Si5 0.315669 0.776426 0.913072
Si Si6 0.000000 0.500000 0.500000
Si Si7 0.884134 0.834582 0.011650
Si Si8 0.568269 0.553885 0.386347
O O1 0.256246 0.116867 0.163882
O O2 0.426584 0.346145 0.498343
O O3 0.628505 0.962802 0.464487
O O4 0.453478 0.829219 0.339085
O O5 0.055843 0.480772 0.398042
O O6 0.154603 0.232383 0.504982
O O7 0.035729 0.985696 0.205896
O O8 0.159056 0.313122 0.828898
O O9 0.357967 0.910865 0.940445
O O10 0.469404 0.331602 0.194625
O O11 0.500000 0.000000 0.000000
O O12 0.782955 0.438171 0.520477
O O13 0.000000 0.000000 0.500000
O O14 0.143685 0.670740 0.699108
O O15 0.500000 0.500000 0.000000
O O16 0.246070 0.012248 0.993053
O O17 0.000000 0.500000 0.000000
#
# Coordination Sequence:
#
# PCOD9029836 Si02
#       8
#     2   2   2   2   2   1   2   2
#     4  10  23  46  68  94 137 180 231 278 340 418
#     4  10  23  42  69  97 131 185 227 284 350 407
#     4  12  26  41  70 105 140 170 232 295 345 409
#     4  11  22  40  67 101 137 173 227 288 351 409
#     4  11  27  45  70 100 137 187 231 280 353 416
#     4  10  22  42  68  96 134 176 228 274 340 414
#     4  11  26  44  66  99 140 181 233 284 346 415
#     4  10  24  42  70 100 131 183 226 281 349 406
#
# _framework density 20.076217
#
# number of rings (size 3 to 8) (size 9 to 14) (size 15 to 20)
#    0.000    1.333    1.333    2.400   11.200    1.600 
#    2.400    4.000    0.000    0.000    0.000    0.000 
#    0.000    0.000    0.000    0.000    0.000    0.000 
#
# Total GULP energy -83594.188059 kJ/mol
# GULP energy per Si atom -5572.945871 kJ/mol
# Density = 2.003052 g / cm^3
# Si number density = 20.076217 Si / 1000 Ang^3
#
#
#
# Elastic Constant Matrix: (Units=GPa)
#
#
# Indices 1 2 3 4 5 6 
#
# 1 37.1750 11.3906 12.5245 13.0489 -7.1395 -14.0543
# 2 11.3906 93.2172 23.0150 9.2683 -5.4589 -12.0449
# 3 12.5245 23.0150 102.4226 20.7169 -13.8441 -10.1624
# 4 13.0489 9.2683 20.7169 38.8731 -0.3332 -8.5035
# 5 -7.1395 -5.4589 -13.8441 -0.3332 30.4507 9.6014
# 6 -14.0543 -12.0449 -10.1624 -8.5035 9.6014 19.0044
#
#
#
# Elastic Compliance Matrix: (Units=1/GPa)
#
#
# Indices 1 2 3 4 5 6 
#
# 1 0.039373 -0.000701 -0.000597 -0.007352 0.001012 0.024553
# 2 -0.000701 0.012125 -0.002105 -0.000123 -0.000995 0.006489
# 3 -0.000597 -0.002105 0.012127 -0.005817 0.005077 -0.000459
# 4 -0.007352 -0.000123 -0.005817 0.033439 -0.007164 0.009956
# 5 0.001012 -0.000995 0.005077 -0.007164 0.041925 -0.021554
# 6 0.024553 0.006489 -0.000459 0.009956 -0.021554 0.089988
#
#
# Mechanical properties :
#
#
# Convention : Reuss Voigt Hill
#
# Bulk Modulus (GPa) = 17.59953 36.29723 26.94838
# Shear Modulus (GPa) = 19.62921 30.05795 24.84358
#
# Velocity S-wave (km/s) = 3.13027 3.87355 3.52158
# Velocity P-wave (km/s) = 4.67441 6.17453 5.47608
#
# Compressibility (1/GPa) = 0.05681971
#
# Stress axis : x y z
#
# Youngs Moduli (GPa) = 25.39807 82.47201 82.46184
#
# Poissons Ratio (x) = 0.05781 0.04924
# Poissons Ratio (y) = 0.01780 0.17355
# Poissons Ratio (z) = 0.01517 0.17358
#
# Static dielectric constant tensor:
#      x y z
#    x 1.742170 0.009310 -0.030400 
#    y 0.009310 1.716370 -0.003240 
#    z -0.030400 -0.003240 1.658290 
# 
# From -- ./inp_files/281372.got.cif
#   From: 2010.05.17/outbox.cif.g08.bks.cpg/sg2_141_cif.got.tgz:281372.got - 2010.06.03 11:33:40.
