data_PCOD9029703
_publ_section_title
;
Structure prediction by ZEFSAII (Michael W. Deem and Ramdas Pophale) SiO2 
 PCOD9029703
Probable space group: P -1
;
_chemical_formula_sum "Si O2"
_cell_formula_units_Z 9
_cell_length_a 6.630745
_cell_length_b 8.132828
_cell_length_c 9.486444
_cell_angle_alpha 130.627281
_cell_angle_beta 75.371953
_cell_angle_gamma 97.376363
_cell_volume 375.225573
_symmetry_space_group_name_H-M "P -1"
_symmetry_group_IT_number 2
_symmetry_cell_setting 'triclinic'
loop_
_space_group_symop_operation_xyz
x,y,z
-x,-y,-z
loop_
_atom_site_type_symbol
_atom_site_label
_atom_site_fract_x
_atom_site_fract_y
_atom_site_fract_z
Si Si1 0.806244 0.288815 0.565766
Si Si2 0.156209 0.525587 0.800165
Si Si3 0.924513 0.937357 0.133547
Si Si4 0.500000 0.500000 0.500000
Si Si5 0.553200 0.728050 0.187986
O O1 0.653664 0.428112 0.567352
O O2 0.653510 0.179322 0.644888
O O3 0.958663 0.438604 0.705695
O O4 0.939304 0.119143 0.351294
O O5 0.320776 0.595392 0.694551
O O6 0.273822 0.336009 0.760851
O O7 0.072936 0.724874 0.021461
O O8 0.679367 0.879071 0.146297
O O9 0.000000 0.000000 0.000000
O O10 0.500000 0.500000 0.000000
#
# Coordination Sequence:
#
# PCOD9029703 Si02
#       5
#     2   2   2   1   2
#     4  11  24  46  72  99 142 179 233 280 346 405
#     4  11  24  46  71  98 145 183 225 285 348 402
#     4  12  25  44  73 105 135 181 236 283 340 410
#     4  10  22  42  68 106 136 182 218 292 344 400
#     4  11  25  48  72  99 143 185 226 282 350 407
#
# _framework density 23.985569000000002
#
# number of rings (size 3 to 8) (size 9 to 14) (size 15 to 20)
#    0.000    0.889    4.444    2.000    0.000    0.889 
#    8.000    3.333    0.000    0.000    0.000    0.000 
#    0.000    0.000    0.000    0.000    0.000    0.000 
#
# Total GULP energy -50113.742829 kJ/mol
# GULP energy per Si atom -5568.193648 kJ/mol
# Density = 2.393098 g / cm^3
# Si number density = 23.985569 Si / 1000 Ang^3
#
#
#
# Elastic Constant Matrix: (Units=GPa)
#
#
# Indices 1 2 3 4 5 6 
#
# 1 105.6498 21.8234 55.4443 -3.2255 -13.0636 -16.2165
# 2 21.8234 53.2774 28.1686 -13.8269 0.8339 -1.5398
# 3 55.4443 28.1686 123.2156 -17.4989 -30.7807 -6.3948
# 4 -3.2255 -13.8269 -17.4989 37.3225 10.8294 -15.7810
# 5 -13.0636 0.8339 -30.7807 10.8294 53.9576 -9.9138
# 6 -16.2165 -1.5398 -6.3948 -15.7810 -9.9138 5.7065
#
#
#
# Elastic Compliance Matrix: (Units=1/GPa)
#
#
# Indices 1 2 3 4 5 6 
#
# 1 0.009809 -0.004087 -0.007368 -0.012907 -0.003425 -0.023129
# 2 -0.004087 0.024382 -0.004898 0.005526 -0.006456 -0.006458
# 3 -0.007368 -0.004898 0.011903 -0.004337 0.003099 -0.015532
# 4 -0.012907 0.005526 -0.004337 -0.000661 -0.019456 -0.075675
# 5 -0.003425 -0.006456 0.003099 -0.019456 0.017803 -0.030876
# 6 -0.023129 -0.006458 -0.015532 -0.075675 -0.030876 -0.172554
#
#
# Mechanical properties :
#
#
# Convention : Reuss Voigt Hill
#
# Bulk Modulus (GPa) = 74.69669 54.77947 64.73808
# Shear Modulus (GPa) = -69.30098 31.17773 -19.06162
#
# Velocity S-wave (km/s) = -5.38103 3.60926 -2.82212
# Velocity P-wave (km/s) = 2.71981 6.34485 4.05338
#
# Compressibility (1/GPa) = 0.01338747
#
# Stress axis : x y z
#
# Youngs Moduli (GPa) = 101.95222 41.01388 84.01020
#
# Poissons Ratio (x) = 0.16761 0.61901
# Poissons Ratio (y) = 0.41664 0.41151
# Poissons Ratio (z) = 0.75121 0.20090
#
# Static dielectric constant tensor:
#      x y z
#    x 1.879160 0.050390 -0.017110 
#    y 0.050390 2.040160 -0.014410 
#    z -0.017110 -0.014410 1.869820 
# 
# From -- ./inp_files/15534.got.cif
#   From: 2010.05.17/outbox.cif.g08.bks.cpg/sg2_8_cif.got.tgz:15534.got - 2010.06.03 11:33:40.
