data_PCOD9029136
_publ_section_title
;
Structure prediction by ZEFSAII (Michael W. Deem and Ramdas Pophale) SiO2 
 PCOD9029136
Probable space group: P -1
;
_chemical_formula_sum "Si O2"
_cell_formula_units_Z 16
_cell_length_a 12.163710
_cell_length_b 6.497952
_cell_length_c 16.971244
_cell_angle_alpha 76.673207
_cell_angle_beta 129.838850
_cell_angle_gamma 133.920741
_cell_volume 684.184878
_symmetry_space_group_name_H-M "P -1"
_symmetry_group_IT_number 2
_symmetry_cell_setting 'triclinic'
loop_
_space_group_symop_operation_xyz
x,y,z
-x,-y,-z
loop_
_atom_site_type_symbol
_atom_site_label
_atom_site_fract_x
_atom_site_fract_y
_atom_site_fract_z
Si Si1 0.481239 0.201317 0.249178
Si Si2 0.142909 0.543219 0.497055
Si Si3 0.397063 0.890301 0.081324
Si Si4 0.188103 0.279278 0.113949
Si Si5 0.987929 0.853706 0.665561
Si Si6 0.350517 0.177255 0.508681
Si Si7 0.362883 0.182455 0.916189
Si Si8 0.736694 0.431564 0.732202
O O1 0.682690 0.406463 0.380670
O O2 0.378000 0.319949 0.186717
O O3 0.522037 0.149680 0.184891
O O4 0.304062 0.853155 0.236470
O O5 0.990366 0.255456 0.393926
O O6 0.000000 0.500000 0.500000
O O7 0.274642 0.859865 0.478761
O O8 0.242421 0.571499 0.084332
O O9 0.519975 0.857228 0.084831
O O10 0.282687 0.936851 0.969311
O O11 0.135987 0.266489 0.181946
O O12 0.000000 0.000000 0.000000
O O13 0.864040 0.927150 0.575016
O O14 0.834248 0.557220 0.679896
O O15 0.193524 0.109989 0.788917
O O16 0.500000 0.500000 0.500000
O O17 0.501376 0.279116 0.641242
O O18 0.500000 0.500000 0.000000
#
# Coordination Sequence:
#
# PCOD9029136 Si02
#       8
#     2   2   2   2   2   2   2   2
#     4  10  22  42  66  93 138 171 212 280 334 386
#     4  11  24  42  69 100 133 174 223 273 333 402
#     4  10  24  43  62  94 130 169 227 266 327 395
#     4  11  24  38  66  95 129 174 219 270 331 389
#     4  11  24  40  69  96 129 172 224 269 331 396
#     4   9  21  42  63  98 135 169 217 269 331 396
#     4  11  25  43  66  92 134 179 220 278 331 388
#     4   9  22  39  62  98 133 167 219 268 326 401
#
# _framework density 23.385491999999999
#
# number of rings (size 3 to 8) (size 9 to 14) (size 15 to 20)
#    0.000    1.750    0.000    2.250    5.250   12.000 
#    0.000    0.000    0.000    0.000    0.000    0.000 
#    0.000    0.000    0.000    0.000    0.000    0.000 
#
# Total GULP energy -89257.394379 kJ/mol
# GULP energy per Si atom -5578.587149 kJ/mol
# Density = 2.333227 g / cm^3
# Si number density = 23.385492 Si / 1000 Ang^3
#
#
#
# Elastic Constant Matrix: (Units=GPa)
#
#
# Indices 1 2 3 4 5 6 
#
# 1 88.7552 11.9809 52.6393 3.5242 -12.5003 -17.6468
# 2 11.9809 83.8137 40.6696 -1.3775 -0.0774 -14.1085
# 3 52.6393 40.6696 134.9101 20.0710 -9.6924 -26.3516
# 4 3.5242 -1.3775 20.0710 30.0229 -5.2020 -2.1595
# 5 -12.5003 -0.0774 -9.6924 -5.2020 40.8932 1.7939
# 6 -17.6468 -14.1085 -26.3516 -2.1595 1.7939 20.1165
#
#
#
# Elastic Compliance Matrix: (Units=1/GPa)
#
#
# Indices 1 2 3 4 5 6 
#
# 1 0.016342 0.001785 -0.005454 0.003062 0.003725 0.008440
# 2 0.001785 0.015064 -0.004554 0.003951 -0.000293 0.006615
# 3 -0.005454 -0.004554 0.013995 -0.008213 0.000182 0.009457
# 4 0.003062 0.003951 -0.008213 0.039218 0.004049 -0.001453
# 5 0.003725 -0.000293 0.000182 0.004049 0.026089 0.001409
# 6 0.008440 0.006615 0.009457 -0.001453 0.001409 0.073860
#
#
# Mechanical properties :
#
#
# Convention : Reuss Voigt Hill
#
# Bulk Modulus (GPa) = 34.53672 57.56208 46.04940
# Shear Modulus (GPa) = 23.73428 31.68581 27.71004
#
# Velocity S-wave (km/s) = 3.18923 3.68494 3.44601
# Velocity P-wave (km/s) = 5.32561 6.54010 5.96385
#
# Compressibility (1/GPa) = 0.02895469
#
# Stress axis : x y z
#
# Youngs Moduli (GPa) = 61.19354 66.38226 71.45191
#
# Poissons Ratio (x) = -0.11848 0.38967
# Poissons Ratio (y) = -0.10922 0.32542
# Poissons Ratio (z) = 0.33373 0.30233
#
# Static dielectric constant tensor:
#      x y z
#    x 1.970010 0.043890 -0.057430 
#    y 0.043890 1.923710 -0.001760 
#    z -0.057430 -0.001760 1.989260 
# 
# From -- ./inp_files/564477.got.cif
#   From: 2010.05.17/outbox.cif.g08.bks.cpg/sg2_283_cif.got.tgz:564477.got - 2010.06.03 11:33:40.
