data_PCOD9029395
_publ_section_title
;
Structure prediction by ZEFSAII (Michael W. Deem and Ramdas Pophale) SiO2 
 PCOD9029395
Probable space group: P -1
;
_chemical_formula_sum "Si O2"
_cell_formula_units_Z 14
_cell_length_a 11.525758
_cell_length_b 7.037029
_cell_length_c 10.061938
_cell_angle_alpha 98.255621
_cell_angle_beta 95.543206
_cell_angle_gamma 128.520654
_cell_volume 613.374574
_symmetry_space_group_name_H-M "P -1"
_symmetry_group_IT_number 2
_symmetry_cell_setting 'triclinic'
loop_
_space_group_symop_operation_xyz
x,y,z
-x,-y,-z
loop_
_atom_site_type_symbol
_atom_site_label
_atom_site_fract_x
_atom_site_fract_y
_atom_site_fract_z
Si Si1 0.093327 0.400289 0.591882
Si Si2 0.593795 0.278373 0.483616
Si Si3 0.345150 0.265535 0.349283
Si Si4 0.849101 0.080014 0.950853
Si Si5 0.841514 0.475419 0.099323
Si Si6 0.334181 0.335771 0.897483
Si Si7 0.810138 0.936615 0.402853
O O1 0.246952 0.614904 0.551923
O O2 0.084161 0.489352 0.743815
O O3 0.115002 0.196231 0.613710
O O4 0.052990 0.763798 0.538236
O O5 0.496175 0.295339 0.365978
O O6 0.624455 0.474549 0.617919
O O7 0.500000 0.000000 0.500000
O O8 0.272974 0.144138 0.473034
O O9 0.231280 0.084818 0.205244
O O10 0.026426 0.297610 0.958120
O O11 0.787537 0.223549 0.999817
O O12 0.797362 0.887489 0.043594
O O13 0.707875 0.485882 0.107994
O O14 0.308322 0.187223 0.744211
O O15 0.500000 0.500000 0.000000
#
# Coordination Sequence:
#
# PCOD9029395 Si02
#       7
#     2   2   2   2   2   2   2
#     4   9  18  40  70  92 124 175 219 278 324 387
#     4  10  23  39  63 101 129 167 220 276 335 384
#     4  10  22  42  67  92 135 171 218 273 331 395
#     4  11  24  44  67  99 133 181 220 272 338 398
#     4  10  23  46  68  95 135 175 229 272 330 404
#     4  11  26  42  68 101 136 176 218 279 339 394
#     4   9  19  41  67  95 125 171 224 267 332 390
#
# _framework density 22.824551
#
# number of rings (size 3 to 8) (size 9 to 14) (size 15 to 20)
#    0.000    2.000    1.429    0.429   10.000    2.857 
#    5.143    1.429    0.000    0.000    0.000    0.000 
#    0.000    0.000    0.000    0.000    0.000    0.000 
#
# Total GULP energy -78261.860856 kJ/mol
# GULP energy per Si atom -5590.132918 kJ/mol
# Density = 2.277260 g / cm^3
# Si number density = 22.824551 Si / 1000 Ang^3
#
#
#
# Elastic Constant Matrix: (Units=GPa)
#
#
# Indices 1 2 3 4 5 6 
#
# 1 65.1179 17.8814 5.7068 0.3526 -10.1663 -4.9348
# 2 17.8814 126.1142 38.3880 13.3540 -12.4890 9.5646
# 3 5.7068 38.3880 122.2234 6.2418 -15.2196 -0.4639
# 4 0.3526 13.3540 6.2418 31.2456 4.9098 -5.4828
# 5 -10.1663 -12.4890 -15.2196 4.9098 27.3015 -3.9298
# 6 -4.9348 9.5646 -0.4639 -5.4828 -3.9298 28.4655
#
#
#
# Elastic Compliance Matrix: (Units=1/GPa)
#
#
# Indices 1 2 3 4 5 6 
#
# 1 0.017324 -0.002485 0.000748 0.000571 0.006324 0.004834
# 2 -0.002485 0.010176 -0.002520 -0.005013 0.002579 -0.004501
# 3 0.000748 -0.002520 0.009632 -0.001362 0.004964 0.001556
# 4 0.000571 -0.005013 -0.001362 0.037091 -0.008395 0.007746
# 5 0.006324 0.002579 0.004964 -0.008395 0.045149 0.004927
# 6 0.004834 -0.004501 0.001556 0.007746 0.004927 0.039678
#
#
# Mechanical properties :
#
#
# Convention : Reuss Voigt Hill
#
# Bulk Modulus (GPa) = 34.94203 48.60090 41.77147
# Shear Modulus (GPa) = 28.23204 34.16779 31.19992
#
# Velocity S-wave (km/s) = 3.52080 3.87327 3.70123
# Velocity P-wave (km/s) = 5.64537 6.42981 6.05032
#
# Compressibility (1/GPa) = 0.02861883
#
# Stress axis : x y z
#
# Youngs Moduli (GPa) = 57.72289 98.26832 103.82077
#
# Poissons Ratio (x) = 0.24419 -0.07769
# Poissons Ratio (y) = 0.14344 0.26164
# Poissons Ratio (z) = -0.04319 0.24765
#
# Static dielectric constant tensor:
#      x y z
#    x 1.907320 -0.030520 0.023430 
#    y -0.030520 1.887140 -0.016600 
#    z 0.023430 -0.016600 1.841840 
# 
# From -- ./inp_files/409498.got.cif
#   From: 2010.05.17/outbox.cif.g08.bks.cpg/sg2_205_cif.got.tgz:409498.got - 2010.06.03 11:33:40.
