data_PCOD9029503
_publ_section_title
;
Structure prediction by ZEFSAII (Michael W. Deem and Ramdas Pophale) SiO2 
 PCOD9029503
Probable space group: P -1
;
_chemical_formula_sum "Si O2"
_cell_formula_units_Z 16
_cell_length_a 8.512728
_cell_length_b 11.221695
_cell_length_c 8.628678
_cell_angle_alpha 100.903051
_cell_angle_beta 70.565603
_cell_angle_gamma 114.818352
_cell_volume 704.339082
_symmetry_space_group_name_H-M "P -1"
_symmetry_group_IT_number 2
_symmetry_cell_setting 'triclinic'
loop_
_space_group_symop_operation_xyz
x,y,z
-x,-y,-z
loop_
_atom_site_type_symbol
_atom_site_label
_atom_site_fract_x
_atom_site_fract_y
_atom_site_fract_z
Si Si1 0.526585 0.711720 0.962318
Si Si2 0.090471 0.064135 0.147524
Si Si3 0.593899 0.582588 0.182401
Si Si4 0.666498 0.767840 0.475866
Si Si5 0.005573 0.645198 0.023705
Si Si6 0.082514 0.836899 0.326304
Si Si7 0.363673 0.800166 0.786278
Si Si8 0.737940 0.051189 0.400401
O O1 0.730014 0.812630 0.910068
O O2 0.486598 0.573494 0.852115
O O3 0.421819 0.797579 0.945889
O O4 0.489327 0.654732 0.134228
O O5 0.940627 0.101657 0.286383
O O6 0.125404 0.960018 0.224377
O O7 0.000000 0.000000 0.000000
O O8 0.605526 0.635866 0.363873
O O9 0.801005 0.634007 0.065025
O O10 0.513192 0.753278 0.648400
O O11 0.879029 0.805832 0.453211
O O12 0.675715 0.895024 0.404123
O O13 0.063256 0.717610 0.188777
O O14 0.150355 0.714605 0.858476
O O15 0.000000 0.500000 0.000000
O O16 0.231261 0.877803 0.423860
O O17 0.370640 0.914724 0.693847
#
# Coordination Sequence:
#
# PCOD9029503 Si02
#       8
#     2   2   2   2   2   2   2   2
#     4  11  22  40  67  96 126 175 227 266 320 398
#     4  11  21  41  70 102 128 176 228 267 330 405
#     4  10  23  44  68  90 133 178 224 269 328 395
#     4  10  22  42  67  96 131 173 218 272 328 397
#     4  11  23  46  66  95 134 176 222 280 332 387
#     4  10  22  42  69  92 133 180 219 273 333 399
#     4  12  24  39  66 101 137 168 222 280 328 389
#     4  11  22  41  64 100 139 171 217 280 337 389
#
# _framework density 22.716331
#
# number of rings (size 3 to 8) (size 9 to 14) (size 15 to 20)
#    0.000    1.250    1.250    7.125    0.000    1.500 
#    2.250    8.125    0.000    0.000    0.000    0.000 
#    0.000    0.000    0.000    0.000    0.000    0.000 
#
# Total GULP energy -89215.920065 kJ/mol
# GULP energy per Si atom -5575.995004 kJ/mol
# Density = 2.266463 g / cm^3
# Si number density = 22.716331 Si / 1000 Ang^3
#
#
#
# Elastic Constant Matrix: (Units=GPa)
#
#
# Indices 1 2 3 4 5 6 
#
# 1 88.5567 46.4930 43.8057 -6.1126 10.3817 -2.9133
# 2 46.4930 77.3178 37.2574 4.3815 8.9032 23.3139
# 3 43.8057 37.2574 76.2921 -5.4024 -1.4331 4.9103
# 4 -6.1126 4.3815 -5.4024 28.5526 -0.0754 7.8689
# 5 10.3817 8.9032 -1.4331 -0.0754 47.8309 -8.1719
# 6 -2.9133 23.3139 4.9103 7.8689 -8.1719 38.2749
#
#
#
# Elastic Compliance Matrix: (Units=1/GPa)
#
#
# Indices 1 2 3 4 5 6 
#
# 1 0.022082 -0.012983 -0.006784 0.002762 -0.000919 0.009696
# 2 -0.012983 0.030805 -0.006691 -0.003395 -0.006466 -0.019576
# 3 -0.006784 -0.006691 0.020495 0.003179 0.003512 0.001026
# 4 0.002762 -0.003395 0.003179 0.038449 -0.000875 -0.006221
# 5 -0.000919 -0.006466 0.003512 -0.000875 0.023900 0.008701
# 6 0.009696 -0.019576 0.001026 -0.006221 0.008701 0.041794
#
#
# Mechanical properties :
#
#
# Convention : Reuss Voigt Hill
#
# Bulk Modulus (GPa) = 48.86309 55.25321 52.05815
# Shear Modulus (GPa) = 21.07361 30.57237 25.82299
#
# Velocity S-wave (km/s) = 3.04910 3.67254 3.37524
# Velocity P-wave (km/s) = 5.82690 6.50840 6.17706
#
# Compressibility (1/GPa) = 0.02046535
#
# Stress axis : x y z
#
# Youngs Moduli (GPa) = 45.28618 32.46255 48.79162
#
# Poissons Ratio (x) = 0.42148 0.33101
# Poissons Ratio (y) = 0.58797 0.32644
# Poissons Ratio (z) = 0.30723 0.21719
#
# Static dielectric constant tensor:
#      x y z
#    x 1.960110 -0.000460 0.023770 
#    y -0.000460 1.914450 -0.032860 
#    z 0.023770 -0.032860 1.923170 
# 
# From -- ./inp_files/188387.got.cif
#   From: 2010.05.17/outbox.cif.g08.bks.cpg/sg2_95_cif.got.tgz:188387.got - 2010.06.03 11:33:40.
