data_PCOD9029339
_publ_section_title
;
Structure prediction by ZEFSAII (Michael W. Deem and Ramdas Pophale) SiO2 
 PCOD9029339
Probable space group: P -1
;
_chemical_formula_sum "Si O2"
_cell_formula_units_Z 14
_cell_length_a 7.583496
_cell_length_b 8.129098
_cell_length_c 11.355788
_cell_angle_alpha 122.702071
_cell_angle_beta 86.278024
_cell_angle_gamma 103.352394
_cell_volume 571.628222
_symmetry_space_group_name_H-M "P -1"
_symmetry_group_IT_number 2
_symmetry_cell_setting 'triclinic'
loop_
_space_group_symop_operation_xyz
x,y,z
-x,-y,-z
loop_
_atom_site_type_symbol
_atom_site_label
_atom_site_fract_x
_atom_site_fract_y
_atom_site_fract_z
Si Si1 0.943267 0.291275 0.246941
Si Si2 0.889807 0.882451 0.193687
Si Si3 0.548383 0.692940 0.355175
Si Si4 0.455675 0.840853 0.189261
Si Si5 0.782182 0.914084 0.601746
Si Si6 0.244951 0.527326 0.479526
Si Si7 0.219925 0.547936 0.899983
O O1 0.796412 0.313990 0.363606
O O2 0.888051 0.334637 0.135207
O O3 0.106646 0.470852 0.353932
O O4 0.976573 0.067643 0.174408
O O5 0.674429 0.879714 0.192126
O O6 0.887745 0.645798 0.095532
O O7 0.019036 0.948712 0.328721
O O8 0.414190 0.731621 0.274772
O O9 0.684471 0.898510 0.473273
O O10 0.436376 0.599248 0.436808
O O11 0.663893 0.551871 0.236404
O O12 0.357264 0.023352 0.275181
O O13 0.359713 0.697677 0.034825
O O14 0.792959 0.686216 0.536268
#
# Coordination Sequence:
#
# PCOD9029339 Si02
#       7
#     2   2   2   2   2   2   2
#     4  10  22  44  69 101 135 179 217 286 341 389
#     4  10  24  44  67  99 136 173 230 273 330 409
#     4  11  22  42  70  97 135 175 227 283 328 400
#     4  11  26  45  64 102 139 178 224 274 342 402
#     4  11  23  42  69 101 130 178 227 280 336 391
#     4  10  22  42  67 104 135 166 234 279 335 402
#     4  11  25  46  67  98 140 181 218 277 344 397
#
# _framework density 24.491443
#
# number of rings (size 3 to 8) (size 9 to 14) (size 15 to 20)
#    0.000    1.429    1.429    3.429    4.000    4.571 
#    5.143    1.429    0.000    0.000    0.000    0.000 
#    0.000    0.000    0.000    0.000    0.000    0.000 
#
# Total GULP energy -78147.890355 kJ/mol
# GULP energy per Si atom -5581.992168 kJ/mol
# Density = 2.443570 g / cm^3
# Si number density = 24.491443 Si / 1000 Ang^3
#
#
#
# Elastic Constant Matrix: (Units=GPa)
#
#
# Indices 1 2 3 4 5 6 
#
# 1 72.6323 27.9427 64.1613 -3.5048 19.5283 -0.9696
# 2 27.9427 90.3468 36.0176 4.5984 9.0159 -15.0564
# 3 64.1613 36.0176 185.4157 9.2273 39.4836 -2.4731
# 4 -3.5048 4.5984 9.2273 36.0999 -9.7134 0.6762
# 5 19.5283 9.0159 39.4836 -9.7134 46.5995 -3.3320
# 6 -0.9696 -15.0564 -2.4731 0.6762 -3.3320 35.1318
#
#
#
# Elastic Compliance Matrix: (Units=1/GPa)
#
#
# Indices 1 2 3 4 5 6 
#
# 1 0.021980 -0.004538 -0.006473 0.003813 -0.002202 -0.002076
# 2 -0.004538 0.013928 -0.000953 -0.002081 -0.000003 0.005816
# 3 -0.006473 -0.000953 0.009302 -0.004477 -0.005947 -0.000410
# 4 0.003813 -0.002081 -0.004477 0.031972 0.009202 -0.000844
# 5 -0.002202 -0.000003 -0.005947 0.009202 0.029493 0.002139
# 6 -0.002076 0.005816 -0.000410 -0.000844 0.002139 0.031090
#
#
# Mechanical properties :
#
#
# Convention : Reuss Voigt Hill
#
# Bulk Modulus (GPa) = 46.98948 67.18202 57.08575
# Shear Modulus (GPa) = 29.62298 38.25112 33.93705
#
# Velocity S-wave (km/s) = 3.48159 3.95627 3.72650
# Velocity P-wave (km/s) = 5.94893 6.95412 6.47107
#
# Compressibility (1/GPa) = 0.02128136
#
# Stress axis : x y z
#
# Youngs Moduli (GPa) = 45.49542 71.80021 107.50156
#
# Poissons Ratio (x) = 0.32582 0.69586
# Poissons Ratio (y) = 0.20645 0.10250
# Poissons Ratio (z) = 0.29449 0.06846
#
# Static dielectric constant tensor:
#      x y z
#    x 2.044910 -0.033050 0.017380 
#    y -0.033050 1.977540 -0.019230 
#    z 0.017380 -0.019230 1.912220 
# 
# From -- ./inp_files/206362.got.cif
#   From: 2010.05.17/outbox.cif.g08.bks.cpg/sg2_104_cif.got.tgz:206362.got - 2010.06.03 11:33:40.
