data_PCOD9029730
_publ_section_title
;
Structure prediction by ZEFSAII (Michael W. Deem and Ramdas Pophale) SiO2 
 PCOD9029730
Probable space group: P -1
;
_chemical_formula_sum "Si O2"
_cell_formula_units_Z 16
_cell_length_a 20.493148
_cell_length_b 22.346376
_cell_length_c 8.546558
_cell_angle_alpha 151.014240
_cell_angle_beta 37.933216
_cell_angle_gamma 158.357843
_cell_volume 692.973217
_symmetry_space_group_name_H-M "P -1"
_symmetry_group_IT_number 2
_symmetry_cell_setting 'triclinic'
loop_
_space_group_symop_operation_xyz
x,y,z
-x,-y,-z
loop_
_atom_site_type_symbol
_atom_site_label
_atom_site_fract_x
_atom_site_fract_y
_atom_site_fract_z
Si Si1 0.188886 0.887129 0.160298
Si Si2 0.027158 0.209899 0.112881
Si Si3 0.847890 0.257808 0.767077
Si Si4 0.375632 0.448102 0.489142
Si Si5 0.294599 0.270362 0.915788
Si Si6 0.672169 0.894772 0.899347
Si Si7 0.505307 0.936305 0.507453
Si Si8 0.184453 0.474761 0.119865
O O1 0.201924 0.824270 0.150106
O O2 0.230256 0.070369 0.541891
O O3 0.308103 0.988496 0.010671
O O4 0.999409 0.670964 0.952575
O O5 0.148467 0.396872 0.185805
O O6 0.935616 0.218199 0.427857
O O7 0.151530 0.226184 0.999189
O O8 0.859832 0.009598 0.860015
O O9 0.661375 0.136806 0.776098
O O10 0.000000 0.500000 0.000000
O O11 0.500000 0.500000 0.500000
O O12 0.518592 0.659427 0.602254
O O13 0.255417 0.428077 0.771266
O O14 0.281561 0.277092 0.145085
O O15 0.500000 0.500000 0.000000
O O16 0.594801 0.887625 0.182011
O O17 0.315343 0.714445 0.421853
O O18 0.500000 0.000000 0.500000
#
# Coordination Sequence:
#
# PCOD9029730 Si02
#       8
#     2   2   2   2   2   2   2   2
#     4  11  24  42  64  95 133 169 216 266 324 383
#     4  10  24  43  66  93 133 170 220 259 323 386
#     4  11  25  45  67  96 129 168 220 277 325 380
#     4  11  23  37  61  89 131 168 213 254 316 380
#     4  12  25  39  65 100 136 171 214 267 319 389
#     4   9  22  42  62  94 129 172 210 262 315 395
#     4  10  22  42  68  91 125 168 217 270 325 383
#     4  10  23  40  64  92 125 173 213 259 321 385
#
# _framework density 23.088913999999999
#
# number of rings (size 3 to 8) (size 9 to 14) (size 15 to 20)
#    0.000    1.500    1.250    2.250    8.750    4.000 
#    0.000    5.000    0.000    0.000    0.000    0.000 
#    0.000    0.000    0.000    0.000    0.000    0.000 
#
# Total GULP energy -89240.642543 kJ/mol
# GULP energy per Si atom -5577.540159 kJ/mol
# Density = 2.303636 g / cm^3
# Si number density = 23.088914 Si / 1000 Ang^3
#
#
#
# Elastic Constant Matrix: (Units=GPa)
#
#
# Indices 1 2 3 4 5 6 
#
# 1 129.1685 32.6158 0.4981 0.5751 18.9691 0.0092
# 2 32.6158 98.7424 20.4414 11.1683 3.9815 -9.8049
# 3 0.4981 20.4414 56.6054 1.8130 10.1661 7.2695
# 4 0.5751 11.1683 1.8130 36.6752 -6.3429 4.3061
# 5 18.9691 3.9815 10.1661 -6.3429 26.7573 -6.4166
# 6 0.0092 -9.8049 7.2695 4.3061 -6.4166 15.8403
#
#
#
# Elastic Compliance Matrix: (Units=1/GPa)
#
#
# Indices 1 2 3 4 5 6 
#
# 1 0.010640 -0.005163 0.005027 0.000438 -0.010999 -0.010083
# 2 -0.005163 0.015906 -0.009433 -0.005096 0.008197 0.018884
# 3 0.005027 -0.009433 0.027765 0.001291 -0.018767 -0.026537
# 4 0.000438 -0.005096 0.001291 0.030773 0.004815 -0.010162
# 5 -0.010999 0.008197 -0.018767 0.004815 0.061130 0.037147
# 6 -0.010083 0.018884 -0.026537 -0.010162 0.037147 0.104813
#
#
# Mechanical properties :
#
#
# Convention : Reuss Voigt Hill
#
# Bulk Modulus (GPa) = 28.42929 43.51410 35.97170
# Shear Modulus (GPa) = 17.73737 31.25195 24.49466
#
# Velocity S-wave (km/s) = 2.77469 3.68305 3.26066
# Velocity P-wave (km/s) = 4.75446 6.08060 5.45796
#
# Compressibility (1/GPa) = 0.03517499
#
# Stress axis : x y z
#
# Youngs Moduli (GPa) = 93.98480 62.86807 36.01606
#
# Poissons Ratio (x) = 0.32456 -0.18105
# Poissons Ratio (y) = 0.48520 0.33973
# Poissons Ratio (z) = -0.47245 0.59302
#
# Static dielectric constant tensor:
#      x y z
#    x 1.869230 0.028750 0.014310 
#    y 0.028750 1.882620 -0.049500 
#    z 0.014310 -0.049500 2.012330 
# 
# From -- ./inp_files/178704.got.cif
#   From: 2010.05.17/outbox.cif.g08.bks.cpg/sg2_90_cif.got.tgz:178704.got - 2010.06.03 11:33:40.
