data_PCOD9029179
_publ_section_title
;
Structure prediction by ZEFSAII (Michael W. Deem and Ramdas Pophale) SiO2 
 PCOD9029179
Probable space group: P -1
;
_chemical_formula_sum "Si O2"
_cell_formula_units_Z 16
_cell_length_a 11.628275
_cell_length_b 8.267333
_cell_length_c 15.455489
_cell_angle_alpha 61.732401
_cell_angle_beta 140.584915
_cell_angle_gamma 91.325544
_cell_volume 656.530133
_symmetry_space_group_name_H-M "P -1"
_symmetry_group_IT_number 2
_symmetry_cell_setting 'triclinic'
loop_
_space_group_symop_operation_xyz
x,y,z
-x,-y,-z
loop_
_atom_site_type_symbol
_atom_site_label
_atom_site_fract_x
_atom_site_fract_y
_atom_site_fract_z
Si Si1 0.924393 0.277244 0.147478
Si Si2 0.233836 0.180749 0.655665
Si Si3 0.322610 0.893835 0.058667
Si Si4 0.072892 0.580974 0.344031
Si Si5 0.858270 0.189497 0.530276
Si Si6 0.300729 0.140769 0.278746
Si Si7 0.483295 0.261329 0.193363
Si Si8 0.533272 0.285146 0.618199
O O1 0.068905 0.307114 0.155857
O O2 0.785782 0.204917 0.033185
O O3 0.094453 0.052694 0.361356
O O4 0.742201 0.507399 0.037335
O O5 0.379962 0.965649 0.728515
O O6 0.053348 0.425931 0.439586
O O7 0.090379 0.138860 0.644485
O O8 0.431103 0.185078 0.811441
O O9 0.145348 0.176913 0.881424
O O10 0.367927 0.795025 0.207385
O O11 0.266773 0.384833 0.441366
O O12 0.197869 0.665199 0.452031
O O13 0.659276 0.308877 0.314240
O O14 0.380829 0.230495 0.228325
O O15 0.500000 0.000000 0.500000
O O16 0.298086 0.944191 0.281439
O O17 0.500000 0.500000 0.500000
#
# Coordination Sequence:
#
# PCOD9029179 Si02
#       8
#     2   2   2   2   2   2   2   2
#     4  11  26  42  67  98 130 180 217 273 329 392
#     4  11  24  43  68 100 130 177 220 277 326 386
#     4  10  23  43  64  98 132 166 227 268 326 390
#     4  10  22  42  66  95 130 173 217 274 326 384
#     4  11  24  44  69  97 134 174 225 266 333 390
#     4  12  25  45  67  95 134 176 217 267 331 398
#     4  12  24  45  65  97 137 172 223 268 330 394
#     4  11  23  42  66  98 131 170 218 272 327 387
#
# _framework density 24.370550999999999
#
# number of rings (size 3 to 8) (size 9 to 14) (size 15 to 20)
#    0.000    1.000    3.750    4.125    1.750    7.500 
#    0.000    0.000    0.000    0.000    0.000    0.000 
#    0.000    0.000    0.000    0.000    0.000    0.000 
#
# Total GULP energy -89478.961616 kJ/mol
# GULP energy per Si atom -5592.435101 kJ/mol
# Density = 2.431508 g / cm^3
# Si number density = 24.370551 Si / 1000 Ang^3
#
#
#
# Elastic Constant Matrix: (Units=GPa)
#
#
# Indices 1 2 3 4 5 6 
#
# 1 79.6833 5.1285 17.9464 2.2761 14.5123 10.3597
# 2 5.1285 60.2052 13.9426 -1.1891 11.9161 0.0425
# 3 17.9464 13.9426 129.7879 -21.6554 9.0543 -11.4047
# 4 2.2761 -1.1891 -21.6554 35.6537 6.8666 11.1653
# 5 14.5123 11.9161 9.0543 6.8666 35.0552 -3.7080
# 6 10.3597 0.0425 -11.4047 11.1653 -3.7080 27.4176
#
#
#
# Elastic Compliance Matrix: (Units=1/GPa)
#
#
# Indices 1 2 3 4 5 6 
#
# 1 0.015350 0.000665 -0.002128 0.001778 -0.007267 -0.008393
# 2 0.000665 0.018266 -0.001521 0.001721 -0.006695 -0.002518
# 3 -0.002128 -0.001521 0.009399 0.005449 -0.001859 0.002246
# 4 0.001778 0.001721 0.005449 0.038518 -0.011935 -0.015708
# 5 -0.007267 -0.006695 -0.001859 -0.011935 0.037895 0.011968
# 6 -0.008393 -0.002518 0.002246 -0.015708 0.011968 0.048597
#
#
# Mechanical properties :
#
#
# Convention : Reuss Voigt Hill
#
# Bulk Modulus (GPa) = 26.99358 38.19017 32.59187
# Shear Modulus (GPa) = 26.83219 35.13589 30.98404
#
# Velocity S-wave (km/s) = 3.32174 3.80114 3.56950
# Velocity P-wave (km/s) = 5.08058 5.91350 5.51280
#
# Compressibility (1/GPa) = 0.03704585
#
# Stress axis : x y z
#
# Youngs Moduli (GPa) = 65.14654 54.74538 106.39811
#
# Poissons Ratio (x) = -0.03638 0.22640
# Poissons Ratio (y) = -0.04329 0.16186
# Poissons Ratio (z) = 0.13862 0.08328
#
# Static dielectric constant tensor:
#      x y z
#    x 1.943300 -0.029950 -0.022520 
#    y -0.029950 2.030950 0.006640 
#    z -0.022520 0.006640 1.959310 
# 
# From -- ./inp_files/566564.got.cif
#   From: 2010.05.17/outbox.cif.g08.bks.cpg/sg2_284_cif.got.tgz:566564.got - 2010.06.03 11:33:40.
