data_PCOD9029641
_publ_section_title
;
Structure prediction by ZEFSAII (Michael W. Deem and Ramdas Pophale) SiO2 
 PCOD9029641
Probable space group: P -1
;
_chemical_formula_sum "Si O2"
_cell_formula_units_Z 14
_cell_length_a 9.024066
_cell_length_b 12.137892
_cell_length_c 12.695156
_cell_angle_alpha 132.878674
_cell_angle_beta 131.438297
_cell_angle_gamma 84.493913
_cell_volume 583.706698
_symmetry_space_group_name_H-M "P -1"
_symmetry_group_IT_number 2
_symmetry_cell_setting 'triclinic'
loop_
_space_group_symop_operation_xyz
x,y,z
-x,-y,-z
loop_
_atom_site_type_symbol
_atom_site_label
_atom_site_fract_x
_atom_site_fract_y
_atom_site_fract_z
Si Si1 0.250277 0.123687 0.270171
Si Si2 0.838665 0.194366 0.840104
Si Si3 0.392344 0.101300 0.972137
Si Si4 0.586480 0.560758 0.766088
Si Si5 0.460617 0.640254 0.974010
Si Si6 0.381625 0.937356 0.578213
Si Si7 0.927220 0.777154 0.416012
O O1 0.354389 0.340817 0.479666
O O2 0.188287 0.994813 0.261874
O O3 0.485957 0.136347 0.346068
O O4 0.000000 0.000000 0.000000
O O5 0.632993 0.160844 0.805272
O O6 0.732576 0.170969 0.658852
O O7 0.141750 0.375738 0.101871
O O8 0.093837 0.931310 0.688009
O O9 0.427515 0.271004 0.166313
O O10 0.539601 0.213773 0.004919
O O11 0.500000 0.000000 0.000000
O O12 0.572917 0.574646 0.895754
O O13 0.185716 0.440299 0.747478
O O14 0.675145 0.739386 0.230528
O O15 0.134146 0.870946 0.480943
#
# Coordination Sequence:
#
# PCOD9029641 Si02
#       7
#     2   2   2   2   2   2   2
#     4  10  23  42  69  95 135 183 222 279 339 403
#     4   9  20  42  65  97 132 177 220 284 336 392
#     4  10  24  43  69  97 141 181 218 282 337 402
#     4  10  22  42  68 101 130 178 230 271 347 398
#     4   9  23  40  70 101 131 184 220 283 339 396
#     4   9  20  42  65  98 134 177 219 281 332 400
#     4  11  20  44  65 104 137 170 234 276 335 410
#
# _framework density 23.984646999999999
#
# number of rings (size 3 to 8) (size 9 to 14) (size 15 to 20)
#    1.714    0.571    1.429    0.429    2.000    2.857 
#    5.143    0.000    0.000    0.000    0.000    0.000 
#    0.000    0.000    0.000    0.000    0.000    0.000 
#
# Total GULP energy -78056.641897 kJ/mol
# GULP energy per Si atom -5575.474421 kJ/mol
# Density = 2.393006 g / cm^3
# Si number density = 23.984647 Si / 1000 Ang^3
#
#
#
# Elastic Constant Matrix: (Units=GPa)
#
#
# Indices 1 2 3 4 5 6 
#
# 1 78.7488 14.7399 28.2903 -3.8635 20.4876 0.1444
# 2 14.7399 130.8955 83.8142 3.9988 0.8001 -7.2086
# 3 28.2903 83.8142 177.5905 17.3025 4.7083 -16.4382
# 4 -3.8635 3.9988 17.3025 36.9337 4.0904 8.3333
# 5 20.4876 0.8001 4.7083 4.0904 19.1314 12.4083
# 6 0.1444 -7.2086 -16.4382 8.3333 12.4083 27.2627
#
#
#
# Elastic Compliance Matrix: (Units=1/GPa)
#
#
# Indices 1 2 3 4 5 6 
#
# 1 0.021723 -0.000712 -0.001579 0.003893 -0.031343 0.011820
# 2 -0.000712 0.011081 -0.005524 0.001484 0.002685 -0.002073
# 3 -0.001579 -0.005524 0.009943 -0.005598 -0.004803 0.008440
# 4 0.003893 0.001484 -0.005598 0.032908 -0.002011 -0.012147
# 5 -0.031343 0.002685 -0.004803 -0.002011 0.125206 -0.058391
# 6 0.011820 -0.002073 0.008440 -0.012147 -0.058391 0.071447
#
#
# Mechanical properties :
#
#
# Convention : Reuss Voigt Hill
#
# Bulk Modulus (GPa) = 36.87545 71.21371 54.04458
# Shear Modulus (GPa) = 16.83636 34.02492 25.43064
#
# Velocity S-wave (km/s) = 2.65233 3.77053 3.25974
# Velocity P-wave (km/s) = 4.97874 6.97938 6.06216
#
# Compressibility (1/GPa) = 0.02711831
#
# Stress axis : x y z
#
# Youngs Moduli (GPa) = 46.03487 90.24469 100.56886
#
# Poissons Ratio (x) = 0.06422 0.15878
# Poissons Ratio (y) = 0.03276 0.55554
# Poissons Ratio (z) = 0.07268 0.49851
#
# Static dielectric constant tensor:
#      x y z
#    x 2.089360 -0.042370 -0.100080 
#    y -0.042370 1.950840 0.072900 
#    z -0.100080 0.072900 1.930390 
# 
# From -- ./inp_files/518227.got.cif
#   From: 2010.05.17/outbox.cif.g08.bks.cpg/sg2_260_cif.got.tgz:518227.got - 2010.06.03 11:33:40.
