data_PCOD9029100
_publ_section_title
;
Structure prediction by ZEFSAII (Michael W. Deem and Ramdas Pophale) SiO2 
 PCOD9029100
Probable space group: P -1
;
_chemical_formula_sum "Si O2"
_cell_formula_units_Z 16
_cell_length_a 15.306723
_cell_length_b 7.830903
_cell_length_c 16.929151
_cell_angle_alpha 56.267639
_cell_angle_beta 35.776738
_cell_angle_gamma 82.958292
_cell_volume 728.401212
_symmetry_space_group_name_H-M "P -1"
_symmetry_group_IT_number 2
_symmetry_cell_setting 'triclinic'
loop_
_space_group_symop_operation_xyz
x,y,z
-x,-y,-z
loop_
_atom_site_type_symbol
_atom_site_label
_atom_site_fract_x
_atom_site_fract_y
_atom_site_fract_z
Si Si1 0.691489 0.122417 0.246475
Si Si2 0.666160 0.481228 0.377397
Si Si3 0.699302 0.038618 0.845725
Si Si4 0.556486 0.453214 0.733675
Si Si5 0.984599 0.567728 0.198404
Si Si6 0.773672 0.673390 0.084456
Si Si7 0.176617 0.944415 0.663429
Si Si8 0.073603 0.530361 0.554646
O O1 0.710779 0.384717 0.176894
O O2 0.764923 0.081650 0.284546
O O3 0.465070 0.838960 0.468573
O O4 0.819394 0.182800 0.058918
O O5 0.500000 0.500000 0.500000
O O6 0.809084 0.576728 0.321553
O O7 0.807044 0.674926 0.151792
O O8 0.819346 0.170512 0.640984
O O9 0.874683 0.278589 0.715699
O O10 0.500000 0.000000 0.000000
O O11 0.594430 0.735662 0.034163
O O12 0.400335 0.324627 0.807519
O O13 0.740162 0.461457 0.590158
O O14 0.657822 0.769612 0.576493
O O15 0.898891 0.308380 0.271735
O O16 0.000893 0.513995 0.289820
O O17 0.982539 0.912127 0.827357
#
# Coordination Sequence:
#
# PCOD9029100 Si02
#       8
#     2   2   2   2   2   2   2   2
#     4  11  22  39  57  79 126 179 207 235 286 351
#     4  12  23  34  54  86 123 163 205 250 286 340
#     4   9  21  43  69  88 116 154 195 246 319 378
#     4  11  21  36  65  93 118 155 204 248 296 362
#     4  11  23  39  58  88 125 159 206 250 293 347
#     4  11  20  37  58  81 123 169 209 232 288 356
#     4  11  21  38  60  84 122 175 207 240 287 352
#     4  10  22  42  66  92 118 152 196 257 313 357
#
# _framework density 21.965916
#
# number of rings (size 3 to 8) (size 9 to 14) (size 15 to 20)
#    0.000    1.250    3.750    3.375    0.000    4.500 
#    0.000    0.625    0.000   15.750    0.000    0.000 
#    0.000    0.000    0.000    0.000    0.000    0.000 
#
# Total GULP energy -89280.906124 kJ/mol
# GULP energy per Si atom -5580.056633 kJ/mol
# Density = 2.191592 g / cm^3
# Si number density = 21.965916 Si / 1000 Ang^3
#
#
#
# Elastic Constant Matrix: (Units=GPa)
#
#
# Indices 1 2 3 4 5 6 
#
# 1 108.4882 10.2556 56.6032 3.1724 3.0171 10.2853
# 2 10.2556 33.4551 38.0655 -8.2396 9.6049 5.1453
# 3 56.6032 38.0655 160.7144 -7.5177 14.9752 -5.2174
# 4 3.1724 -8.2396 -7.5177 32.9735 -6.3083 7.3241
# 5 3.0171 9.6049 14.9752 -6.3083 44.6208 -0.0617
# 6 10.2853 5.1453 -5.2174 7.3241 -0.0617 20.2674
#
#
#
# Elastic Compliance Matrix: (Units=1/GPa)
#
#
# Indices 1 2 3 4 5 6 
#
# 1 0.012660 0.004116 -0.005727 0.000586 0.000250 -0.009155
# 2 0.004116 0.052709 -0.013581 0.014044 -0.005114 -0.024057
# 3 -0.005727 -0.013581 0.011760 -0.002648 -0.000996 0.010335
# 4 0.000586 0.014044 -0.002648 0.037822 0.003148 -0.018203
# 5 0.000250 -0.005114 -0.000996 0.003148 0.024274 -0.000149
# 6 -0.009155 -0.024057 0.010335 -0.018203 -0.000149 0.069332
#
#
# Mechanical properties :
#
#
# Convention : Reuss Voigt Hill
#
# Bulk Modulus (GPa) = 21.39275 56.94516 39.16896
# Shear Modulus (GPa) = 19.64444 32.75456 26.19950
#
# Velocity S-wave (km/s) = 2.99375 3.86574 3.45735
# Velocity P-wave (km/s) = 4.65943 6.77538 5.81447
#
# Compressibility (1/GPa) = 0.04674481
#
# Stress axis : x y z
#
# Youngs Moduli (GPa) = 78.98685 18.97205 85.03074
#
# Poissons Ratio (x) = -0.07808 0.48696
# Poissons Ratio (y) = -0.32507 1.15483
# Poissons Ratio (z) = 0.45234 0.25766
#
# Static dielectric constant tensor:
#      x y z
#    x 1.837720 -0.069030 -0.013950 
#    y -0.069030 1.923250 0.003790 
#    z -0.013950 0.003790 1.851530 
# 
# From -- ./inp_files/528269.got.cif
#   From: 2010.05.17/outbox.cif.g08.bks.cpg/sg2_265_cif.got.tgz:528269.got - 2010.06.03 11:33:40.
