data_PCOD9029198
_publ_section_title
;
Structure prediction by ZEFSAII (Michael W. Deem and Ramdas Pophale) SiO2 
 PCOD9029198
Probable space group: P -1
;
_chemical_formula_sum "Si O2"
_cell_formula_units_Z 13
_cell_length_a 14.482607
_cell_length_b 5.629591
_cell_length_c 11.925766
_cell_angle_alpha 95.931456
_cell_angle_beta 137.795488
_cell_angle_gamma 108.911195
_cell_volume 519.939158
_symmetry_space_group_name_H-M "P -1"
_symmetry_group_IT_number 2
_symmetry_cell_setting 'triclinic'
loop_
_space_group_symop_operation_xyz
x,y,z
-x,-y,-z
loop_
_atom_site_type_symbol
_atom_site_label
_atom_site_fract_x
_atom_site_fract_y
_atom_site_fract_z
Si Si1 0.177895 0.900038 0.619997
Si Si2 0.134221 0.246479 0.784881
Si Si3 0.470413 0.666354 0.575252
Si Si4 0.500000 0.000000 0.000000
Si Si5 0.006548 0.855566 0.111586
Si Si6 0.750938 0.248020 0.741287
Si Si7 0.501506 0.497544 0.160343
O O1 0.125654 0.010614 0.683881
O O2 0.316021 0.192792 0.683965
O O3 0.296659 0.802022 0.757548
O O4 0.999935 0.695235 0.379545
O O5 0.064352 0.104034 0.838025
O O6 0.340826 0.513911 0.993396
O O7 0.500000 0.500000 0.500000
O O8 0.289060 0.597601 0.381730
O O9 0.505412 0.599616 0.724065
O O10 0.598367 0.014538 0.675437
O O11 0.474918 0.239727 0.045421
O O12 0.191879 0.927146 0.282932
O O13 0.885231 0.501803 0.960154
O O14 0.000000 0.000000 0.000000
#
# Coordination Sequence:
#
# PCOD9029198 Si02
#       7
#     2   2   2   1   2   2   2
#     4  10  24  44  68  98 131 181 227 282 348 409
#     4  10  22  43  67  96 136 176 227 275 344 413
#     4  11  24  42  66  98 136 182 229 288 347 410
#     4  10  22  42  66  96 128 166 232 280 332 402
#     4  11  23  42  67  98 142 180 222 291 342 415
#     4  10  24  40  63 102 131 179 238 268 353 418
#     4  11  24  43  69  96 135 179 227 285 347 410
#
# _framework density 25.002924
#
# number of rings (size 3 to 8) (size 9 to 14) (size 15 to 20)
#    0.000    1.538    0.000    4.615    6.462    3.692 
#    0.000   15.385    0.000    0.000    0.000    0.000 
#    0.000    0.000    0.000    0.000    0.000    0.000 
#
# Total GULP energy -72438.507088 kJ/mol
# GULP energy per Si atom -5572.192853 kJ/mol
# Density = 2.494602 g / cm^3
# Si number density = 25.002924 Si / 1000 Ang^3
#
#
#
# Elastic Constant Matrix: (Units=GPa)
#
#
# Indices 1 2 3 4 5 6 
#
# 1 121.9386 25.6946 56.9128 -28.2409 9.9620 19.6361
# 2 25.6946 52.8516 34.1845 -12.2671 3.7315 4.8104
# 3 56.9128 34.1845 132.6169 -28.7169 26.5640 6.3809
# 4 -28.2409 -12.2671 -28.7169 52.7458 -4.7178 12.6545
# 5 9.9620 3.7315 26.5640 -4.7178 41.7211 -19.1761
# 6 19.6361 4.8104 6.3809 12.6545 -19.1761 38.9069
#
#
#
# Elastic Compliance Matrix: (Units=1/GPa)
#
#
# Indices 1 2 3 4 5 6 
#
# 1 0.014025 -0.002138 -0.001563 0.008611 -0.007099 -0.012857
# 2 -0.002138 0.023633 -0.004941 0.002031 0.001285 -0.001060
# 3 -0.001563 -0.004941 0.013391 0.006296 -0.010739 -0.008137
# 4 0.008611 0.002031 0.006296 0.031663 -0.012912 -0.022292
# 5 -0.007099 0.001285 -0.010739 -0.012912 0.045561 0.031840
# 6 -0.012857 -0.001060 -0.008137 -0.022292 0.031840 0.056601
#
#
# Mechanical properties :
#
#
# Convention : Reuss Voigt Hill
#
# Bulk Modulus (GPa) = 29.61551 60.11012 44.86281
# Shear Modulus (GPa) = 23.42867 39.38244 31.40556
#
# Velocity S-wave (km/s) = 3.06443 3.97308 3.54796
# Velocity P-wave (km/s) = 4.93877 6.71867 5.89627
#
# Compressibility (1/GPa) = 0.03376609
#
# Stress axis : x y z
#
# Youngs Moduli (GPa) = 71.29875 42.31329 74.67706
#
# Poissons Ratio (x) = 0.09046 0.11671
# Poissons Ratio (y) = 0.15242 0.36900
# Poissons Ratio (z) = 0.11143 0.20908
#
# Static dielectric constant tensor:
#      x y z
#    x 2.045070 0.153830 0.053560 
#    y 0.153830 2.222460 -0.098230 
#    z 0.053560 -0.098230 2.468650 
# 
# From -- ./inp_files/88108.got.cif
#   From: 2010.05.17/outbox.cif.g08.bks.cpg/sg2_45_cif.got.tgz:88108.got - 2010.06.03 11:33:40.
