data_PCOD9029478
_publ_section_title
;
Structure prediction by ZEFSAII (Michael W. Deem and Ramdas Pophale) SiO2 
 PCOD9029478
Probable space group: P -1
;
_chemical_formula_sum "Si O2"
_cell_formula_units_Z 14
_cell_length_a 8.711125
_cell_length_b 12.342416
_cell_length_c 18.753910
_cell_angle_alpha 25.410512
_cell_angle_beta 128.184162
_cell_angle_gamma 136.142085
_cell_volume 595.756477
_symmetry_space_group_name_H-M "P -1"
_symmetry_group_IT_number 2
_symmetry_cell_setting 'triclinic'
loop_
_space_group_symop_operation_xyz
x,y,z
-x,-y,-z
loop_
_atom_site_type_symbol
_atom_site_label
_atom_site_fract_x
_atom_site_fract_y
_atom_site_fract_z
Si Si1 0.184479 0.106394 0.782126
Si Si2 0.815205 0.190438 0.661749
Si Si3 0.993174 0.391678 0.802441
Si Si4 0.383771 0.701819 0.838000
Si Si5 0.325907 0.292186 0.857608
Si Si6 0.734290 0.318459 0.023547
Si Si7 0.251766 0.449714 0.460368
O O1 0.337727 0.335714 0.749500
O O2 0.144955 0.200171 0.636611
O O3 0.943606 0.004473 0.809047
O O4 0.289333 0.907007 0.910744
O O5 0.763316 0.281813 0.668419
O O6 0.000000 0.500000 0.500000
O O7 0.570730 0.988466 0.680818
O O8 0.152592 0.545333 0.823394
O O9 0.166461 0.392596 0.791793
O O10 0.873087 0.574768 0.633893
O O11 0.805498 0.059143 0.960753
O O12 0.343121 0.781159 0.858776
O O13 0.500000 0.500000 0.000000
O O14 0.567792 0.432161 0.880402
O O15 0.000000 0.500000 0.000000
O O16 0.500000 0.500000 0.500000
#
# Coordination Sequence:
#
# PCOD9029478 Si02
#       7
#     2   2   2   2   2   2   2
#     4  11  23  41  67  97 134 180 228 279 344 416
#     4  10  22  42  67  95 133 183 226 277 346 415
#     4  11  23  40  71 103 131 182 235 284 348 414
#     4  12  23  42  69 102 142 180 230 292 347 411
#     4  11  22  41  68 101 136 177 236 287 344 415
#     4  12  25  40  66 106 142 178 230 294 350 407
#     4  11  23  43  68  95 136 182 228 278 346 417
#
# _framework density 23.499535000000002
#
# number of rings (size 3 to 8) (size 9 to 14) (size 15 to 20)
#    0.000    0.857    2.857    5.571    0.000    1.143 
#    0.000    8.571    0.000    0.000    0.000    0.000 
#    0.000    0.000    0.000    0.000    0.000    0.000 
#
# Total GULP energy -78022.682363 kJ/mol
# GULP energy per Si atom -5573.048740 kJ/mol
# Density = 2.344605 g / cm^3
# Si number density = 23.499535 Si / 1000 Ang^3
#
#
#
# Elastic Constant Matrix: (Units=GPa)
#
#
# Indices 1 2 3 4 5 6 
#
# 1 139.8995 36.5163 18.9488 0.8377 19.6654 10.3272
# 2 36.5163 122.5723 35.7747 26.8579 -7.7979 28.5911
# 3 18.9488 35.7747 73.6878 18.8665 -6.3175 22.0396
# 4 0.8377 26.8579 18.8665 38.8529 13.3966 5.6371
# 5 19.6654 -7.7979 -6.3175 13.3966 29.3540 2.4862
# 6 10.3272 28.5911 22.0396 5.6371 2.4862 53.1715
#
#
#
# Elastic Compliance Matrix: (Units=1/GPa)
#
#
# Indices 1 2 3 4 5 6 
#
# 1 0.011354 -0.006029 -0.005061 0.011420 -0.015735 0.002659
# 2 -0.006029 0.015728 0.001570 -0.016192 0.016537 -0.006993
# 3 -0.005061 0.001570 0.022137 -0.016310 0.016701 -0.008089
# 4 0.011420 -0.016192 -0.016310 0.058011 -0.042708 0.009096
# 5 -0.015735 0.016537 0.016701 -0.042708 0.073073 -0.011648
# 6 0.002659 -0.006993 -0.008089 0.009096 -0.011648 0.024984
#
#
# Mechanical properties :
#
#
# Convention : Reuss Voigt Hill
#
# Bulk Modulus (GPa) = 33.13622 57.62657 45.38140
# Shear Modulus (GPa) = 21.33216 40.60366 30.96791
#
# Velocity S-wave (km/s) = 3.01619 4.16125 3.63410
# Velocity P-wave (km/s) = 5.12458 6.90389 6.07968
#
# Compressibility (1/GPa) = 0.03017845
#
# Stress axis : x y z
#
# Youngs Moduli (GPa) = 88.07221 63.58195 45.17287
#
# Poissons Ratio (x) = 0.38335 0.22862
# Poissons Ratio (y) = 0.53101 -0.07091
# Poissons Ratio (z) = 0.44573 -0.09981
#
# Static dielectric constant tensor:
#      x y z
#    x 1.864650 0.021420 0.043520 
#    y 0.021420 1.931280 -0.046730 
#    z 0.043520 -0.046730 1.950540 
# 
# From -- ./inp_files/245161.got.cif
#   From: 2010.05.17/outbox.cif.g08.bks.cpg/sg2_123_cif.got.tgz:245161.got - 2010.06.03 11:33:40.
