data_PCOD9029879
_publ_section_title
;
Structure prediction by ZEFSAII (Michael W. Deem and Ramdas Pophale) SiO2 
 PCOD9029879
Probable space group: P -1
;
_chemical_formula_sum "Si O2"
_cell_formula_units_Z 13
_cell_length_a 20.022170
_cell_length_b 4.796062
_cell_length_c 7.520855
_cell_angle_alpha 59.997148
_cell_angle_beta 48.073223
_cell_angle_gamma 67.690447
_cell_volume 464.160992
_symmetry_space_group_name_H-M "P -1"
_symmetry_group_IT_number 2
_symmetry_cell_setting 'triclinic'
loop_
_space_group_symop_operation_xyz
x,y,z
-x,-y,-z
loop_
_atom_site_type_symbol
_atom_site_label
_atom_site_fract_x
_atom_site_fract_y
_atom_site_fract_z
Si Si1 0.009736 0.171082 0.197483
Si Si2 0.733901 0.021673 0.496208
Si Si3 0.641270 0.951010 0.311794
Si Si4 0.894797 0.600375 0.507242
Si Si5 0.551399 0.351993 0.786177
Si Si6 0.500000 0.500000 0.500000
Si Si7 0.816374 0.661878 0.008641
O O1 0.942955 0.275604 0.446835
O O2 0.115518 0.151689 0.052917
O O3 0.966763 0.871956 0.280146
O O4 0.000000 0.500000 0.000000
O O5 0.646559 0.163438 0.715857
O O6 0.688708 0.903374 0.434003
O O7 0.803071 0.742314 0.533815
O O8 0.787303 0.336815 0.256143
O O9 0.576504 0.652952 0.500529
O O10 0.586657 0.288692 0.308701
O O11 0.726121 0.885559 0.054073
O O12 0.869137 0.569590 0.766377
O O13 0.499001 0.198059 0.765770
O O14 0.500000 0.500000 0.000000
#
# Coordination Sequence:
#
# PCOD9029879 Si02
#       7
#     2   2   2   2   2   1   2
#     4  12  25  46  72 100 145 188 236 296 350 419
#     4  10  24  44  65 102 136 183 228 296 349 423
#     4  10  23  45  67  97 138 176 229 294 352 420
#     4  12  27  44  72 105 138 194 237 287 360 424
#     4  10  23  44  68  97 137 176 231 292 360 435
#     4  10  22  42  68  98 128 180 230 282 366 418
#     4  11  25  43  69  99 141 180 238 292 349 422
#
# _framework density 28.007525999999999
#
# number of rings (size 3 to 8) (size 9 to 14) (size 15 to 20)
#    0.000    1.231    1.538    2.769    8.615    2.462 
#    8.308    0.000    0.000    0.000    0.000    0.000 
#    0.000    0.000    0.000    0.000    0.000    0.000 
#
# Total GULP energy -72755.326780 kJ/mol
# GULP energy per Si atom -5596.563598 kJ/mol
# Density = 2.794378 g / cm^3
# Si number density = 28.007526 Si / 1000 Ang^3
#
#
#
# Elastic Constant Matrix: (Units=GPa)
#
#
# Indices 1 2 3 4 5 6 
#
# 1 133.5638 44.5813 21.8373 10.2939 -31.6679 -24.7160
# 2 44.5813 180.8697 33.8844 29.3236 -29.3229 -3.9985
# 3 21.8373 33.8844 136.9313 27.0048 -14.2519 -0.0324
# 4 10.2939 29.3236 27.0048 56.4064 8.3096 -14.1667
# 5 -31.6679 -29.3229 -14.2519 8.3096 42.0428 15.0469
# 6 -24.7160 -3.9985 -0.0324 -14.1667 15.0469 58.1118
#
#
#
# Elastic Compliance Matrix: (Units=1/GPa)
#
#
# Indices 1 2 3 4 5 6 
#
# 1 0.009862 -0.001120 -0.000410 -0.001336 0.005968 0.002246
# 2 -0.001120 0.007735 0.000081 -0.005628 0.006792 -0.003075
# 3 -0.000410 0.000081 0.008987 -0.005709 0.004936 -0.002834
# 4 -0.001336 -0.005628 -0.005709 0.028572 -0.016162 0.010191
# 5 0.005968 0.006792 0.004936 -0.016162 0.042122 -0.011838
# 6 0.002246 -0.003075 -0.002834 0.010191 -0.011838 0.023500
#
#
# Mechanical properties :
#
#
# Convention : Reuss Voigt Hill
#
# Bulk Modulus (GPa) = 42.22126 72.44119 57.33122
# Shear Modulus (GPa) = 38.00185 54.71631 46.35908
#
# Velocity S-wave (km/s) = 3.68753 4.42478 4.07287
# Velocity P-wave (km/s) = 5.76526 7.21290 6.52933
#
# Compressibility (1/GPa) = 0.02368475
#
# Stress axis : x y z
#
# Youngs Moduli (GPa) = 101.40326 129.27596 111.26746
#
# Poissons Ratio (x) = 0.14479 0.04566
# Poissons Ratio (y) = 0.11357 -0.00897
# Poissons Ratio (z) = 0.04161 -0.01042
#
# Static dielectric constant tensor:
#      x y z
#    x 2.454950 0.020150 0.068790 
#    y 0.020150 2.195520 -0.132670 
#    z 0.068790 -0.132670 2.426910 
# 
# From -- ./inp_files/25015.got.cif
#   From: 2010.05.17/outbox.cif.g08.bks.cpg/sg2_13_cif.got.tgz:25015.got - 2010.06.03 11:33:40.
