data_PCOD9029323
_publ_section_title
;
Structure prediction by ZEFSAII (Michael W. Deem and Ramdas Pophale) SiO2 
 PCOD9029323
Probable space group: P -1
;
_chemical_formula_sum "Si O2"
_cell_formula_units_Z 15
_cell_length_a 15.440810
_cell_length_b 5.357482
_cell_length_c 8.739207
_cell_angle_alpha 87.710281
_cell_angle_beta 96.616032
_cell_angle_gamma 122.167776
_cell_volume 607.692241
_symmetry_space_group_name_H-M "P -1"
_symmetry_group_IT_number 2
_symmetry_cell_setting 'triclinic'
loop_
_space_group_symop_operation_xyz
x,y,z
-x,-y,-z
loop_
_atom_site_type_symbol
_atom_site_label
_atom_site_fract_x
_atom_site_fract_y
_atom_site_fract_z
Si Si1 0.655128 0.074333 0.994584
Si Si2 0.673943 0.549499 0.426586
Si Si3 0.970597 0.658387 0.366940
Si Si4 0.970429 0.301688 0.144420
Si Si5 0.131791 0.272767 0.377549
Si Si6 0.500000 0.500000 0.500000
Si Si7 0.507220 0.944186 0.257780
Si Si8 0.232903 0.263428 0.899835
O O1 0.729761 0.426298 0.021037
O O2 0.580547 0.969233 0.131898
O O3 0.713613 0.899155 0.009640
O O4 0.582543 0.025376 0.836966
O O5 0.748451 0.549705 0.570234
O O6 0.623059 0.725081 0.472834
O O7 0.728712 0.670606 0.270831
O O8 0.571203 0.231956 0.373282
O O9 0.910325 0.410209 0.236184
O O10 0.908018 0.756447 0.453430
O O11 0.000000 0.500000 0.500000
O O12 0.076728 0.934931 0.321070
O O13 0.073745 0.375324 0.252226
O O14 0.890486 0.957447 0.111125
O O15 0.000000 0.500000 0.000000
O O16 0.468705 0.645964 0.349114
#
# Coordination Sequence:
#
# PCOD9029323 Si02
#       8
#     2   2   2   2   2   1   2   2
#     4  10  24  45  75 101 140 191 247 289 369 430
#     4  11  24  42  71 102 140 188 242 298 368 431
#     4   9  19  39  69  94 133 173 234 289 350 430
#     4  11  26  44  67 104 147 185 240 304 362 445
#     4  10  22  42  67 102 134 187 234 294 364 438
#     4  12  24  42  64 104 138 184 240 310 352 424
#     4  10  24  43  68  98 144 184 241 306 353 430
#     4  11  24  45  76 106 137 198 241 293 365 450
#
# _framework density 24.683547000000001
#
# number of rings (size 3 to 8) (size 9 to 14) (size 15 to 20)
#    0.000    1.600    1.333    2.800    7.467    5.333 
#    4.800    0.000    0.000    0.000    0.000    0.000 
#    0.000    0.000    0.000    0.000    0.000    0.000 
#
# Total GULP energy -83584.733695 kJ/mol
# GULP energy per Si atom -5572.315580 kJ/mol
# Density = 2.462737 g / cm^3
# Si number density = 24.683547 Si / 1000 Ang^3
#
#
#
# Elastic Constant Matrix: (Units=GPa)
#
#
# Indices 1 2 3 4 5 6 
#
# 1 80.1319 21.1047 50.3082 17.1745 51.6723 12.5216
# 2 21.1047 113.9991 56.2161 -0.5415 21.8557 -2.8402
# 3 50.3082 56.2161 115.5890 -13.7703 47.1402 9.5073
# 4 17.1745 -0.5415 -13.7703 30.4945 4.8590 5.8658
# 5 51.6723 21.8557 47.1402 4.8590 50.5073 -2.6475
# 6 12.5216 -2.8402 9.5073 5.8658 -2.6475 39.0123
#
#
#
# Elastic Compliance Matrix: (Units=1/GPa)
#
#
# Indices 1 2 3 4 5 6 
#
# 1 0.056853 0.001730 -0.005546 -0.022893 -0.052419 -0.016885
# 2 0.001730 0.012257 -0.008027 -0.005158 0.001079 0.003142
# 3 -0.005546 -0.008027 0.024163 0.018001 -0.015580 -0.008457
# 4 -0.022893 -0.005158 0.018001 0.054215 0.003356 -0.005339
# 5 -0.052419 0.001079 -0.015580 0.003356 0.088552 0.026205
# 6 -0.016885 0.003142 -0.008457 -0.005339 0.026205 0.035923
#
#
# Mechanical properties :
#
#
# Convention : Reuss Voigt Hill
#
# Bulk Modulus (GPa) = 14.37060 62.77533 38.57296
# Shear Modulus (GPa) = 15.68160 36.14222 25.91191
#
# Velocity S-wave (km/s) = 2.52326 3.83067 3.24352
# Velocity P-wave (km/s) = 3.78467 6.71213 5.44868
#
# Compressibility (1/GPa) = 0.06958653
#
# Stress axis : x y z
#
# Youngs Moduli (GPa) = 17.58929 81.58633 41.38566
#
# Poissons Ratio (x) = -0.14115 0.22953
# Poissons Ratio (y) = -0.03043 0.33220
# Poissons Ratio (z) = 0.09755 0.65489
#
# Static dielectric constant tensor:
#      x y z
#    x -0.380240 1.509980 1.068580 
#    y 1.509980 1.050940 -0.652330 
#    z 1.068580 -0.652330 1.479240 
# 
# From -- ./inp_files/322520.got.cif
#   From: 2010.05.17/outbox.cif.g08.bks.cpg/sg2_162_cif.got.tgz:322520.got - 2010.06.03 11:33:40.
