data_PCOD9029931
_publ_section_title
;
Structure prediction by ZEFSAII (Michael W. Deem and Ramdas Pophale) SiO2 
 PCOD9029931
Probable space group: P -1
;
_chemical_formula_sum "Si O2"
_cell_formula_units_Z 14
_cell_length_a 19.483819
_cell_length_b 11.483538
_cell_length_c 14.212357
_cell_angle_alpha 146.532127
_cell_angle_beta 30.284785
_cell_angle_gamma 156.787315
_cell_volume 618.756285
_symmetry_space_group_name_H-M "P -1"
_symmetry_group_IT_number 2
_symmetry_cell_setting 'triclinic'
loop_
_space_group_symop_operation_xyz
x,y,z
-x,-y,-z
loop_
_atom_site_type_symbol
_atom_site_label
_atom_site_fract_x
_atom_site_fract_y
_atom_site_fract_z
Si Si1 0.722091 0.071549 0.240291
Si Si2 0.891050 0.470409 0.018877
Si Si3 0.313964 0.524198 0.354381
Si Si4 0.715372 0.715462 0.426425
Si Si5 0.346756 0.174650 0.222936
Si Si6 0.055678 0.325284 0.347795
Si Si7 0.226078 0.262476 0.938015
O O1 0.699908 0.294125 0.434874
O O2 0.525841 0.775245 0.222500
O O3 0.717343 0.920269 0.236693
O O4 0.929137 0.255399 0.073759
O O5 0.767956 0.529348 0.240172
O O6 0.000000 0.500000 0.000000
O O7 0.757093 0.154423 0.909753
O O8 0.302022 0.296719 0.275291
O O9 0.152482 0.397478 0.383582
O O10 0.500000 0.500000 0.500000
O O11 0.737376 0.841203 0.588482
O O12 0.854274 0.977707 0.362046
O O13 0.582427 0.425707 0.127028
O O14 0.000000 0.500000 0.500000
O O15 0.203531 0.376937 0.136230
O O16 0.000000 0.000000 0.000000
#
# Coordination Sequence:
#
# PCOD9029931 Si02
#       7
#     2   2   2   2   2   2   2
#     4  10  22  42  68  99 140 185 232 298 360 430
#     4  12  26  44  75 108 148 192 246 302 373 442
#     4  10  23  45  73 104 142 184 243 304 368 433
#     4  12  28  50  72 108 156 193 246 311 375 441
#     4  11  27  46  76 107 147 193 243 307 373 436
#     4  12  26  44  73 103 141 191 248 300 365 440
#     4  11  24  45  68 101 140 188 244 294 362 438
#
# _framework density 22.626033
#
# number of rings (size 3 to 8) (size 9 to 14) (size 15 to 20)
#    0.000    0.857    1.429    4.286    4.000    5.714 
#    0.000    0.000    0.000    0.000    0.000    0.000 
#    0.000    0.000    0.000    0.000    0.000    0.000 
#
# Total GULP energy -78228.116382 kJ/mol
# GULP energy per Si atom -5587.722599 kJ/mol
# Density = 2.257454 g / cm^3
# Si number density = 22.626033 Si / 1000 Ang^3
#
#
#
# Elastic Constant Matrix: (Units=GPa)
#
#
# Indices 1 2 3 4 5 6 
#
# 1 67.8971 19.3843 25.1294 2.2401 -15.2872 16.8249
# 2 19.3843 107.2418 43.6739 -15.6400 -7.1329 16.3585
# 3 25.1294 43.6739 132.7594 1.0844 -3.9769 -1.6152
# 4 2.2401 -15.6400 1.0844 36.0642 0.5289 -4.1986
# 5 -15.2872 -7.1329 -3.9769 0.5289 42.8336 -8.8321
# 6 16.8249 16.3585 -1.6152 -4.1986 -8.8321 35.9557
#
#
#
# Elastic Compliance Matrix: (Units=1/GPa)
#
#
# Indices 1 2 3 4 5 6 
#
# 1 0.019341 -0.001022 -0.003254 -0.002530 0.004846 -0.007837
# 2 -0.001022 0.012661 -0.004062 0.005114 0.000316 -0.004790
# 3 -0.003254 -0.004062 0.009534 -0.001426 -0.000196 0.003585
# 4 -0.002530 0.005114 -0.001426 0.030418 -0.000080 0.002325
# 5 0.004846 0.000316 -0.000196 -0.000080 0.025923 0.003938
# 6 -0.007837 -0.004790 0.003585 0.002325 0.003938 0.035058
#
#
# Mechanical properties :
#
#
# Convention : Reuss Voigt Hill
#
# Bulk Modulus (GPa) = 40.22658 53.80818 47.01738
# Shear Modulus (GPa) = 31.66580 37.61810 34.64195
#
# Velocity S-wave (km/s) = 3.74509 4.08193 3.91713
# Velocity P-wave (km/s) = 6.04304 6.78596 6.42525
#
# Compressibility (1/GPa) = 0.02485919
#
# Stress axis : x y z
#
# Youngs Moduli (GPa) = 51.70434 78.98073 104.88571
#
# Poissons Ratio (x) = 0.08071 0.34133
# Poissons Ratio (y) = 0.05284 0.42608
# Poissons Ratio (z) = 0.16826 0.32085
#
# Static dielectric constant tensor:
#      x y z
#    x 1.949160 0.017930 -0.012490 
#    y 0.017930 1.879520 -0.005740 
#    z -0.012490 -0.005740 1.842390 
# 
# From -- ./inp_files/471972.got.cif
#   From: 2010.05.17/outbox.cif.g08.bks.cpg/sg2_236_cif.got.tgz:471972.got - 2010.06.03 11:33:40.
