data_PCOD9029014
_publ_section_title
;
Structure prediction by ZEFSAII (Michael W. Deem and Ramdas Pophale) SiO2 
 PCOD9029014
Probable space group: P -1
;
_chemical_formula_sum "Si O2"
_cell_formula_units_Z 14
_cell_length_a 7.896453
_cell_length_b 6.315556
_cell_length_c 14.783779
_cell_angle_alpha 48.678592
_cell_angle_beta 92.301272
_cell_angle_gamma 95.164802
_cell_volume 551.274462
_symmetry_space_group_name_H-M "P -1"
_symmetry_group_IT_number 2
_symmetry_cell_setting 'triclinic'
loop_
_space_group_symop_operation_xyz
x,y,z
-x,-y,-z
loop_
_atom_site_type_symbol
_atom_site_label
_atom_site_fract_x
_atom_site_fract_y
_atom_site_fract_z
Si Si1 0.161454 0.581909 0.693166
Si Si2 0.605682 0.918896 0.371906
Si Si3 0.234630 0.625021 0.474409
Si Si4 0.649673 0.926654 0.154962
Si Si5 0.323062 0.677816 0.108357
Si Si6 0.000000 0.500000 0.000000
Si Si7 0.909030 0.849911 0.739936
Si Si8 0.000000 0.000000 0.000000
O O1 0.163712 0.597254 0.581514
O O2 0.190292 0.257164 0.813652
O O3 0.006751 0.729920 0.690841
O O4 0.326860 0.778250 0.675080
O O5 0.420764 0.796577 0.434100
O O6 0.732456 0.685119 0.472538
O O7 0.614151 0.919731 0.262286
O O8 0.122046 0.824787 0.359305
O O9 0.491567 0.773714 0.139419
O O10 0.671065 0.236947 0.022938
O O11 0.267967 0.347358 0.204220
O O12 0.174981 0.864809 0.085259
O O13 0.009829 0.772497 0.852164
O O14 0.963851 0.707277 0.024257
#
# Coordination Sequence:
#
# PCOD9029014 Si02
#       8
#     2   2   2   2   2   1   2   1
#     4  11  23  43  68  96 134 177 230 291 349 422
#     4  10  23  41  69  97 129 177 227 294 343 424
#     4  10  23  45  64  97 133 178 234 285 351 416
#     4  10  22  42  66  97 136 176 233 280 357 422
#     4  10  22  42  66 100 135 185 224 288 352 438
#     4  10  24  42  64 106 138 190 222 292 356 434
#     4  11  24  42  71  99 138 180 230 290 359 424
#     4  10  22  42  66  94 148 176 238 280 352 422
#
# _framework density 25.395696999999998
#
# number of rings (size 3 to 8) (size 9 to 14) (size 15 to 20)
#    0.000    1.714    0.000    3.429    6.000    2.857 
#    2.571    2.143    0.000    0.000    0.000    0.000 
#    0.000    0.000    0.000    0.000    0.000    0.000 
#
# Total GULP energy -77991.107852 kJ/mol
# GULP energy per Si atom -5570.793418 kJ/mol
# Density = 2.533790 g / cm^3
# Si number density = 25.395697 Si / 1000 Ang^3
#
#
#
# Elastic Constant Matrix: (Units=GPa)
#
#
# Indices 1 2 3 4 5 6 
#
# 1 69.4257 18.0283 33.3718 -4.0155 7.5562 -13.2430
# 2 18.0283 112.4436 55.4608 -22.3880 12.9757 -7.8197
# 3 33.3718 55.4608 133.0323 -7.4791 22.5492 -20.5466
# 4 -4.0155 -22.3880 -7.4791 31.9039 -12.9675 -0.1679
# 5 7.5562 12.9757 22.5492 -12.9675 39.8335 -5.3637
# 6 -13.2430 -7.8197 -20.5466 -0.1679 -5.3637 27.2416
#
#
#
# Elastic Compliance Matrix: (Units=1/GPa)
#
#
# Indices 1 2 3 4 5 6 
#
# 1 0.017236 -0.000630 -0.003065 0.000944 -0.000235 0.005846
# 2 -0.000630 0.012990 -0.005040 0.008461 0.001491 -0.000033
# 3 -0.003065 -0.005040 0.011797 -0.003074 -0.004783 0.005000
# 4 0.000944 0.008461 -0.003074 0.041946 0.012914 0.003370
# 5 -0.000235 0.001491 -0.004783 0.012914 0.031990 0.003085
# 6 0.005846 -0.000033 0.005000 0.003370 0.003085 0.043941
#
#
# Mechanical properties :
#
#
# Convention : Reuss Voigt Hill
#
# Bulk Modulus (GPa) = 40.72744 58.73593 49.73169
# Shear Modulus (GPa) = 26.94611 33.66519 30.30565
#
# Velocity S-wave (km/s) = 3.26091 3.64486 3.45822
# Velocity P-wave (km/s) = 5.50000 6.39468 5.96414
#
# Compressibility (1/GPa) = 0.02455347
#
# Stress axis : x y z
#
# Youngs Moduli (GPa) = 58.01741 76.98012 84.76672
#
# Poissons Ratio (x) = 0.04849 0.25985
# Poissons Ratio (y) = 0.03655 0.42720
# Poissons Ratio (z) = 0.17785 0.38796
#
# Static dielectric constant tensor:
#      x y z
#    x 2.159510 0.111900 0.010340 
#    y 0.111900 1.806300 -0.109760 
#    z 0.010340 -0.109760 1.873870 
# 
# From -- ./inp_files/46728.got.cif
#   From: 2010.05.17/outbox.cif.g08.bks.cpg/sg2_24_cif.got.tgz:46728.got - 2010.06.03 11:33:40.
