data_PCOD9029186
_publ_section_title
;
Structure prediction by ZEFSAII (Michael W. Deem and Ramdas Pophale) SiO2 
 PCOD9029186
Probable space group: P -1
;
_chemical_formula_sum "Si O2"
_cell_formula_units_Z 12
_cell_length_a 12.117484
_cell_length_b 6.778935
_cell_length_c 18.083894
_cell_angle_alpha 48.226695
_cell_angle_beta 23.461719
_cell_angle_gamma 44.154493
_cell_volume 411.809028
_symmetry_space_group_name_H-M "P -1"
_symmetry_group_IT_number 2
_symmetry_cell_setting 'triclinic'
loop_
_space_group_symop_operation_xyz
x,y,z
-x,-y,-z
loop_
_atom_site_type_symbol
_atom_site_label
_atom_site_fract_x
_atom_site_fract_y
_atom_site_fract_z
Si Si1 0.240096 0.192051 0.394775
Si Si2 0.338419 0.033271 0.027724
Si Si3 0.807844 0.844582 0.195614
Si Si4 0.309021 0.642213 0.655310
Si Si5 0.363958 0.534022 0.010134
Si Si6 0.361738 0.658485 0.345191
O O1 0.431431 0.353518 0.196696
O O2 0.893210 0.370986 0.545671
O O3 0.463968 0.043405 0.361910
O O4 0.245427 0.907325 0.416851
O O5 0.987222 0.092400 0.241958
O O6 0.405396 0.729341 0.010417
O O7 0.383260 0.223265 0.029849
O O8 0.436812 0.222529 0.859894
O O9 0.829005 0.601214 0.184602
O O10 0.005441 0.690641 0.182108
O O11 0.000000 0.000000 0.000000
O O12 0.500000 0.500000 0.500000
O O13 0.489675 0.618341 0.625518
#
# Coordination Sequence:
#
# PCOD9029186 Si02
#       6
#     2   2   2   2   2   2
#     4   9  20  38  67  93 128 176 218 264 331 391
#     4  12  25  42  66 102 135 175 222 273 333 398
#     4   9  20  38  61  95 126 176 215 263 323 394
#     4  11  25  43  69  95 133 178 224 273 333 398
#     4  11  21  39  66  99 134 175 220 273 331 393
#     4  10  22  42  66  95 134 175 224 272 330 396
#
# _framework density 29.139718999999999
#
# number of rings (size 3 to 8) (size 9 to 14) (size 15 to 20)
#    0.000    1.667    3.333    0.500    9.333    0.000 
#    0.000    3.333    0.000    0.000    0.000    0.000 
#    0.000    0.000    0.000    0.000    0.000    0.000 
#
# Total GULP energy -66949.839242 kJ/mol
# GULP energy per Si atom -5579.153270 kJ/mol
# Density = 2.907340 g / cm^3
# Si number density = 29.139719 Si / 1000 Ang^3
#
#
#
# Elastic Constant Matrix: (Units=GPa)
#
#
# Indices 1 2 3 4 5 6 
#
# 1 251.3470 68.9561 62.7047 41.3450 -46.0299 -18.7069
# 2 68.9561 150.4573 70.8789 40.1185 -14.9077 -8.2498
# 3 62.7047 70.8789 173.4125 31.6920 -23.2507 -27.0368
# 4 41.3450 40.1185 31.6920 53.9955 -3.4520 -21.5668
# 5 -46.0299 -14.9077 -23.2507 -3.4520 55.1758 3.6230
# 6 -18.7069 -8.2498 -27.0368 -21.5668 3.6230 59.7121
#
#
#
# Elastic Compliance Matrix: (Units=1/GPa)
#
#
# Indices 1 2 3 4 5 6 
#
# 1 0.005633 -0.001198 -0.000474 -0.002843 0.003990 0.000115
# 2 -0.001198 0.010008 -0.002951 -0.005735 0.000261 -0.002416
# 3 -0.000474 -0.002951 0.007986 -0.000973 0.001941 0.002591
# 4 -0.002843 -0.005735 -0.000973 0.028698 -0.003089 0.008429
# 5 0.003990 0.000261 0.001941 -0.003089 0.022167 -0.000296
# 6 0.000115 -0.002416 0.002591 0.008429 -0.000296 0.020685
#
#
# Mechanical properties :
#
#
# Convention : Reuss Voigt Hill
#
# Bulk Modulus (GPa) = 69.54252 108.92179 89.23216
# Shear Modulus (GPa) = 45.78007 58.62183 52.20095
#
# Velocity S-wave (km/s) = 3.96795 4.49012 4.23709
# Velocity P-wave (km/s) = 6.70148 8.02134 7.39093
#
# Compressibility (1/GPa) = 0.01437969
#
# Stress axis : x y z
#
# Youngs Moduli (GPa) = 177.53914 99.91686 125.21463
#
# Poissons Ratio (x) = 0.11972 0.05941
# Poissons Ratio (y) = 0.21273 0.36952
# Poissons Ratio (z) = 0.08423 0.29486
#
# Static dielectric constant tensor:
#      x y z
#    x 2.338730 -0.033670 -0.084210 
#    y -0.033670 2.634760 -0.049580 
#    z -0.084210 -0.049580 2.213170 
# 
# From -- ./inp_files/611584.got.cif
#   From: 2010.05.17/outbox.cif.g08.bks.cpg/sg2_306_cif.got.tgz:611584.got - 2010.06.03 11:33:40.
