data_PCOD9029401
_publ_section_title
;
Structure prediction by ZEFSAII (Michael W. Deem and Ramdas Pophale) SiO2 
 PCOD9029401
Probable space group: P -1
;
_chemical_formula_sum "Si O2"
_cell_formula_units_Z 14
_cell_length_a 6.879022
_cell_length_b 15.375416
_cell_length_c 15.709690
_cell_angle_alpha 152.877967
_cell_angle_beta 110.419400
_cell_angle_gamma 69.262965
_cell_volume 706.196575
_symmetry_space_group_name_H-M "P -1"
_symmetry_group_IT_number 2
_symmetry_cell_setting 'triclinic'
loop_
_space_group_symop_operation_xyz
x,y,z
-x,-y,-z
loop_
_atom_site_type_symbol
_atom_site_label
_atom_site_fract_x
_atom_site_fract_y
_atom_site_fract_z
Si Si1 0.352044 0.967014 0.027371
Si Si2 0.516954 0.155967 0.877359
Si Si3 0.825610 0.079121 0.608310
Si Si4 0.866428 0.438570 0.183364
Si Si5 0.930181 0.625058 0.015592
Si Si6 0.998689 0.683942 0.720487
Si Si7 0.425215 0.183503 0.545672
O O1 0.196866 0.158788 0.187991
O O2 0.483262 0.913210 0.085472
O O3 0.500000 0.000000 0.000000
O O4 0.204284 0.797297 0.838989
O O5 0.528775 0.975961 0.658946
O O6 0.720375 0.268622 0.996912
O O7 0.311655 0.298340 0.951324
O O8 0.644606 0.214076 0.650006
O O9 0.712217 0.909316 0.484391
O O10 0.000000 0.000000 0.500000
O O11 0.939774 0.191618 0.794682
O O12 0.000336 0.383547 0.239772
O O13 0.707158 0.626095 0.340290
O O14 0.001788 0.468326 0.145780
O O15 0.000000 0.500000 0.000000
O O16 0.000000 0.500000 0.500000
#
# Coordination Sequence:
#
# PCOD9029401 Si02
#       7
#     2   2   2   2   2   2   2
#     4  10  22  42  67  93 125 164 208 263 322 379
#     4  11  23  42  63  90 123 165 208 254 311 372
#     4  11  22  39  58  87 124 163 208 250 297 356
#     4  11  24  41  62  94 123 162 209 257 311 371
#     4  12  24  39  62  90 131 166 207 256 304 362
#     4  10  22  43  67  94 127 161 209 265 325 379
#     4  11  23  39  63  86 122 165 209 249 302 362
#
# _framework density 19.824508000000002
#
# number of rings (size 3 to 8) (size 9 to 14) (size 15 to 20)
#    0.000    1.143    2.857    3.429    2.000    1.714 
#    2.571    0.000    0.000    0.000    0.000    0.000 
#    0.000    0.000    0.000    0.000    0.000    0.000 
#
# Total GULP energy -78259.095557 kJ/mol
# GULP energy per Si atom -5589.935397 kJ/mol
# Density = 1.977939 g / cm^3
# Si number density = 19.824508 Si / 1000 Ang^3
#
#
#
# Elastic Constant Matrix: (Units=GPa)
#
#
# Indices 1 2 3 4 5 6 
#
# 1 69.8792 28.2009 21.7396 -17.3243 -18.1129 20.6347
# 2 28.2009 122.9793 22.4398 -7.0493 -14.9187 5.9112
# 3 21.7396 22.4398 97.8387 -8.6608 -15.8616 -0.8133
# 4 -17.3243 -7.0493 -8.6608 28.1116 -0.7026 -3.3069
# 5 -18.1129 -14.9187 -15.8616 -0.7026 25.7407 -5.1854
# 6 20.6347 5.9112 -0.8133 -3.3069 -5.1854 36.3160
#
#
#
# Elastic Compliance Matrix: (Units=1/GPa)
#
#
# Indices 1 2 3 4 5 6 
#
# 1 0.026431 -0.002674 -0.001836 0.014068 0.014017 -0.011341
# 2 -0.002674 0.009298 -0.001005 0.000503 0.002994 0.000457
# 3 -0.001836 -0.001005 0.012137 0.002820 0.006210 0.002622
# 4 0.014068 0.000503 0.002820 0.045313 0.012749 -0.002066
# 5 0.014017 0.002994 0.006210 0.012749 0.054756 0.000667
# 6 -0.011341 0.000457 0.002622 -0.002066 0.000667 0.033872
#
#
# Mechanical properties :
#
#
# Convention : Reuss Voigt Hill
#
# Bulk Modulus (GPa) = 27.14699 48.38420 37.76559
# Shear Modulus (GPa) = 24.37651 32.58810 28.48231
#
# Velocity S-wave (km/s) = 3.51039 4.05881 3.79452
# Velocity P-wave (km/s) = 5.49125 6.81356 6.18783
#
# Compressibility (1/GPa) = 0.03683650
#
# Stress axis : x y z
#
# Youngs Moduli (GPa) = 37.83479 107.54974 82.38939
#
# Poissons Ratio (x) = 0.28759 0.15128
# Poissons Ratio (y) = 0.10117 0.08278
# Poissons Ratio (z) = 0.06947 0.10806
#
# Static dielectric constant tensor:
#      x y z
#    x 1.740500 0.029740 -0.123970 
#    y 0.029740 1.702570 -0.038780 
#    z -0.123970 -0.038780 1.977530 
# 
# From -- ./inp_files/37149.got.cif
#   From: 2010.05.17/outbox.cif.g08.bks.cpg/sg2_19_cif.got.tgz:37149.got - 2010.06.03 11:33:40.
