data_PCOD9029777
_publ_section_title
;
Structure prediction by ZEFSAII (Michael W. Deem and Ramdas Pophale) SiO2 
 PCOD9029777
Probable space group: P -1
;
_chemical_formula_sum "Si O2"
_cell_formula_units_Z 15
_cell_length_a 9.214116
_cell_length_b 18.262712
_cell_length_c 11.866596
_cell_angle_alpha 39.584911
_cell_angle_beta 73.368041
_cell_angle_gamma 44.178804
_cell_volume 709.350612
_symmetry_space_group_name_H-M "P -1"
_symmetry_group_IT_number 2
_symmetry_cell_setting 'triclinic'
loop_
_space_group_symop_operation_xyz
x,y,z
-x,-y,-z
loop_
_atom_site_type_symbol
_atom_site_label
_atom_site_fract_x
_atom_site_fract_y
_atom_site_fract_z
Si Si1 0.750107 0.560271 0.215824
Si Si2 0.731356 0.483802 0.063984
Si Si3 0.155598 0.042467 0.175534
Si Si4 0.264766 0.791860 0.627402
Si Si5 0.807594 0.777586 0.883457
Si Si6 0.500000 0.000000 0.000000
Si Si7 0.261337 0.100598 0.685295
Si Si8 0.195126 0.881636 0.992521
O O1 0.678174 0.578089 0.081433
O O2 0.007334 0.332713 0.454740
O O3 0.806504 0.660764 0.094389
O O4 0.495901 0.679521 0.200243
O O5 0.745919 0.336498 0.248545
O O6 0.011783 0.348784 0.114040
O O7 0.507617 0.653294 0.822946
O O8 0.290249 0.856282 0.435501
O O9 0.346737 0.986870 0.112250
O O10 0.077936 0.188038 0.110511
O O11 0.908239 0.145529 0.042542
O O12 0.000000 0.000000 0.500000
O O13 0.500982 0.990338 0.682613
O O14 0.635482 0.949453 0.151307
O O15 0.193103 0.010084 0.786892
O O16 0.000000 0.000000 0.000000
#
# Coordination Sequence:
#
# PCOD9029777 Si02
#       8
#     2   2   2   2   2   1   2   2
#     4  11  25  43  68  99 141 180 225 284 341 410
#     4  11  24  42  67 106 136 181 233 276 335 422
#     4  11  22  45  71  95 139 180 222 287 342 395
#     4  11  23  41  68 102 140 181 225 279 347 404
#     4  10  24  42  66 100 141 173 227 280 336 417
#     4  10  22  42  68  94 132 174 226 282 322 408
#     4  10  23  46  66 100 135 180 230 277 351 393
#     4  11  23  45  68  97 135 176 234 289 332 405
#
# _framework density 21.146100000000001
#
# number of rings (size 3 to 8) (size 9 to 14) (size 15 to 20)
#    0.000    1.333    2.667    2.000    5.600    2.133 
#    0.000    7.333    0.000    0.000    0.000    0.000 
#    0.000    0.000    0.000    0.000    0.000    0.000 
#
# Total GULP energy -83588.307057 kJ/mol
# GULP energy per Si atom -5572.553804 kJ/mol
# Density = 2.109797 g / cm^3
# Si number density = 21.146100 Si / 1000 Ang^3
#
#
#
# Elastic Constant Matrix: (Units=GPa)
#
#
# Indices 1 2 3 4 5 6 
#
# 1 116.5320 24.4466 25.5446 -6.0551 -8.7120 -6.8949
# 2 24.4466 81.4047 34.6745 -15.1515 15.2472 -32.5608
# 3 25.5446 34.6745 86.2011 -19.5286 -3.2745 -16.5342
# 4 -6.0551 -15.1515 -19.5286 36.3765 0.3177 -3.3089
# 5 -8.7120 15.2472 -3.2745 0.3177 14.0492 0.3456
# 6 -6.8949 -32.5608 -16.5342 -3.3089 0.3456 36.4114
#
#
#
# Elastic Compliance Matrix: (Units=1/GPa)
#
#
# Indices 1 2 3 4 5 6 
#
# 1 0.011788 -0.010860 -0.000919 -0.003990 0.019180 -0.008441
# 2 -0.010860 0.053179 -0.007414 0.021018 -0.067751 0.044685
# 3 -0.000919 -0.007414 0.016844 0.005818 0.011239 0.001267
# 4 -0.003990 0.021018 0.005818 0.041170 -0.025467 0.024665
# 5 0.019180 -0.067751 0.011239 -0.025467 0.161165 -0.055694
# 6 -0.008441 0.044685 0.001267 0.024665 -0.055694 0.069170
#
#
# Mechanical properties :
#
#
# Convention : Reuss Voigt Hill
#
# Bulk Modulus (GPa) = 23.02868 50.38544 36.70706
# Shear Modulus (GPa) = 12.30988 30.66557 21.48773
#
# Velocity S-wave (km/s) = 2.41536 3.81225 3.19118
# Velocity P-wave (km/s) = 4.32349 6.57698 5.56548
#
# Compressibility (1/GPa) = 0.04342411
#
# Stress axis : x y z
#
# Youngs Moduli (GPa) = 84.83058 18.80441 59.37004
#
# Poissons Ratio (x) = 0.20421 0.05458
# Poissons Ratio (y) = 0.92126 0.44017
# Poissons Ratio (z) = 0.07799 0.13942
#
# Static dielectric constant tensor:
#      x y z
#    x 1.779970 -0.014100 -0.001060 
#    y -0.014100 1.785310 -0.015010 
#    z -0.001060 -0.015010 1.745110 
# 
# From -- ./inp_files/367097.got.cif
#   From: 2010.05.17/outbox.cif.g08.bks.cpg/sg2_184_cif.got.tgz:367097.got - 2010.06.03 11:33:40.
