data_PCOD9029697
_publ_section_title
;
Structure prediction by ZEFSAII (Michael W. Deem and Ramdas Pophale) SiO2 
 PCOD9029697
Probable space group: P -1
;
_chemical_formula_sum "Si O2"
_cell_formula_units_Z 16
_cell_length_a 14.442672
_cell_length_b 13.943745
_cell_length_c 11.773372
_cell_angle_alpha 117.017802
_cell_angle_beta 136.708689
_cell_angle_gamma 29.283342
_cell_volume 670.103909
_symmetry_space_group_name_H-M "P -1"
_symmetry_group_IT_number 2
_symmetry_cell_setting 'triclinic'
loop_
_space_group_symop_operation_xyz
x,y,z
-x,-y,-z
loop_
_atom_site_type_symbol
_atom_site_label
_atom_site_fract_x
_atom_site_fract_y
_atom_site_fract_z
Si Si1 0.335125 0.933831 0.785992
Si Si2 0.754994 0.369135 0.388439
Si Si3 0.834795 0.666721 0.550571
Si Si4 0.901542 0.404608 0.033727
Si Si5 0.122566 0.791859 0.981596
Si Si6 0.812585 0.895341 0.551453
Si Si7 0.239791 0.189042 0.990976
Si Si8 0.323909 0.374947 0.422191
O O1 0.567184 0.673934 0.855462
O O2 0.297696 0.023032 0.921452
O O3 0.482786 0.931100 0.848036
O O4 0.019856 0.121867 0.556437
O O5 0.474834 0.528325 0.155200
O O6 0.613504 0.546432 0.451428
O O7 0.951250 0.297925 0.436625
O O8 0.000000 0.500000 0.500000
O O9 0.673919 0.883952 0.470499
O O10 0.659760 0.702744 0.486536
O O11 0.028330 0.584771 0.779076
O O12 0.963295 0.234407 0.013131
O O13 0.096270 0.303554 0.047084
O O14 0.988932 0.837174 0.772502
O O15 0.000000 0.000000 0.000000
O O16 0.559821 0.156746 0.433810
O O17 0.995750 0.400157 0.795830
#
# Coordination Sequence:
#
# PCOD9029697 Si02
#       8
#     2   2   2   2   2   2   2   2
#     4  10  22  42  69 104 138 177 222 287 345 403
#     4  11  23  42  69  94 134 181 233 278 338 401
#     4  11  23  40  62 104 143 174 226 279 340 420
#     4  11  24  45  71 100 140 182 230 276 350 407
#     4  11  25  49  65  95 138 183 239 285 327 402
#     4  11  23  41  67  94 130 188 223 281 350 395
#     4  10  22  42  68 105 141 175 220 284 348 414
#     4  11  21  41  67  99 141 174 225 282 345 414
#
# _framework density 23.876894
#
# number of rings (size 3 to 8) (size 9 to 14) (size 15 to 20)
#    0.000    1.250    3.750    1.875    1.750    0.500 
#   11.250    2.500    0.000    0.000    0.000    0.000 
#    0.000    0.000    0.000    0.000    0.000    0.000 
#
# Total GULP energy -89299.098379 kJ/mol
# GULP energy per Si atom -5581.193649 kJ/mol
# Density = 2.382255 g / cm^3
# Si number density = 23.876894 Si / 1000 Ang^3
#
#
#
# Elastic Constant Matrix: (Units=GPa)
#
#
# Indices 1 2 3 4 5 6 
#
# 1 49.6007 21.2274 -0.5896 3.4965 -11.0520 1.1538
# 2 21.2274 139.6084 36.5037 -2.4164 -14.0679 1.8687
# 3 -0.5896 36.5037 114.6977 -17.0641 2.7886 -3.8016
# 4 3.4965 -2.4164 -17.0641 36.1176 -6.1475 -4.6762
# 5 -11.0520 -14.0679 2.7886 -6.1475 23.6191 -0.1683
# 6 1.1538 1.8687 -3.8016 -4.6762 -0.1683 40.5691
#
#
#
# Elastic Compliance Matrix: (Units=1/GPa)
#
#
# Indices 1 2 3 4 5 6 
#
# 1 0.023455 -0.002842 0.000690 -0.000665 0.009024 -0.000511
# 2 -0.002842 0.008800 -0.002917 0.000143 0.004289 -0.000564
# 3 0.000690 -0.002917 0.010428 0.004631 -0.001429 0.001620
# 4 -0.000665 0.000143 0.004631 0.031766 0.007525 0.004139
# 5 0.009024 0.004289 -0.001429 0.007525 0.051247 0.000492
# 6 -0.000511 -0.000564 0.001620 0.004139 0.000492 0.025321
#
#
# Mechanical properties :
#
#
# Convention : Reuss Voigt Hill
#
# Bulk Modulus (GPa) = 30.72719 46.46554 38.59636
# Shear Modulus (GPa) = 29.06927 36.51216 32.79072
#
# Velocity S-wave (km/s) = 3.49300 3.91472 3.70986
# Velocity P-wave (km/s) = 5.40047 6.31950 5.87797
#
# Compressibility (1/GPa) = 0.03254447
#
# Stress axis : x y z
#
# Youngs Moduli (GPa) = 42.63480 113.63702 95.89618
#
# Poissons Ratio (x) = 0.32296 -0.06615
# Poissons Ratio (y) = 0.12117 0.27973
# Poissons Ratio (z) = -0.02941 0.33148
#
# Static dielectric constant tensor:
#      x y z
#    x 1.934060 0.034540 -0.012370 
#    y 0.034540 1.914270 0.008920 
#    z -0.012370 0.008920 1.950770 
# 
# From -- ./inp_files/455757.got.cif
#   From: 2010.05.17/outbox.cif.g08.bks.cpg/sg2_228_cif.got.tgz:455757.got - 2010.06.03 11:33:40.
