data_PCOD9029044
_publ_section_title
;
Structure prediction by ZEFSAII (Michael W. Deem and Ramdas Pophale) SiO2 
 PCOD9029044
Probable space group: P -1
;
_chemical_formula_sum "Si O2"
_cell_formula_units_Z 16
_cell_length_a 10.314122
_cell_length_b 23.792991
_cell_length_c 5.978216
_cell_angle_alpha 57.740465
_cell_angle_beta 110.358090
_cell_angle_gamma 147.088000
_cell_volume 657.864691
_symmetry_space_group_name_H-M "P -1"
_symmetry_group_IT_number 2
_symmetry_cell_setting 'triclinic'
loop_
_space_group_symop_operation_xyz
x,y,z
-x,-y,-z
loop_
_atom_site_type_symbol
_atom_site_label
_atom_site_fract_x
_atom_site_fract_y
_atom_site_fract_z
Si Si1 0.632448 0.043707 0.733790
Si Si2 0.240650 0.381638 0.981323
Si Si3 0.915056 0.554993 0.982235
Si Si4 0.405036 0.313326 0.358156
Si Si5 0.401944 0.687528 0.142803
Si Si6 0.482273 0.850882 0.137585
Si Si7 0.260610 0.132907 0.418577
Si Si8 0.026307 0.713618 0.383258
O O1 0.853950 0.184202 0.597673
O O2 0.500000 0.000000 0.500000
O O3 0.500000 0.000000 0.000000
O O4 0.678180 0.982282 0.891904
O O5 0.096294 0.389235 0.962882
O O6 0.216032 0.297582 0.240457
O O7 0.500000 0.500000 0.000000
O O8 0.215512 0.364505 0.735602
O O9 0.985767 0.625809 0.656650
O O10 0.641940 0.416669 0.117319
O O11 0.125341 0.585095 0.102451
O O12 0.540996 0.354950 0.587174
O O13 0.260187 0.188451 0.490423
O O14 0.434293 0.767653 0.137956
O O15 0.614094 0.780666 0.893693
O O16 0.565047 0.857294 0.415595
O O17 0.228959 0.788130 0.152636
O O18 0.000000 0.000000 0.500000
#
# Coordination Sequence:
#
# PCOD9029044 Si02
#       8
#     2   2   2   2   2   2   2   2
#     4  10  23  39  66 107 147 187 245 308 377 445
#     4  10  24  44  66 102 148 191 244 302 377 451
#     4  11  22  43  75 104 142 183 250 309 375 447
#     4  10  26  43  67 105 144 191 239 300 386 452
#     4  11  22  45  73 100 140 187 244 310 374 448
#     4  10  22  42  66 102 137 187 246 304 369 437
#     4  11  26  46  67  98 140 189 246 302 374 455
#     4  11  22  40  72 104 145 193 243 315 374 450
#
# _framework density 24.321111999999999
#
# number of rings (size 3 to 8) (size 9 to 14) (size 15 to 20)
#    0.000    1.500    2.500    1.125    5.250    7.500 
#    2.250    0.000    0.000    0.000    0.000    0.000 
#    0.000    0.000    0.000    0.000    0.000    0.000 
#
# Total GULP energy -89153.482379 kJ/mol
# GULP energy per Si atom -5572.092649 kJ/mol
# Density = 2.426576 g / cm^3
# Si number density = 24.321112 Si / 1000 Ang^3
#
#
#
# Elastic Constant Matrix: (Units=GPa)
#
#
# Indices 1 2 3 4 5 6 
#
# 1 22.0783 20.4031 1.1730 1.6140 -7.5501 -2.7604
# 2 20.4031 147.4054 32.6997 11.4219 -4.8421 -11.0769
# 3 1.1730 32.6997 111.4299 8.9294 13.4132 2.6590
# 4 1.6140 11.4219 8.9294 36.9313 -1.7389 0.8298
# 5 -7.5501 -4.8421 13.4132 -1.7389 32.7513 -7.7578
# 6 -2.7604 -11.0769 2.6590 0.8298 -7.7578 25.0215
#
#
#
# Elastic Compliance Matrix: (Units=1/GPa)
#
#
# Indices 1 2 3 4 5 6 
#
# 1 0.057461 -0.006792 -0.000541 0.000219 0.014329 0.007825
# 2 -0.006792 0.008813 -0.002670 -0.001794 0.001687 0.004018
# 3 -0.000541 -0.002670 0.010742 -0.001937 -0.006013 -0.004183
# 4 0.000219 -0.001794 -0.001937 0.028199 0.001857 -0.000924
# 5 0.014329 0.001687 -0.006013 0.001857 0.040294 0.015398
# 6 0.007825 0.004018 -0.004183 -0.000924 0.015398 0.047857
#
#
# Mechanical properties :
#
#
# Convention : Reuss Voigt Hill
#
# Bulk Modulus (GPa) = 17.54049 43.27390 30.40719
# Shear Modulus (GPa) = 21.51694 34.05000 27.78347
#
# Velocity S-wave (km/s) = 2.97762 3.74574 3.38355
# Velocity P-wave (km/s) = 4.36455 6.04473 5.27201
#
# Compressibility (1/GPa) = 0.05701094
#
# Stress axis : x y z
#
# Youngs Moduli (GPa) = 17.40315 113.47174 93.09049
#
# Poissons Ratio (x) = 0.77066 0.05035
# Poissons Ratio (y) = 0.11820 0.24854
# Poissons Ratio (z) = 0.00941 0.30296
#
# Static dielectric constant tensor:
#      x y z
#    x 2.010320 0.050270 -0.034430 
#    y 0.050270 2.045330 0.068290 
#    z -0.034430 0.068290 1.960520 
# 
# From -- ./inp_files/84990.got.cif
#   From: 2010.05.17/outbox.cif.g08.bks.cpg/sg2_43_cif.got.tgz:84990.got - 2010.06.03 11:33:40.
