data_PCOD9029366
_publ_section_title
;
Structure prediction by ZEFSAII (Michael W. Deem and Ramdas Pophale) SiO2 
 PCOD9029366
Probable space group: P -1
;
_chemical_formula_sum "Si O2"
_cell_formula_units_Z 14
_cell_length_a 7.945011
_cell_length_b 6.589576
_cell_length_c 14.063544
_cell_angle_alpha 69.926051
_cell_angle_beta 109.000531
_cell_angle_gamma 117.923328
_cell_volume 598.867139
_symmetry_space_group_name_H-M "P -1"
_symmetry_group_IT_number 2
_symmetry_cell_setting 'triclinic'
loop_
_space_group_symop_operation_xyz
x,y,z
-x,-y,-z
loop_
_atom_site_type_symbol
_atom_site_label
_atom_site_fract_x
_atom_site_fract_y
_atom_site_fract_z
Si Si1 0.169391 0.512763 0.261813
Si Si2 0.040759 0.775511 0.060663
Si Si3 0.447710 0.407736 0.798795
Si Si4 0.807889 0.074722 0.233559
Si Si5 0.640179 0.357410 0.538575
Si Si6 0.324103 0.690533 0.985806
Si Si7 0.622795 0.169864 0.359604
O O1 0.086119 0.703534 0.184227
O O2 0.381194 0.585528 0.242601
O O3 0.187130 0.507612 0.378562
O O4 0.026316 0.266093 0.227317
O O5 0.847192 0.560665 0.025891
O O6 0.226268 0.798804 0.028632
O O7 0.000000 0.000000 0.000000
O O8 0.442884 0.661085 0.744767
O O9 0.251254 0.194258 0.763036
O O10 0.502753 0.350938 0.923525
O O11 0.663695 0.153819 0.129774
O O12 0.770342 0.107915 0.331427
O O13 0.500000 0.500000 0.500000
O O14 0.688867 0.319554 0.445183
O O15 0.537575 0.087743 0.601596
#
# Coordination Sequence:
#
# PCOD9029366 Si02
#       7
#     2   2   2   2   2   2   2
#     4  10  22  42  67  90 131 171 207 267 329 365
#     4   9  19  36  60  97 129 167 218 256 308 393
#     4  11  22  43  65  92 134 175 210 265 314 385
#     4  11  23  42  60 101 132 164 218 263 317 390
#     4  11  22  46  69  92 125 170 217 275 323 380
#     4   9  21  36  59  93 135 172 207 258 321 371
#     4  11  24  40  69  95 123 167 226 261 324 388
#
# _framework density 23.377472000000001
#
# number of rings (size 3 to 8) (size 9 to 14) (size 15 to 20)
#    0.000    1.714    2.857    1.286    2.000    3.429 
#    2.571    2.857    0.000    0.000    0.000    0.000 
#    0.000    0.000    0.000    0.000    0.000    0.000 
#
# Total GULP energy -78214.527752 kJ/mol
# GULP energy per Si atom -5586.751982 kJ/mol
# Density = 2.332426 g / cm^3
# Si number density = 23.377472 Si / 1000 Ang^3
#
#
#
# Elastic Constant Matrix: (Units=GPa)
#
#
# Indices 1 2 3 4 5 6 
#
# 1 32.7132 22.7384 21.2622 5.0186 -0.9820 -5.5894
# 2 22.7384 103.4255 42.6679 -16.3010 20.8621 0.7423
# 3 21.2622 42.6679 108.1430 13.5239 10.7107 -6.4702
# 4 5.0186 -16.3010 13.5239 43.9404 -3.8781 3.9660
# 5 -0.9820 20.8621 10.7107 -3.8781 30.6452 -0.4411
# 6 -5.5894 0.7423 -6.4702 3.9660 -0.4411 33.6880
#
#
#
# Elastic Compliance Matrix: (Units=1/GPa)
#
#
# Indices 1 2 3 4 5 6 
#
# 1 0.043622 -0.011337 -0.003576 -0.007961 0.009471 0.007862
# 2 -0.011337 0.017675 -0.005197 0.009015 -0.009503 -0.004454
# 3 -0.003576 -0.005197 0.013093 -0.005959 -0.001868 0.002713
# 4 -0.007961 0.009015 -0.005959 0.029339 -0.000685 -0.006127
# 5 0.009471 -0.009503 -0.001868 -0.000685 0.039999 0.002027
# 6 0.007862 -0.004454 0.002713 -0.006127 0.002027 0.032356
#
#
# Mechanical properties :
#
#
# Convention : Reuss Voigt Hill
#
# Bulk Modulus (GPa) = 29.26536 46.40207 37.83372
# Shear Modulus (GPa) = 21.95936 32.16228 27.06082
#
# Velocity S-wave (km/s) = 3.06819 3.71318 3.40598
# Velocity P-wave (km/s) = 5.00974 6.18674 5.62909
#
# Compressibility (1/GPa) = 0.03417009
#
# Stress axis : x y z
#
# Youngs Moduli (GPa) = 22.92434 56.57701 76.37538
#
# Poissons Ratio (x) = 0.64141 0.27309
# Poissons Ratio (y) = 0.25989 0.39696
# Poissons Ratio (z) = 0.08197 0.29406
#
# Static dielectric constant tensor:
#      x y z
#    x 1.882610 -0.013510 -0.015490 
#    y -0.013510 1.903310 0.009490 
#    z -0.015490 0.009490 1.922030 
# 
# From -- ./inp_files/37318.got.cif
#   From: 2010.05.17/outbox.cif.g08.bks.cpg/sg2_19_cif.got.tgz:37318.got - 2010.06.03 11:33:40.
