data_PCOD9029416
_publ_section_title
;
Structure prediction by ZEFSAII (Michael W. Deem and Ramdas Pophale) SiO2 
 PCOD9029416
Probable space group: P -1
;
_chemical_formula_sum "Si O2"
_cell_formula_units_Z 14
_cell_length_a 10.477954
_cell_length_b 10.689996
_cell_length_c 13.052658
_cell_angle_alpha 63.596434
_cell_angle_beta 33.587121
_cell_angle_gamma 85.224561
_cell_volume 590.326907
_symmetry_space_group_name_H-M "P -1"
_symmetry_group_IT_number 2
_symmetry_cell_setting 'triclinic'
loop_
_space_group_symop_operation_xyz
x,y,z
-x,-y,-z
loop_
_atom_site_type_symbol
_atom_site_label
_atom_site_fract_x
_atom_site_fract_y
_atom_site_fract_z
Si Si1 0.575692 0.242220 0.165124
Si Si2 0.314661 0.779881 0.319584
Si Si3 0.292112 0.258019 0.547009
Si Si4 0.767085 0.058509 0.228985
Si Si5 0.281968 0.818118 0.099376
Si Si6 0.337525 0.358584 0.846354
Si Si7 0.756339 0.596715 0.876648
O O1 0.346661 0.207376 0.416010
O O2 0.702005 0.136576 0.149632
O O3 0.508422 0.197829 0.106777
O O4 0.789872 0.447056 0.945963
O O5 0.230749 0.732599 0.274641
O O6 0.432556 0.677556 0.322078
O O7 0.047108 0.741858 0.575309
O O8 0.571561 0.979475 0.067635
O O9 0.557401 0.450009 0.324529
O O10 0.027809 0.266707 0.708327
O O11 0.235859 0.110469 0.715641
O O12 0.500000 0.000000 0.500000
O O13 0.047574 0.211611 0.040974
O O14 0.306149 0.346496 0.995957
O O15 0.500000 0.500000 0.000000
#
# Coordination Sequence:
#
# PCOD9029416 Si02
#       7
#     2   2   2   2   2   2   2
#     4  10  23  41  64  93 129 170 216 263 328 376
#     4  11  24  40  66  98 130 171 222 263 335 386
#     4  10  22  42  67  93 134 169 215 267 327 380
#     4  10  23  43  66  98 132 171 223 269 321 387
#     4  11  23  41  64  96 133 170 214 276 320 392
#     4  11  23  44  69  97 133 174 217 269 328 387
#     4  11  24  42  68 101 130 171 218 267 330 393
#
# _framework density 23.715672999999999
#
# number of rings (size 3 to 8) (size 9 to 14) (size 15 to 20)
#    0.000    1.429    1.429    3.429    4.000    7.429 
#    0.000    5.000    0.000    0.000    0.000    0.000 
#    0.000    0.000    0.000    0.000    0.000    0.000 
#
# Total GULP energy -78209.734002 kJ/mol
# GULP energy per Si atom -5586.409572 kJ/mol
# Density = 2.366170 g / cm^3
# Si number density = 23.715673 Si / 1000 Ang^3
#
#
#
# Elastic Constant Matrix: (Units=GPa)
#
#
# Indices 1 2 3 4 5 6 
#
# 1 36.4753 -0.3637 24.4706 -7.8025 2.5248 -4.5641
# 2 -0.3637 65.6084 9.8249 -12.6920 -0.6254 -7.1545
# 3 24.4706 9.8249 105.4100 -10.0262 -5.9135 1.7086
# 4 -7.8025 -12.6920 -10.0262 44.6442 1.8314 10.0104
# 5 2.5248 -0.6254 -5.9135 1.8314 30.3309 2.9291
# 6 -4.5641 -7.1545 1.7086 10.0104 2.9291 28.0991
#
#
#
# Elastic Compliance Matrix: (Units=1/GPa)
#
#
# Indices 1 2 3 4 5 6 
#
# 1 0.035064 0.002823 -0.008431 0.003889 -0.005328 0.006097
# 2 0.002823 0.016703 -0.001929 0.004066 -0.000847 0.003469
# 3 -0.008431 -0.001929 0.011984 0.001296 0.003248 -0.003390
# 4 0.003889 0.004066 0.001296 0.026284 -0.000832 -0.007689
# 5 -0.005328 -0.000847 0.003248 -0.000832 0.034521 -0.004581
# 6 0.006097 0.003469 -0.003390 -0.007689 -0.004581 0.040885
#
#
# Mechanical properties :
#
#
# Convention : Reuss Voigt Hill
#
# Bulk Modulus (GPa) = 20.54346 30.59524 25.56935
# Shear Modulus (GPa) = 25.41412 32.18565 28.79988
#
# Velocity S-wave (km/s) = 3.27711 3.68794 3.48858
# Velocity P-wave (km/s) = 4.79588 5.57346 5.19923
#
# Compressibility (1/GPa) = 0.04867728
#
# Stress axis : x y z
#
# Youngs Moduli (GPa) = 28.51954 59.86872 83.44300
#
# Poissons Ratio (x) = -0.16903 0.70350
# Poissons Ratio (y) = -0.08052 0.16099
# Poissons Ratio (z) = 0.24045 0.11550
#
# Static dielectric constant tensor:
#      x y z
#    x 1.955020 -0.016500 0.050210 
#    y -0.016500 1.955540 0.005310 
#    z 0.050210 0.005310 1.857700 
# 
# From -- ./inp_files/519472.got.cif
#   From: 2010.05.17/outbox.cif.g08.bks.cpg/sg2_260_cif.got.tgz:519472.got - 2010.06.03 11:33:40.
