data_PCOD9029646
_publ_section_title
;
Structure prediction by ZEFSAII (Michael W. Deem and Ramdas Pophale) SiO2 
 PCOD9029646
Probable space group: P -1
;
_chemical_formula_sum "Si O2"
_cell_formula_units_Z 16
_cell_length_a 12.359310
_cell_length_b 24.489130
_cell_length_c 17.020949
_cell_angle_alpha 158.352737
_cell_angle_beta 36.306463
_cell_angle_gamma 155.934507
_cell_volume 742.892853
_symmetry_space_group_name_H-M "P -1"
_symmetry_group_IT_number 2
_symmetry_cell_setting 'triclinic'
loop_
_space_group_symop_operation_xyz
x,y,z
-x,-y,-z
loop_
_atom_site_type_symbol
_atom_site_label
_atom_site_fract_x
_atom_site_fract_y
_atom_site_fract_z
Si Si1 0.770895 0.587002 0.916551
Si Si2 0.356624 0.873829 0.218489
Si Si3 0.971689 0.155010 0.741402
Si Si4 0.255784 0.946268 0.531923
Si Si5 0.942638 0.354582 0.530810
Si Si6 0.739351 0.493886 0.296143
Si Si7 0.232636 0.260230 0.185062
Si Si8 0.452245 0.380242 0.042347
O O1 0.818502 0.440273 0.699146
O O2 0.735330 0.610128 0.877917
O O3 0.500000 0.500000 0.000000
O O4 0.007349 0.801516 0.120031
O O5 0.300248 0.940599 0.265025
O O6 0.192288 0.843497 0.346169
O O7 0.672499 0.087662 0.346950
O O8 0.266365 0.654655 0.955615
O O9 0.230081 0.391504 0.861113
O O10 0.000000 0.000000 0.500000
O O11 0.500000 0.000000 0.500000
O O12 0.366439 0.178494 0.778143
O O13 0.973870 0.755202 0.487933
O O14 0.154179 0.500737 0.675303
O O15 0.108665 0.349946 0.367980
O O16 0.446350 0.386902 0.302520
O O17 0.383808 0.318143 0.091190
O O18 0.000000 0.000000 0.000000
#
# Coordination Sequence:
#
# PCOD9029646 Si02
#       8
#     2   2   2   2   2   2   2   2
#     4  10  22  42  68 101 137 176 228 302 363 416
#     4  12  21  38  66  99 137 176 231 291 368 419
#     4  11  21  40  69 103 140 178 229 296 370 427
#     4  12  22  38  66 103 142 177 229 298 365 424
#     4  12  24  44  69  99 139 190 236 290 344 419
#     4  12  24  43  67 100 141 185 238 294 358 415
#     4  12  26  47  70  99 145 199 248 285 336 421
#     4  11  24  44  68 102 146 183 239 294 355 422
#
# _framework density 21.537427000000001
#
# number of rings (size 3 to 8) (size 9 to 14) (size 15 to 20)
#    0.000    0.500    3.750    7.500    0.000    0.500 
#    0.000    0.000    0.000    3.000    0.000    0.000 
#    0.000    0.000    0.000    0.000    0.000    0.000 
#
# Total GULP energy -89281.412340 kJ/mol
# GULP energy per Si atom -5580.088271 kJ/mol
# Density = 2.148841 g / cm^3
# Si number density = 21.537427 Si / 1000 Ang^3
#
#
#
# Elastic Constant Matrix: (Units=GPa)
#
#
# Indices 1 2 3 4 5 6 
#
# 1 132.6446 21.9017 16.4179 1.4307 7.3418 11.8347
# 2 21.9017 46.0950 18.4014 6.7100 -2.0526 10.5027
# 3 16.4179 18.4014 133.3498 2.3869 -10.3770 8.2705
# 4 1.4307 6.7100 2.3869 34.5574 7.7129 4.2329
# 5 7.3418 -2.0526 -10.3770 7.7129 41.1584 -6.2492
# 6 11.8347 10.5027 8.2705 4.2329 -6.2492 32.7705
#
#
#
# Elastic Compliance Matrix: (Units=1/GPa)
#
#
# Indices 1 2 3 4 5 6 
#
# 1 0.008540 -0.003545 -0.000625 0.001221 -0.002453 -0.002416
# 2 -0.003545 0.026445 -0.002684 -0.004376 0.001226 -0.005719
# 3 -0.000625 -0.002684 0.008144 -0.000403 0.002026 -0.000531
# 4 0.001221 -0.004376 -0.000403 0.031912 -0.007190 -0.004430
# 5 -0.002453 0.001226 0.002026 -0.007190 0.027590 0.006172
# 6 -0.002416 -0.005719 -0.000531 -0.004430 0.006172 0.035104
#
#
# Mechanical properties :
#
#
# Convention : Reuss Voigt Hill
#
# Bulk Modulus (GPa) = 33.99011 47.28129 40.63570
# Shear Modulus (GPa) = 31.00777 38.72182 34.86479
#
# Velocity S-wave (km/s) = 3.79847 4.24475 4.02780
# Velocity P-wave (km/s) = 5.92064 6.78414 6.36705
#
# Compressibility (1/GPa) = 0.02942032
#
# Stress axis : x y z
#
# Youngs Moduli (GPa) = 117.09927 37.81471 122.78592
#
# Poissons Ratio (x) = 0.13404 0.07677
# Poissons Ratio (y) = 0.41507 0.32960
# Poissons Ratio (z) = 0.07321 0.10151
#
# Static dielectric constant tensor:
#      x y z
#    x 1.880340 -0.005170 -0.006920 
#    y -0.005170 1.834800 -0.017560 
#    z -0.006920 -0.017560 1.864600 
# 
# From -- ./inp_files/571057.got.cif
#   From: 2010.05.17/outbox.cif.g08.bks.cpg/sg2_286_cif.got.tgz:571057.got - 2010.06.03 11:33:40.
