data_PCOD9029226
_publ_section_title
;
Structure prediction by ZEFSAII (Michael W. Deem and Ramdas Pophale) SiO2 
 PCOD9029226
Probable space group: P -1
;
_chemical_formula_sum "Si O2"
_cell_formula_units_Z 14
_cell_length_a 5.560185
_cell_length_b 16.314847
_cell_length_c 11.063895
_cell_angle_alpha 35.397005
_cell_angle_beta 71.281139
_cell_angle_gamma 81.815613
_cell_volume 537.435052
_symmetry_space_group_name_H-M "P -1"
_symmetry_group_IT_number 2
_symmetry_cell_setting 'triclinic'
loop_
_space_group_symop_operation_xyz
x,y,z
-x,-y,-z
loop_
_atom_site_type_symbol
_atom_site_label
_atom_site_fract_x
_atom_site_fract_y
_atom_site_fract_z
Si Si1 0.233840 0.866138 0.606354
Si Si2 0.995323 0.398641 0.439932
Si Si3 0.482691 0.337595 0.293690
Si Si4 0.713205 0.625062 0.981187
Si Si5 0.546595 0.148598 0.885837
Si Si6 0.766149 0.623147 0.308442
Si Si7 0.474028 0.848374 0.850979
O O1 0.447328 0.817769 0.540663
O O2 0.311813 0.867495 0.733928
O O3 0.982453 0.738077 0.783957
O O4 0.258384 0.030247 0.360150
O O5 0.737877 0.271761 0.630475
O O6 0.934687 0.560824 0.253210
O O7 0.214104 0.358585 0.368101
O O8 0.102452 0.387938 0.570702
O O9 0.460113 0.367395 0.119443
O O10 0.704890 0.454820 0.186469
O O11 0.550122 0.691445 0.026716
O O12 0.297541 0.218162 0.871202
O O13 0.652037 0.132711 0.023369
O O14 0.500000 0.000000 0.000000
O O15 0.500000 0.500000 0.500000
#
# Coordination Sequence:
#
# PCOD9029226 Si02
#       7
#     2   2   2   2   2   2   2
#     4  10  22  45  70  92 134 181 213 284 330 380
#     4  10  23  44  68  97 137 171 222 277 334 399
#     4  10  23  40  67 104 127 164 229 274 329 402
#     4  10  22  42  66  97 129 172 222 276 332 384
#     4  11  26  45  65 103 134 177 224 272 337 405
#     4   9  22  43  66  94 129 180 217 265 339 392
#     4  10  24  43  65  99 131 170 236 261 333 411
#
# _framework density 26.049661
#
# number of rings (size 3 to 8) (size 9 to 14) (size 15 to 20)
#    0.000    2.000    0.000    0.857   10.000    2.857 
#    5.143    0.000    0.000    0.000    0.000    0.000 
#    0.000    0.000    0.000    0.000    0.000    0.000 
#
# Total GULP energy -78266.461751 kJ/mol
# GULP energy per Si atom -5590.461554 kJ/mol
# Density = 2.599037 g / cm^3
# Si number density = 26.049661 Si / 1000 Ang^3
#
#
#
# Elastic Constant Matrix: (Units=GPa)
#
#
# Indices 1 2 3 4 5 6 
#
# 1 57.4247 32.8479 26.1771 -17.4399 -11.2565 -4.0231
# 2 32.8479 217.6987 48.6041 -19.0573 5.0871 -10.9684
# 3 26.1771 48.6041 119.9841 -16.2437 -7.9158 -1.8830
# 4 -17.4399 -19.0573 -16.2437 42.9858 -6.9319 -0.9738
# 5 -11.2565 5.0871 -7.9158 -6.9319 39.5822 -1.2433
# 6 -4.0231 -10.9684 -1.8830 -0.9738 -1.2433 39.9391
#
#
#
# Elastic Compliance Matrix: (Units=1/GPa)
#
#
# Indices 1 2 3 4 5 6 
#
# 1 0.024623 -0.002419 -0.002525 0.009387 0.008521 0.002191
# 2 -0.002419 0.005484 -0.001703 0.000575 -0.001597 0.001146
# 3 -0.002525 -0.001703 0.010011 0.002307 0.001903 -0.000135
# 4 0.009387 0.000575 0.002307 0.029588 0.008308 0.002192
# 5 0.008521 -0.001597 0.001903 0.008308 0.029779 0.001639
# 6 0.002191 0.001146 -0.000135 0.002192 0.001639 0.025672
#
#
# Mechanical properties :
#
#
# Convention : Reuss Voigt Hill
#
# Bulk Modulus (GPa) = 37.27891 67.81842 52.54866
# Shear Modulus (GPa) = 33.92283 43.66666 38.79475
#
# Velocity S-wave (km/s) = 3.61257 4.09869 3.86328
# Velocity P-wave (km/s) = 5.63406 6.96346 6.33374
#
# Compressibility (1/GPa) = 0.02682482
#
# Stress axis : x y z
#
# Youngs Moduli (GPa) = 40.61179 182.34399 99.88901
#
# Poissons Ratio (x) = 0.44101 0.25221
# Poissons Ratio (y) = 0.09822 0.17015
# Poissons Ratio (z) = 0.10254 0.31061
#
# Static dielectric constant tensor:
#      x y z
#    x 2.138870 -0.035020 0.022510 
#    y -0.035020 2.056180 -0.008400 
#    z 0.022510 -0.008400 2.081060 
# 
# From -- ./inp_files/124222.got.cif
#   From: 2010.05.17/outbox.cif.g08.bks.cpg/sg2_63_cif.got.tgz:124222.got - 2010.06.03 11:33:40.
