data_PCOD9029564
_publ_section_title
;
Structure prediction by ZEFSAII (Michael W. Deem and Ramdas Pophale) SiO2 
 PCOD9029564
Probable space group: P -1
;
_chemical_formula_sum "Si O2"
_cell_formula_units_Z 14
_cell_length_a 7.428779
_cell_length_b 14.004145
_cell_length_c 7.786759
_cell_angle_alpha 50.504099
_cell_angle_beta 91.231809
_cell_angle_gamma 111.944058
_cell_volume 552.748470
_symmetry_space_group_name_H-M "P -1"
_symmetry_group_IT_number 2
_symmetry_cell_setting 'triclinic'
loop_
_space_group_symop_operation_xyz
x,y,z
-x,-y,-z
loop_
_atom_site_type_symbol
_atom_site_label
_atom_site_fract_x
_atom_site_fract_y
_atom_site_fract_z
Si Si1 0.633009 0.660590 0.257576
Si Si2 0.638587 0.457504 0.928297
Si Si3 0.745753 0.961065 0.519287
Si Si4 0.023745 0.965628 0.235942
Si Si5 0.700952 0.209551 0.210825
Si Si6 0.993832 0.691933 0.434749
Si Si7 0.582078 0.168409 0.854513
O O1 0.500000 0.500000 0.500000
O O2 0.822401 0.579908 0.684384
O O3 0.539521 0.644480 0.086508
O O4 0.581676 0.772182 0.228828
O O5 0.500000 0.500000 0.000000
O O6 0.747061 0.363466 0.096785
O O7 0.506067 0.884318 0.584559
O O8 0.825868 0.919324 0.401011
O O9 0.813303 0.930226 0.741641
O O10 0.834540 0.129695 0.326976
O O11 0.073330 0.839968 0.356475
O O12 0.135831 0.307172 0.737709
O O13 0.650768 0.185586 0.034864
O O14 0.212294 0.706788 0.371562
O O15 0.000000 0.000000 0.000000
O O16 0.500000 0.000000 0.000000
#
# Coordination Sequence:
#
# PCOD9029564 Si02
#       7
#     2   2   2   2   2   2   2
#     4   9  23  43  69 100 141 186 239 299 359 437
#     4  10  22  45  70  99 138 195 240 293 367 441
#     4  10  23  43  66 101 144 180 233 305 353 433
#     4  11  24  41  68 102 138 186 235 287 371 436
#     4  10  22  42  67  97 142 181 232 300 366 418
#     4  11  24  43  71 104 142 184 249 298 364 441
#     4  11  24  42  73 108 145 187 248 306 369 444
#
# _framework density 25.327976
#
# number of rings (size 3 to 8) (size 9 to 14) (size 15 to 20)
#    0.000    1.714    0.000    2.571    8.000    5.143 
#   10.286    2.857    0.000    0.000    0.000    0.000 
#    0.000    0.000    0.000    0.000    0.000    0.000 
#
# Total GULP energy -77957.504642 kJ/mol
# GULP energy per Si atom -5568.393189 kJ/mol
# Density = 2.527033 g / cm^3
# Si number density = 25.327976 Si / 1000 Ang^3
#
#
#
# Elastic Constant Matrix: (Units=GPa)
#
#
# Indices 1 2 3 4 5 6 
#
# 1 103.5339 22.7442 21.4721 5.7560 -26.2409 -4.6686
# 2 22.7442 95.8201 28.6599 8.7398 -1.9577 2.6611
# 3 21.4721 28.6599 80.4098 1.7864 -11.2663 0.4029
# 4 5.7560 8.7398 1.7864 44.0921 2.7159 1.0061
# 5 -26.2409 -1.9577 -11.2663 2.7159 40.2022 2.9144
# 6 -4.6686 2.6611 0.4029 1.0061 2.9144 37.3699
#
#
#
# Elastic Compliance Matrix: (Units=1/GPa)
#
#
# Indices 1 2 3 4 5 6 
#
# 1 0.012553 -0.002279 -0.001430 -0.001631 0.007706 0.001189
# 2 -0.002279 0.012329 -0.003994 -0.001852 -0.001814 -0.000928
# 3 -0.001430 -0.003994 0.014657 0.000207 0.002987 -0.000291
# 4 -0.001631 -0.001852 0.000207 0.023426 -0.002643 -0.000499
# 5 0.007706 -0.001814 0.002987 -0.002643 0.030924 -0.001281
# 6 0.001189 -0.000928 -0.000291 -0.000499 -0.001281 0.027091
#
#
# Mechanical properties :
#
#
# Convention : Reuss Voigt Hill
#
# Bulk Modulus (GPa) = 41.43593 47.27959 44.35776
# Shear Modulus (GPa) = 34.61861 38.12535 36.37198
#
# Velocity S-wave (km/s) = 3.70105 3.88399 3.79362
# Velocity P-wave (km/s) = 5.88719 6.23067 6.06136
#
# Compressibility (1/GPa) = 0.02413365
#
# Stress axis : x y z
#
# Youngs Moduli (GPa) = 79.66071 81.10658 68.22618
#
# Poissons Ratio (x) = 0.18483 0.09756
# Poissons Ratio (y) = 0.18153 0.27252
# Poissons Ratio (z) = 0.11391 0.32397
#
# Static dielectric constant tensor:
#      x y z
#    x 2.098230 -0.024700 -0.019010 
#    y -0.024700 2.025760 -0.068160 
#    z -0.019010 -0.068160 2.054610 
# 
# From -- ./inp_files/175148.got.cif
#   From: 2010.05.17/outbox.cif.g08.bks.cpg/sg2_88_cif.got.tgz:175148.got - 2010.06.03 11:33:40.
