data_PCOD9029558
_publ_section_title
;
Structure prediction by ZEFSAII (Michael W. Deem and Ramdas Pophale) SiO2 
 PCOD9029558
Probable space group: P -1
;
_chemical_formula_sum "Si O2"
_cell_formula_units_Z 14
_cell_length_a 12.457909
_cell_length_b 11.725427
_cell_length_c 9.158180
_cell_angle_alpha 35.580331
_cell_angle_beta 106.072113
_cell_angle_gamma 123.835680
_cell_volume 602.148851
_symmetry_space_group_name_H-M "P -1"
_symmetry_group_IT_number 2
_symmetry_cell_setting 'triclinic'
loop_
_space_group_symop_operation_xyz
x,y,z
-x,-y,-z
loop_
_atom_site_type_symbol
_atom_site_label
_atom_site_fract_x
_atom_site_fract_y
_atom_site_fract_z
Si Si1 0.947086 0.958703 0.360434
Si Si2 0.273438 0.520551 0.112007
Si Si3 0.772166 0.123162 0.164678
Si Si4 0.343903 0.264834 0.218321
Si Si5 0.766801 0.259296 0.712136
Si Si6 0.020717 0.815142 0.277316
Si Si7 0.432015 0.033651 0.296972
O O1 0.798247 0.693869 0.574049
O O2 0.041994 0.917125 0.342947
O O3 0.908496 0.146777 0.135021
O O4 0.000000 0.000000 0.500000
O O5 0.265688 0.389615 0.093308
O O6 0.199224 0.652844 0.961446
O O7 0.435467 0.731146 0.976861
O O8 0.683920 0.890947 0.481507
O O9 0.705861 0.126386 0.983828
O O10 0.330965 0.094345 0.261717
O O11 0.500000 0.500000 0.000000
O O12 0.878698 0.544613 0.489051
O O13 0.859489 0.183209 0.755010
O O14 0.651102 0.182894 0.625308
O O15 0.000000 0.000000 0.000000
O O16 0.500000 0.000000 0.500000
#
# Coordination Sequence:
#
# PCOD9029558 Si02
#       7
#     2   2   2   2   2   2   2
#     4  11  25  42  70 102 135 179 238 297 348 413
#     4  10  22  42  67  97 138 170 235 279 352 415
#     4  11  21  44  67  97 139 179 236 281 356 412
#     4   9  21  41  65  96 138 174 226 283 339 421
#     4  11  26  44  71  99 142 191 230 291 349 424
#     4  11  24  49  67 101 142 182 242 284 354 415
#     4  11  23  45  69 104 140 179 233 289 356 417
#
# _framework density 23.250066
#
# number of rings (size 3 to 8) (size 9 to 14) (size 15 to 20)
#    0.000    1.429    4.286    0.000    4.000    2.286 
#    5.143    6.429    0.000    0.000    0.000    0.000 
#    0.000    0.000    0.000    0.000    0.000    0.000 
#
# Total GULP energy -77965.966734 kJ/mol
# GULP energy per Si atom -5568.997624 kJ/mol
# Density = 2.319715 g / cm^3
# Si number density = 23.250066 Si / 1000 Ang^3
#
#
#
# Elastic Constant Matrix: (Units=GPa)
#
#
# Indices 1 2 3 4 5 6 
#
# 1 122.3504 38.9631 14.4166 -12.9185 2.7613 -39.6700
# 2 38.9631 141.7618 35.4899 10.4649 10.1141 -23.5989
# 3 14.4166 35.4899 74.5588 0.5458 1.7822 -9.7096
# 4 -12.9185 10.4649 0.5458 26.3403 -10.4178 9.3657
# 5 2.7613 10.1141 1.7822 -10.4178 36.5321 -4.9159
# 6 -39.6700 -23.5989 -9.7096 9.3657 -4.9159 48.6364
#
#
#
# Elastic Compliance Matrix: (Units=1/GPa)
#
#
# Indices 1 2 3 4 5 6 
#
# 1 0.011993 -0.002472 -0.000216 0.004986 0.002261 0.007808
# 2 -0.002472 0.010108 -0.003750 -0.007994 -0.004271 0.003247
# 3 -0.000216 -0.003750 0.015337 0.001017 0.000723 0.000943
# 4 0.004986 -0.007994 0.001017 0.052683 0.015711 -0.008166
# 5 0.002261 -0.004271 0.000723 0.015711 0.032858 0.000212
# 6 0.007808 0.003247 0.000943 -0.008166 0.000212 0.030287
#
#
# Mechanical properties :
#
#
# Convention : Reuss Voigt Hill
#
# Bulk Modulus (GPa) = 40.71292 57.37889 49.04591
# Shear Modulus (GPa) = 28.68150 38.95520 33.81835
#
# Velocity S-wave (km/s) = 3.51609 4.09771 3.81799
# Velocity P-wave (km/s) = 5.83376 6.86447 6.36999
#
# Compressibility (1/GPa) = 0.02456223
#
# Stress axis : x y z
#
# Youngs Moduli (GPa) = 83.38293 98.93474 65.20154
#
# Poissons Ratio (x) = 0.24455 0.01409
# Poissons Ratio (y) = 0.20610 0.24449
# Poissons Ratio (z) = 0.01802 0.37098
#
# Static dielectric constant tensor:
#      x y z
#    x 1.889730 0.050110 0.036710 
#    y 0.050110 1.865710 -0.019670 
#    z 0.036710 -0.019670 1.921990 
# 
# From -- ./inp_files/302115.got.cif
#   From: 2010.05.17/outbox.cif.g08.bks.cpg/sg2_152_cif.got.tgz:302115.got - 2010.06.03 11:33:40.
