data_PCOD9029594
_publ_section_title
;
Structure prediction by ZEFSAII (Michael W. Deem and Ramdas Pophale) SiO2 
 PCOD9029594
Probable space group: P -1
;
_chemical_formula_sum "Si O2"
_cell_formula_units_Z 12
_cell_length_a 10.278870
_cell_length_b 11.508965
_cell_length_c 13.582494
_cell_angle_alpha 158.385851
_cell_angle_beta 102.774657
_cell_angle_gamma 78.382696
_cell_volume 577.180754
_symmetry_space_group_name_H-M "P -1"
_symmetry_group_IT_number 2
_symmetry_cell_setting 'triclinic'
loop_
_space_group_symop_operation_xyz
x,y,z
-x,-y,-z
loop_
_atom_site_type_symbol
_atom_site_label
_atom_site_fract_x
_atom_site_fract_y
_atom_site_fract_z
Si Si1 0.030989 0.218608 0.973136
Si Si2 0.415874 0.804549 0.751198
Si Si3 0.297094 0.238049 0.909286
Si Si4 0.649694 0.020963 0.502704
Si Si5 0.128660 0.711879 0.722235
Si Si6 0.866528 0.705483 0.425741
O O1 0.149187 0.197832 0.897688
O O2 0.084782 0.065347 0.963725
O O3 0.918453 0.989145 0.727351
O O4 0.977942 0.565765 0.260390
O O5 0.500000 0.500000 0.500000
O O6 0.268688 0.684389 0.666373
O O7 0.391177 0.038559 0.840178
O O8 0.500000 0.000000 0.000000
O O9 0.322584 0.118538 0.709984
O O10 0.319645 0.609682 0.207041
O O11 0.500000 0.000000 0.500000
O O12 0.743496 0.833427 0.445572
O O13 0.161547 0.595812 0.745851
O O14 0.000000 0.500000 0.500000
#
# Coordination Sequence:
#
# PCOD9029594 Si02
#       6
#     2   2   2   2   2   2
#     4  10  22  42  67  99 124 166 218 280 336 376
#     4  11  25  43  71 102 131 181 224 279 344 398
#     4  11  25  45  67  92 139 166 223 280 321 397
#     4  12  27  44  63  94 134 183 220 268 320 395
#     4   9  22  43  67 101 136 170 221 286 336 398
#     4  11  23  39  68  95 131 172 218 263 332 399
#
# _framework density 20.790714000000001
#
# number of rings (size 3 to 8) (size 9 to 14) (size 15 to 20)
#    0.000    1.333    0.000    4.000    4.667   13.333 
#    0.000    0.000    0.000    0.000    0.000    0.000 
#    0.000    0.000    0.000    0.000    0.000    0.000 
#
# Total GULP energy -67026.780786 kJ/mol
# GULP energy per Si atom -5585.565065 kJ/mol
# Density = 2.074339 g / cm^3
# Si number density = 20.790714 Si / 1000 Ang^3
#
#
#
# Elastic Constant Matrix: (Units=GPa)
#
#
# Indices 1 2 3 4 5 6 
#
# 1 111.6910 83.3115 50.7457 22.2817 -7.1678 -11.4581
# 2 83.3115 201.4038 63.9144 9.9539 -16.1864 -13.2967
# 3 50.7457 63.9144 129.0541 -0.2640 -27.0543 -7.0521
# 4 22.2817 9.9539 -0.2640 31.3587 -4.8352 -9.2483
# 5 -7.1678 -16.1864 -27.0543 -4.8352 35.2045 8.0131
# 6 -11.4581 -13.2967 -7.0521 -9.2483 8.0131 37.3214
#
#
#
# Elastic Compliance Matrix: (Units=1/GPa)
#
#
# Indices 1 2 3 4 5 6 
#
# 1 0.017173 -0.005264 -0.005075 -0.011073 -0.004494 0.000659
# 2 -0.005264 0.007669 -0.001372 0.001808 0.001421 0.001000
# 3 -0.005075 -0.001372 0.012206 0.005388 0.008509 -0.000232
# 4 -0.011073 0.001808 0.005388 0.042443 0.006885 0.007302
# 5 -0.004494 0.001421 0.008509 0.006885 0.036875 -0.005477
# 6 0.000659 0.001000 -0.000232 0.007302 -0.005477 0.030294
#
#
# Mechanical properties :
#
#
# Convention : Reuss Voigt Hill
#
# Bulk Modulus (GPa) = 73.38492 93.12133 83.25313
# Shear Modulus (GPa) = 28.63295 37.05540 32.84418
#
# Velocity S-wave (km/s) = 3.71509 4.22632 3.97892
# Velocity P-wave (km/s) = 7.33322 8.28871 7.82556
#
# Compressibility (1/GPa) = 0.01362678
#
# Stress axis : x y z
#
# Youngs Moduli (GPa) = 58.22927 130.39857 81.92907
#
# Poissons Ratio (x) = 0.68640 0.41577
# Poissons Ratio (y) = 0.30651 0.11241
# Poissons Ratio (z) = 0.29550 0.17891
#
# Static dielectric constant tensor:
#      x y z
#    x 1.906570 0.086400 0.075760 
#    y 0.086400 1.774410 0.028170 
#    z 0.075760 0.028170 1.724140 
# 
# From -- ./inp_files/26926.got.cif
#   From: 2010.05.17/outbox.cif.g08.bks.cpg/sg2_14_cif.got.tgz:26926.got - 2010.06.03 11:33:40.
