data_PCOD9029725
_publ_section_title
;
Structure prediction by ZEFSAII (Michael W. Deem and Ramdas Pophale) SiO2 
 PCOD9029725
Probable space group: P -1
;
_chemical_formula_sum "Si O2"
_cell_formula_units_Z 16
_cell_length_a 11.010676
_cell_length_b 13.427264
_cell_length_c 25.880049
_cell_angle_alpha 31.599751
_cell_angle_beta 23.432877
_cell_angle_gamma 40.764395
_cell_volume 791.936986
_symmetry_space_group_name_H-M "P -1"
_symmetry_group_IT_number 2
_symmetry_cell_setting 'triclinic'
loop_
_space_group_symop_operation_xyz
x,y,z
-x,-y,-z
loop_
_atom_site_type_symbol
_atom_site_label
_atom_site_fract_x
_atom_site_fract_y
_atom_site_fract_z
Si Si1 0.846484 0.725374 0.393842
Si Si2 0.736119 0.911611 0.909126
Si Si3 0.713690 0.958202 0.670252
Si Si4 0.574329 0.229808 0.372529
Si Si5 0.583540 0.488066 0.773553
Si Si6 0.237705 0.187052 0.171817
Si Si7 0.318338 0.435809 0.178599
Si Si8 0.393533 0.667482 0.500787
O O1 0.663791 0.676374 0.539264
O O2 0.603330 0.699619 0.454496
O O3 0.129817 0.604201 0.324281
O O4 0.959411 0.951560 0.256623
O O5 0.677086 0.923787 0.864864
O O6 0.691018 0.686507 0.037889
O O7 0.500000 0.000000 0.000000
O O8 0.797432 0.936333 0.707457
O O9 0.539865 0.754672 0.810411
O O10 0.551288 0.143853 0.639869
O O11 0.000000 0.000000 0.500000
O O12 0.532161 0.334626 0.288931
O O13 0.915469 0.261530 0.249111
O O14 0.500000 0.000000 0.500000
O O15 0.685494 0.548373 0.764911
O O16 0.493212 0.368405 0.000477
O O17 0.963622 0.393702 0.317890
O O18 0.500000 0.500000 0.500000
#
# Coordination Sequence:
#
# PCOD9029725 Si02
#       8
#     2   2   2   2   2   2   2   2
#     4  11  22  42  64  91 134 165 217 269 318 386
#     4   9  21  42  66  92 129 172 211 264 335 379
#     4  10  23  39  66  94 128 172 211 263 324 375
#     4  12  25  37  63 102 127 167 216 265 327 387
#     4  10  23  41  66  93 130 171 210 267 327 383
#     4  11  23  43  66  96 134 165 217 277 316 390
#     4  10  22  42  68  90 133 168 217 264 325 380
#     4  11  23  41  65  95 124 174 219 259 319 387
#
# _framework density 20.203627999999998
#
# number of rings (size 3 to 8) (size 9 to 14) (size 15 to 20)
#    0.000    1.500    2.500    2.250    5.250    3.000 
#    4.500    0.625    0.000    0.000    0.000    0.000 
#    0.000    0.000    0.000    0.000    0.000    0.000 
#
# Total GULP energy -89240.939192 kJ/mol
# GULP energy per Si atom -5577.558699 kJ/mol
# Density = 2.015764 g / cm^3
# Si number density = 20.203628 Si / 1000 Ang^3
#
#
#
# Elastic Constant Matrix: (Units=GPa)
#
#
# Indices 1 2 3 4 5 6 
#
# 1 104.0177 38.4918 51.3818 -19.9923 9.9747 5.7651
# 2 38.4918 100.7608 23.5660 -12.1234 6.7984 9.4234
# 3 51.3818 23.5660 84.1038 -4.4974 -3.4712 1.1084
# 4 -19.9923 -12.1234 -4.4974 32.3427 9.3230 1.4322
# 5 9.9747 6.7984 -3.4712 9.3230 46.6731 -1.5422
# 6 5.7651 9.4234 1.1084 1.4322 -1.5422 36.6148
#
#
#
# Elastic Compliance Matrix: (Units=1/GPa)
#
#
# Indices 1 2 3 4 5 6 
#
# 1 0.018581 -0.002671 -0.010250 0.011092 -0.006647 -0.002642
# 2 -0.002671 0.012149 -0.001639 0.003407 -0.002096 -0.002878
# 3 -0.010250 -0.001639 0.018478 -0.005921 0.005050 0.001921
# 4 0.011092 0.003407 -0.005921 0.041838 -0.011816 -0.004578
# 5 -0.006647 -0.002096 0.005050 -0.011816 0.025986 0.002990
# 6 -0.002642 -0.002878 0.001921 -0.004578 0.002990 0.028715
#
#
# Mechanical properties :
#
#
# Convention : Reuss Voigt Hill
#
# Bulk Modulus (GPa) = 49.77962 57.30682 53.54322
# Shear Modulus (GPa) = 27.53900 34.82230 31.18065
#
# Velocity S-wave (km/s) = 3.69599 4.15609 3.93277
# Velocity P-wave (km/s) = 6.55028 7.17335 6.86889
#
# Compressibility (1/GPa) = 0.02008854
#
# Stress axis : x y z
#
# Youngs Moduli (GPa) = 53.81852 82.31460 54.11948
#
# Poissons Ratio (x) = 0.21984 0.55471
# Poissons Ratio (y) = 0.14373 0.08869
# Poissons Ratio (z) = 0.55163 0.13490
#
# Static dielectric constant tensor:
#      x y z
#    x 1.754950 -0.011920 0.052550 
#    y -0.011920 1.802690 0.031580 
#    z 0.052550 0.031580 1.823920 
# 
# From -- ./inp_files/589426.got.cif
#   From: 2010.05.17/outbox.cif.g08.bks.cpg/sg2_295_cif.got.tgz:589426.got - 2010.06.03 11:33:40.
