data_PCOD9029354
_publ_section_title
;
Structure prediction by ZEFSAII (Michael W. Deem and Ramdas Pophale) SiO2 
 PCOD9029354
Probable space group: P -1
;
_chemical_formula_sum "Si O2"
_cell_formula_units_Z 14
_cell_length_a 12.363251
_cell_length_b 9.019213
_cell_length_c 12.219874
_cell_angle_alpha 118.652042
_cell_angle_beta 144.574047
_cell_angle_gamma 73.451346
_cell_volume 677.930251
_symmetry_space_group_name_H-M "P -1"
_symmetry_group_IT_number 2
_symmetry_cell_setting 'triclinic'
loop_
_space_group_symop_operation_xyz
x,y,z
-x,-y,-z
loop_
_atom_site_type_symbol
_atom_site_label
_atom_site_fract_x
_atom_site_fract_y
_atom_site_fract_z
Si Si1 0.488465 0.812395 0.874086
Si Si2 0.170009 0.503616 0.557525
Si Si3 0.441840 0.528243 0.132560
Si Si4 0.914589 0.296746 0.871242
Si Si5 0.509578 0.337885 0.527925
Si Si6 0.245012 0.111643 0.080618
Si Si7 0.881256 0.275683 0.093822
O O1 0.276675 0.692962 0.670176
O O2 0.608443 0.680586 0.982056
O O3 0.575584 0.840419 0.835255
O O4 0.500000 0.000000 0.000000
O O5 0.345138 0.428388 0.725306
O O6 0.000000 0.500000 0.500000
O O7 0.077085 0.388511 0.339177
O O8 0.470232 0.593202 0.306142
O O9 0.285875 0.619528 0.985373
O O10 0.701675 0.266478 0.637617
O O11 0.892034 0.252434 0.965103
O O12 0.000000 0.500000 0.000000
O O13 0.072773 0.195836 0.925027
O O14 0.500000 0.500000 0.500000
O O15 0.324954 0.193800 0.292252
O O16 0.171819 0.908530 0.958221
#
# Coordination Sequence:
#
# PCOD9029354 Si02
#       7
#     2   2   2   2   2   2   2
#     4  10  22  44  65  89 124 168 214 265 309 369
#     4  10  22  42  67  86 126 168 213 261 311 368
#     4   9  22  40  67  90 130 163 210 258 320 375
#     4  11  23  37  66  95 129 170 209 252 316 385
#     4  11  19  39  64  96 127 170 202 257 324 369
#     4  12  23  39  65  96 132 163 211 264 307 384
#     4  11  24  41  64  99 130 168 206 259 322 375
#
# _framework density 20.651091000000001
#
# number of rings (size 3 to 8) (size 9 to 14) (size 15 to 20)
#    0.857    0.571    2.857    3.000    2.000    4.000 
#    0.000    0.714    0.000    0.000    0.000    0.000 
#    0.000    0.000    0.000    0.000    0.000    0.000 
#
# Total GULP energy -78102.847933 kJ/mol
# GULP energy per Si atom -5578.774852 kJ/mol
# Density = 2.060409 g / cm^3
# Si number density = 20.651091 Si / 1000 Ang^3
#
#
#
# Elastic Constant Matrix: (Units=GPa)
#
#
# Indices 1 2 3 4 5 6 
#
# 1 96.2264 29.7655 15.8552 2.1945 22.3792 -4.8940
# 2 29.7655 151.9414 59.4691 16.6334 13.9320 -11.6816
# 3 15.8552 59.4691 102.5720 8.5202 20.3616 -9.4740
# 4 2.1945 16.6334 8.5202 35.2724 -2.2154 5.4198
# 5 22.3792 13.9320 20.3616 -2.2154 32.0958 2.5610
# 6 -4.8940 -11.6816 -9.4740 5.4198 2.5610 32.5443
#
#
#
# Elastic Compliance Matrix: (Units=1/GPa)
#
#
# Indices 1 2 3 4 5 6 
#
# 1 0.013116 -0.001865 0.001272 -0.001240 -0.009438 0.002623
# 2 -0.001865 0.009325 -0.004544 -0.003565 -0.000299 0.002361
# 3 0.001272 -0.004544 0.014460 -0.002562 -0.008574 0.003871
# 4 -0.001240 -0.003565 -0.002562 0.032416 0.006926 -0.008155
# 5 -0.009438 -0.000299 -0.008574 0.006926 0.044477 -0.008676
# 6 0.002623 0.002361 0.003871 -0.008155 -0.008676 0.035137
#
#
# Mechanical properties :
#
#
# Convention : Reuss Voigt Hill
#
# Bulk Modulus (GPa) = 37.55617 62.32437 49.94027
# Shear Modulus (GPa) = 29.74795 36.35917 33.05356
#
# Velocity S-wave (km/s) = 3.79951 4.20055 4.00506
# Velocity P-wave (km/s) = 6.12159 7.33290 6.75445
#
# Compressibility (1/GPa) = 0.02662678
#
# Stress axis : x y z
#
# Youngs Moduli (GPa) = 76.24314 107.24261 69.15791
#
# Poissons Ratio (x) = 0.19998 -0.08800
# Poissons Ratio (y) = 0.14217 0.31429
# Poissons Ratio (z) = -0.09702 0.48736
#
# Static dielectric constant tensor:
#      x y z
#    x 1.819760 -0.063420 -0.015550 
#    y -0.063420 1.772330 0.014580 
#    z -0.015550 0.014580 1.766200 
# 
# From -- ./inp_files/529000.got.cif
#   From: 2010.05.17/outbox.cif.g08.bks.cpg/sg2_265_cif.got.tgz:529000.got - 2010.06.03 11:33:40.
