data_PCOD9029428
_publ_section_title
;
Structure prediction by ZEFSAII (Michael W. Deem and Ramdas Pophale) SiO2 
 PCOD9029428
Probable space group: P -1
;
_chemical_formula_sum "Si O2"
_cell_formula_units_Z 16
_cell_length_a 10.955377
_cell_length_b 8.099068
_cell_length_c 12.863851
_cell_angle_alpha 104.864070
_cell_angle_beta 37.389792
_cell_angle_gamma 96.097776
_cell_volume 660.571596
_symmetry_space_group_name_H-M "P -1"
_symmetry_group_IT_number 2
_symmetry_cell_setting 'triclinic'
loop_
_space_group_symop_operation_xyz
x,y,z
-x,-y,-z
loop_
_atom_site_type_symbol
_atom_site_label
_atom_site_fract_x
_atom_site_fract_y
_atom_site_fract_z
Si Si1 0.400073 0.108095 0.982985
Si Si2 0.338466 0.328353 0.498063
Si Si3 0.213085 0.059415 0.392784
Si Si4 0.510365 0.548383 0.235480
Si Si5 0.025522 0.985032 0.105608
Si Si6 0.791918 0.611141 0.700489
Si Si7 0.970376 0.409024 0.897094
Si Si8 0.598912 0.169820 0.480874
O O1 0.270368 0.292133 0.133259
O O2 0.242991 0.015270 0.007994
O O3 0.500000 0.000000 0.000000
O O4 0.604580 0.098168 0.776403
O O5 0.260087 0.152451 0.483284
O O6 0.436237 0.422873 0.354359
O O7 0.508788 0.288707 0.464565
O O8 0.137013 0.438069 0.703782
O O9 0.225585 0.218984 0.332831
O O10 0.000000 0.000000 0.500000
O O11 0.367517 0.516079 0.232865
O O12 0.478643 0.730618 0.345712
O O13 0.739532 0.480448 0.035879
O O14 0.000165 0.794222 0.129111
O O15 0.841872 0.119951 0.301877
O O16 0.000000 0.000000 0.000000
O O17 0.000000 0.500000 0.500000
O O18 0.000000 0.500000 0.000000
O O19 0.500000 0.000000 0.500000
#
# Coordination Sequence:
#
# PCOD9029428 Si02
#       8
#     2   2   2   2   2   2   2   2
#     4  10  22  43  69  96 129 184 230 261 340 414
#     4  11  24  42  67  95 137 175 230 268 348 409
#     4  10  23  40  67  95 127 174 229 281 322 403
#     4  11  24  43  66  94 134 179 221 276 338 412
#     4  12  25  41  68  99 138 171 223 288 341 393
#     4  10  22  42  67  94 129 174 221 274 350 391
#     4  12  24  42  66  98 129 181 226 271 337 421
#     4  12  23  41  64  99 131 172 213 280 337 394
#
# _framework density 24.221447000000001
#
# number of rings (size 3 to 8) (size 9 to 14) (size 15 to 20)
#    0.000    1.000    2.500    4.875    7.000    1.000 
#    0.000    1.875    0.000    0.000    0.000    0.000 
#    0.000    0.000    0.000    0.000    0.000    0.000 
#
# Total GULP energy -89463.992032 kJ/mol
# GULP energy per Si atom -5591.499502 kJ/mol
# Density = 2.416632 g / cm^3
# Si number density = 24.221447 Si / 1000 Ang^3
#
#
#
# Elastic Constant Matrix: (Units=GPa)
#
#
# Indices 1 2 3 4 5 6 
#
# 1 105.5672 35.6821 37.8232 -2.1035 -15.1995 18.5138
# 2 35.6821 103.2108 29.7643 10.9614 3.2654 12.0449
# 3 37.8232 29.7643 177.6060 28.4150 -30.1824 -0.1724
# 4 -2.1035 10.9614 28.4150 41.9780 7.9435 5.3668
# 5 -15.1995 3.2654 -30.1824 7.9435 49.2379 -8.1469
# 6 18.5138 12.0449 -0.1724 5.3668 -8.1469 38.7969
#
#
#
# Elastic Compliance Matrix: (Units=1/GPa)
#
#
# Indices 1 2 3 4 5 6 
#
# 1 0.012720 -0.003482 -0.002534 0.003723 0.001130 -0.005278
# 2 -0.003482 0.011864 -0.001544 -0.001343 -0.003001 -0.002473
# 3 -0.002534 -0.001544 0.008729 -0.007399 0.006548 0.004126
# 4 0.003723 -0.001343 -0.007399 0.032235 -0.009807 -0.007911
# 5 0.001130 -0.003001 0.006548 -0.009807 0.027710 0.007597
# 6 -0.005278 -0.002473 0.004126 -0.007911 0.007597 0.031769
#
#
# Mechanical properties :
#
#
# Convention : Reuss Voigt Hill
#
# Bulk Modulus (GPa) = 54.96545 65.88034 60.42290
# Shear Modulus (GPa) = 34.19676 44.87685 39.53681
#
# Velocity S-wave (km/s) = 3.76152 4.30906 4.04456
# Velocity P-wave (km/s) = 6.45039 7.21218 6.84189
#
# Compressibility (1/GPa) = 0.01819325
#
# Stress axis : x y z
#
# Youngs Moduli (GPa) = 78.61653 84.28703 114.55615
#
# Poissons Ratio (x) = 0.29349 0.29028
# Poissons Ratio (y) = 0.27374 0.17690
# Poissons Ratio (z) = 0.19921 0.13016
#
# Static dielectric constant tensor:
#      x y z
#    x 1.900640 0.007640 0.035480 
#    y 0.007640 1.935920 0.071980 
#    z 0.035480 0.071980 1.789510 
# 
# From -- ./inp_files/515829.got.cif
#   From: 2010.05.17/outbox.cif.g08.bks.cpg/sg2_258_cif.got.tgz:515829.got - 2010.06.03 11:33:40.
