data_PCOD9029801
_publ_section_title
;
Structure prediction by ZEFSAII (Michael W. Deem and Ramdas Pophale) SiO2 
 PCOD9029801
Probable space group: P -1
;
_chemical_formula_sum "Si O2"
_cell_formula_units_Z 16
_cell_length_a 10.099495
_cell_length_b 8.525384
_cell_length_c 9.118525
_cell_angle_alpha 95.409655
_cell_angle_beta 96.134974
_cell_angle_gamma 112.771035
_cell_volume 711.862780
_symmetry_space_group_name_H-M "P -1"
_symmetry_group_IT_number 2
_symmetry_cell_setting 'triclinic'
loop_
_space_group_symop_operation_xyz
x,y,z
-x,-y,-z
loop_
_atom_site_type_symbol
_atom_site_label
_atom_site_fract_x
_atom_site_fract_y
_atom_site_fract_z
Si Si1 0.414437 0.549720 0.623341
Si Si2 0.580571 0.191039 0.586050
Si Si3 0.936275 0.103606 0.398815
Si Si4 0.670072 0.766980 0.250504
Si Si5 0.105741 0.715723 0.317157
Si Si6 0.102489 0.915903 0.075630
Si Si7 0.062423 0.346177 0.180094
Si Si8 0.331433 0.280637 0.097621
O O1 0.500000 0.500000 0.500000
O O2 0.369025 0.681999 0.538556
O O3 0.295256 0.376295 0.664937
O O4 0.528010 0.635512 0.775849
O O5 0.471910 0.233220 0.683440
O O6 0.723004 0.209239 0.691582
O O7 0.500000 0.000000 0.500000
O O8 0.906006 0.235969 0.513453
O O9 0.046643 0.217124 0.300647
O O10 0.793124 0.958757 0.297042
O O11 0.000000 0.000000 0.500000
O O12 0.642239 0.713398 0.072994
O O13 0.045897 0.825665 0.215845
O O14 0.051712 0.517718 0.251782
O O15 0.254627 0.077664 0.112350
O O16 0.073614 0.754544 0.951571
O O17 0.000000 0.000000 0.000000
O O18 0.215067 0.366404 0.125249
#
# Coordination Sequence:
#
# PCOD9029801 Si02
#       8
#     2   2   2   2   2   2   2   2
#     4  10  23  40  69  99 131 180 230 277 329 407
#     4  11  23  44  69  98 140 176 224 287 345 393
#     4  12  26  42  71  99 138 186 232 277 334 417
#     4  11  24  44  68 103 137 181 236 273 337 410
#     4  12  25  44  69  99 135 177 230 291 344 399
#     4  10  22  42  68  95 132 177 221 271 344 417
#     4  11  24  43  66 104 137 178 225 285 347 393
#     4  11  22  44  71  97 140 179 231 277 336 414
#
# _framework density 22.476244000000001
#
# number of rings (size 3 to 8) (size 9 to 14) (size 15 to 20)
#    0.000    1.000    2.500    4.875    8.750    0.000 
#    0.000    5.000    0.000    0.000    0.000    0.000 
#    0.000    0.000    0.000    0.000    0.000    0.000 
#
# Total GULP energy -89420.911448 kJ/mol
# GULP energy per Si atom -5588.806965 kJ/mol
# Density = 2.242509 g / cm^3
# Si number density = 22.476244 Si / 1000 Ang^3
#
#
#
# Elastic Constant Matrix: (Units=GPa)
#
#
# Indices 1 2 3 4 5 6 
#
# 1 47.8851 5.1100 25.8219 5.6934 -17.1672 -7.2349
# 2 5.1100 117.4969 48.0257 13.0915 -15.0393 -5.5833
# 3 25.8219 48.0257 145.2333 2.3097 -24.8911 -6.9808
# 4 5.6934 13.0915 2.3097 50.4833 3.4940 1.0112
# 5 -17.1672 -15.0393 -24.8911 3.4940 31.5155 2.7196
# 6 -7.2349 -5.5833 -6.9808 1.0112 2.7196 24.7850
#
#
#
# Elastic Compliance Matrix: (Units=1/GPa)
#
#
# Indices 1 2 3 4 5 6 
#
# 1 0.029205 0.002800 -0.003192 -0.005028 0.014691 0.006850
# 2 0.002800 0.010689 -0.003141 -0.003284 0.004337 0.001999
# 3 -0.003192 -0.003141 0.009179 0.000473 0.003917 0.000497
# 4 -0.005028 -0.003284 0.000473 0.021676 -0.006138 -0.002285
# 5 0.014691 0.004337 0.003917 -0.006138 0.045436 0.001634
# 6 0.006850 0.001999 0.000497 -0.002285 0.001634 0.042851
#
#
# Mechanical properties :
#
#
# Convention : Reuss Voigt Hill
#
# Bulk Modulus (GPa) = 23.80432 52.05896 37.93164
# Shear Modulus (GPa) = 27.76188 36.80060 32.28124
#
# Velocity S-wave (km/s) = 3.51830 4.05076 3.79388
# Velocity P-wave (km/s) = 5.20754 6.71493 6.00869
#
# Compressibility (1/GPa) = 0.04200917
#
# Stress axis : x y z
#
# Youngs Moduli (GPa) = 34.24072 93.55465 108.94142
#
# Poissons Ratio (x) = -0.26200 0.34770
# Poissons Ratio (y) = -0.09589 0.34217
# Poissons Ratio (z) = 0.10928 0.29384
#
# Static dielectric constant tensor:
#      x y z
#    x 1.856810 -0.019540 -0.007330 
#    y -0.019540 1.888740 0.022300 
#    z -0.007330 0.022300 1.855690 
# 
# From -- ./inp_files/239205.got.cif
#   From: 2010.05.17/outbox.cif.g08.bks.cpg/sg2_120_cif.got.tgz:239205.got - 2010.06.03 11:33:40.
