data_PCOD9029155
_publ_section_title
;
Structure prediction by ZEFSAII (Michael W. Deem and Ramdas Pophale) SiO2 
 PCOD9029155
Probable space group: P -1
;
_chemical_formula_sum "Si O2"
_cell_formula_units_Z 14
_cell_length_a 11.811870
_cell_length_b 4.831592
_cell_length_c 20.129421
_cell_angle_alpha 100.048343
_cell_angle_beta 146.014276
_cell_angle_gamma 62.103878
_cell_volume 511.820768
_symmetry_space_group_name_H-M "P -1"
_symmetry_group_IT_number 2
_symmetry_cell_setting 'triclinic'
loop_
_space_group_symop_operation_xyz
x,y,z
-x,-y,-z
loop_
_atom_site_type_symbol
_atom_site_label
_atom_site_fract_x
_atom_site_fract_y
_atom_site_fract_z
Si Si1 0.575039 0.196770 0.280533
Si Si2 0.037067 0.719524 0.080793
Si Si3 0.520277 0.320322 0.850829
Si Si4 0.706613 0.824127 0.462150
Si Si5 0.297141 0.314146 0.869414
Si Si6 0.845315 0.615672 0.736982
Si Si7 0.096777 0.776147 0.375984
O O1 0.649629 0.371450 0.271025
O O2 0.728914 0.925026 0.402876
O O3 0.331029 0.545726 0.209255
O O4 0.495792 0.992672 0.190061
O O5 0.017569 0.633238 0.143581
O O6 0.000000 0.500000 0.000000
O O7 0.820117 0.128624 0.982101
O O8 0.425288 0.414213 0.883495
O O9 0.413009 0.053090 0.347685
O O10 0.850438 0.938883 0.581408
O O11 0.810106 0.440672 0.518866
O O12 0.061575 0.630034 0.809238
O O13 0.166596 0.159646 0.761421
O O14 0.500000 0.000000 0.000000
O O15 0.768260 0.461793 0.634218
#
# Coordination Sequence:
#
# PCOD9029155 Si02
#       7
#     2   2   2   2   2   2   2
#     4  10  23  36  66  88 125 163 212 260 306 363
#     4   9  18  36  64  92 125 160 208 260 315 365
#     4  11  20  42  58  92 127 166 206 254 311 377
#     4  11  21  44  63 100 120 166 215 266 310 361
#     4  10  22  42  66  94 130 169 209 252 321 382
#     4   9  20  38  66  95 127 165 209 265 313 373
#     4  10  23  39  68  92 130 162 212 259 317 367
#
# _framework density 27.353327
#
# number of rings (size 3 to 8) (size 9 to 14) (size 15 to 20)
#    0.857    1.143    1.429    2.143    0.000    1.143 
#    0.000   18.571    0.000    0.000    0.000    0.000 
#    0.000    0.000    0.000    0.000    0.000    0.000 
#
# Total GULP energy -78294.441505 kJ/mol
# GULP energy per Si atom -5592.460108 kJ/mol
# Density = 2.729107 g / cm^3
# Si number density = 27.353327 Si / 1000 Ang^3
#
#
#
# Elastic Constant Matrix: (Units=GPa)
#
#
# Indices 1 2 3 4 5 6 
#
# 1 145.7754 31.5832 40.6107 -20.6637 -29.7416 5.8222
# 2 31.5832 96.7750 15.5487 -1.7826 3.1854 20.9911
# 3 40.6107 15.5487 118.6213 -26.7252 -14.6616 5.8441
# 4 -20.6637 -1.7826 -26.7252 37.5637 8.1938 -8.6962
# 5 -29.7416 3.1854 -14.6616 8.1938 51.4226 -9.1931
# 6 5.8222 20.9911 5.8441 -8.6962 -9.1931 21.9277
#
#
#
# Elastic Compliance Matrix: (Units=1/GPa)
#
#
# Indices 1 2 3 4 5 6 
#
# 1 0.009788 -0.004449 -0.001357 0.004352 0.005974 0.006252
# 2 -0.004449 0.016323 -0.001831 -0.005958 -0.006566 -0.019072
# 3 -0.001357 -0.001831 0.010822 0.007127 0.001779 0.002801
# 4 0.004352 -0.005958 0.007127 0.037598 0.002234 0.018496
# 5 0.005974 -0.006566 0.001779 0.002234 0.026349 0.016158
# 6 0.006252 -0.019072 0.002801 0.018496 0.016158 0.075565
#
#
# Mechanical properties :
#
#
# Convention : Reuss Voigt Hill
#
# Bulk Modulus (GPa) = 46.16929 59.62857 52.89893
# Shear Modulus (GPa) = 25.13360 40.41141 32.77251
#
# Velocity S-wave (km/s) = 3.03454 3.84785 3.46514
# Velocity P-wave (km/s) = 5.40309 6.44887 5.94901
#
# Compressibility (1/GPa) = 0.02165942
#
# Stress axis : x y z
#
# Youngs Moduli (GPa) = 102.16798 61.26478 92.40197
#
# Poissons Ratio (x) = 0.27256 0.12538
# Poissons Ratio (y) = 0.45454 0.16917
# Poissons Ratio (z) = 0.13863 0.11216
#
# Static dielectric constant tensor:
#      x y z
#    x 2.212200 -0.093290 0.031780 
#    y -0.093290 2.081660 -0.014370 
#    z 0.031780 -0.014370 2.157710 
# 
# From -- ./inp_files/85152.got.cif
#   From: 2010.05.17/outbox.cif.g08.bks.cpg/sg2_43_cif.got.tgz:85152.got - 2010.06.03 11:33:40.
