data_PCOD9029734
_publ_section_title
;
Structure prediction by ZEFSAII (Michael W. Deem and Ramdas Pophale) SiO2 
 PCOD9029734
Probable space group: P -1
;
_chemical_formula_sum "Si O2"
_cell_formula_units_Z 16
_cell_length_a 8.354911
_cell_length_b 15.298362
_cell_length_c 18.344548
_cell_angle_alpha 23.335246
_cell_angle_beta 45.353302
_cell_angle_gamma 55.628845
_cell_volume 633.107635
_symmetry_space_group_name_H-M "P -1"
_symmetry_group_IT_number 2
_symmetry_cell_setting 'triclinic'
loop_
_space_group_symop_operation_xyz
x,y,z
-x,-y,-z
loop_
_atom_site_type_symbol
_atom_site_label
_atom_site_fract_x
_atom_site_fract_y
_atom_site_fract_z
Si Si1 0.629127 0.600690 0.517228
Si Si2 0.400188 0.275552 0.081007
Si Si3 0.440705 0.769612 0.649474
Si Si4 0.578387 0.881358 0.972528
Si Si5 0.211095 0.790741 0.560594
Si Si6 0.921887 0.422465 0.827958
Si Si7 0.794215 0.836835 0.141763
Si Si8 0.928149 0.750371 0.440062
O O1 0.446169 0.746284 0.482885
O O2 0.678163 0.634251 0.391067
O O3 0.863924 0.683292 0.428254
O O4 0.512703 0.339859 0.778070
O O5 0.414546 0.221476 0.032048
O O6 0.216622 0.052947 0.343102
O O7 0.373390 0.531131 0.898659
O O8 0.650770 0.288857 0.026565
O O9 0.242790 0.751116 0.665872
O O10 0.688200 0.794190 0.511340
O O11 0.500000 0.000000 0.500000
O O12 0.391926 0.027299 0.921678
O O13 0.834998 0.047556 0.780248
O O14 0.007893 0.607468 0.722566
O O15 0.083170 0.255234 0.893389
O O16 0.943197 0.551158 0.644293
O O17 0.000000 0.000000 0.000000
#
# Coordination Sequence:
#
# PCOD9029734 Si02
#       8
#     2   2   2   2   2   2   2   2
#     4  11  23  42  62  92 134 179 226 275 324 378
#     4  11  21  45  67  93 138 171 214 272 338 393
#     4  10  24  48  74 102 131 162 219 282 333 416
#     4  12  22  42  65  95 134 182 220 275 324 392
#     4  11  22  41  71  93 128 178 212 263 350 394
#     4  11  22  41  66  93 133 182 222 277 319 382
#     4  12  24  42  64  98 137 182 242 276 311 378
#     4  10  22  42  68  91 131 178 212 270 348 385
#
# _framework density 25.272162999999999
#
# number of rings (size 3 to 8) (size 9 to 14) (size 15 to 20)
#    0.000    1.000    7.500    0.000    0.000    7.500 
#    0.000   10.000    0.000    0.000    0.000    0.000 
#    0.000    0.000    0.000    0.000    0.000    0.000 
#
# Total GULP energy -89755.076218 kJ/mol
# GULP energy per Si atom -5609.692264 kJ/mol
# Density = 2.521464 g / cm^3
# Si number density = 25.272163 Si / 1000 Ang^3
#
#
#
# Elastic Constant Matrix: (Units=GPa)
#
#
# Indices 1 2 3 4 5 6 
#
# 1 140.8038 30.6957 60.6220 -16.6681 -31.0822 3.2127
# 2 30.6957 66.0027 43.1068 -19.8183 7.2791 -0.9947
# 3 60.6220 43.1068 157.7152 -17.6422 -16.7165 -8.4734
# 4 -16.6681 -19.8183 -17.6422 33.9440 2.2032 -5.4562
# 5 -31.0822 7.2791 -16.7165 2.2032 55.4626 -11.7026
# 6 3.2127 -0.9947 -8.4734 -5.4562 -11.7026 26.8488
#
#
#
# Elastic Compliance Matrix: (Units=1/GPa)
#
#
# Indices 1 2 3 4 5 6 
#
# 1 0.010198 -0.003451 -0.002160 0.001626 0.005610 0.000746
# 2 -0.003451 0.023667 -0.004880 0.009831 -0.007195 -0.001388
# 3 -0.002160 -0.004880 0.009249 0.001443 0.003144 0.004660
# 4 0.001626 0.009831 0.001443 0.038095 0.000339 0.008514
# 5 0.005610 -0.007195 0.003144 0.000339 0.025416 0.011201
# 6 0.000746 -0.001388 0.004660 0.008514 0.011201 0.045188
#
#
# Mechanical properties :
#
#
# Convention : Reuss Voigt Hill
#
# Bulk Modulus (GPa) = 45.18134 70.37452 57.77793
# Shear Modulus (GPa) = 27.75087 38.59087 33.17087
#
# Velocity S-wave (km/s) = 3.31732 3.91194 3.62684
# Velocity P-wave (km/s) = 5.70873 6.95064 6.36007
#
# Compressibility (1/GPa) = 0.02213303
#
# Stress axis : x y z
#
# Youngs Moduli (GPa) = 98.05484 42.25221 108.11401
#
# Poissons Ratio (x) = 0.14583 0.23354
# Poissons Ratio (y) = 0.33843 0.52755
# Poissons Ratio (z) = 0.21181 0.20617
#
# Static dielectric constant tensor:
#      x y z
#    x 2.000030 -0.002320 0.007940 
#    y -0.002320 2.018660 0.005870 
#    z 0.007940 0.005870 1.990070 
# 
# From -- ./inp_files/590873.got.cif
#   From: 2010.05.17/outbox.cif.g08.bks.cpg/sg2_296_cif.got.tgz:590873.got - 2010.06.03 11:33:40.
