data_PCOD9029192
_publ_section_title
;
Structure prediction by ZEFSAII (Michael W. Deem and Ramdas Pophale) SiO2 
 PCOD9029192
Probable space group: P -1
;
_chemical_formula_sum "Si O2"
_cell_formula_units_Z 15
_cell_length_a 14.486183
_cell_length_b 8.982985
_cell_length_c 9.101444
_cell_angle_alpha 57.700548
_cell_angle_beta 112.287208
_cell_angle_gamma 130.296237
_cell_volume 762.510281
_symmetry_space_group_name_H-M "P -1"
_symmetry_group_IT_number 2
_symmetry_cell_setting 'triclinic'
loop_
_space_group_symop_operation_xyz
x,y,z
-x,-y,-z
loop_
_atom_site_type_symbol
_atom_site_label
_atom_site_fract_x
_atom_site_fract_y
_atom_site_fract_z
Si Si1 0.606623 0.967301 0.607228
Si Si2 0.000000 0.000000 0.500000
Si Si3 0.605822 0.240962 0.975198
Si Si4 0.233614 0.369685 0.630392
Si Si5 0.263420 0.711720 0.256737
Si Si6 0.002585 0.581828 0.794151
Si Si7 0.771392 0.334142 0.297763
Si Si8 0.483057 0.480444 0.824143
O O1 0.654709 0.049130 0.758020
O O2 0.716654 0.131674 0.480347
O O3 0.500000 0.000000 0.500000
O O4 0.553387 0.722791 0.681275
O O5 0.119673 0.164564 0.592035
O O6 0.000896 0.209236 0.330164
O O7 0.710004 0.307377 0.884401
O O8 0.548503 0.375234 0.856686
O O9 0.663309 0.274019 0.152436
O O10 0.500000 0.000000 0.000000
O O11 0.291541 0.565280 0.445382
O O12 0.196932 0.461505 0.695019
O O13 0.342160 0.353682 0.760179
O O14 0.123138 0.610734 0.250755
O O15 0.116074 0.624987 0.747618
O O16 0.000000 0.500000 0.000000
O O17 0.500000 0.500000 0.000000
#
# Coordination Sequence:
#
# PCOD9029192 Si02
#       8
#     2   1   2   2   2   2   2   2
#     4  11  21  42  66  97 137 174 219 284 351 412
#     4  10  26  44  70 100 136 184 242 288 344 408
#     4  12  25  39  65 103 137 178 230 279 356 415
#     4  10  23  44  67  99 139 175 234 287 344 420
#     4  10  22  42  66  95 137 175 227 285 346 413
#     4  11  24  46  71  97 139 186 234 293 345 402
#     4  11  23  45  71  97 137 186 228 284 351 418
#     4  12  23  40  70 102 139 179 227 287 350 422
#
# _framework density 19.671866999999999
#
# number of rings (size 3 to 8) (size 9 to 14) (size 15 to 20)
#    0.000    1.067    5.333    1.600    1.867    8.533 
#    0.000    0.667    0.000    0.000    0.000    0.000 
#    0.000    0.000    0.000    0.000    0.000    0.000 
#
# Total GULP energy -83512.849011 kJ/mol
# GULP energy per Si atom -5567.523267 kJ/mol
# Density = 1.962709 g / cm^3
# Si number density = 19.671867 Si / 1000 Ang^3
#
#
#
# Elastic Constant Matrix: (Units=GPa)
#
#
# Indices 1 2 3 4 5 6 
#
# 1 108.6010 47.2340 39.9785 -9.5098 1.7744 9.7723
# 2 47.2340 170.0344 38.6942 6.9770 21.4600 7.1454
# 3 39.9785 38.6942 80.8360 8.7959 12.0965 0.0683
# 4 -9.5098 6.9770 8.7959 36.2187 -0.8510 10.2058
# 5 1.7744 21.4600 12.0965 -0.8510 36.0331 3.3271
# 6 9.7723 7.1454 0.0683 10.2058 3.3271 26.2774
#
#
#
# Elastic Compliance Matrix: (Units=1/GPa)
#
#
# Indices 1 2 3 4 5 6 
#
# 1 0.014732 -0.002958 -0.007503 0.008805 0.004562 -0.008652
# 2 -0.002958 0.007584 -0.001339 -0.002111 -0.004006 0.000368
# 3 -0.007503 -0.001339 0.018507 -0.008344 -0.005898 0.007094
# 4 0.008805 -0.002111 -0.008344 0.037590 0.006180 -0.018061
# 5 0.004562 -0.004006 -0.005898 0.006180 0.032698 -0.007132
# 6 -0.008652 0.000368 0.007094 -0.018061 -0.007132 0.049072
#
#
# Mechanical properties :
#
#
# Convention : Reuss Voigt Hill
#
# Bulk Modulus (GPa) = 58.06294 67.92052 62.99173
# Shear Modulus (GPa) = 26.38189 35.27682 30.82935
#
# Velocity S-wave (km/s) = 3.66607 4.23929 3.96306
# Velocity P-wave (km/s) = 6.89202 7.65270 7.28230
#
# Compressibility (1/GPa) = 0.01722269
#
# Stress axis : x y z
#
# Youngs Moduli (GPa) = 67.87969 131.85185 54.03393
#
# Poissons Ratio (x) = 0.39007 0.40543
# Poissons Ratio (y) = 0.20082 0.07232
# Poissons Ratio (z) = 0.50932 0.17648
#
# Static dielectric constant tensor:
#      x y z
#    x 1.690110 0.004330 -0.010560 
#    y 0.004330 1.690850 0.021290 
#    z -0.010560 0.021290 1.724960 
# 
# From -- ./inp_files/197439.got.cif
#   From: 2010.05.17/outbox.cif.g08.bks.cpg/sg2_99_cif.got.tgz:197439.got - 2010.06.03 11:33:40.
