data_PCOD9029726
_publ_section_title
;
Structure prediction by ZEFSAII (Michael W. Deem and Ramdas Pophale) SiO2 
 PCOD9029726
Probable space group: P -1
;
_chemical_formula_sum "Si O2"
_cell_formula_units_Z 15
_cell_length_a 6.877935
_cell_length_b 9.314724
_cell_length_c 14.771792
_cell_angle_alpha 55.539646
_cell_angle_beta 123.780968
_cell_angle_gamma 114.957960
_cell_volume 640.556478
_symmetry_space_group_name_H-M "P -1"
_symmetry_group_IT_number 2
_symmetry_cell_setting 'triclinic'
loop_
_space_group_symop_operation_xyz
x,y,z
-x,-y,-z
loop_
_atom_site_type_symbol
_atom_site_label
_atom_site_fract_x
_atom_site_fract_y
_atom_site_fract_z
Si Si1 0.163720 0.744814 0.660345
Si Si2 0.242396 0.581021 0.081452
Si Si3 0.500000 0.500000 0.500000
Si Si4 0.273404 0.137299 0.569017
Si Si5 0.452797 0.759555 0.902958
Si Si6 0.379891 0.490351 0.679392
Si Si7 0.973753 0.880900 0.947228
Si Si8 0.793195 0.916428 0.230915
O O1 0.251405 0.695642 0.799127
O O2 0.220126 0.608315 0.649158
O O3 0.887589 0.761139 0.573675
O O4 0.300056 0.945395 0.608753
O O5 0.358804 0.466442 0.224082
O O6 0.424868 0.637550 0.026884
O O7 0.000000 0.500000 0.000000
O O8 0.168511 0.752284 0.048283
O O9 0.495972 0.283522 0.594965
O O10 0.385774 0.517713 0.564544
O O11 0.126455 0.097833 0.638990
O O12 0.707718 0.777217 0.917459
O O13 0.401054 0.951618 0.854735
O O14 0.299446 0.282425 0.751926
O O15 0.024460 0.990607 0.828686
O O16 0.000000 0.000000 0.000000
#
# Coordination Sequence:
#
# PCOD9029726 Si02
#       8
#     2   2   1   2   2   2   2   2
#     4  10  22  42  68  90 133 171 214 272 337 388
#     4  11  25  41  64  96 138 168 217 277 329 386
#     4  10  24  42  68  92 134 166 226 266 324 388
#     4   9  21  46  63  96 127 173 216 279 324 395
#     4  10  22  43  64  97 132 174 221 268 331 401
#     4  11  23  43  62 100 129 174 217 275 324 397
#     4  11  22  40  66  95 124 181 216 267 331 393
#     4   9  21  42  63  92 136 165 218 280 320 391
#
# _framework density 23.417138000000001
#
# number of rings (size 3 to 8) (size 9 to 14) (size 15 to 20)
#    0.000    1.867    0.000    2.400    1.867    8.000 
#   21.600    0.000    0.000    0.000    0.000    0.000 
#    0.000    0.000    0.000    0.000    0.000    0.000 
#
# Total GULP energy -83592.830761 kJ/mol
# GULP energy per Si atom -5572.855384 kJ/mol
# Density = 2.336384 g / cm^3
# Si number density = 23.417138 Si / 1000 Ang^3
#
#
#
# Elastic Constant Matrix: (Units=GPa)
#
#
# Indices 1 2 3 4 5 6 
#
# 1 92.8166 21.3318 37.1602 -9.5873 -24.7237 -4.0765
# 2 21.3318 89.2115 2.2351 -12.3478 -8.6934 -36.2503
# 3 37.1602 2.2351 72.4306 2.5405 -15.5691 -6.9626
# 4 -9.5873 -12.3478 2.5405 31.3561 2.6020 4.0908
# 5 -24.7237 -8.6934 -15.5691 2.6020 35.3507 -0.7390
# 6 -4.0765 -36.2503 -6.9626 4.0908 -0.7390 31.3136
#
#
#
# Elastic Compliance Matrix: (Units=1/GPa)
#
#
# Indices 1 2 3 4 5 6 
#
# 1 0.017018 -0.004904 -0.007784 0.004060 0.006853 -0.005561
# 2 -0.004904 0.025321 0.005661 0.003686 0.005637 0.029585
# 3 -0.007784 0.005661 0.019879 -0.003568 0.005187 0.010549
# 4 0.004060 0.003686 -0.003568 0.034983 -0.000413 -0.000578
# 5 0.006853 0.005637 0.005187 -0.000413 0.036980 0.009498
# 6 -0.005561 0.029585 0.010549 -0.000578 0.009498 0.068105
#
#
# Mechanical properties :
#
#
# Convention : Reuss Voigt Hill
#
# Bulk Modulus (GPa) = 20.76205 41.76809 31.26507
# Shear Modulus (GPa) = 21.51510 32.51954 27.01732
#
# Velocity S-wave (km/s) = 3.03442 3.73058 3.40036
# Velocity P-wave (km/s) = 4.60026 6.03586 5.36628
#
# Compressibility (1/GPa) = 0.04816480
#
# Stress axis : x y z
#
# Youngs Moduli (GPa) = 58.76212 39.49253 50.30431
#
# Poissons Ratio (x) = 0.19368 0.39154
# Poissons Ratio (y) = 0.28819 -0.28478
# Poissons Ratio (z) = 0.45738 -0.22358
#
# Static dielectric constant tensor:
#      x y z
#    x 1.881780 0.075700 0.038640 
#    y 0.075700 2.019240 -0.032400 
#    z 0.038640 -0.032400 1.564580 
# 
# From -- ./inp_files/480249.got.cif
#   From: 2010.05.17/outbox.cif.g08.bks.cpg/sg2_241_cif.got.tgz:480249.got - 2010.06.03 11:33:40.
