data_PCOD9029769
_publ_section_title
;
Structure prediction by ZEFSAII (Michael W. Deem and Ramdas Pophale) SiO2 
 PCOD9029769
Probable space group: P -1
;
_chemical_formula_sum "Si O2"
_cell_formula_units_Z 16
_cell_length_a 7.799066
_cell_length_b 14.512928
_cell_length_c 9.108379
_cell_angle_alpha 43.828978
_cell_angle_beta 73.472185
_cell_angle_gamma 85.138278
_cell_volume 673.080220
_symmetry_space_group_name_H-M "P -1"
_symmetry_group_IT_number 2
_symmetry_cell_setting 'triclinic'
loop_
_space_group_symop_operation_xyz
x,y,z
-x,-y,-z
loop_
_atom_site_type_symbol
_atom_site_label
_atom_site_fract_x
_atom_site_fract_y
_atom_site_fract_z
Si Si1 0.574575 0.366262 0.035425
Si Si2 0.843565 0.288155 0.367942
Si Si3 0.675032 0.647747 0.618646
Si Si4 0.313824 0.895509 0.639773
Si Si5 0.848126 0.955072 0.275227
Si Si6 0.902908 0.625995 0.327348
Si Si7 0.158112 0.863380 0.162950
Si Si8 0.188887 0.398170 0.963905
O O1 0.501705 0.353652 0.235228
O O2 0.664604 0.239757 0.120956
O O3 0.720111 0.504566 0.828778
O O4 0.393153 0.372036 0.978459
O O5 0.732585 0.167027 0.436119
O O6 0.798520 0.234131 0.606753
O O7 0.813672 0.442665 0.200582
O O8 0.043299 0.312553 0.210344
O O9 0.780039 0.795374 0.464002
O O10 0.711987 0.627422 0.460862
O O11 0.500000 0.000000 0.500000
O O12 0.166153 0.976141 0.645811
O O13 0.053655 0.965042 0.162070
O O14 0.732765 0.031178 0.101273
O O15 0.870433 0.632659 0.154674
O O16 0.000000 0.500000 0.500000
O O17 0.031410 0.759600 0.204801
#
# Coordination Sequence:
#
# PCOD9029769 Si02
#       8
#     2   2   2   2   2   2   2   2
#     4  11  24  44  70  97 140 182 226 285 340 401
#     4  11  24  42  72 103 136 178 236 285 332 413
#     4  10  22  42  68  93 139 179 225 280 341 398
#     4  12  26  45  68 102 140 186 227 275 344 414
#     4  10  22  43  67  99 140 184 224 280 346 402
#     4  11  22  39  67 103 138 175 226 281 344 405
#     4  10  22  43  69  99 140 179 228 290 343 394
#     4  11  24  41  71 108 134 176 234 286 340 398
#
# _framework density 23.771312000000002
#
# number of rings (size 3 to 8) (size 9 to 14) (size 15 to 20)
#    0.000    1.250    2.500    3.750    5.250    1.000 
#    6.750    1.875    0.000    0.000    0.000    0.000 
#    0.000    0.000    0.000    0.000    0.000    0.000 
#
# Total GULP energy -89078.384421 kJ/mol
# GULP energy per Si atom -5567.399026 kJ/mol
# Density = 2.371721 g / cm^3
# Si number density = 23.771312 Si / 1000 Ang^3
#
#
#
# Elastic Constant Matrix: (Units=GPa)
#
#
# Indices 1 2 3 4 5 6 
#
# 1 49.0180 43.5185 17.3976 12.2510 12.9826 18.0723
# 2 43.5185 168.5101 41.0787 -3.7811 1.2242 12.6156
# 3 17.3976 41.0787 118.8223 -6.1601 -0.3174 17.7862
# 4 12.2510 -3.7811 -6.1601 50.1934 -0.6214 3.5450
# 5 12.9826 1.2242 -0.3174 -0.6214 23.4742 -0.0676
# 6 18.0723 12.6156 17.7862 3.5450 -0.0676 42.4299
#
#
#
# Elastic Compliance Matrix: (Units=1/GPa)
#
#
# Indices 1 2 3 4 5 6 
#
# 1 0.044457 -0.010108 -0.001496 -0.011080 -0.024415 -0.014416
# 2 -0.010108 0.008831 -0.001739 0.002829 0.005188 0.002180
# 3 -0.001496 -0.001739 0.009787 0.001667 0.001086 -0.003086
# 4 -0.011080 0.002829 0.001667 0.023038 0.006616 0.001265
# 5 -0.024415 0.005188 0.001086 0.006616 0.056045 0.007938
# 6 -0.014416 0.002180 -0.003086 0.001265 0.007938 0.030261
#
#
# Mechanical properties :
#
#
# Convention : Reuss Voigt Hill
#
# Bulk Modulus (GPa) = 27.48155 60.03778 43.75966
# Shear Modulus (GPa) = 23.67029 38.84321 31.25675
#
# Velocity S-wave (km/s) = 3.15897 4.04671 3.63008
# Velocity P-wave (km/s) = 4.98913 6.86627 6.00154
#
# Compressibility (1/GPa) = 0.03638805
#
# Stress axis : x y z
#
# Youngs Moduli (GPa) = 22.49389 113.23303 102.17170
#
# Poissons Ratio (x) = 1.14459 0.15289
# Poissons Ratio (y) = 0.22738 0.17767
# Poissons Ratio (z) = 0.03366 0.19691
#
# Static dielectric constant tensor:
#      x y z
#    x 2.047640 -0.002860 0.022720 
#    y -0.002860 1.862610 0.033730 
#    z 0.022720 0.033730 2.062430 
# 
# From -- ./inp_files/205180.got.cif
#   From: 2010.05.17/outbox.cif.g08.bks.cpg/sg2_103_cif.got.tgz:205180.got - 2010.06.03 11:33:40.
