data_PCOD9029056
_publ_section_title
;
Structure prediction by ZEFSAII (Michael W. Deem and Ramdas Pophale) SiO2 
 PCOD9029056
Probable space group: P -1
;
_chemical_formula_sum "Si O2"
_cell_formula_units_Z 15
_cell_length_a 11.777970
_cell_length_b 9.037023
_cell_length_c 10.197933
_cell_angle_alpha 95.537805
_cell_angle_beta 146.629466
_cell_angle_gamma 81.192771
_cell_volume 589.027856
_symmetry_space_group_name_H-M "P -1"
_symmetry_group_IT_number 2
_symmetry_cell_setting 'triclinic'
loop_
_space_group_symop_operation_xyz
x,y,z
-x,-y,-z
loop_
_atom_site_type_symbol
_atom_site_label
_atom_site_fract_x
_atom_site_fract_y
_atom_site_fract_z
Si Si1 0.512323 0.230724 0.259594
Si Si2 0.435163 0.083775 0.807048
Si Si3 0.063476 0.315151 0.389855
Si Si4 0.222795 0.749664 0.134410
Si Si5 0.500000 0.000000 0.500000
Si Si6 0.351129 0.475206 0.498171
Si Si7 0.175151 0.279091 0.113376
Si Si8 0.351984 0.656854 0.876024
O O1 0.604820 0.353704 0.446349
O O2 0.264916 0.271027 0.050762
O O3 0.606840 0.267783 0.215896
O O4 0.557697 0.049789 0.306631
O O5 0.208624 0.178298 0.587718
O O6 0.582816 0.214148 0.951526
O O7 0.500000 0.000000 0.000000
O O8 0.213271 0.428946 0.484256
O O9 0.878299 0.373865 0.314430
O O10 0.941155 0.257898 0.143338
O O11 0.419059 0.620564 0.286522
O O12 0.324929 0.899202 0.265301
O O13 0.058499 0.746323 0.095470
O O14 0.333643 0.154689 0.330994
O O15 0.220952 0.428656 0.244881
O O16 0.500000 0.500000 0.000000
#
# Coordination Sequence:
#
# PCOD9029056 Si02
#       8
#     2   2   2   2   1   2   2   2
#     4  11  24  43  69 101 148 186 233 309 360 426
#     4  10  25  45  66 105 147 184 246 304 359 428
#     4  11  23  44  78 101 140 197 244 297 364 437
#     4  10  22  42  71 105 140 188 246 297 362 438
#     4  10  22  42  66 104 140 182 236 298 360 442
#     4  10  23  45  68 103 143 186 248 298 357 441
#     4  10  23  40  69 102 141 188 236 295 372 431
#     4  11  25  48  73 103 142 192 250 302 359 436
#
# _framework density 25.465689999999999
#
# number of rings (size 3 to 8) (size 9 to 14) (size 15 to 20)
#    0.000    1.600    0.000    3.200    7.467    4.800 
#    0.000   14.667    0.000    0.000    0.000    0.000 
#    0.000    0.000    0.000    0.000    0.000    0.000 
#
# Total GULP energy -83620.616309 kJ/mol
# GULP energy per Si atom -5574.707754 kJ/mol
# Density = 2.540773 g / cm^3
# Si number density = 25.465690 Si / 1000 Ang^3
#
#
#
# Elastic Constant Matrix: (Units=GPa)
#
#
# Indices 1 2 3 4 5 6 
#
# 1 156.5287 35.9689 50.9366 -1.9769 63.6423 4.1629
# 2 35.9689 193.7091 64.6162 29.2503 30.6394 -0.8549
# 3 50.9366 64.6162 153.4691 1.5903 30.2666 6.6671
# 4 -1.9769 29.2503 1.5903 52.0488 -4.1966 3.2225
# 5 63.6423 30.6394 30.2666 -4.1966 44.2325 7.1865
# 6 4.1629 -0.8549 6.6671 3.2225 7.1865 35.1788
#
#
#
# Elastic Compliance Matrix: (Units=1/GPa)
#
#
# Indices 1 2 3 4 5 6 
#
# 1 0.016271 0.001716 -0.001433 -0.002497 -0.024442 0.003610
# 2 0.001716 0.007448 -0.002415 -0.004734 -0.006791 0.002257
# 3 -0.001433 -0.002415 0.008389 0.000984 -0.001714 -0.001219
# 4 -0.002497 -0.004734 0.000984 0.022716 0.008991 -0.003924
# 5 -0.024442 -0.006791 -0.001714 0.008991 0.066345 -0.011325
# 6 0.003610 0.002257 -0.001219 -0.003924 -0.011325 0.030958
#
#
# Mechanical properties :
#
#
# Convention : Reuss Voigt Hill
#
# Bulk Modulus (GPa) = 35.91516 89.63892 62.77704
# Shear Modulus (GPa) = 30.17964 49.77105 39.97534
#
# Velocity S-wave (km/s) = 3.44628 4.42570 3.96633
# Velocity P-wave (km/s) = 5.47446 7.83530 6.75876
#
# Compressibility (1/GPa) = 0.02784339
#
# Stress axis : x y z
#
# Youngs Moduli (GPa) = 61.45904 134.25596 119.19902
#
# Poissons Ratio (x) = -0.23036 0.17086
# Poissons Ratio (y) = -0.10545 0.28788
# Poissons Ratio (z) = 0.08809 0.32425
#
# Static dielectric constant tensor:
#      x y z
#    x 2.001760 -0.103020 -0.011940 
#    y -0.103020 2.040300 -0.049040 
#    z -0.011940 -0.049040 2.039520 
# 
# From -- ./inp_files/419572.got.cif
#   From: 2010.05.17/outbox.cif.g08.bks.cpg/sg2_210_cif.got.tgz:419572.got - 2010.06.03 11:33:40.
