data_PCOD9029517
_publ_section_title
;
Structure prediction by ZEFSAII (Michael W. Deem and Ramdas Pophale) SiO2 
 PCOD9029517
Probable space group: P -1
;
_chemical_formula_sum "Si O2"
_cell_formula_units_Z 15
_cell_length_a 15.938127
_cell_length_b 10.300782
_cell_length_c 10.994246
_cell_angle_alpha 80.353018
_cell_angle_beta 122.327382
_cell_angle_gamma 147.560999
_cell_volume 638.004761
_symmetry_space_group_name_H-M "P -1"
_symmetry_group_IT_number 2
_symmetry_cell_setting 'triclinic'
loop_
_space_group_symop_operation_xyz
x,y,z
-x,-y,-z
loop_
_atom_site_type_symbol
_atom_site_label
_atom_site_fract_x
_atom_site_fract_y
_atom_site_fract_z
Si Si1 0.756784 0.331934 0.843995
Si Si2 0.500000 0.500000 0.000000
Si Si3 0.050829 0.569891 0.234929
Si Si4 0.153355 0.014722 0.021769
Si Si5 0.037477 0.687376 0.562442
Si Si6 0.917042 0.809843 0.352901
Si Si7 0.385859 0.119855 0.579386
Si Si8 0.224662 0.214951 0.297946
O O1 0.749948 0.223805 0.743137
O O2 0.545682 0.180504 0.705428
O O3 0.821490 0.344583 0.021025
O O4 0.995592 0.696268 0.938971
O O5 0.361288 0.275825 0.047729
O O6 0.701084 0.624275 0.153186
O O7 0.990744 0.375024 0.307500
O O8 0.164830 0.815307 0.373020
O O9 0.228476 0.119949 0.202940
O O10 0.972111 0.914010 0.870842
O O11 0.000000 0.500000 0.500000
O O12 0.874919 0.611376 0.402519
O O13 0.294470 0.039567 0.658444
O O14 0.000000 0.000000 0.500000
O O15 0.126493 0.052498 0.377767
O O16 0.538250 0.415384 0.587731
#
# Coordination Sequence:
#
# PCOD9029517 Si02
#       8
#     2   1   2   2   2   2   2   2
#     4  10  22  42  67  96 135 183 229 287 338 415
#     4  10  24  46  68 104 136 182 232 286 360 406
#     4  10  23  43  65  96 139 180 236 283 337 418
#     4   9  20  39  66 102 133 175 231 287 342 418
#     4  10  25  46  67 103 143 181 231 290 347 422
#     4  11  26  46  71 103 140 183 234 295 348 419
#     4  10  22  42  68  97 133 181 228 284 353 410
#     4   9  21  40  68  98 138 175 229 288 348 415
#
# _framework density 23.510797
#
# number of rings (size 3 to 8) (size 9 to 14) (size 15 to 20)
#    0.000    2.133    0.000    0.400   11.200    2.133 
#    9.600    0.000    0.000    0.000    0.000    0.000 
#    0.000    0.000    0.000    0.000    0.000    0.000 
#
# Total GULP energy -83534.073145 kJ/mol
# GULP energy per Si atom -5568.938210 kJ/mol
# Density = 2.345729 g / cm^3
# Si number density = 23.510797 Si / 1000 Ang^3
#
#
#
# Elastic Constant Matrix: (Units=GPa)
#
#
# Indices 1 2 3 4 5 6 
#
# 1 64.0256 31.8344 33.2855 -0.7160 11.2748 8.1265
# 2 31.8344 132.1786 45.1812 -33.6036 -2.3243 26.5710
# 3 33.2855 45.1812 96.3699 -37.7911 10.6420 4.3277
# 4 -0.7160 -33.6036 -37.7911 43.9709 -6.6291 10.2606
# 5 11.2748 -2.3243 10.6420 -6.6291 41.0655 -4.3169
# 6 8.1265 26.5710 4.3277 10.2606 -4.3169 44.9392
#
#
#
# Elastic Compliance Matrix: (Units=1/GPa)
#
#
# Indices 1 2 3 4 5 6 
#
# 1 0.026016 -0.007741 -0.011686 -0.017596 -0.006936 0.004349
# 2 -0.007741 0.015240 0.002070 0.016507 0.003939 -0.011201
# 3 -0.011686 0.002070 0.022356 0.022137 0.000446 -0.006275
# 4 -0.017596 0.016507 0.022137 0.060302 0.007476 -0.021760
# 5 -0.006936 0.003939 0.000446 0.007476 0.027551 -0.000178
# 6 0.004349 -0.011201 -0.006275 -0.021760 -0.000178 0.033644
#
#
# Mechanical properties :
#
#
# Convention : Reuss Voigt Hill
#
# Bulk Modulus (GPa) = 34.60518 57.01959 45.81239
# Shear Modulus (GPa) = 21.79078 38.14666 29.96872
#
# Velocity S-wave (km/s) = 3.04771 4.03242 3.57414
# Velocity P-wave (km/s) = 5.20918 6.78127 6.04654
#
# Compressibility (1/GPa) = 0.02889740
#
# Stress axis : x y z
#
# Youngs Moduli (GPa) = 38.43853 65.61768 44.73049
#
# Poissons Ratio (x) = 0.50794 0.52273
# Poissons Ratio (y) = 0.29755 -0.09260
# Poissons Ratio (z) = 0.44920 -0.13583
#
# Static dielectric constant tensor:
#      x y z
#    x 1.892090 -0.062400 -0.008960 
#    y -0.062400 1.977440 -0.002570 
#    z -0.008960 -0.002570 1.949070 
# 
# From -- ./inp_files/464539.got.cif
#   From: 2010.05.17/outbox.cif.g08.bks.cpg/sg2_233_cif.got.tgz:464539.got - 2010.06.03 11:33:40.
