data_PCOD9029566
_publ_section_title
;
Structure prediction by ZEFSAII (Michael W. Deem and Ramdas Pophale) SiO2 
 PCOD9029566
Probable space group: P -1
;
_chemical_formula_sum "Si O2"
_cell_formula_units_Z 16
_cell_length_a 8.301912
_cell_length_b 11.409178
_cell_length_c 13.945991
_cell_angle_alpha 112.527736
_cell_angle_beta 63.517122
_cell_angle_gamma 62.862549
_cell_volume 711.894431
_symmetry_space_group_name_H-M "P -1"
_symmetry_group_IT_number 2
_symmetry_cell_setting 'triclinic'
loop_
_space_group_symop_operation_xyz
x,y,z
-x,-y,-z
loop_
_atom_site_type_symbol
_atom_site_label
_atom_site_fract_x
_atom_site_fract_y
_atom_site_fract_z
Si Si1 0.759547 0.167100 0.859954
Si Si2 0.859219 0.979595 0.107779
Si Si3 0.946127 0.337940 0.167960
Si Si4 0.143240 0.747499 0.639474
Si Si5 0.618416 0.252494 0.589949
Si Si6 0.022818 0.157302 0.603350
Si Si7 0.292037 0.412001 0.384237
Si Si8 0.205027 0.459687 0.203820
O O1 0.947361 0.121529 0.882029
O O2 0.846999 0.187935 0.745681
O O3 0.843386 0.972411 0.773252
O O4 0.442474 0.354677 0.029810
O O5 0.552564 0.190985 0.279460
O O6 0.861721 0.842846 0.011469
O O7 0.000000 0.000000 0.000000
O O8 0.681291 0.532982 0.242828
O O9 0.849503 0.293134 0.263748
O O10 0.086071 0.383341 0.195912
O O11 0.333579 0.750945 0.537496
O O12 0.238763 0.570519 0.504003
O O13 0.853241 0.208019 0.569209
O O14 0.687228 0.071670 0.543281
O O15 0.022341 0.307640 0.664936
O O16 0.340548 0.401434 0.254344
O O17 0.000000 0.500000 0.500000
#
# Coordination Sequence:
#
# PCOD9029566 Si02
#       8
#     2   2   2   2   2   2   2   2
#     4  11  25  43  71  92 128 177 228 263 318 400
#     4  12  24  44  67  98 134 175 219 269 323 404
#     4  12  25  39  68  98 135 166 213 276 339 381
#     4  11  22  38  69  97 126 167 210 271 329 395
#     4  10  22  42  67  98 125 169 225 270 316 398
#     4  10  23  43  68  90 126 178 230 263 317 390
#     4  12  25  38  65 102 140 164 209 277 340 387
#     4  12  24  43  63  97 136 174 211 278 327 392
#
# _framework density 22.475242000000001
#
# number of rings (size 3 to 8) (size 9 to 14) (size 15 to 20)
#    0.000    0.750    5.000    2.250    5.250    1.500 
#    0.000    2.500    0.000    0.000    0.000    0.000 
#    0.000    0.000    0.000    0.000    0.000    0.000 
#
# Total GULP energy -89418.113153 kJ/mol
# GULP energy per Si atom -5588.632072 kJ/mol
# Density = 2.242409 g / cm^3
# Si number density = 22.475242 Si / 1000 Ang^3
#
#
#
# Elastic Constant Matrix: (Units=GPa)
#
#
# Indices 1 2 3 4 5 6 
#
# 1 81.7490 26.5900 40.9331 18.1054 34.1763 3.9228
# 2 26.5900 86.6965 28.8077 16.2838 16.2615 -6.1362
# 3 40.9331 28.8077 91.1522 22.2019 29.8274 3.6258
# 4 18.1054 16.2838 22.2019 48.6916 6.9717 14.6435
# 5 34.1763 16.2615 29.8274 6.9717 41.9911 5.4565
# 6 3.9228 -6.1362 3.6258 14.6435 5.4565 25.7156
#
#
#
# Elastic Compliance Matrix: (Units=1/GPa)
#
#
# Indices 1 2 3 4 5 6 
#
# 1 0.021093 -0.001786 -0.003494 -0.004379 -0.013556 0.002219
# 2 -0.001786 0.014839 -0.001892 -0.005332 -0.003073 0.007768
# 3 -0.003494 -0.001892 0.016930 -0.005393 -0.007870 0.002435
# 4 -0.004379 -0.005332 -0.005393 0.031161 0.006758 -0.019022
# 5 -0.013556 -0.003073 -0.007870 0.006758 0.041842 -0.010282
# 6 0.002219 0.007768 0.002435 -0.019022 -0.010282 0.053073
#
#
# Mechanical properties :
#
#
# Convention : Reuss Voigt Hill
#
# Bulk Modulus (GPa) = 25.96239 50.25103 38.10671
# Shear Modulus (GPa) = 24.25760 34.16413 29.21086
#
# Velocity S-wave (km/s) = 3.28884 3.90305 3.60903
# Velocity P-wave (km/s) = 5.09888 6.53595 5.86162
#
# Compressibility (1/GPa) = 0.03851726
#
# Stress axis : x y z
#
# Youngs Moduli (GPa) = 47.40808 67.39136 59.06790
#
# Poissons Ratio (x) = 0.12039 0.20636
# Poissons Ratio (y) = 0.08469 0.11178
# Poissons Ratio (z) = 0.16562 0.12753
#
# Static dielectric constant tensor:
#      x y z
#    x 1.844710 0.003870 0.025900 
#    y 0.003870 1.850280 0.025460 
#    z 0.025900 0.025460 1.863940 
# 
# From -- ./inp_files/500538.got.cif
#   From: 2010.05.17/outbox.cif.g08.bks.cpg/sg2_251_cif.got.tgz:500538.got - 2010.06.03 11:33:40.
