data_PCOD9029822
_publ_section_title
;
Structure prediction by ZEFSAII (Michael W. Deem and Ramdas Pophale) SiO2 
 PCOD9029822
Probable space group: P -1
;
_chemical_formula_sum "Si O2"
_cell_formula_units_Z 15
_cell_length_a 10.298077
_cell_length_b 17.585689
_cell_length_c 8.602111
_cell_angle_alpha 53.313538
_cell_angle_beta 139.502578
_cell_angle_gamma 142.281093
_cell_volume 618.899555
_symmetry_space_group_name_H-M "P -1"
_symmetry_group_IT_number 2
_symmetry_cell_setting 'triclinic'
loop_
_space_group_symop_operation_xyz
x,y,z
-x,-y,-z
loop_
_atom_site_type_symbol
_atom_site_label
_atom_site_fract_x
_atom_site_fract_y
_atom_site_fract_z
Si Si1 0.500000 0.500000 0.500000
Si Si2 0.544228 0.921708 0.740798
Si Si3 0.125556 0.138964 0.493661
Si Si4 0.048913 0.245725 0.572498
Si Si5 0.602758 0.740526 0.902788
Si Si6 0.141418 0.505596 0.964624
Si Si7 0.362811 0.714507 0.393602
Si Si8 0.273448 0.903792 0.033771
O O1 0.255498 0.381044 0.523408
O O2 0.701600 0.537711 0.781438
O O3 0.669589 0.870655 0.835136
O O4 0.242442 0.804658 0.648484
O O5 0.500000 0.000000 0.500000
O O6 0.707458 0.007831 0.930205
O O7 0.063861 0.155358 0.589827
O O8 0.435175 0.234664 0.628316
O O9 0.000000 0.000000 0.500000
O O10 0.990933 0.171295 0.213086
O O11 0.151412 0.248291 0.834197
O O12 0.364517 0.638496 0.926002
O O13 0.493836 0.704957 0.672769
O O14 0.912286 0.414529 0.745668
O O15 0.000000 0.500000 0.000000
O O16 0.327484 0.816712 0.259188
O O17 0.500000 0.000000 0.000000
#
# Coordination Sequence:
#
# PCOD9029822 Si02
#       8
#     1   2   2   2   2   2   2   2
#     4  10  22  42  68  96 120 162 220 272 318 380
#     4  12  25  43  64  97 137 176 215 270 337 394
#     4  12  24  40  65  96 128 170 223 270 319 383
#     4  11  24  43  67  96 129 172 223 272 326 392
#     4  11  26  43  66  97 135 174 214 271 332 396
#     4  11  24  44  71  96 127 172 221 272 326 390
#     4  12  25  43  65  98 135 172 215 271 331 391
#     4  12  24  42  66  96 132 175 222 274 319 388
#
# _framework density 24.236564999999999
#
# number of rings (size 3 to 8) (size 9 to 14) (size 15 to 20)
#    0.000    0.533    4.000    4.400    3.733    0.533 
#    0.000    0.000    0.000    8.000    0.000    0.000 
#    0.000    0.000    0.000    0.000    0.000    0.000 
#
# Total GULP energy -83741.955848 kJ/mol
# GULP energy per Si atom -5582.797057 kJ/mol
# Density = 2.418140 g / cm^3
# Si number density = 24.236565 Si / 1000 Ang^3
#
#
#
# Elastic Constant Matrix: (Units=GPa)
#
#
# Indices 1 2 3 4 5 6 
#
# 1 36.8637 2.2688 5.9722 8.7452 -1.9920 4.9751
# 2 2.2688 69.1670 19.6831 9.5232 5.4568 17.6887
# 3 5.9722 19.6831 129.6175 5.6142 -16.4160 -15.7131
# 4 8.7452 9.5232 5.6142 43.3888 2.9099 -3.4736
# 5 -1.9920 5.4568 -16.4160 2.9099 35.3685 7.7474
# 6 4.9751 17.6887 -15.7131 -3.4736 7.7474 25.4215
#
#
#
# Elastic Compliance Matrix: (Units=1/GPa)
#
#
# Indices 1 2 3 4 5 6 
#
# 1 0.031103 0.003816 -0.002773 -0.007972 0.003280 -0.012545
# 2 0.003816 0.022175 -0.005853 -0.006449 -0.000925 -0.020393
# 3 -0.002773 -0.005853 0.010324 0.001106 0.003221 0.010166
# 4 -0.007972 -0.006449 0.001106 0.027101 -0.003703 0.011563
# 5 0.003280 -0.000925 0.003221 -0.003703 0.032227 -0.008335
# 6 -0.012545 -0.020393 0.010166 0.011563 -0.008335 0.066386
#
#
# Mechanical properties :
#
#
# Convention : Reuss Voigt Hill
#
# Bulk Modulus (GPa) = 18.52493 32.38852 25.45673
# Shear Modulus (GPa) = 23.04911 34.68403 28.86657
#
# Velocity S-wave (km/s) = 3.08718 3.78704 3.45488
# Velocity P-wave (km/s) = 4.51305 5.70217 5.14210
#
# Compressibility (1/GPa) = 0.05398130
#
# Stress axis : x y z
#
# Youngs Moduli (GPa) = 32.15156 45.09659 96.86123
#
# Poissons Ratio (x) = -0.17208 0.26856
# Poissons Ratio (y) = -0.12268 0.56695
# Poissons Ratio (z) = 0.08914 0.26396
#
# Static dielectric constant tensor:
#      x y z
#    x 1.991160 -0.001630 0.021340 
#    y -0.001630 1.939020 -0.018190 
#    z 0.021340 -0.018190 1.941820 
# 
# From -- ./inp_files/236843.got.cif
#   From: 2010.05.17/outbox.cif.g08.bks.cpg/sg2_119_cif.got.tgz:236843.got - 2010.06.03 11:33:40.
