data_PCOD9029274
_publ_section_title
;
Structure prediction by ZEFSAII (Michael W. Deem and Ramdas Pophale) SiO2 
 PCOD9029274
Probable space group: P -1
;
_chemical_formula_sum "Si O2"
_cell_formula_units_Z 15
_cell_length_a 15.193047
_cell_length_b 6.874072
_cell_length_c 15.779487
_cell_angle_alpha 112.688490
_cell_angle_beta 27.278574
_cell_angle_gamma 110.792859
_cell_volume 696.560702
_symmetry_space_group_name_H-M "P -1"
_symmetry_group_IT_number 2
_symmetry_cell_setting 'triclinic'
loop_
_space_group_symop_operation_xyz
x,y,z
-x,-y,-z
loop_
_atom_site_type_symbol
_atom_site_label
_atom_site_fract_x
_atom_site_fract_y
_atom_site_fract_z
Si Si1 0.000000 0.000000 0.000000
Si Si2 0.709701 0.750579 0.484122
Si Si3 0.973766 0.598661 0.827073
Si Si4 0.650557 0.384039 0.737856
Si Si5 0.435707 0.512776 0.779898
Si Si6 0.016803 0.842464 0.655579
Si Si7 0.635194 0.803637 0.366462
Si Si8 0.392133 0.164021 0.061905
O O1 0.004865 0.214162 0.091683
O O2 0.851198 0.882089 0.174576
O O3 0.850627 0.557015 0.343903
O O4 0.545428 0.726252 0.692177
O O5 0.618747 0.736983 0.466445
O O6 0.836845 0.963873 0.417072
O O7 0.967310 0.705723 0.758500
O O8 0.775119 0.472201 0.997534
O O9 0.561298 0.392916 0.721579
O O10 0.865058 0.303082 0.533666
O O11 0.639604 0.618779 0.823523
O O12 0.521731 0.232229 0.882116
O O13 0.419042 0.374552 0.685479
O O14 0.817754 0.918472 0.800866
O O15 0.500000 0.000000 0.500000
O O16 0.500000 0.000000 0.000000
#
# Coordination Sequence:
#
# PCOD9029274 Si02
#       8
#     1   2   2   2   2   2   2   2
#     4  10  22  42  66  98 140 188 230 290 336 402
#     4  12  26  42  72 108 140 185 243 284 344 425
#     4  11  24  45  69  99 144 186 239 285 351 406
#     4  11  25  48  74 102 142 182 233 295 351 424
#     4  11  24  43  70 100 141 188 229 287 346 410
#     4  12  25  47  75 102 143 184 231 298 351 420
#     4  11  23  42  67 101 144 185 234 286 345 405
#     4  11  28  48  75 107 137 179 236 290 365 431
#
# _framework density 21.534374
#
# number of rings (size 3 to 8) (size 9 to 14) (size 15 to 20)
#    0.000    0.800    4.000    2.400    3.733    3.733 
#    0.000    0.000    0.000    0.000    0.000    0.000 
#    0.000    0.000    0.000    0.000    0.000    0.000 
#
# Total GULP energy -83687.904119 kJ/mol
# GULP energy per Si atom -5579.193608 kJ/mol
# Density = 2.148536 g / cm^3
# Si number density = 21.534374 Si / 1000 Ang^3
#
#
#
# Elastic Constant Matrix: (Units=GPa)
#
#
# Indices 1 2 3 4 5 6 
#
# 1 106.6247 49.0798 36.2504 -13.2020 4.2428 -21.3432
# 2 49.0798 78.3703 53.3939 -20.3180 8.7229 -7.2226
# 3 36.2504 53.3939 129.5823 -23.8525 13.5509 -7.1061
# 4 -13.2020 -20.3180 -23.8525 41.8282 -4.5855 1.8935
# 5 4.2428 8.7229 13.5509 -4.5855 21.7078 -3.1361
# 6 -21.3432 -7.2226 -7.1061 1.8935 -3.1361 32.1337
#
#
#
# Elastic Compliance Matrix: (Units=1/GPa)
#
#
# Indices 1 2 3 4 5 6 
#
# 1 0.015032 -0.008555 -0.000401 0.000207 0.001972 0.008153
# 2 -0.008555 0.023866 -0.006298 0.005049 -0.003256 -0.002326
# 3 -0.000401 -0.006298 0.011369 0.002863 -0.003841 0.000289
# 4 0.000207 0.005049 0.002863 0.028277 0.002182 0.000452
# 5 0.001972 -0.003256 -0.003841 0.002182 0.050502 0.004529
# 6 0.008153 -0.002326 0.000289 0.000452 0.004529 0.036492
#
#
# Mechanical properties :
#
#
# Convention : Reuss Voigt Hill
#
# Bulk Modulus (GPa) = 50.61179 65.78060 58.19619
# Shear Modulus (GPa) = 24.67527 30.85746 27.76637
#
# Velocity S-wave (km/s) = 3.38872 3.78953 3.59471
# Velocity P-wave (km/s) = 6.23418 7.05411 6.65678
#
# Compressibility (1/GPa) = 0.01975824
#
# Stress axis : x y z
#
# Youngs Moduli (GPa) = 66.52396 41.90131 87.95874
#
# Poissons Ratio (x) = 0.35847 0.03528
# Poissons Ratio (y) = 0.56912 0.55398
# Poissons Ratio (z) = 0.02668 0.26390
#
# Static dielectric constant tensor:
#      x y z
#    x 1.773600 0.026890 -0.008620 
#    y 0.026890 1.765630 -0.017270 
#    z -0.008620 -0.017270 1.789180 
# 
# From -- ./inp_files/484174.got.cif
#   From: 2010.05.17/outbox.cif.g08.bks.cpg/sg2_243_cif.got.tgz:484174.got - 2010.06.03 11:33:40.
