data_PCOD9029434
_publ_section_title
;
Structure prediction by ZEFSAII (Michael W. Deem and Ramdas Pophale) SiO2 
 PCOD9029434
Probable space group: P -1
;
_chemical_formula_sum "Si O2"
_cell_formula_units_Z 12
_cell_length_a 7.844480
_cell_length_b 7.318028
_cell_length_c 11.733500
_cell_angle_alpha 50.657024
_cell_angle_beta 107.537568
_cell_angle_gamma 80.418216
_cell_volume 434.436864
_symmetry_space_group_name_H-M "P -1"
_symmetry_group_IT_number 2
_symmetry_cell_setting 'triclinic'
loop_
_space_group_symop_operation_xyz
x,y,z
-x,-y,-z
loop_
_atom_site_type_symbol
_atom_site_label
_atom_site_fract_x
_atom_site_fract_y
_atom_site_fract_z
Si Si1 0.599931 0.859094 0.310887
Si Si2 0.576280 0.373303 0.210234
Si Si3 0.734775 0.792526 0.045774
Si Si4 0.839412 0.440740 0.848937
Si Si5 0.733811 0.048116 0.602788
Si Si6 0.068090 0.707297 0.316866
O O1 0.447778 0.861119 0.378584
O O2 0.805342 0.580455 0.481349
O O3 0.628491 0.117596 0.242013
O O4 0.462610 0.934227 0.139511
O O5 0.678620 0.553372 0.128321
O O6 0.329224 0.544263 0.104595
O O7 0.655063 0.241647 0.401949
O O8 0.917015 0.720876 0.017763
O O9 0.847659 0.786395 0.188983
O O10 0.816757 0.325295 0.768510
O O11 0.793774 0.746457 0.698561
O O12 0.915014 0.080043 0.683285
#
# Coordination Sequence:
#
# PCOD9029434 Si02
#       6
#     2   2   2   2   2   2
#     4  11  21  41  67  97 131 173 216 271 326 383
#     4  11  20  40  68  98 127 172 223 262 326 394
#     4  10  24  42  65  98 136 166 217 275 323 385
#     4   9  21  43  65  95 129 171 215 267 323 384
#     4  11  20  38  72  94 126 177 219 260 330 391
#     4  10  22  42  67  94 133 173 212 273 324 383
#
# _framework density 27.621963999999998
#
# number of rings (size 3 to 8) (size 9 to 14) (size 15 to 20)
#    1.000    0.667    3.333    2.000    0.000    6.667 
#    0.000    4.167    0.000    0.000    0.000    0.000 
#    0.000    0.000    0.000    0.000    0.000    0.000 
#
# Total GULP energy -67325.174031 kJ/mol
# GULP energy per Si atom -5610.431169 kJ/mol
# Density = 2.755910 g / cm^3
# Si number density = 27.621964 Si / 1000 Ang^3
#
#
#
# Elastic Constant Matrix: (Units=GPa)
#
#
# Indices 1 2 3 4 5 6 
#
# 1 162.8652 60.6601 72.0962 -8.7386 31.8038 25.5210
# 2 60.6601 118.3757 51.5568 7.6967 -10.1081 44.6926
# 3 72.0962 51.5568 193.2121 16.7868 9.3275 19.8001
# 4 -8.7386 7.6967 16.7868 45.6299 1.5281 3.0174
# 5 31.8038 -10.1081 9.3275 1.5281 38.0277 -2.2553
# 6 25.5210 44.6926 19.8001 3.0174 -2.2553 46.9846
#
#
#
# Elastic Compliance Matrix: (Units=1/GPa)
#
#
# Indices 1 2 3 4 5 6 
#
# 1 0.012202 -0.006179 -0.002724 0.004793 -0.011399 -0.000458
# 2 -0.006179 0.017968 -0.001400 -0.003198 0.009675 -0.012475
# 3 -0.002724 -0.001400 0.006775 -0.002800 0.000365 0.000153
# 4 0.004793 -0.003198 -0.002800 0.024590 -0.005172 -0.000209
# 5 -0.011399 0.009675 0.000365 -0.005172 0.038461 -0.000987
# 6 -0.000458 -0.012475 0.000153 -0.000209 -0.000987 0.033301
#
#
# Mechanical properties :
#
#
# Convention : Reuss Voigt Hill
#
# Bulk Modulus (GPa) = 61.19548 93.67545 77.43547
# Shear Modulus (GPa) = 31.37797 45.47110 38.42454
#
# Velocity S-wave (km/s) = 3.37409 4.06173 3.73377
# Velocity P-wave (km/s) = 6.11408 7.48224 6.83249
#
# Compressibility (1/GPa) = 0.01634108
#
# Stress axis : x y z
#
# Youngs Moduli (GPa) = 81.95554 55.65561 147.59176
#
# Poissons Ratio (x) = 0.34387 0.40197
# Poissons Ratio (y) = 0.50637 0.20659
# Poissons Ratio (z) = 0.22321 0.07790
#
# Static dielectric constant tensor:
#      x y z
#    x 2.165200 -0.044640 -0.012970 
#    y -0.044640 2.099920 0.047300 
#    z -0.012970 0.047300 2.109090 
# 
# From -- ./inp_files/146269.got.cif
#   From: 2010.05.17/outbox.cif.g08.bks.cpg/sg2_74_cif.got.tgz:146269.got - 2010.06.03 11:33:40.
