data_PCOD9029912
_publ_section_title
;
Structure prediction by ZEFSAII (Michael W. Deem and Ramdas Pophale) SiO2 
 PCOD9029912
Probable space group: P -1
;
_chemical_formula_sum "Si O2"
_cell_formula_units_Z 16
_cell_length_a 5.260236
_cell_length_b 11.857793
_cell_length_c 15.124526
_cell_angle_alpha 92.916508
_cell_angle_beta 69.091182
_cell_angle_gamma 53.032631
_cell_volume 658.059149
_symmetry_space_group_name_H-M "P -1"
_symmetry_group_IT_number 2
_symmetry_cell_setting 'triclinic'
loop_
_space_group_symop_operation_xyz
x,y,z
-x,-y,-z
loop_
_atom_site_type_symbol
_atom_site_label
_atom_site_fract_x
_atom_site_fract_y
_atom_site_fract_z
Si Si1 0.324987 0.945727 0.660175
Si Si2 0.299385 0.925369 0.383540
Si Si3 0.049629 0.869854 0.138050
Si Si4 0.818992 0.625989 0.602431
Si Si5 0.812333 0.368997 0.271212
Si Si6 0.373088 0.164585 0.043574
Si Si7 0.071919 0.631602 0.056015
Si Si8 0.559601 0.653812 0.230802
O O1 0.682845 0.780402 0.582854
O O2 0.417214 0.051871 0.632516
O O3 0.975610 0.983438 0.661310
O O4 0.245737 0.967939 0.775788
O O5 0.495880 0.754472 0.325704
O O6 0.000000 0.000000 0.500000
O O7 0.897839 0.791000 0.128284
O O8 0.306117 0.764810 0.185323
O O9 0.270281 0.860158 0.028515
O O10 0.448676 0.664019 0.677549
O O11 0.000000 0.500000 0.500000
O O12 0.057568 0.598249 0.656092
O O13 0.552246 0.527822 0.256358
O O14 0.165601 0.234057 0.165031
O O15 0.079104 0.304076 0.019611
O O16 0.500000 0.000000 0.000000
O O17 0.943209 0.567076 0.132177
O O18 0.500000 0.500000 0.000000
#
# Coordination Sequence:
#
# PCOD9029912 Si02
#       8
#     2   2   2   2   2   2   2   2
#     4  11  24  46  69  99 141 182 239 281 375 421
#     4  11  24  41  73 103 131 180 236 311 345 426
#     4  10  22  42  68  98 144 184 223 294 351 428
#     4  12  30  49  73  99 143 196 235 303 366 422
#     4  12  28  47  74 106 143 185 249 294 348 450
#     4  11  26  43  69 107 144 195 239 292 358 438
#     4  11  22  40  69  98 146 181 232 286 365 419
#     4  10  24  42  67 104 141 183 236 289 369 414
#
# _framework density 24.313925000000001
#
# number of rings (size 3 to 8) (size 9 to 14) (size 15 to 20)
#    0.000    1.000    1.250    3.750   10.500    2.500 
#    0.000    0.000    0.000    0.000    0.000    0.000 
#    0.000    0.000    0.000    0.000    0.000    0.000 
#
# Total GULP energy -89319.325596 kJ/mol
# GULP energy per Si atom -5582.457850 kJ/mol
# Density = 2.425859 g / cm^3
# Si number density = 24.313925 Si / 1000 Ang^3
#
#
#
# Elastic Constant Matrix: (Units=GPa)
#
#
# Indices 1 2 3 4 5 6 
#
# 1 79.4923 -1.4527 23.5745 -2.9321 0.2470 11.2603
# 2 -1.4527 88.8443 17.4634 23.6295 5.5915 16.1529
# 3 23.5745 17.4634 110.9571 22.8088 5.0614 4.1224
# 4 -2.9321 23.6295 22.8088 34.1184 10.4196 2.0671
# 5 0.2470 5.5915 5.0614 10.4196 37.8799 4.7090
# 6 11.2603 16.1529 4.1224 2.0671 4.7090 38.6437
#
#
#
# Elastic Compliance Matrix: (Units=1/GPa)
#
#
# Indices 1 2 3 4 5 6 
#
# 1 0.014449 0.000848 -0.003748 0.003463 -0.000132 -0.004334
# 2 0.000848 0.015075 -0.000285 -0.010227 0.001384 -0.006140
# 3 -0.003748 -0.000285 0.011458 -0.008018 0.000700 0.000333
# 4 0.003463 -0.010227 -0.008018 0.044981 -0.010182 0.002956
# 5 -0.000132 0.001384 0.000700 -0.010182 0.029356 -0.003647
# 6 -0.004334 -0.006140 0.000333 0.002956 -0.003647 0.029957
#
#
# Mechanical properties :
#
#
# Convention : Reuss Voigt Hill
#
# Bulk Modulus (GPa) = 28.89275 39.82935 34.36105
# Shear Modulus (GPa) = 30.64017 38.10896 34.37457
#
# Velocity S-wave (km/s) = 3.55377 3.96330 3.76411
# Velocity P-wave (km/s) = 5.36172 6.11232 5.74928
#
# Compressibility (1/GPa) = 0.03461076
#
# Stress axis : x y z
#
# Youngs Moduli (GPa) = 69.20885 66.33545 87.27748
#
# Poissons Ratio (x) = -0.05627 0.32714
# Poissons Ratio (y) = -0.05871 0.02492
# Poissons Ratio (z) = 0.25941 0.01894
#
# Static dielectric constant tensor:
#      x y z
#    x 2.000580 -0.042550 0.048970 
#    y -0.042550 2.018970 0.021410 
#    z 0.048970 0.021410 1.996610 
# 
# From -- ./inp_files/482836.got.cif
#   From: 2010.05.17/outbox.cif.g08.bks.cpg/sg2_242_cif.got.tgz:482836.got - 2010.06.03 11:33:40.
