data_PCOD9029119
_publ_section_title
;
Structure prediction by ZEFSAII (Michael W. Deem and Ramdas Pophale) SiO2 
 PCOD9029119
Probable space group: P -1
;
_chemical_formula_sum "Si O2"
_cell_formula_units_Z 16
_cell_length_a 11.531479
_cell_length_b 17.542860
_cell_length_c 22.644059
_cell_angle_alpha 21.791259
_cell_angle_beta 152.996846
_cell_angle_gamma 137.971420
_cell_volume 668.052888
_symmetry_space_group_name_H-M "P -1"
_symmetry_group_IT_number 2
_symmetry_cell_setting 'triclinic'
loop_
_space_group_symop_operation_xyz
x,y,z
-x,-y,-z
loop_
_atom_site_type_symbol
_atom_site_label
_atom_site_fract_x
_atom_site_fract_y
_atom_site_fract_z
Si Si1 0.778840 0.437069 0.410891
Si Si2 0.893723 0.718810 0.839875
Si Si3 0.465894 0.475239 0.351948
Si Si4 0.793887 0.060791 0.227931
Si Si5 0.337240 0.423519 0.067134
Si Si6 0.256869 0.144297 0.526289
Si Si7 0.818972 0.683311 0.426919
Si Si8 0.717154 0.647789 0.038116
O O1 0.666166 0.336481 0.484924
O O2 0.000000 0.500000 0.500000
O O3 0.961121 0.308441 0.528290
O O4 0.483682 0.673404 0.085635
O O5 0.147690 0.649181 0.054439
O O6 0.624181 0.737989 0.742381
O O7 0.914159 0.926172 0.665717
O O8 0.000000 0.500000 0.000000
O O9 0.427448 0.290614 0.507121
O O10 0.590635 0.626138 0.331499
O O11 0.829166 0.927475 0.400422
O O12 0.705557 0.923512 0.238936
O O13 0.590658 0.475591 0.124218
O O14 0.052669 0.678016 0.773062
O O15 0.239641 0.357467 0.008663
O O16 0.474940 0.909998 0.758571
O O17 0.992883 0.463844 0.709440
#
# Coordination Sequence:
#
# PCOD9029119 Si02
#       8
#     2   2   2   2   2   2   2   2
#     4   9  20  40  60  88 125 162 205 256 304 373
#     4  10  22  42  66  93 126 164 211 263 311 376
#     4   9  23  40  62  95 126 163 215 256 313 377
#     4  11  22  39  68  93 122 174 206 249 331 366
#     4  10  23  42  62  95 125 164 217 260 314 370
#     4  11  21  41  64  92 123 172 208 260 319 362
#     4  11  22  41  64  94 131 164 209 261 311 378
#     4  11  22  39  66  91 131 164 210 264 308 380
#
# _framework density 23.950199000000001
#
# number of rings (size 3 to 8) (size 9 to 14) (size 15 to 20)
#    0.000    1.750    2.500    1.125    1.750    7.500 
#    0.000    0.625    0.000    0.000    0.000    0.000 
#    0.000    0.000    0.000    0.000    0.000    0.000 
#
# Total GULP energy -89451.932567 kJ/mol
# GULP energy per Si atom -5590.745785 kJ/mol
# Density = 2.389569 g / cm^3
# Si number density = 23.950199 Si / 1000 Ang^3
#
#
#
# Elastic Constant Matrix: (Units=GPa)
#
#
# Indices 1 2 3 4 5 6 
#
# 1 154.9082 39.0740 16.2244 -25.5278 -19.1702 16.6166
# 2 39.0740 106.5903 22.4517 -9.7740 -5.4105 0.8400
# 3 16.2244 22.4517 58.5345 -12.2174 -5.3093 1.3555
# 4 -25.5278 -9.7740 -12.2174 39.3735 1.2990 -5.1254
# 5 -19.1702 -5.4105 -5.3093 1.2990 36.9702 -8.2448
# 6 16.6166 0.8400 1.3555 -5.1254 -8.2448 43.4657
#
#
#
# Elastic Compliance Matrix: (Units=1/GPa)
#
#
# Indices 1 2 3 4 5 6 
#
# 1 0.008466 -0.002483 -0.000107 0.004465 0.003405 -0.002013
# 2 -0.002483 0.011044 -0.003536 0.000147 0.000009 0.000865
# 3 -0.000107 -0.003536 0.019737 0.005172 0.002196 0.000520
# 4 0.004465 0.000147 0.005172 0.030132 0.002502 0.002157
# 5 0.003405 0.000009 0.002196 0.002502 0.030076 0.004629
# 6 -0.002013 0.000865 0.000520 0.002157 0.004629 0.024876
#
#
# Mechanical properties :
#
#
# Convention : Reuss Voigt Hill
#
# Bulk Modulus (GPa) = 37.04470 52.83699 44.94084
# Shear Modulus (GPa) = 34.34523 40.11407 37.22965
#
# Velocity S-wave (km/s) = 3.79096 4.09699 3.94694
# Velocity P-wave (km/s) = 5.88752 6.67004 6.29096
#
# Compressibility (1/GPa) = 0.02699442
#
# Stress axis : x y z
#
# Youngs Moduli (GPa) = 118.11897 90.54802 50.66705
#
# Poissons Ratio (x) = 0.22482 0.00541
# Poissons Ratio (y) = 0.29327 0.17918
# Poissons Ratio (z) = 0.01261 0.32022
#
# Static dielectric constant tensor:
#      x y z
#    x 1.966610 0.016880 -0.006200 
#    y 0.016880 1.926760 -0.014890 
#    z -0.006200 -0.014890 1.957160 
# 
# From -- ./inp_files/271746.got.cif
#   From: 2010.05.17/outbox.cif.g08.bks.cpg/sg2_136_cif.got.tgz:271746.got - 2010.06.03 11:33:40.
