data_PCOD9029901
_publ_section_title
;
Structure prediction by ZEFSAII (Michael W. Deem and Ramdas Pophale) SiO2 
 PCOD9029901
Probable space group: P -1
;
_chemical_formula_sum "Si O2"
_cell_formula_units_Z 16
_cell_length_a 19.137631
_cell_length_b 5.232811
_cell_length_c 22.422170
_cell_angle_alpha 108.869464
_cell_angle_beta 160.321230
_cell_angle_gamma 71.987490
_cell_volume 715.428208
_symmetry_space_group_name_H-M "P -1"
_symmetry_group_IT_number 2
_symmetry_cell_setting 'triclinic'
loop_
_space_group_symop_operation_xyz
x,y,z
-x,-y,-z
loop_
_atom_site_type_symbol
_atom_site_label
_atom_site_fract_x
_atom_site_fract_y
_atom_site_fract_z
Si Si1 0.437058 0.404869 0.007630
Si Si2 0.122847 0.705633 0.073276
Si Si3 0.187555 0.593294 0.616886
Si Si4 0.283214 0.905486 0.995026
Si Si5 0.048456 0.201284 0.738761
Si Si6 0.279508 0.975437 0.618421
Si Si7 0.527874 0.694681 0.478715
Si Si8 0.015556 0.645426 0.847505
O O1 0.405762 0.648689 0.047478
O O2 0.221773 0.251426 0.831133
O O3 0.500000 0.500000 0.000000
O O4 0.639930 0.273543 0.190713
O O5 0.355493 0.679910 0.286204
O O6 0.000000 0.500000 0.000000
O O7 0.100988 0.613002 0.980229
O O8 0.000000 0.000000 0.000000
O O9 0.155859 0.828936 0.561171
O O10 0.000000 0.500000 0.500000
O O11 0.241917 0.299609 0.607290
O O12 0.141166 0.891072 0.937960
O O13 0.126578 0.940858 0.816902
O O14 0.478424 0.093933 0.180101
O O15 0.818538 0.165983 0.528342
O O16 0.068361 0.416314 0.824156
O O17 0.500000 0.500000 0.500000
O O18 0.767583 0.665671 0.650107
O O19 0.500000 0.000000 0.500000
#
# Coordination Sequence:
#
# PCOD9029901 Si02
#       8
#     2   2   2   2   2   2   2   2
#     4  10  22  42  68  98 136 187 237 298 354 416
#     4  12  25  48  76 108 147 186 234 299 355 421
#     4  11  23  42  66 100 134 175 235 298 358 418
#     4  10  25  46  65 101 144 185 238 292 353 427
#     4  11  25  44  70  98 143 189 237 290 356 426
#     4  11  25  45  66  96 139 180 232 292 347 424
#     4  12  25  48  75 110 146 183 240 294 354 428
#     4  11  27  45  73 105 144 190 237 291 358 428
#
# _framework density 22.364229999999999
#
# number of rings (size 3 to 8) (size 9 to 14) (size 15 to 20)
#    0.000    1.000    3.750    1.125    8.750    3.500 
#    0.000    0.000    0.000    0.000    0.000    0.000 
#    0.000    0.000    0.000    0.000    0.000    0.000 
#
# Total GULP energy -89109.009753 kJ/mol
# GULP energy per Si atom -5569.313110 kJ/mol
# Density = 2.231333 g / cm^3
# Si number density = 22.364230 Si / 1000 Ang^3
#
#
#
# Elastic Constant Matrix: (Units=GPa)
#
#
# Indices 1 2 3 4 5 6 
#
# 1 144.1873 23.2463 71.7654 8.8562 4.5445 14.8995
# 2 23.2463 59.8449 -0.7274 1.2205 -5.9409 10.1009
# 3 71.7654 -0.7274 172.2072 6.5437 -24.3525 5.8956
# 4 8.8562 1.2205 6.5437 21.6780 -1.2396 1.0013
# 5 4.5445 -5.9409 -24.3525 -1.2396 40.6424 2.8642
# 6 14.8995 10.1009 5.8956 1.0013 2.8642 31.6513
#
#
#
# Elastic Compliance Matrix: (Units=1/GPa)
#
#
# Indices 1 2 3 4 5 6 
#
# 1 0.010611 -0.004214 -0.004920 -0.002778 -0.004679 -0.002223
# 2 -0.004214 0.019816 0.002778 0.000325 0.005420 -0.005358
# 3 -0.004920 0.002778 0.008797 -0.000408 0.006269 -0.000763
# 4 -0.002778 0.000325 -0.000408 0.047477 0.001587 -0.000366
# 5 -0.004679 0.005420 0.006269 0.001587 0.029968 -0.003457
# 6 -0.002223 -0.005358 -0.000763 -0.000366 -0.003457 0.034817
#
#
# Mechanical properties :
#
#
# Convention : Reuss Voigt Hill
#
# Bulk Modulus (GPa) = 37.71976 62.75643 50.23810
# Shear Modulus (GPa) = 28.89535 37.59135 33.24335
#
# Velocity S-wave (km/s) = 3.59839 4.10429 3.85964
# Velocity P-wave (km/s) = 5.84528 7.11212 6.50959
#
# Compressibility (1/GPa) = 0.02651130
#
# Stress axis : x y z
#
# Youngs Moduli (GPa) = 94.23826 50.46310 113.67320
#
# Poissons Ratio (x) = 0.21267 0.55927
# Poissons Ratio (y) = 0.39716 -0.31573
# Poissons Ratio (z) = 0.46365 -0.14016
#
# Static dielectric constant tensor:
#      x y z
#    x 1.759040 0.094410 0.028860 
#    y 0.094410 2.153180 -0.130620 
#    z 0.028860 -0.130620 1.670080 
# 
# From -- ./inp_files/49150.got.cif
#   From: 2010.05.17/outbox.cif.g08.bks.cpg/sg2_25_cif.got.tgz:49150.got - 2010.06.03 11:33:40.
