data_PCOD9029554
_publ_section_title
;
Structure prediction by ZEFSAII (Michael W. Deem and Ramdas Pophale) SiO2 
 PCOD9029554
Probable space group: P -1
;
_chemical_formula_sum "Si O2"
_cell_formula_units_Z 10
_cell_length_a 9.108648
_cell_length_b 7.286056
_cell_length_c 7.214895
_cell_angle_alpha 68.360636
_cell_angle_beta 108.448393
_cell_angle_gamma 63.939579
_cell_volume 327.685053
_symmetry_space_group_name_H-M "P -1"
_symmetry_group_IT_number 2
_symmetry_cell_setting 'triclinic'
loop_
_space_group_symop_operation_xyz
x,y,z
-x,-y,-z
loop_
_atom_site_type_symbol
_atom_site_label
_atom_site_fract_x
_atom_site_fract_y
_atom_site_fract_z
Si Si1 0.076388 0.658678 0.437819
Si Si2 0.347699 0.219375 0.174340
Si Si3 0.464653 0.696266 0.253437
Si Si4 0.764634 0.983316 0.494863
Si Si5 0.907881 0.244829 0.026955
O O1 0.917456 0.885315 0.428322
O O2 0.000000 0.500000 0.500000
O O3 0.308135 0.475146 0.664031
O O4 0.058041 0.721010 0.186684
O O5 0.293240 0.181784 0.373692
O O6 0.159124 0.513956 0.964572
O O7 0.401540 0.975929 0.173707
O O8 0.540329 0.207901 0.257523
O O9 0.500000 0.500000 0.500000
O O10 0.278901 0.751187 0.052551
O O11 0.880159 0.989703 0.712090
#
# Coordination Sequence:
#
# PCOD9029554 Si02
#       5
#     2   2   2   2   2
#     4  11  20  40  70  98 132 173 221 275 323 393
#     4  11  22  43  70  98 135 176 220 274 330 397
#     4  10  22  42  67  97 137 173 214 279 333 381
#     4  11  22  42  70  97 133 178 220 270 333 393
#     4  11  25  45  71  96 135 180 214 275 341 381
#
# _framework density 30.517104
#
# number of rings (size 3 to 8) (size 9 to 14) (size 15 to 20)
#    0.000    1.200    4.000    4.200    0.000    1.600 
#    0.000   20.000    0.000    0.000    0.000    0.000 
#    0.000    0.000    0.000    0.000    0.000    0.000 
#
# Total GULP energy -55950.152342 kJ/mol
# GULP energy per Si atom -5595.015234 kJ/mol
# Density = 3.044765 g / cm^3
# Si number density = 30.517104 Si / 1000 Ang^3
#
#
#
# Elastic Constant Matrix: (Units=GPa)
#
#
# Indices 1 2 3 4 5 6 
#
# 1 289.0431 90.6112 79.5009 21.7306 55.0800 -34.3587
# 2 90.6112 203.8742 81.7849 -26.9552 12.6419 -12.5782
# 3 79.5009 81.7849 161.3061 -2.3912 36.7510 -6.2110
# 4 21.7306 -26.9552 -2.3912 58.5667 -14.3455 1.9727
# 5 55.0800 12.6419 36.7510 -14.3455 75.0494 5.8254
# 6 -34.3587 -12.5782 -6.2110 1.9727 5.8254 67.0530
#
#
#
# Elastic Compliance Matrix: (Units=1/GPa)
#
#
# Indices 1 2 3 4 5 6 
#
# 1 0.006113 -0.002660 -0.000481 -0.004837 -0.004973 0.003163
# 2 -0.002660 0.007913 -0.003412 0.005334 0.003360 -0.000643
# 3 -0.000481 -0.003412 0.009041 -0.001992 -0.003907 0.000349
# 4 -0.004837 0.005334 -0.001992 0.023388 0.008336 -0.003074
# 5 -0.004973 0.003360 -0.003907 0.008336 0.020247 -0.004284
# 6 0.003163 -0.000643 0.000349 -0.003074 -0.004284 0.016909
#
#
# Mechanical properties :
#
#
# Convention : Reuss Voigt Hill
#
# Bulk Modulus (GPa) = 100.39945 128.66860 114.53402
# Shear Modulus (GPa) = 49.98064 66.95559 58.46812
#
# Velocity S-wave (km/s) = 4.05135 4.68913 4.38186
# Velocity P-wave (km/s) = 7.40645 8.46000 7.95069
#
# Compressibility (1/GPa) = 0.00996021
#
# Stress axis : x y z
#
# Youngs Moduli (GPa) = 163.58105 126.36938 110.61037
#
# Poissons Ratio (x) = 0.33613 0.05323
# Poissons Ratio (y) = 0.43511 0.37745
# Poissons Ratio (z) = 0.07872 0.43122
#
# Static dielectric constant tensor:
#      x y z
#    x 2.505560 0.262150 -0.109340 
#    y 0.262150 2.660860 -0.069990 
#    z -0.109340 -0.069990 2.470990 
# 
# From -- ./inp_files/153013.got.cif
#   From: 2010.05.17/outbox.cif.g08.bks.cpg/sg2_77_cif.got.tgz:153013.got - 2010.06.03 11:33:40.
