data_PCOD9029790
_publ_section_title
;
Structure prediction by ZEFSAII (Michael W. Deem and Ramdas Pophale) SiO2 
 PCOD9029790
Probable space group: P -1
;
_chemical_formula_sum "Si O2"
_cell_formula_units_Z 14
_cell_length_a 17.826783
_cell_length_b 8.016393
_cell_length_c 11.445457
_cell_angle_alpha 96.672069
_cell_angle_beta 139.999182
_cell_angle_gamma 53.532703
_cell_volume 638.152780
_symmetry_space_group_name_H-M "P -1"
_symmetry_group_IT_number 2
_symmetry_cell_setting 'triclinic'
loop_
_space_group_symop_operation_xyz
x,y,z
-x,-y,-z
loop_
_atom_site_type_symbol
_atom_site_label
_atom_site_fract_x
_atom_site_fract_y
_atom_site_fract_z
Si Si1 0.123753 0.026173 0.647335
Si Si2 0.428844 0.332215 0.482800
Si Si3 0.713850 0.919429 0.985301
Si Si4 0.073190 0.527721 0.983040
Si Si5 0.312097 0.842868 0.432094
Si Si6 0.751108 0.659533 0.239374
Si Si7 0.595031 0.148481 0.207956
O O1 0.227136 0.964824 0.885389
O O2 0.965556 0.351887 0.465553
O O3 0.280492 0.861996 0.719050
O O4 0.000000 0.000000 0.500000
O O5 0.267528 0.398283 0.241763
O O6 0.335568 0.618058 0.424059
O O7 0.593584 0.177381 0.570320
O O8 0.527914 0.145574 0.701293
O O9 0.692832 0.825040 0.065371
O O10 0.877748 0.648754 0.080499
O O11 0.000000 0.500000 0.000000
O O12 0.905581 0.851479 0.784422
O O13 0.422780 0.774296 0.674623
O O14 0.706914 0.843003 0.303306
O O15 0.609700 0.661181 0.076831
#
# Coordination Sequence:
#
# PCOD9029790 Si02
#       7
#     2   2   2   2   2   2   2
#     4  11  25  44  67  99 135 166 215 275 333 386
#     4  11  26  44  65 101 136 172 221 276 327 382
#     4  11  23  46  69  96 135 175 221 273 324 388
#     4  12  24  41  68  97 130 176 226 259 325 395
#     4  11  24  45  67  94 141 173 218 272 333 383
#     4  10  22  43  69  93 133 169 222 268 323 390
#     4  10  22  42  68  95 122 180 216 261 328 390
#
# _framework density 21.938320999999998
#
# number of rings (size 3 to 8) (size 9 to 14) (size 15 to 20)
#    0.000    1.143    1.429    5.143    4.000    1.714 
#   10.286    0.000    0.000    0.000    0.000    0.000 
#    0.000    0.000    0.000    0.000    0.000    0.000 
#
# Total GULP energy -78341.578341 kJ/mol
# GULP energy per Si atom -5595.827024 kJ/mol
# Density = 2.188839 g / cm^3
# Si number density = 21.938321 Si / 1000 Ang^3
#
#
#
# Elastic Constant Matrix: (Units=GPa)
#
#
# Indices 1 2 3 4 5 6 
#
# 1 62.0594 20.9885 6.1325 11.0403 7.1487 3.9753
# 2 20.9885 71.8650 2.8719 14.7825 -10.4848 -3.9059
# 3 6.1325 2.8719 79.9163 3.9398 6.4737 7.3551
# 4 11.0403 14.7825 3.9398 46.2724 1.9561 0.7189
# 5 7.1487 -10.4848 6.4737 1.9561 28.6994 6.7465
# 6 3.9753 -3.9059 7.3551 0.7189 6.7465 29.6495
#
#
#
# Elastic Compliance Matrix: (Units=1/GPa)
#
#
# Indices 1 2 3 4 5 6 
#
# 1 0.019549 -0.006253 -0.000471 -0.002325 -0.006466 -0.001800
# 2 -0.006253 0.018001 -0.000759 -0.004568 0.008232 0.001636
# 3 -0.000471 -0.000759 0.013052 -0.000612 -0.002426 -0.002708
# 4 -0.002325 -0.004568 -0.000612 0.023787 -0.002541 -0.000137
# 5 -0.006466 0.008232 -0.002426 -0.002541 0.041804 -0.006897
# 6 -0.001800 0.001636 -0.002708 -0.000137 -0.006897 0.036429
#
#
# Mechanical properties :
#
#
# Convention : Reuss Voigt Hill
#
# Bulk Modulus (GPa) = 28.06275 30.42517 29.24396
# Shear Modulus (GPa) = 27.86019 33.18079 30.52049
#
# Velocity S-wave (km/s) = 3.56748 3.89325 3.73392
# Velocity P-wave (km/s) = 5.45790 5.84025 5.65231
#
# Compressibility (1/GPa) = 0.03563443
#
# Stress axis : x y z
#
# Youngs Moduli (GPa) = 51.15395 55.55210 76.61408
#
# Poissons Ratio (x) = 0.34739 0.03611
# Poissons Ratio (y) = 0.31989 0.05817
# Poissons Ratio (z) = 0.02411 0.04218
#
# Static dielectric constant tensor:
#      x y z
#    x 1.776190 0.043280 0.014380 
#    y 0.043280 1.810860 -0.021750 
#    z 0.014380 -0.021750 1.787050 
# 
# From -- ./inp_files/462244.got.cif
#   From: 2010.05.17/outbox.cif.g08.bks.cpg/sg2_232_cif.got.tgz:462244.got - 2010.06.03 11:33:40.
