data_PCOD9029347
_publ_section_title
;
Structure prediction by ZEFSAII (Michael W. Deem and Ramdas Pophale) SiO2 
 PCOD9029347
Probable space group: P -1
;
_chemical_formula_sum "Si O2"
_cell_formula_units_Z 14
_cell_length_a 6.270511
_cell_length_b 11.749298
_cell_length_c 11.971826
_cell_angle_alpha 135.081037
_cell_angle_beta 112.863882
_cell_angle_gamma 77.074253
_cell_volume 572.065853
_symmetry_space_group_name_H-M "P -1"
_symmetry_group_IT_number 2
_symmetry_cell_setting 'triclinic'
loop_
_space_group_symop_operation_xyz
x,y,z
-x,-y,-z
loop_
_atom_site_type_symbol
_atom_site_label
_atom_site_fract_x
_atom_site_fract_y
_atom_site_fract_z
Si Si1 0.043704 0.291471 0.992209
Si Si2 0.128466 0.165764 0.684438
Si Si3 0.627335 0.067003 0.783389
Si Si4 0.804570 0.371750 0.419622
Si Si5 0.581948 0.491225 0.684003
Si Si6 0.803414 0.782590 0.506632
Si Si7 0.267980 0.060421 0.054227
O O1 0.029357 0.249462 0.829817
O O2 0.787170 0.235658 0.948200
O O3 0.207110 0.456308 0.154389
O O4 0.189535 0.181169 0.026815
O O5 0.376528 0.117233 0.741590
O O6 0.148435 0.266957 0.644811
O O7 0.000000 0.000000 0.500000
O O8 0.723297 0.961537 0.629182
O O9 0.629677 0.939800 0.798211
O O10 0.704477 0.441313 0.560431
O O11 0.592619 0.369883 0.288608
O O12 0.000000 0.500000 0.500000
O O13 0.956772 0.224132 0.378425
O O14 0.405815 0.342797 0.583037
O O15 0.500000 0.000000 0.000000
O O16 0.000000 0.000000 0.000000
#
# Coordination Sequence:
#
# PCOD9029347 Si02
#       7
#     2   2   2   2   2   2   2
#     4  11  25  43  67 103 136 180 227 299 351 416
#     4  12  26  45  71  96 137 184 237 282 348 425
#     4  11  25  44  69 102 136 176 236 289 353 419
#     4   9  22  44  68 100 137 181 223 279 350 422
#     4  10  24  43  69 101 138 173 229 288 350 416
#     4  11  25  43  70 100 135 186 228 281 343 425
#     4  10  22  42  67 105 142 178 229 300 366 421
#
# _framework density 24.472708999999998
#
# number of rings (size 3 to 8) (size 9 to 14) (size 15 to 20)
#    0.000    1.429    2.857    0.429    8.000    5.143 
#    0.000    1.429    0.000    0.000    0.000    0.000 
#    0.000    0.000    0.000    0.000    0.000    0.000 
#
# Total GULP energy -77966.956575 kJ/mol
# GULP energy per Si atom -5569.068327 kJ/mol
# Density = 2.441701 g / cm^3
# Si number density = 24.472709 Si / 1000 Ang^3
#
#
#
# Elastic Constant Matrix: (Units=GPa)
#
#
# Indices 1 2 3 4 5 6 
#
# 1 120.4108 36.8492 46.8475 -8.2710 14.4878 20.2278
# 2 36.8492 61.0018 9.8885 -12.7413 5.0637 7.1734
# 3 46.8475 9.8885 105.7459 -9.8524 28.5111 26.9944
# 4 -8.2710 -12.7413 -9.8524 24.9830 2.0685 -6.2531
# 5 14.4878 5.0637 28.5111 2.0685 40.8509 -15.0714
# 6 20.2278 7.1734 26.9944 -6.2531 -15.0714 47.4541
#
#
#
# Elastic Compliance Matrix: (Units=1/GPa)
#
#
# Indices 1 2 3 4 5 6 
#
# 1 0.012446 -0.006668 -0.003679 -0.001320 -0.002073 -0.003037
# 2 -0.006668 0.022737 0.003813 0.010565 -0.004708 -0.002867
# 3 -0.003679 0.003813 0.021039 0.006560 -0.020292 -0.016556
# 4 -0.001320 0.010565 0.006560 0.047982 -0.008241 -0.001061
# 5 -0.002073 -0.004708 -0.020292 -0.008241 0.050774 0.028178
# 6 -0.003037 -0.002867 -0.016556 -0.001061 0.028178 0.041028
#
#
# Mechanical properties :
#
#
# Convention : Reuss Voigt Hill
#
# Bulk Modulus (GPa) = 23.17267 52.70322 37.93795
# Shear Modulus (GPa) = 22.37555 35.56250 28.96902
#
# Velocity S-wave (km/s) = 3.02703 3.81615 3.44427
# Velocity P-wave (km/s) = 4.65903 6.40310 5.59938
#
# Compressibility (1/GPa) = 0.04315428
#
# Stress axis : x y z
#
# Youngs Moduli (GPa) = 80.34788 43.98046 47.53183
#
# Poissons Ratio (x) = 0.29327 0.17487
# Poissons Ratio (y) = 0.53578 -0.18126
# Poissons Ratio (z) = 0.29560 -0.16772
#
# Static dielectric constant tensor:
#      x y z
#    x 1.961300 0.058820 0.074590 
#    y 0.058820 2.039020 0.087460 
#    z 0.074590 0.087460 1.928640 
# 
# From -- ./inp_files/101310.got.cif
#   From: 2010.05.17/outbox.cif.g08.bks.cpg/sg2_51_cif.got.tgz:101310.got - 2010.06.03 11:33:40.
