data_PCOD9029878
_publ_section_title
;
Structure prediction by ZEFSAII (Michael W. Deem and Ramdas Pophale) SiO2 
 PCOD9029878
Probable space group: P -1
;
_chemical_formula_sum "Si O2"
_cell_formula_units_Z 16
_cell_length_a 14.541536
_cell_length_b 9.328438
_cell_length_c 15.832926
_cell_angle_alpha 29.975155
_cell_angle_beta 130.013901
_cell_angle_gamma 133.700410
_cell_volume 769.872825
_symmetry_space_group_name_H-M "P -1"
_symmetry_group_IT_number 2
_symmetry_cell_setting 'triclinic'
loop_
_space_group_symop_operation_xyz
x,y,z
-x,-y,-z
loop_
_atom_site_type_symbol
_atom_site_label
_atom_site_fract_x
_atom_site_fract_y
_atom_site_fract_z
Si Si1 0.150599 0.813555 0.720258
Si Si2 0.559372 0.250848 0.308438
Si Si3 0.272714 0.878890 0.393838
Si Si4 0.104913 0.308491 0.092081
Si Si5 0.568669 0.937286 0.988232
Si Si6 0.895212 0.578184 0.612487
Si Si7 0.150553 0.664301 0.103268
Si Si8 0.431384 0.133219 0.655051
O O1 0.042873 0.602603 0.699859
O O2 0.098438 0.080531 0.581321
O O3 0.282156 0.008362 0.654260
O O4 0.162913 0.603482 0.912942
O O5 0.690172 0.262571 0.427490
O O6 0.418134 0.059217 0.358634
O O7 0.557497 0.070135 0.313470
O O8 0.557363 0.591448 0.139822
O O9 0.192572 0.640010 0.398467
O O10 0.192858 0.102972 0.244254
O O11 0.098473 0.390400 0.144796
O O12 0.957274 0.176051 0.040768
O O13 0.717941 0.132526 0.965623
O O14 0.500094 0.045465 0.818240
O O15 0.500000 0.000000 0.000000
O O16 0.837100 0.456421 0.733830
O O17 0.500000 0.500000 0.500000
#
# Coordination Sequence:
#
# PCOD9029878 Si02
#       8
#     2   2   2   2   2   2   2   2
#     4  10  22  42  68  98 128 176 229 264 337 393
#     4  11  27  43  65 100 141 171 227 277 329 415
#     4  11  24  44  65  99 134 175 217 278 345 377
#     4  10  23  42  69  93 135 173 221 280 322 404
#     4  12  26  43  71  99 136 178 221 277 338 399
#     4  10  23  42  69  93 135 173 221 280 322 404
#     4  10  22  42  68  98 128 176 229 264 337 393
#     4  12  26  43  71  99 136 178 221 277 338 399
#
# _framework density 20.782653
#
# number of rings (size 3 to 8) (size 9 to 14) (size 15 to 20)
#    0.000    1.250    0.000    4.875   10.500    4.000 
#    0.000    1.250    0.000    0.000    0.000    0.000 
#    0.000    0.000    0.000    0.000    0.000    0.000 
#
# Total GULP energy -89215.927856 kJ/mol
# GULP energy per Si atom -5575.995491 kJ/mol
# Density = 2.073535 g / cm^3
# Si number density = 20.782653 Si / 1000 Ang^3
#
#
#
# Elastic Constant Matrix: (Units=GPa)
#
#
# Indices 1 2 3 4 5 6 
#
# 1 124.8991 49.8931 67.5552 -0.2138 11.1537 13.4991
# 2 49.8931 198.2988 37.1531 31.8876 -26.4523 -17.3461
# 3 67.5552 37.1531 193.3949 -9.4606 44.0336 -8.4627
# 4 -0.2138 31.8876 -9.4606 34.3080 -3.1266 -7.2280
# 5 11.1537 -26.4523 44.0336 -3.1266 44.9274 7.2553
# 6 13.4991 -17.3461 -8.4627 -7.2280 7.2553 49.1444
#
#
#
# Elastic Compliance Matrix: (Units=1/GPa)
#
#
# Indices 1 2 3 4 5 6 
#
# 1 0.011615 -0.002756 -0.003680 0.000622 -0.000099 -0.004691
# 2 -0.002756 0.008683 -0.002841 -0.007943 0.007866 0.001003
# 3 -0.003680 -0.002841 0.009879 0.005219 -0.010734 0.004062
# 4 0.000622 -0.007943 0.005219 0.038238 -0.008050 0.004737
# 5 -0.000099 0.007866 -0.010734 -0.008050 0.037813 -0.005811
# 6 -0.004691 0.001003 0.004062 0.004737 -0.005811 0.024245
#
#
# Mechanical properties :
#
#
# Convention : Reuss Voigt Hill
#
# Bulk Modulus (GPa) = 86.04200 91.75507 88.89854
# Shear Modulus (GPa) = 32.70072 49.80872 41.25472
#
# Velocity S-wave (km/s) = 3.97099 4.90087 4.46023
# Velocity P-wave (km/s) = 7.90669 8.73329 8.33025
#
# Compressibility (1/GPa) = 0.01162223
#
# Stress axis : x y z
#
# Youngs Moduli (GPa) = 86.09626 115.16642 101.22318
#
# Poissons Ratio (x) = 0.31746 0.37250
# Poissons Ratio (y) = 0.23732 0.28757
# Poissons Ratio (z) = 0.31683 0.32718
#
# Static dielectric constant tensor:
#      x y z
#    x 1.849630 0.164150 0.094110 
#    y 0.164150 1.969800 0.237890 
#    z 0.094110 0.237890 1.969680 
# 
# From -- ./inp_files/529237.got.cif
#   From: 2010.05.17/outbox.cif.g08.bks.cpg/sg2_265_cif.got.tgz:529237.got - 2010.06.03 11:33:40.
