data_PCOD9029063
_publ_section_title
;
Structure prediction by ZEFSAII (Michael W. Deem and Ramdas Pophale) SiO2 
 PCOD9029063
Probable space group: P -1
;
_chemical_formula_sum "Si O2"
_cell_formula_units_Z 14
_cell_length_a 8.065914
_cell_length_b 6.748192
_cell_length_c 18.867579
_cell_angle_alpha 70.980355
_cell_angle_beta 135.818203
_cell_angle_gamma 85.748255
_cell_volume 598.261532
_symmetry_space_group_name_H-M "P -1"
_symmetry_group_IT_number 2
_symmetry_cell_setting 'triclinic'
loop_
_space_group_symop_operation_xyz
x,y,z
-x,-y,-z
loop_
_atom_site_type_symbol
_atom_site_label
_atom_site_fract_x
_atom_site_fract_y
_atom_site_fract_z
Si Si1 0.958183 0.244687 0.424457
Si Si2 0.681123 0.556703 0.993827
Si Si3 0.997524 0.713682 0.169662
Si Si4 0.261219 0.962261 0.726601
Si Si5 0.243417 0.845798 0.038102
Si Si6 0.189912 0.556738 0.401450
Si Si7 0.531161 0.716384 0.281976
O O1 0.765154 0.453012 0.393518
O O2 0.172637 0.333468 0.457695
O O3 0.816549 0.223891 0.311274
O O4 0.000000 0.000000 0.500000
O O5 0.781294 0.366069 0.983426
O O6 0.485119 0.812016 0.870718
O O7 0.500000 0.500000 0.000000
O O8 0.928323 0.558788 0.111262
O O9 0.046222 0.605981 0.274783
O O10 0.268819 0.730524 0.234745
O O11 0.768782 0.979929 0.049290
O O12 0.396272 0.076054 0.701282
O O13 0.996375 0.192486 0.645961
O O14 0.489400 0.743230 0.180235
O O15 0.000000 0.000000 0.000000
O O16 0.500000 0.500000 0.500000
#
# Coordination Sequence:
#
# PCOD9029063 Si02
#       7
#     2   2   2   2   2   2   2
#     4  11  26  47  72 101 137 191 247 289 357 429
#     4  12  24  40  72 106 145 186 237 296 364 429
#     4  11  25  43  70 104 144 184 233 292 366 419
#     4  11  24  44  73 100 142 187 237 293 362 426
#     4  10  22  42  66 105 143 181 229 286 358 429
#     4  11  28  49  70 103 145 186 240 303 357 424
#     4  10  23  43  70 103 140 183 235 294 353 431
#
# _framework density 23.401136000000001
#
# number of rings (size 3 to 8) (size 9 to 14) (size 15 to 20)
#    0.000    1.143    2.857    1.714    6.000    7.429 
#    2.571    0.000    0.000    0.000    0.000    0.000 
#    0.000    0.000    0.000    0.000    0.000    0.000 
#
# Total GULP energy -78207.014203 kJ/mol
# GULP energy per Si atom -5586.215300 kJ/mol
# Density = 2.334787 g / cm^3
# Si number density = 23.401136 Si / 1000 Ang^3
#
#
#
# Elastic Constant Matrix: (Units=GPa)
#
#
# Indices 1 2 3 4 5 6 
#
# 1 104.4151 44.2697 31.6634 -9.8220 6.4515 22.1691
# 2 44.2697 152.7977 33.0024 -0.5693 7.3141 14.0879
# 3 31.6634 33.0024 100.3978 -12.3198 -21.8586 0.6735
# 4 -9.8220 -0.5693 -12.3198 48.3947 10.7497 -8.8779
# 5 6.4515 7.3141 -21.8586 10.7497 44.8054 1.8670
# 6 22.1691 14.0879 0.6735 -8.8779 1.8670 37.9147
#
#
#
# Elastic Compliance Matrix: (Units=1/GPa)
#
#
# Indices 1 2 3 4 5 6 
#
# 1 0.013500 -0.002247 -0.004106 0.001277 -0.003616 -0.006509
# 2 -0.002247 0.007961 -0.002412 -0.000875 -0.001871 -0.001714
# 3 -0.004106 -0.002412 0.013793 0.001615 0.007198 0.003076
# 4 0.001277 -0.000875 0.001615 0.023424 -0.005093 0.005285
# 5 -0.003616 -0.001871 0.007198 -0.005093 0.027874 0.000116
# 6 -0.006509 -0.001714 0.003076 0.005285 0.000116 0.031995
#
#
# Mechanical properties :
#
#
# Convention : Reuss Voigt Hill
#
# Bulk Modulus (GPa) = 56.41603 63.94243 60.17923
# Shear Modulus (GPa) = 35.21531 42.80130 39.00830
#
# Velocity S-wave (km/s) = 3.88345 4.28135 4.08725
# Velocity P-wave (km/s) = 6.65349 7.19887 6.93155
#
# Compressibility (1/GPa) = 0.01772546
#
# Stress axis : x y z
#
# Youngs Moduli (GPa) = 74.07247 125.61649 72.50185
#
# Poissons Ratio (x) = 0.28221 0.29769
# Poissons Ratio (y) = 0.16641 0.17484
# Poissons Ratio (z) = 0.30414 0.30293
#
# Static dielectric constant tensor:
#      x y z
#    x 1.910250 0.002770 -0.040290 
#    y 0.002770 1.869420 0.034450 
#    z -0.040290 0.034450 1.991240 
# 
# From -- ./inp_files/141024.got.cif
#   From: 2010.05.17/outbox.cif.g08.bks.cpg/sg2_71_cif.got.tgz:141024.got - 2010.06.03 11:33:40.
