data_PCOD9029628
_publ_section_title
;
Structure prediction by ZEFSAII (Michael W. Deem and Ramdas Pophale) SiO2 
 PCOD9029628
Probable space group: P -1
;
_chemical_formula_sum "Si O2"
_cell_formula_units_Z 14
_cell_length_a 5.779713
_cell_length_b 8.457440
_cell_length_c 17.604003
_cell_angle_alpha 48.192873
_cell_angle_beta 118.731774
_cell_angle_gamma 106.421367
_cell_volume 561.508474
_symmetry_space_group_name_H-M "P -1"
_symmetry_group_IT_number 2
_symmetry_cell_setting 'triclinic'
loop_
_space_group_symop_operation_xyz
x,y,z
-x,-y,-z
loop_
_atom_site_type_symbol
_atom_site_label
_atom_site_fract_x
_atom_site_fract_y
_atom_site_fract_z
Si Si1 0.014867 0.684673 0.598645
Si Si2 0.744922 0.177090 0.143556
Si Si3 0.795296 0.679953 0.959413
Si Si4 0.249705 0.707738 0.129681
Si Si5 0.078903 0.015943 0.383839
Si Si6 0.591562 0.745582 0.733996
Si Si7 0.119509 0.217955 0.807056
O O1 0.841812 0.838644 0.578310
O O2 0.295386 0.717022 0.672924
O O3 0.994877 0.432902 0.678418
O O4 0.018887 0.791669 0.482447
O O5 0.789593 0.427313 0.057621
O O6 0.832566 0.112394 0.263627
O O7 0.893442 0.989034 0.180327
O O8 0.432310 0.181641 0.076482
O O9 0.075956 0.741346 0.015640
O O10 0.310163 0.289013 0.153152
O O11 0.262319 0.452831 0.224057
O O12 0.556747 0.759346 0.144773
O O13 0.059641 0.794165 0.140980
O O14 0.313564 0.035991 0.354376
#
# Coordination Sequence:
#
# PCOD9029628 Si02
#       7
#     2   2   2   2   2   2   2
#     4  10  22  42  68 100 138 181 240 295 351 420
#     4  11  25  43  71 104 145 185 237 291 363 421
#     4  11  24  44  71 104 140 189 241 293 345 434
#     4  11  25  46  72 101 147 191 235 288 353 433
#     4  11  21  41  72  99 133 186 243 290 350 421
#     4  11  21  41  71 102 133 184 237 305 334 429
#     4  11  26  49  68 107 151 186 234 294 365 420
#
# _framework density 24.932838
#
# number of rings (size 3 to 8) (size 9 to 14) (size 15 to 20)
#    0.000    1.143    4.286    0.857    6.000    2.857 
#    0.000    0.000    0.000    3.429    0.000    0.000 
#    0.000    0.000    0.000    0.000    0.000    0.000 
#
# Total GULP energy -78061.185131 kJ/mol
# GULP energy per Si atom -5575.798938 kJ/mol
# Density = 2.487609 g / cm^3
# Si number density = 24.932838 Si / 1000 Ang^3
#
#
#
# Elastic Constant Matrix: (Units=GPa)
#
#
# Indices 1 2 3 4 5 6 
#
# 1 66.9088 31.3888 36.0243 -0.6147 6.7050 -9.9424
# 2 31.3888 79.2363 57.6073 -18.1989 -8.3627 -20.8872
# 3 36.0243 57.6073 175.6529 -8.1872 -31.6892 -4.2820
# 4 -0.6147 -18.1989 -8.1872 34.4341 7.6012 8.2477
# 5 6.7050 -8.3627 -31.6892 7.6012 52.2053 -0.6875
# 6 -9.9424 -20.8872 -4.2820 8.2477 -0.6875 43.3484
#
#
#
# Elastic Compliance Matrix: (Units=1/GPa)
#
#
# Indices 1 2 3 4 5 6 
#
# 1 0.020450 -0.006747 -0.002999 -0.003202 -0.005039 0.001672
# 2 -0.006747 0.023539 -0.005741 0.009183 -0.000086 0.007479
# 3 -0.002999 -0.005741 0.008989 -0.001557 0.005119 -0.002189
# 4 -0.003202 0.009183 -0.001557 0.035172 -0.004226 -0.003222
# 5 -0.005039 -0.000086 0.005119 -0.004226 0.023518 0.000485
# 6 0.001672 0.007479 -0.002189 -0.003222 0.000485 0.027461
#
#
# Mechanical properties :
#
#
# Convention : Reuss Voigt Hill
#
# Bulk Modulus (GPa) = 45.44912 63.53766 54.49339
# Shear Modulus (GPa) = 28.17911 39.11607 33.64759
#
# Velocity S-wave (km/s) = 3.36549 3.96518 3.67758
# Velocity P-wave (km/s) = 5.77670 6.81926 6.31952
#
# Compressibility (1/GPa) = 0.02200263
#
# Stress axis : x y z
#
# Youngs Moduli (GPa) = 48.90054 42.48281 111.25104
#
# Poissons Ratio (x) = 0.28664 0.33362
# Poissons Ratio (y) = 0.32994 0.63873
# Poissons Ratio (z) = 0.14664 0.24391
#
# Static dielectric constant tensor:
#      x y z
#    x 2.260430 -0.050230 -0.014500 
#    y -0.050230 1.971590 -0.027900 
#    z -0.014500 -0.027900 1.967860 
# 
# From -- ./inp_files/582286.got.cif
#   From: 2010.05.17/outbox.cif.g08.bks.cpg/sg2_292_cif.got.tgz:582286.got - 2010.06.03 11:33:40.
