data_PCOD9029166
_publ_section_title
;
Structure prediction by ZEFSAII (Michael W. Deem and Ramdas Pophale) SiO2 
 PCOD9029166
Probable space group: P -1
;
_chemical_formula_sum "Si O2"
_cell_formula_units_Z 12
_cell_length_a 13.702592
_cell_length_b 8.052668
_cell_length_c 14.378879
_cell_angle_alpha 40.713598
_cell_angle_beta 30.087959
_cell_angle_gamma 61.404705
_cell_volume 436.021993
_symmetry_space_group_name_H-M "P -1"
_symmetry_group_IT_number 2
_symmetry_cell_setting 'triclinic'
loop_
_space_group_symop_operation_xyz
x,y,z
-x,-y,-z
loop_
_atom_site_type_symbol
_atom_site_label
_atom_site_fract_x
_atom_site_fract_y
_atom_site_fract_z
Si Si1 0.646107 0.758048 0.899971
Si Si2 0.170872 0.368254 0.506943
Si Si3 0.003333 0.856023 0.708519
Si Si4 0.642322 0.775695 0.405087
Si Si5 0.271391 0.582886 0.656766
Si Si6 0.700907 0.225202 0.035702
O O1 0.621651 0.457719 0.003343
O O2 0.768697 0.785036 0.884993
O O3 0.824531 0.030354 0.572153
O O4 0.389678 0.685202 0.155854
O O5 0.279408 0.269719 0.541374
O O6 0.952321 0.369576 0.723366
O O7 0.083036 0.123431 0.602464
O O8 0.063864 0.631084 0.801582
O O9 0.375038 0.569175 0.677017
O O10 0.768598 0.685633 0.262334
O O11 0.708160 0.112895 0.182498
O O12 0.500117 0.902618 0.296735
#
# Coordination Sequence:
#
# PCOD9029166 Si02
#       6
#     2   2   2   2   2   2
#     4  11  26  46  63  94 130 170 217 263 320 372
#     4  12  23  40  71  95 126 173 212 259 321 382
#     4  11  25  45  64  93 132 167 216 272 308 377
#     4   9  21  40  65 101 128 165 214 256 320 386
#     4   9  20  42  68  90 135 169 201 266 322 368
#     4  10  22  42  66  94 133 165 208 263 318 376
#
# _framework density 27.521546000000001
#
# number of rings (size 3 to 8) (size 9 to 14) (size 15 to 20)
#    1.000    0.667    1.667    2.000    2.333    3.333 
#    0.000    5.000    0.000    0.000    0.000    0.000 
#    0.000    0.000    0.000    0.000    0.000    0.000 
#
# Total GULP energy -67225.176021 kJ/mol
# GULP energy per Si atom -5602.098002 kJ/mol
# Density = 2.745891 g / cm^3
# Si number density = 27.521546 Si / 1000 Ang^3
#
#
#
# Elastic Constant Matrix: (Units=GPa)
#
#
# Indices 1 2 3 4 5 6 
#
# 1 171.8987 44.2098 29.0789 4.7633 -0.1743 8.2964
# 2 44.2098 51.2823 18.5298 -2.9870 -14.1357 1.8958
# 3 29.0789 18.5298 106.4952 31.2858 -22.1842 1.0284
# 4 4.7633 -2.9870 31.2858 29.6652 -5.2882 -4.8384
# 5 -0.1743 -14.1357 -22.1842 -5.2882 48.6374 -1.4877
# 6 8.2964 1.8958 1.0284 -4.8384 -1.4877 42.0989
#
#
#
# Elastic Compliance Matrix: (Units=1/GPa)
#
#
# Indices 1 2 3 4 5 6 
#
# 1 0.007990 -0.007360 -0.000945 -0.001771 -0.002781 -0.001522
# 2 -0.007360 0.030361 -0.004928 0.011115 0.007812 0.001757
# 3 -0.000945 -0.004928 0.016456 -0.017261 0.004137 -0.001831
# 4 -0.001771 0.011115 -0.017261 0.054661 0.001497 0.006605
# 5 -0.002781 0.007812 0.004137 0.001497 0.024906 0.001147
# 6 -0.001522 0.001757 -0.001831 0.006605 0.001147 0.024819
#
#
# Mechanical properties :
#
#
# Convention : Reuss Voigt Hill
#
# Bulk Modulus (GPa) = 35.28536 57.03479 46.16007
# Shear Modulus (GPa) = 25.62715 39.93747 32.78231
#
# Velocity S-wave (km/s) = 3.05481 3.81351 3.45505
# Velocity P-wave (km/s) = 5.02905 6.33712 5.72060
#
# Compressibility (1/GPa) = 0.02834037
#
# Stress axis : x y z
#
# Youngs Moduli (GPa) = 125.15965 32.93689 60.76793
#
# Poissons Ratio (x) = 0.24240 0.05745
# Poissons Ratio (y) = 0.92113 0.29948
# Poissons Ratio (z) = 0.11833 0.16232
#
# Static dielectric constant tensor:
#      x y z
#    x 2.173990 -0.004550 0.072280 
#    y -0.004550 2.037020 -0.038190 
#    z 0.072280 -0.038190 2.243840 
# 
# From -- ./inp_files/222912.got.cif
#   From: 2010.05.17/outbox.cif.g08.bks.cpg/sg2_112_cif.got.tgz:222912.got - 2010.06.03 11:33:40.
