data_PCOD9029364
_publ_section_title
;
Structure prediction by ZEFSAII (Michael W. Deem and Ramdas Pophale) SiO2 
 PCOD9029364
Probable space group: P -1
;
_chemical_formula_sum "Si O2"
_cell_formula_units_Z 16
_cell_length_a 8.891361
_cell_length_b 9.186516
_cell_length_c 21.641017
_cell_angle_alpha 59.047678
_cell_angle_beta 140.962286
_cell_angle_gamma 132.977535
_cell_volume 814.088589
_symmetry_space_group_name_H-M "P -1"
_symmetry_group_IT_number 2
_symmetry_cell_setting 'triclinic'
loop_
_space_group_symop_operation_xyz
x,y,z
-x,-y,-z
loop_
_atom_site_type_symbol
_atom_site_label
_atom_site_fract_x
_atom_site_fract_y
_atom_site_fract_z
Si Si1 0.001294 0.500636 0.812980
Si Si2 0.293486 0.161669 0.179096
Si Si3 0.658071 0.711256 0.350266
Si Si4 0.191560 0.359437 0.459664
Si Si5 0.809600 0.525363 0.333485
Si Si6 0.169242 0.255314 0.828410
Si Si7 0.814944 0.525604 0.986495
Si Si8 0.745315 0.115885 0.263709
O O1 0.675486 0.422346 0.719053
O O2 0.090271 0.387560 0.817654
O O3 0.174031 0.733890 0.800133
O O4 0.061093 0.458380 0.909916
O O5 0.522232 0.325158 0.263798
O O6 0.201926 0.282967 0.079773
O O7 0.034501 0.974281 0.169977
O O8 0.461202 0.084012 0.209879
O O9 0.790074 0.759383 0.450180
O O10 0.768791 0.595699 0.370976
O O11 0.717627 0.906857 0.290035
O O12 0.500000 0.500000 0.500000
O O13 0.059830 0.484664 0.416432
O O14 0.986214 0.229268 0.367531
O O15 0.862646 0.690143 0.263337
O O16 0.496154 0.339536 0.924699
O O17 0.000000 0.500000 0.000000
#
# Coordination Sequence:
#
# PCOD9029364 Si02
#       8
#     2   2   2   2   2   2   2   2
#     4  12  22  41  68  92 126 168 216 257 308 383
#     4  10  22  42  67  90 126 171 209 258 312 374
#     4  12  24  40  66  96 128 164 209 267 321 365
#     4  11  21  44  67  89 129 172 210 256 313 379
#     4  10  23  42  63  98 134 160 208 267 316 364
#     4  11  21  42  67  91 126 171 214 253 309 384
#     4  11  25  41  62  97 134 162 206 268 316 365
#     4  11  23  41  67  96 121 167 218 257 311 380
#
# _framework density 19.653879
#
# number of rings (size 3 to 8) (size 9 to 14) (size 15 to 20)
#    0.000    1.000    6.250    2.625    0.000    4.000 
#    0.000    0.625    0.000    0.000    0.000    0.000 
#    0.000    0.000    0.000    0.000    0.000    0.000 
#
# Total GULP energy -89437.161166 kJ/mol
# GULP energy per Si atom -5589.822573 kJ/mol
# Density = 1.960915 g / cm^3
# Si number density = 19.653879 Si / 1000 Ang^3
#
#
#
# Elastic Constant Matrix: (Units=GPa)
#
#
# Indices 1 2 3 4 5 6 
#
# 1 104.1240 25.1929 27.0906 9.0391 14.2841 4.6278
# 2 25.1929 88.2053 11.7206 -15.5086 5.8045 19.8506
# 3 27.0906 11.7206 84.3515 -10.1534 2.8836 13.7547
# 4 9.0391 -15.5086 -10.1534 14.3143 5.9548 3.9311
# 5 14.2841 5.8045 2.8836 5.9548 37.1606 -1.3796
# 6 4.6278 19.8506 13.7547 3.9311 -1.3796 31.7295
#
#
#
# Elastic Compliance Matrix: (Units=1/GPa)
#
#
# Indices 1 2 3 4 5 6 
#
# 1 0.019549 -0.016586 -0.012796 -0.046357 0.004203 0.018998
# 2 -0.016586 0.037695 0.016586 0.080037 -0.015070 -0.038925
# 3 -0.012796 0.016586 0.024916 0.054913 -0.009390 -0.026523
# 4 -0.046357 0.080037 0.054913 0.272359 -0.046408 -0.102878
# 5 0.004203 -0.015070 -0.009390 -0.046408 0.036565 0.020225
# 6 0.018998 -0.038925 -0.026523 -0.102878 0.020225 0.078220
#
#
# Mechanical properties :
#
#
# Convention : Reuss Voigt Hill
#
# Bulk Modulus (GPa) = 17.67780 44.96545 31.32163
# Shear Modulus (GPa) = 9.73231 30.81933 20.27582
#
# Velocity S-wave (km/s) = 2.22769 3.96423 3.21541
# Velocity P-wave (km/s) = 3.95359 6.62433 5.45494
#
# Compressibility (1/GPa) = 0.05656812
#
# Stress axis : x y z
#
# Youngs Moduli (GPa) = 51.15239 26.52879 40.13509
#
# Poissons Ratio (x) = 0.44001 0.51355
# Poissons Ratio (y) = 0.84843 -0.66567
# Poissons Ratio (z) = 0.65452 -0.44000
#
# Static dielectric constant tensor:
#      x y z
#    x 1.670830 -0.001180 -0.003910 
#    y -0.001180 1.682070 -0.004140 
#    z -0.003910 -0.004140 1.683420 
# 
# From -- ./inp_files/587943.got.cif
#   From: 2010.05.17/outbox.cif.g08.bks.cpg/sg2_294_cif.got.tgz:587943.got - 2010.06.03 11:33:40.
