data_PCOD9029876
_publ_section_title
;
Structure prediction by ZEFSAII (Michael W. Deem and Ramdas Pophale) SiO2 
 PCOD9029876
Probable space group: P -1
;
_chemical_formula_sum "Si O2"
_cell_formula_units_Z 15
_cell_length_a 21.641217
_cell_length_b 8.308895
_cell_length_c 9.315309
_cell_angle_alpha 58.745472
_cell_angle_beta 153.515774
_cell_angle_gamma 119.832050
_cell_volume 636.165936
_symmetry_space_group_name_H-M "P -1"
_symmetry_group_IT_number 2
_symmetry_cell_setting 'triclinic'
loop_
_space_group_symop_operation_xyz
x,y,z
-x,-y,-z
loop_
_atom_site_type_symbol
_atom_site_label
_atom_site_fract_x
_atom_site_fract_y
_atom_site_fract_z
Si Si1 0.125869 0.405317 0.879638
Si Si2 0.608834 0.340627 0.786713
Si Si3 0.134208 0.140046 0.766981
Si Si4 0.346045 0.907553 0.740313
Si Si5 0.111027 0.151405 0.227735
Si Si6 0.500000 0.000000 0.500000
Si Si7 0.998500 0.673172 0.812563
Si Si8 0.301473 0.846645 0.340832
O O1 0.137362 0.210858 0.903832
O O2 0.000000 0.500000 0.500000
O O3 0.259690 0.550641 0.069306
O O4 0.106636 0.337675 0.034295
O O5 0.500000 0.500000 0.500000
O O6 0.551772 0.151648 0.670712
O O7 0.654505 0.269664 0.071699
O O8 0.112147 0.327529 0.544986
O O9 0.000000 0.000000 0.500000
O O10 0.275457 0.034374 0.097485
O O11 0.297710 0.863791 0.496418
O O12 0.255561 0.062510 0.550944
O O13 0.500000 0.000000 0.000000
O O14 0.063580 0.175608 0.279796
O O15 0.000000 0.000000 0.000000
O O16 0.548553 0.175050 0.400043
O O17 0.156074 0.726691 0.064458
O O18 0.000000 0.500000 0.000000
#
# Coordination Sequence:
#
# PCOD9029876 Si02
#       8
#     2   2   2   2   2   1   2   2
#     4  12  25  42  71 113 148 189 254 318 385 458
#     4  12  29  51  76 109 155 201 264 323 384 470
#     4  10  22  42  68  97 147 189 236 307 378 438
#     4  12  24  48  73 106 148 202 255 316 384 462
#     4  12  23  44  73 106 145 204 249 307 395 458
#     4  12  28  50  80 104 146 210 254 308 396 452
#     4  11  25  41  68 110 150 186 245 324 378 448
#     4  11  24  47  69 103 142 196 256 300 373 471
#
# _framework density 23.578752999999999
#
# number of rings (size 3 to 8) (size 9 to 14) (size 15 to 20)
#    0.000    0.533    4.000    4.000    9.333    0.000 
#    0.000    0.667    0.000    0.000    0.000    0.000 
#    0.000    0.000    0.000    0.000    0.000    0.000 
#
# Total GULP energy -83528.373187 kJ/mol
# GULP energy per Si atom -5568.558212 kJ/mol
# Density = 2.352509 g / cm^3
# Si number density = 23.578753 Si / 1000 Ang^3
#
#
#
# Elastic Constant Matrix: (Units=GPa)
#
#
# Indices 1 2 3 4 5 6 
#
# 1 137.6908 33.4374 17.0067 -0.5451 -19.3599 16.6824
# 2 33.4374 77.8529 44.8565 3.3585 -1.8022 25.7948
# 3 17.0067 44.8565 101.6351 -9.7444 -7.2245 15.1803
# 4 -0.5451 3.3585 -9.7444 48.4238 14.5646 -4.2804
# 5 -19.3599 -1.8022 -7.2245 14.5646 46.6834 1.0657
# 6 16.6824 25.7948 15.1803 -4.2804 1.0657 60.6600
#
#
#
# Elastic Compliance Matrix: (Units=1/GPa)
#
#
# Indices 1 2 3 4 5 6 
#
# 1 0.008734 -0.003506 0.000452 -0.000824 0.003840 -0.001150
# 2 -0.003506 0.021338 -0.008280 -0.003541 -0.000664 -0.006276
# 3 0.000452 -0.008280 0.013762 0.003048 0.001043 0.000150
# 4 -0.000824 -0.003541 0.003048 0.024024 -0.007566 0.002798
# 5 0.003840 -0.000664 0.001043 -0.007566 0.025556 -0.002018
# 6 -0.001150 -0.006276 0.000150 0.002798 -0.002018 0.019666
#
#
# Mechanical properties :
#
#
# Convention : Reuss Voigt Hill
#
# Bulk Modulus (GPa) = 47.24797 56.42000 51.83398
# Shear Modulus (GPa) = 35.01316 45.94532 40.47924
#
# Velocity S-wave (km/s) = 3.85768 4.41907 4.14788
# Velocity P-wave (km/s) = 6.31855 7.07233 6.70604
#
# Compressibility (1/GPa) = 0.02116493
#
# Stress axis : x y z
#
# Youngs Moduli (GPa) = 114.49138 46.86472 72.66358
#
# Poissons Ratio (x) = 0.16431 -0.03281
# Poissons Ratio (y) = 0.40142 0.60167
# Poissons Ratio (z) = -0.05170 0.38805
#
# Static dielectric constant tensor:
#      x y z
#    x 1.931610 -0.004120 0.062940 
#    y -0.004120 2.069900 -0.036290 
#    z 0.062940 -0.036290 2.076060 
# 
# From -- ./inp_files/343478.got.cif
#   From: 2010.05.17/outbox.cif.g08.bks.cpg/sg2_172_cif.got.tgz:343478.got - 2010.06.03 11:33:40.
