data_PCOD9029902
_publ_section_title
;
Structure prediction by ZEFSAII (Michael W. Deem and Ramdas Pophale) SiO2 
 PCOD9029902
Probable space group: P -1
;
_chemical_formula_sum "Si O2"
_cell_formula_units_Z 16
_cell_length_a 12.168217
_cell_length_b 6.839276
_cell_length_c 12.287285
_cell_angle_alpha 75.526253
_cell_angle_beta 92.441446
_cell_angle_gamma 136.007765
_cell_volume 673.229661
_symmetry_space_group_name_H-M "P -1"
_symmetry_group_IT_number 2
_symmetry_cell_setting 'triclinic'
loop_
_space_group_symop_operation_xyz
x,y,z
-x,-y,-z
loop_
_atom_site_type_symbol
_atom_site_label
_atom_site_fract_x
_atom_site_fract_y
_atom_site_fract_z
Si Si1 0.673578 0.140873 0.508692
Si Si2 0.179598 0.866663 0.685143
Si Si3 0.331102 0.797184 0.896161
Si Si4 0.932725 0.848926 0.400444
Si Si5 0.085283 0.810522 0.231502
Si Si6 0.619704 0.736238 0.069849
Si Si7 0.998482 0.261218 0.995707
Si Si8 0.576509 0.839614 0.775320
O O1 0.716766 0.037967 0.431643
O O2 0.803721 0.495544 0.457029
O O3 0.500000 0.000000 0.500000
O O4 0.658353 0.026470 0.642596
O O5 0.253889 0.842263 0.792687
O O6 0.008586 0.523918 0.703740
O O7 0.144840 0.055815 0.669691
O O8 0.459976 0.839774 0.829946
O O9 0.190114 0.477632 0.996219
O O10 0.402050 0.054347 0.946755
O O11 0.067872 0.937696 0.313599
O O12 0.000000 0.000000 0.500000
O O13 0.999758 0.789311 0.125695
O O14 0.263672 0.001006 0.173090
O O15 0.533513 0.504228 0.198993
O O16 0.500000 0.500000 0.000000
O O17 0.812924 0.949089 0.058224
O O18 0.000000 0.500000 0.000000
#
# Coordination Sequence:
#
# PCOD9029902 Si02
#       8
#     2   2   2   2   2   2   2   2
#     4  11  24  42  64 101 141 175 215 274 339 387
#     4  10  22  44  69  96 138 181 226 269 328 412
#     4  10  24  41  70  99 132 178 222 271 346 398
#     4  11  24  42  69  99 134 181 229 267 333 406
#     4  10  22  42  68  98 137 173 224 281 335 391
#     4  11  24  44  66  97 134 175 226 278 335 400
#     4   9  20  46  66  92 132 174 226 275 331 400
#     4  12  24  41  69 100 140 170 223 280 337 398
#
# _framework density 23.766036
#
# number of rings (size 3 to 8) (size 9 to 14) (size 15 to 20)
#    0.000    1.500    2.500    1.500    1.750    6.500 
#    0.000    2.500    0.000    0.000    0.000    0.000 
#    0.000    0.000    0.000    0.000    0.000    0.000 
#
# Total GULP energy -89269.958394 kJ/mol
# GULP energy per Si atom -5579.372400 kJ/mol
# Density = 2.371194 g / cm^3
# Si number density = 23.766036 Si / 1000 Ang^3
#
#
#
# Elastic Constant Matrix: (Units=GPa)
#
#
# Indices 1 2 3 4 5 6 
#
# 1 121.4308 45.0712 32.0185 -11.9923 -23.2073 -1.2153
# 2 45.0712 106.4594 27.1270 -5.2108 -14.6771 0.5303
# 3 32.0185 27.1270 70.2508 -3.3226 -26.2682 2.2584
# 4 -11.9923 -5.2108 -3.3226 45.7812 5.2767 -4.1155
# 5 -23.2073 -14.6771 -26.2682 5.2767 47.8493 -1.0794
# 6 -1.2153 0.5303 2.2584 -4.1155 -1.0794 36.5656
#
#
#
# Elastic Compliance Matrix: (Units=1/GPa)
#
#
# Indices 1 2 3 4 5 6 
#
# 1 0.010929 -0.003514 -0.002584 0.002055 0.002597 0.000882
# 2 -0.003514 0.011638 -0.002758 0.000158 0.000332 -0.000088
# 3 -0.002584 -0.002758 0.019773 -0.000668 0.008805 -0.001082
# 4 0.002055 0.000158 -0.000668 0.022791 -0.001776 0.002620
# 5 0.002597 0.000332 0.008805 -0.001776 0.027293 0.000144
# 6 0.000882 -0.000088 -0.001082 0.002620 0.000144 0.027745
#
#
# Mechanical properties :
#
#
# Convention : Reuss Voigt Hill
#
# Bulk Modulus (GPa) = 40.60501 56.28603 48.44552
# Shear Modulus (GPa) = 34.22548 38.96751 36.59650
#
# Velocity S-wave (km/s) = 3.79898 4.05363 3.92837
# Velocity P-wave (km/s) = 6.03038 6.75603 6.40349
#
# Compressibility (1/GPa) = 0.02462750
#
# Stress axis : x y z
#
# Youngs Moduli (GPa) = 91.49907 85.92778 50.57422
#
# Poissons Ratio (x) = 0.30197 0.13069
# Poissons Ratio (y) = 0.32155 0.13947
# Poissons Ratio (z) = 0.23644 0.23697
#
# Static dielectric constant tensor:
#      x y z
#    x 1.941380 0.039360 0.126660 
#    y 0.039360 1.992890 0.093050 
#    z 0.126660 0.093050 2.157450 
# 
# From -- ./inp_files/510895.got.cif
#   From: 2010.05.17/outbox.cif.g08.bks.cpg/sg2_256_cif.got.tgz:510895.got - 2010.06.03 11:33:40.
