data_PCOD9029437
_publ_section_title
;
Structure prediction by ZEFSAII (Michael W. Deem and Ramdas Pophale) SiO2 
 PCOD9029437
Probable space group: P -1
;
_chemical_formula_sum "Si O2"
_cell_formula_units_Z 14
_cell_length_a 12.649105
_cell_length_b 9.390933
_cell_length_c 9.457423
_cell_angle_alpha 87.770391
_cell_angle_beta 82.529827
_cell_angle_gamma 36.829142
_cell_volume 663.671105
_symmetry_space_group_name_H-M "P -1"
_symmetry_group_IT_number 2
_symmetry_cell_setting 'triclinic'
loop_
_space_group_symop_operation_xyz
x,y,z
-x,-y,-z
loop_
_atom_site_type_symbol
_atom_site_label
_atom_site_fract_x
_atom_site_fract_y
_atom_site_fract_z
Si Si1 0.662155 0.359825 0.082301
Si Si2 0.206382 0.820473 0.437418
Si Si3 0.159652 0.020210 0.141341
Si Si4 0.433357 0.719921 0.630989
Si Si5 0.686224 0.837504 0.896114
Si Si6 0.785965 0.537554 0.120445
Si Si7 0.518918 0.012184 0.331116
O O1 0.619590 0.342144 0.243142
O O2 0.694542 0.492078 0.081267
O O3 0.500000 0.500000 0.000000
O O4 0.822370 0.098774 0.994037
O O5 0.294152 0.847176 0.522203
O O6 0.358662 0.533536 0.436813
O O7 0.207029 0.877711 0.275666
O O8 0.000000 0.000000 0.500000
O O9 0.280653 0.030677 0.106681
O O10 0.962522 0.294750 0.175822
O O11 0.421820 0.887582 0.694239
O O12 0.659020 0.819888 0.739447
O O13 0.822929 0.599406 0.976130
O O14 0.500000 0.000000 0.000000
O O15 0.662546 0.753601 0.244298
O O16 0.500000 0.000000 0.500000
#
# Coordination Sequence:
#
# PCOD9029437 Si02
#       7
#     2   2   2   2   2   2   2
#     4  12  22  42  71  98 130 179 231 272 345 405
#     4  11  26  45  71 103 140 178 235 283 338 410
#     4  12  24  44  70 101 135 175 228 288 343 402
#     4  11  25  45  72  96 140 185 226 284 344 404
#     4  10  22  42  67  94 135 174 222 272 338 411
#     4  11  25  42  66 102 138 170 222 294 337 405
#     4  11  24  43  67  95 133 184 229 264 346 413
#
# _framework density 21.094787
#
# number of rings (size 3 to 8) (size 9 to 14) (size 15 to 20)
#    0.000    0.857    1.429    6.857    6.000    0.000 
#    2.571    1.429    0.000    0.000    0.000    0.000 
#    0.000    0.000    0.000    0.000    0.000    0.000 
#
# Total GULP energy -78241.732780 kJ/mol
# GULP energy per Si atom -5588.695199 kJ/mol
# Density = 2.104677 g / cm^3
# Si number density = 21.094787 Si / 1000 Ang^3
#
#
#
# Elastic Constant Matrix: (Units=GPa)
#
#
# Indices 1 2 3 4 5 6 
#
# 1 132.2408 46.3493 19.3982 18.4202 10.4404 10.0337
# 2 46.3493 97.1150 28.9340 10.8539 12.1148 -0.5328
# 3 19.3982 28.9340 108.6886 3.3075 6.8660 -4.4303
# 4 18.4202 10.8539 3.3075 32.6606 5.7859 11.8508
# 5 10.4404 12.1148 6.8660 5.7859 35.4124 -0.6170
# 6 10.0337 -0.5328 -4.4303 11.8508 -0.6170 38.1188
#
#
#
# Elastic Compliance Matrix: (Units=1/GPa)
#
#
# Indices 1 2 3 4 5 6 
#
# 1 0.009703 -0.003985 -0.000582 -0.003335 -0.000868 -0.001655
# 2 -0.003985 0.013539 -0.002603 -0.002090 -0.002584 0.001544
# 3 -0.000582 -0.002603 0.010110 -0.000162 -0.000848 0.001329
# 4 -0.003335 -0.002090 -0.000162 0.038059 -0.004682 -0.011078
# 5 -0.000868 -0.002584 -0.000848 -0.004682 0.030344 0.002040
# 6 -0.001655 0.001544 0.001329 -0.011078 0.002040 0.030322
#
#
# Mechanical properties :
#
#
# Convention : Reuss Voigt Hill
#
# Bulk Modulus (GPa) = 52.60104 58.60085 55.60094
# Shear Modulus (GPa) = 32.73218 37.46257 35.09737
#
# Velocity S-wave (km/s) = 3.94340 4.21873 4.08339
# Velocity P-wave (km/s) = 6.76192 7.18125 6.97474
#
# Compressibility (1/GPa) = 0.01901103
#
# Stress axis : x y z
#
# Youngs Moduli (GPa) = 103.06320 73.85971 98.91070
#
# Poissons Ratio (x) = 0.29437 0.05755
# Poissons Ratio (y) = 0.41076 0.25748
# Poissons Ratio (z) = 0.05997 0.19227
#
# Static dielectric constant tensor:
#      x y z
#    x 1.765360 -0.023520 -0.000040 
#    y -0.023520 1.911240 0.018050 
#    z -0.000040 0.018050 1.773280 
# 
# From -- ./inp_files/244000.got.cif
#   From: 2010.05.17/outbox.cif.g08.bks.cpg/sg2_122_cif.got.tgz:244000.got - 2010.06.03 11:33:40.
