data_PCOD9029066
_publ_section_title
;
Structure prediction by ZEFSAII (Michael W. Deem and Ramdas Pophale) SiO2 
 PCOD9029066
Probable space group: P -1
;
_chemical_formula_sum "Si O2"
_cell_formula_units_Z 16
_cell_length_a 16.813833
_cell_length_b 5.267062
_cell_length_c 20.566390
_cell_angle_alpha 77.534763
_cell_angle_beta 24.490353
_cell_angle_gamma 66.463237
_cell_volume 637.901114
_symmetry_space_group_name_H-M "P -1"
_symmetry_group_IT_number 2
_symmetry_cell_setting 'triclinic'
loop_
_space_group_symop_operation_xyz
x,y,z
-x,-y,-z
loop_
_atom_site_type_symbol
_atom_site_label
_atom_site_fract_x
_atom_site_fract_y
_atom_site_fract_z
Si Si1 0.549538 0.885264 0.331487
Si Si2 0.524723 0.054894 0.193477
Si Si3 0.572292 0.490165 0.054770
Si Si4 0.082592 0.380937 0.172905
Si Si5 0.261911 0.727353 0.630341
Si Si6 0.257610 0.902107 0.173472
Si Si7 0.807395 0.167381 0.185666
Si Si8 0.939142 0.825654 0.501812
O O1 0.319852 0.918637 0.526750
O O2 0.706532 0.523472 0.230478
O O3 0.551292 0.013897 0.252674
O O4 0.639242 0.043813 0.304649
O O5 0.470372 0.384435 0.192698
O O6 0.319249 0.010412 0.331386
O O7 0.738154 0.829292 0.004500
O O8 0.422139 0.824385 0.117457
O O9 0.818081 0.404757 0.897529
O O10 0.597992 0.288451 0.984473
O O11 0.852162 0.436338 0.312141
O O12 0.115064 0.224497 0.228366
O O13 0.500000 0.500000 0.500000
O O14 0.119901 0.898700 0.789837
O O15 0.087431 0.799509 0.330745
O O16 0.000000 0.000000 0.000000
O O17 0.000000 0.500000 0.500000
O O18 0.000000 0.000000 0.500000
#
# Coordination Sequence:
#
# PCOD9029066 Si02
#       8
#     2   2   2   2   2   2   2   2
#     4  11  25  46  72 109 143 191 241 305 369 447
#     4  11  25  44  66 109 144 189 249 298 365 441
#     4  10  22  42  70  99 147 188 240 301 357 434
#     4  11  23  43  72 102 140 193 251 302 366 444
#     4  10  24  50  71 107 145 193 246 313 378 444
#     4  10  22  42  66 106 139 191 241 294 364 424
#     4  11  24  47  77 107 146 187 240 307 381 443
#     4  12  26  43  69 100 145 193 239 295 366 428
#
# _framework density 25.082257999999999
#
# number of rings (size 3 to 8) (size 9 to 14) (size 15 to 20)
#    0.000    1.250    1.250    3.375    3.500    1.000 
#   22.500    0.000    0.000    0.000    0.000    0.000 
#    0.000    0.000    0.000    0.000    0.000    0.000 
#
# Total GULP energy -89470.231568 kJ/mol
# GULP energy per Si atom -5591.889473 kJ/mol
# Density = 2.502517 g / cm^3
# Si number density = 25.082258 Si / 1000 Ang^3
#
#
#
# Elastic Constant Matrix: (Units=GPa)
#
#
# Indices 1 2 3 4 5 6 
#
# 1 146.6275 67.7274 39.5056 -19.9988 -10.3116 -10.5491
# 2 67.7274 105.6460 31.8435 -24.8274 4.6482 2.3848
# 3 39.5056 31.8435 127.2328 -27.5055 -3.2707 -17.1656
# 4 -19.9988 -24.8274 -27.5055 42.3115 -1.9279 6.1746
# 5 -10.3116 4.6482 -3.2707 -1.9279 64.8034 -17.3784
# 6 -10.5491 2.3848 -17.1656 6.1746 -17.3784 39.3999
#
#
#
# Elastic Compliance Matrix: (Units=1/GPa)
#
#
# Indices 1 2 3 4 5 6 
#
# 1 0.010807 -0.006894 -0.000966 -0.000051 0.003335 0.004369
# 2 -0.006894 0.016025 -0.001515 0.005872 -0.003773 -0.006061
# 3 -0.000966 -0.001515 0.010188 0.004729 0.001766 0.004309
# 4 -0.000051 0.005872 0.004729 0.030585 -0.000128 -0.003158
# 5 0.003335 -0.003773 0.001766 -0.000128 0.019088 0.010330
# 6 0.004369 -0.006061 0.004309 -0.003158 0.010330 0.033846
#
#
# Mechanical properties :
#
#
# Convention : Reuss Voigt Hill
#
# Bulk Modulus (GPa) = 54.73857 73.07327 63.90592
# Shear Modulus (GPa) = 34.39308 45.33161 39.86234
#
# Velocity S-wave (km/s) = 3.70700 4.25587 3.99088
# Velocity P-wave (km/s) = 6.33983 7.30387 6.83886
#
# Compressibility (1/GPa) = 0.01826865
#
# Stress axis : x y z
#
# Youngs Moduli (GPa) = 92.53648 62.40368 98.15675
#
# Poissons Ratio (x) = 0.43022 0.09480
# Poissons Ratio (y) = 0.63795 0.14874
# Poissons Ratio (z) = 0.08937 0.09456
#
# Static dielectric constant tensor:
#      x y z
#    x 1.964970 -0.024390 -0.019630 
#    y -0.024390 2.143480 0.106380 
#    z -0.019630 0.106380 2.054850 
# 
# From -- ./inp_files/571657.got.cif
#   From: 2010.05.17/outbox.cif.g08.bks.cpg/sg2_286_cif.got.tgz:571657.got - 2010.06.03 11:33:40.
