data_PCOD9029842
_publ_section_title
;
Structure prediction by ZEFSAII (Michael W. Deem and Ramdas Pophale) SiO2 
 PCOD9029842
Probable space group: P -1
;
_chemical_formula_sum "Si O2"
_cell_formula_units_Z 16
_cell_length_a 19.216915
_cell_length_b 9.911467
_cell_length_c 24.594242
_cell_angle_alpha 150.832276
_cell_angle_beta 17.783517
_cell_angle_gamma 141.603901
_cell_volume 660.456087
_symmetry_space_group_name_H-M "P -1"
_symmetry_group_IT_number 2
_symmetry_cell_setting 'triclinic'
loop_
_space_group_symop_operation_xyz
x,y,z
-x,-y,-z
loop_
_atom_site_type_symbol
_atom_site_label
_atom_site_fract_x
_atom_site_fract_y
_atom_site_fract_z
Si Si1 0.770010 0.616417 0.920429
Si Si2 0.234515 0.492949 0.472107
Si Si3 0.632500 0.043796 0.092693
Si Si4 0.458797 0.111852 0.631364
Si Si5 0.814424 0.814158 0.762837
Si Si6 0.252812 0.931070 0.203990
Si Si7 0.472097 0.505022 0.458576
Si Si8 0.941018 0.699791 0.933084
O O1 0.823717 0.273396 0.768766
O O2 0.749552 0.724064 0.035554
O O3 0.004368 0.670875 0.740027
O O4 0.578559 0.784979 0.076829
O O5 0.419188 0.273171 0.298646
O O6 0.363278 0.704666 0.424537
O O7 0.169696 0.268226 0.401550
O O8 0.661106 0.252972 0.194299
O O9 0.812563 0.905470 0.859719
O O10 0.500000 0.000000 0.500000
O O11 0.493052 0.813064 0.532535
O O12 0.191817 0.322396 0.919946
O O13 0.000000 0.500000 0.500000
O O14 0.834437 0.057607 0.789585
O O15 0.543301 0.810735 0.950423
O O16 0.500000 0.500000 0.500000
O O17 0.201168 0.482409 0.645714
O O18 0.000000 0.000000 0.000000
#
# Coordination Sequence:
#
# PCOD9029842 Si02
#       8
#     2   2   2   2   2   2   2   2
#     4  12  24  43  70  99 139 188 232 284 356 409
#     4  11  23  45  68 104 139 181 240 288 351 419
#     4  11  23  42  70 101 139 185 239 284 343 425
#     4  11  22  42  73  93 141 185 222 297 357 408
#     4  10  23  45  66 102 147 179 241 290 349 412
#     4  10  25  42  70  99 143 190 231 291 352 417
#     4  11  23  47  70 107 141 180 238 290 347 431
#     4  10  22  42  68  96 136 180 227 290 352 412
#
# _framework density 24.225684000000001
#
# number of rings (size 3 to 8) (size 9 to 14) (size 15 to 20)
#    0.000    1.250    2.500    3.375    5.250    3.000 
#    2.250    1.250    0.000    0.000    0.000    0.000 
#    0.000    0.000    0.000    0.000    0.000    0.000 
#
# Total GULP energy -89265.364709 kJ/mol
# GULP energy per Si atom -5579.085294 kJ/mol
# Density = 2.417055 g / cm^3
# Si number density = 24.225684 Si / 1000 Ang^3
#
#
#
# Elastic Constant Matrix: (Units=GPa)
#
#
# Indices 1 2 3 4 5 6 
#
# 1 121.5623 43.5692 30.8259 10.8383 31.4567 -39.2822
# 2 43.5692 144.1934 39.4521 5.5021 8.9758 -25.6726
# 3 30.8259 39.4521 152.3412 6.9309 29.6874 -7.0315
# 4 10.8383 5.5021 6.9309 38.2813 0.0722 1.2796
# 5 31.4567 8.9758 29.6874 0.0722 42.1056 1.7460
# 6 -39.2822 -25.6726 -7.0315 1.2796 1.7460 44.2740
#
#
#
# Elastic Compliance Matrix: (Units=1/GPa)
#
#
# Indices 1 2 3 4 5 6 
#
# 1 0.017859 -0.001671 0.000514 -0.005407 -0.013989 0.015667
# 2 -0.001671 0.008475 -0.001802 -0.000525 0.000582 0.003138
# 3 0.000514 -0.001802 0.008164 -0.001386 -0.005794 0.000977
# 4 -0.005407 -0.000525 -0.001386 0.028182 0.005344 -0.006347
# 5 -0.013989 0.000582 -0.005794 0.005344 0.038762 -0.014678
# 6 0.015667 0.003138 0.000977 -0.006347 -0.014678 0.039224
#
#
# Mechanical properties :
#
#
# Convention : Reuss Voigt Hill
#
# Bulk Modulus (GPa) = 34.98635 71.75458 53.37047
# Shear Modulus (GPa) = 32.02875 45.21550 38.62213
#
# Velocity S-wave (km/s) = 3.64001 4.32490 3.99715
# Velocity P-wave (km/s) = 5.66917 7.39075 6.58645
#
# Compressibility (1/GPa) = 0.02858257
#
# Stress axis : x y z
#
# Youngs Moduli (GPa) = 55.99357 117.98890 122.48768
#
# Poissons Ratio (x) = 0.19710 -0.06297
# Poissons Ratio (y) = 0.09354 0.22067
# Poissons Ratio (z) = -0.02879 0.21257
#
# Static dielectric constant tensor:
#      x y z
#    x 1.999470 -0.132070 0.003200 
#    y -0.132070 1.755300 0.042840 
#    z 0.003200 0.042840 2.024550 
# 
# From -- ./inp_files/613626.got.cif
#   From: 2010.05.17/outbox.cif.g08.bks.cpg/sg2_307_cif.got.tgz:613626.got - 2010.06.03 11:33:40.
