data_PCOD9029149
_publ_section_title
;
Structure prediction by ZEFSAII (Michael W. Deem and Ramdas Pophale) SiO2 
 PCOD9029149
Probable space group: P -1
;
_chemical_formula_sum "Si O2"
_cell_formula_units_Z 10
_cell_length_a 7.112732
_cell_length_b 7.960136
_cell_length_c 12.083264
_cell_angle_alpha 90.968541
_cell_angle_beta 52.511878
_cell_angle_gamma 53.289722
_cell_volume 348.638191
_symmetry_space_group_name_H-M "P -1"
_symmetry_group_IT_number 2
_symmetry_cell_setting 'triclinic'
loop_
_space_group_symop_operation_xyz
x,y,z
-x,-y,-z
loop_
_atom_site_type_symbol
_atom_site_label
_atom_site_fract_x
_atom_site_fract_y
_atom_site_fract_z
Si Si1 0.001480 0.646322 0.742239
Si Si2 0.726080 0.287587 0.149007
Si Si3 0.269206 0.003963 0.369054
Si Si4 0.502561 0.180496 0.403789
Si Si5 0.091524 0.618243 0.114845
O O1 0.082716 0.712567 0.820618
O O2 0.373771 0.358737 0.555321
O O3 0.765051 0.611658 0.863524
O O4 0.844884 0.846440 0.703220
O O5 0.438632 0.332844 0.321444
O O6 0.651560 0.452728 0.075537
O O7 0.000000 0.000000 0.000000
O O8 0.259674 0.146885 0.472717
O O9 0.714862 0.742202 0.197532
O O10 0.000000 0.000000 0.500000
O O11 0.910863 0.879236 0.243453
#
# Coordination Sequence:
#
# PCOD9029149 Si02
#       5
#     2   2   2   2   2
#     4  12  22  41  72  90 125 180 202 258 329 362
#     4  10  22  42  66  94 129 167 210 264 313 378
#     4  10  25  40  63  98 131 158 219 264 302 381
#     4   9  22  41  66  97 127 162 216 259 308 383
#     4   9  23  42  63  94 134 156 215 258 313 374
#
# _framework density 28.683032000000001
#
# number of rings (size 3 to 8) (size 9 to 14) (size 15 to 20)
#    1.200    0.800    0.000    2.400    5.600    2.400 
#    0.000    1.000    0.000    0.000    0.000    0.000 
#    0.000    0.000    0.000    0.000    0.000    0.000 
#
# Total GULP energy -55997.916361 kJ/mol
# GULP energy per Si atom -5599.791636 kJ/mol
# Density = 2.861775 g / cm^3
# Si number density = 28.683032 Si / 1000 Ang^3
#
#
#
# Elastic Constant Matrix: (Units=GPa)
#
#
# Indices 1 2 3 4 5 6 
#
# 1 127.4220 64.1704 69.2702 11.7380 -6.2764 22.7494
# 2 64.1704 171.0604 67.2346 -40.9131 -4.5753 1.8926
# 3 69.2702 67.2346 164.2044 -45.5563 13.8930 14.7646
# 4 11.7380 -40.9131 -45.5563 79.8379 17.4726 -3.2840
# 5 -6.2764 -4.5753 13.8930 17.4726 65.1777 2.5494
# 6 22.7494 1.8926 14.7646 -3.2840 2.5494 47.0701
#
#
#
# Elastic Compliance Matrix: (Units=1/GPa)
#
#
# Indices 1 2 3 4 5 6 
#
# 1 0.018595 -0.006335 -0.008726 -0.012771 0.006914 -0.007261
# 2 -0.006335 0.009530 0.000505 0.006658 -0.001955 0.003091
# 3 -0.008726 0.000505 0.012854 0.010319 -0.006359 0.001229
# 4 -0.012771 0.006658 0.010319 0.026135 -0.010165 0.005042
# 5 0.006914 -0.001955 -0.006359 -0.010165 0.020072 -0.003064
# 6 -0.007261 0.003091 0.001229 0.005042 -0.003064 0.024762
#
#
# Mechanical properties :
#
#
# Convention : Reuss Voigt Hill
#
# Bulk Modulus (GPa) = 84.26043 96.00414 90.13228
# Shear Modulus (GPa) = 34.47873 55.88459 45.18166
#
# Velocity S-wave (km/s) = 3.47084 4.41880 3.97319
# Velocity P-wave (km/s) = 6.74555 7.71866 7.24846
#
# Compressibility (1/GPa) = 0.01186797
#
# Stress axis : x y z
#
# Youngs Moduli (GPa) = 53.77655 104.93235 77.79409
#
# Poissons Ratio (x) = 0.66479 0.67881
# Poissons Ratio (y) = 0.34070 -0.03931
# Poissons Ratio (z) = 0.46924 -0.05302
#
# Static dielectric constant tensor:
#      x y z
#    x 2.247680 -0.015570 -0.000070 
#    y -0.015570 2.294960 -0.030960 
#    z -0.000070 -0.030960 2.211900 
# 
# From -- ./inp_files/149688.got.cif
#   From: 2010.05.17/outbox.cif.g08.bks.cpg/sg2_75_cif.got.tgz:149688.got - 2010.06.03 11:33:40.
