data_PCOD9029050
_publ_section_title
;
Structure prediction by ZEFSAII (Michael W. Deem and Ramdas Pophale) SiO2 
 PCOD9029050
Probable space group: P -1
;
_chemical_formula_sum "Si O2"
_cell_formula_units_Z 14
_cell_length_a 21.764334
_cell_length_b 15.619526
_cell_length_c 13.098127
_cell_angle_alpha 27.487561
_cell_angle_beta 28.441814
_cell_angle_gamma 19.037739
_cell_volume 645.401629
_symmetry_space_group_name_H-M "P -1"
_symmetry_group_IT_number 2
_symmetry_cell_setting 'triclinic'
loop_
_space_group_symop_operation_xyz
x,y,z
-x,-y,-z
loop_
_atom_site_type_symbol
_atom_site_label
_atom_site_fract_x
_atom_site_fract_y
_atom_site_fract_z
Si Si1 0.331142 0.486400 0.019733
Si Si2 0.261766 0.834230 0.579578
Si Si3 0.926043 0.773472 0.368932
Si Si4 0.606482 0.725832 0.198334
Si Si5 0.513686 0.094198 0.585246
Si Si6 0.969670 0.097198 0.323955
Si Si7 0.612211 0.419964 0.817161
O O1 0.112055 0.705316 0.153097
O O2 0.429723 0.180343 0.220915
O O3 0.288654 0.608934 0.838367
O O4 0.479442 0.472318 0.867072
O O5 0.474904 0.688488 0.408300
O O6 0.147036 0.930742 0.540782
O O7 0.144202 0.102856 0.543544
O O8 0.000000 0.500000 0.500000
O O9 0.714468 0.997926 0.385632
O O10 0.573211 0.804886 0.281588
O O11 0.832061 0.428032 0.168698
O O12 0.500000 0.000000 0.000000
O O13 0.368982 0.376033 0.432154
O O14 0.000000 0.000000 0.500000
O O15 0.174909 0.896418 0.178156
O O16 0.500000 0.500000 0.000000
#
# Coordination Sequence:
#
# PCOD9029050 Si02
#       7
#     2   2   2   2   2   2   2
#     4  11  21  42  72  98 139 189 237 295 356 429
#     4  11  22  41  72 100 132 190 246 291 359 427
#     4   9  19  36  68 103 134 175 239 297 343 415
#     4  11  23  46  71 101 138 182 249 299 343 431
#     4  10  22  42  66 103 138 177 244 299 343 428
#     4  12  25  45  70 100 147 190 235 298 368 426
#     4  12  26  45  68 102 151 186 233 301 370 426
#
# _framework density 21.69192
#
# number of rings (size 3 to 8) (size 9 to 14) (size 15 to 20)
#    0.000    1.143    4.286    2.571    2.000    1.714 
#    7.714    1.429    0.000    0.000    0.000    0.000 
#    0.000    0.000    0.000    0.000    0.000    0.000 
#
# Total GULP energy -77964.659169 kJ/mol
# GULP energy per Si atom -5568.904226 kJ/mol
# Density = 2.164255 g / cm^3
# Si number density = 21.691920 Si / 1000 Ang^3
#
#
#
# Elastic Constant Matrix: (Units=GPa)
#
#
# Indices 1 2 3 4 5 6 
#
# 1 56.8792 9.7345 10.3584 -12.4923 10.4425 -1.6496
# 2 9.7345 192.6104 65.3509 -10.5881 -0.3536 8.6837
# 3 10.3584 65.3509 85.1583 -16.6977 17.3797 5.0505
# 4 -12.4923 -10.5881 -16.6977 45.6330 2.5410 -6.1903
# 5 10.4425 -0.3536 17.3797 2.5410 40.5231 1.0544
# 6 -1.6496 8.6837 5.0505 -6.1903 1.0544 22.2167
#
#
#
# Elastic Compliance Matrix: (Units=1/GPa)
#
#
# Indices 1 2 3 4 5 6 
#
# 1 0.020264 -0.001058 0.000590 0.006372 -0.005984 0.003844
# 2 -0.001058 0.007432 -0.006373 -0.001356 0.003210 -0.002065
# 3 0.000590 -0.006373 0.019649 0.006415 -0.009044 0.000285
# 4 0.006372 -0.001356 0.006415 0.027042 -0.006293 0.007379
# 5 -0.005984 0.003210 -0.009044 -0.006293 0.030595 -0.002848
# 6 0.003844 -0.002065 0.000285 0.007379 -0.002848 0.048230
#
#
# Mechanical properties :
#
#
# Convention : Reuss Voigt Hill
#
# Bulk Modulus (GPa) = 29.70694 56.17060 42.93877
# Shear Modulus (GPa) = 28.07156 38.28817 33.17987
#
# Velocity S-wave (km/s) = 3.60127 4.20585 3.91525
# Velocity P-wave (km/s) = 5.56927 7.03822 6.34639
#
# Compressibility (1/GPa) = 0.03366216
#
# Stress axis : x y z
#
# Youngs Moduli (GPa) = 49.34758 134.55088 50.89408
#
# Poissons Ratio (x) = 0.14240 -0.03003
# Poissons Ratio (y) = 0.05223 0.32436
# Poissons Ratio (z) = -0.02912 0.85752
#
# Static dielectric constant tensor:
#      x y z
#    x 1.816860 -0.005100 0.009420 
#    y -0.005100 1.854080 -0.017430 
#    z 0.009420 -0.017430 1.821490 
# 
# From -- ./inp_files/471834.got.cif
#   From: 2010.05.17/outbox.cif.g08.bks.cpg/sg2_236_cif.got.tgz:471834.got - 2010.06.03 11:33:40.
