data_PCOD9029823
_publ_section_title
;
Structure prediction by ZEFSAII (Michael W. Deem and Ramdas Pophale) SiO2 
 PCOD9029823
Probable space group: P -1
;
_chemical_formula_sum "Si O2"
_cell_formula_units_Z 16
_cell_length_a 9.113629
_cell_length_b 21.772485
_cell_length_c 12.596354
_cell_angle_alpha 139.019677
_cell_angle_beta 143.962961
_cell_angle_gamma 29.833453
_cell_volume 719.209831
_symmetry_space_group_name_H-M "P -1"
_symmetry_group_IT_number 2
_symmetry_cell_setting 'triclinic'
loop_
_space_group_symop_operation_xyz
x,y,z
-x,-y,-z
loop_
_atom_site_type_symbol
_atom_site_label
_atom_site_fract_x
_atom_site_fract_y
_atom_site_fract_z
Si Si1 0.306886 0.804870 0.414478
Si Si2 0.822505 0.027429 0.820525
Si Si3 0.716021 0.245717 0.329161
Si Si4 0.269906 0.469650 0.795409
Si Si5 0.097102 0.096166 0.893301
Si Si6 0.890786 0.574518 0.923990
Si Si7 0.226881 0.266468 0.228833
Si Si8 0.945770 0.758674 0.293987
O O1 0.535125 0.664873 0.316633
O O2 0.560727 0.802347 0.629903
O O3 0.053852 0.821337 0.371430
O O4 0.083195 0.898897 0.310590
O O5 0.430215 0.138074 0.750864
O O6 0.946640 0.893893 0.683136
O O7 0.962881 0.068708 0.875008
O O8 0.000000 0.000000 0.000000
O O9 0.500696 0.332304 0.215562
O O10 0.481112 0.228987 0.232521
O O11 0.807063 0.303907 0.541919
O O12 0.083854 0.489052 0.821748
O O13 0.002519 0.583828 0.707695
O O14 0.500000 0.500000 0.000000
O O15 0.015585 0.226919 0.028512
O O16 0.500000 0.000000 0.000000
O O17 0.973585 0.662759 0.108703
O O18 0.000000 0.500000 0.000000
#
# Coordination Sequence:
#
# PCOD9029823 Si02
#       8
#     2   2   2   2   2   2   2   2
#     4  11  23  43  66  96 126 165 216 267 312 372
#     4  12  24  43  67  92 129 175 207 255 323 378
#     4  10  22  45  65  92 127 167 214 261 313 382
#     4  11  20  40  69  90 126 168 211 261 320 373
#     4  12  24  42  65  94 131 163 213 264 311 375
#     4  11  24  41  64  95 129 168 211 260 317 374
#     4  10  22  42  68  96 124 165 214 266 319 369
#     4  11  23  42  67  92 129 171 208 258 321 378
#
# _framework density 22.246637
#
# number of rings (size 3 to 8) (size 9 to 14) (size 15 to 20)
#    0.000    1.000    5.000    2.250    1.750    1.000 
#    4.500    0.000    0.000    0.000    0.000    0.000 
#    0.000    0.000    0.000    0.000    0.000    0.000 
#
# Total GULP energy -89447.384846 kJ/mol
# GULP energy per Si atom -5590.461553 kJ/mol
# Density = 2.219600 g / cm^3
# Si number density = 22.246637 Si / 1000 Ang^3
#
#
#
# Elastic Constant Matrix: (Units=GPa)
#
#
# Indices 1 2 3 4 5 6 
#
# 1 87.5780 32.1412 24.2612 -25.7036 -11.7488 -1.8383
# 2 32.1412 75.2396 11.1711 -11.2863 -8.4627 -4.0745
# 3 24.2612 11.1711 123.2839 -26.6780 -25.8442 15.1889
# 4 -25.7036 -11.2863 -26.6780 33.7806 7.1209 -17.4558
# 5 -11.7488 -8.4627 -25.8442 7.1209 28.1191 -13.7976
# 6 -1.8383 -4.0745 15.1889 -17.4558 -13.7976 26.3159
#
#
#
# Elastic Compliance Matrix: (Units=1/GPa)
#
#
# Indices 1 2 3 4 5 6 
#
# 1 0.023687 -0.002163 0.002342 0.030789 0.018320 0.029996
# 2 -0.002163 0.017379 0.001439 0.010294 0.009736 0.013642
# 3 0.002342 0.001439 0.012307 0.014238 0.014077 0.010108
# 4 0.030789 0.010294 0.014238 0.103742 0.046245 0.088587
# 5 0.018320 0.009736 0.014077 0.046245 0.080524 0.067557
# 6 0.029996 0.013642 0.010108 0.088587 0.067557 0.130555
#
#
# Mechanical properties :
#
#
# Convention : Reuss Voigt Hill
#
# Bulk Modulus (GPa) = 17.66515 46.80539 32.23527
# Shear Modulus (GPa) = 13.02665 32.21165 22.61915
#
# Velocity S-wave (km/s) = 2.42245 3.80930 3.19210
# Velocity P-wave (km/s) = 3.97268 6.35867 5.30164
#
# Compressibility (1/GPa) = 0.05660863
#
# Stress axis : x y z
#
# Youngs Moduli (GPa) = 42.21689 57.53970 81.25653
#
# Poissons Ratio (x) = 0.12446 -0.19031
# Poissons Ratio (y) = 0.09132 -0.11691
# Poissons Ratio (z) = -0.09887 -0.08278
#
# Static dielectric constant tensor:
#      x y z
#    x 1.792100 -0.007850 -0.023400 
#    y -0.007850 1.904950 -0.002630 
#    z -0.023400 -0.002630 1.825270 
# 
# From -- ./inp_files/305996.got.cif
#   From: 2010.05.17/outbox.cif.g08.bks.cpg/sg2_153_cif.got.tgz:305996.got - 2010.06.03 11:33:40.
