data_PCOD9029599
_publ_section_title
;
Structure prediction by ZEFSAII (Michael W. Deem and Ramdas Pophale) SiO2 
 PCOD9029599
Probable space group: P -1
;
_chemical_formula_sum "Si O2"
_cell_formula_units_Z 16
_cell_length_a 12.864696
_cell_length_b 29.489159
_cell_length_c 10.032088
_cell_angle_alpha 155.152795
_cell_angle_beta 146.259955
_cell_angle_gamma 21.832329
_cell_volume 593.320816
_symmetry_space_group_name_H-M "P -1"
_symmetry_group_IT_number 2
_symmetry_cell_setting 'triclinic'
loop_
_space_group_symop_operation_xyz
x,y,z
-x,-y,-z
loop_
_atom_site_type_symbol
_atom_site_label
_atom_site_fract_x
_atom_site_fract_y
_atom_site_fract_z
Si Si1 0.186495 0.275017 0.432933
Si Si2 0.340870 0.199591 0.015417
Si Si3 0.471748 0.725119 0.356261
Si Si4 0.165461 0.641822 0.493701
Si Si5 0.687335 0.183644 0.138919
Si Si6 0.250607 0.060175 0.725851
Si Si7 0.157077 0.877934 0.152325
Si Si8 0.758507 0.401485 0.846019
O O1 0.241283 0.363754 0.655371
O O2 0.964162 0.378401 0.587700
O O3 0.478003 0.108619 0.365445
O O4 0.131782 0.205661 0.080182
O O5 0.506063 0.192328 0.288325
O O6 0.474367 0.194485 0.013341
O O7 0.352335 0.067918 0.715912
O O8 0.002741 0.351275 0.059737
O O9 0.262910 0.823852 0.272673
O O10 0.497975 0.593743 0.088569
O O11 0.500000 0.500000 0.500000
O O12 0.128064 0.639262 0.292491
O O13 0.015331 0.822671 0.839773
O O14 0.685986 0.305711 0.525095
O O15 0.643154 0.211807 0.006577
O O16 0.000000 0.000000 0.000000
O O17 0.039669 0.049422 0.466972
#
# Coordination Sequence:
#
# PCOD9029599 Si02
#       8
#     2   2   2   2   2   2   2   2
#     4   9  21  39  67  98 129 172 225 280 335 403
#     4  11  25  45  70  97 137 182 224 282 340 410
#     4  10  22  46  69  97 128 176 234 273 337 400
#     4  11  23  41  62 101 140 172 221 281 345 402
#     4  11  27  45  65 102 140 178 225 276 349 409
#     4   9  20  42  66  95 129 174 227 275 335 397
#     4  10  22  42  67  99 134 172 227 280 335 405
#     4  11  25  44  68  97 137 180 225 280 342 407
#
# _framework density 26.966861999999999
#
# number of rings (size 3 to 8) (size 9 to 14) (size 15 to 20)
#    0.000    1.750    1.250    1.875    7.000    4.500 
#    6.750    0.000    0.000    0.000    0.000    0.000 
#    0.000    0.000    0.000    0.000    0.000    0.000 
#
# Total GULP energy -89380.009240 kJ/mol
# GULP energy per Si atom -5586.250578 kJ/mol
# Density = 2.690548 g / cm^3
# Si number density = 26.966862 Si / 1000 Ang^3
#
#
#
# Elastic Constant Matrix: (Units=GPa)
#
#
# Indices 1 2 3 4 5 6 
#
# 1 122.5980 18.2535 10.3331 -8.2886 0.7235 17.0742
# 2 18.2535 104.6024 33.4316 0.9230 4.4286 7.6458
# 3 10.3331 33.4316 129.1686 7.5782 19.1564 18.5781
# 4 -8.2886 0.9230 7.5782 43.6593 17.8194 7.5889
# 5 0.7235 4.4286 19.1564 17.8194 49.6112 -0.8032
# 6 17.0742 7.6458 18.5781 7.5889 -0.8032 35.1423
#
#
#
# Elastic Compliance Matrix: (Units=1/GPa)
#
#
# Indices 1 2 3 4 5 6 
#
# 1 0.009259 -0.001325 0.000356 0.003176 -0.001378 -0.005116
# 2 -0.001325 0.010646 -0.002620 -0.000004 0.000077 -0.000285
# 3 0.000356 -0.002620 0.009632 0.000907 -0.003897 -0.004980
# 4 0.003176 -0.000004 0.000907 0.029373 -0.011086 -0.008618
# 5 -0.001378 0.000077 -0.003897 -0.011086 0.025749 0.005695
# 6 -0.005116 -0.000285 -0.004980 -0.008618 0.005695 0.035627
#
#
# Mechanical properties :
#
#
# Convention : Reuss Voigt Hill
#
# Bulk Modulus (GPa) = 44.72257 53.37836 49.05047
# Shear Modulus (GPa) = 37.05947 45.30594 41.18270
#
# Velocity S-wave (km/s) = 3.71112 4.10330 3.91213
# Velocity P-wave (km/s) = 5.91469 6.50280 6.21570
#
# Compressibility (1/GPa) = 0.02236007
#
# Stress axis : x y z
#
# Youngs Moduli (GPa) = 107.99858 93.93077 103.81598
#
# Poissons Ratio (x) = 0.12449 -0.03697
# Poissons Ratio (y) = 0.14314 0.27197
# Poissons Ratio (z) = -0.03846 0.24607
#
# Static dielectric constant tensor:
#      x y z
#    x 2.147270 -0.085690 -0.034050 
#    y -0.085690 2.249450 0.046860 
#    z -0.034050 0.046860 2.135940 
# 
# From -- ./inp_files/285886.got.cif
#   From: 2010.05.17/outbox.cif.g08.bks.cpg/sg2_143_cif.got.tgz:285886.got - 2010.06.03 11:33:40.
