data_PCOD9029350
_publ_section_title
;
Structure prediction by ZEFSAII (Michael W. Deem and Ramdas Pophale) SiO2 
 PCOD9029350
Probable space group: P -1
;
_chemical_formula_sum "Si O2"
_cell_formula_units_Z 12
_cell_length_a 5.087537
_cell_length_b 9.103689
_cell_length_c 15.258448
_cell_angle_alpha 125.802945
_cell_angle_beta 76.453552
_cell_angle_gamma 85.727006
_cell_volume 536.785154
_symmetry_space_group_name_H-M "P -1"
_symmetry_group_IT_number 2
_symmetry_cell_setting 'triclinic'
loop_
_space_group_symop_operation_xyz
x,y,z
-x,-y,-z
loop_
_atom_site_type_symbol
_atom_site_label
_atom_site_fract_x
_atom_site_fract_y
_atom_site_fract_z
Si Si1 0.335734 0.996131 0.226185
Si Si2 0.308023 0.342907 0.808692
Si Si3 0.396653 0.223933 0.564489
Si Si4 0.875439 0.302765 0.962886
Si Si5 0.278815 0.036059 0.951536
Si Si6 0.052660 0.689539 0.521873
O O1 0.487112 0.849165 0.237312
O O2 0.235039 0.872420 0.117678
O O3 0.559753 0.079841 0.185391
O O4 0.083364 0.148676 0.341274
O O5 0.320457 0.332356 0.700296
O O6 0.007298 0.352440 0.879604
O O7 0.354781 0.530902 0.914504
O O8 0.128872 0.261950 0.535783
O O9 0.636483 0.297153 0.521606
O O10 0.500000 0.000000 0.500000
O O11 0.138947 0.236393 0.985714
O O12 0.500000 0.000000 0.000000
O O13 0.000000 0.000000 0.000000
O O14 0.000000 0.500000 0.500000
#
# Coordination Sequence:
#
# PCOD9029350 Si02
#       6
#     2   2   2   2   2   2
#     4  11  23  43  72  95 147 179 237 294 362 418
#     4  10  23  40  71 104 139 175 243 299 352 414
#     4  12  25  49  77 106 138 195 252 297 345 434
#     4  10  22  42  67 106 137 181 225 308 357 410
#     4  11  23  41  63  95 133 182 224 271 352 433
#     4  12  29  48  73 107 150 192 239 298 370 421
#
# _framework density 22.355315000000001
#
# number of rings (size 3 to 8) (size 9 to 14) (size 15 to 20)
#    0.000    1.000    3.333    2.500    4.667    2.667 
#    0.000    0.000    0.000    0.000    0.000    0.000 
#    0.000    0.000    0.000    0.000    0.000    0.000 
#
# Total GULP energy -66982.900533 kJ/mol
# GULP energy per Si atom -5581.908378 kJ/mol
# Density = 2.230443 g / cm^3
# Si number density = 22.355315 Si / 1000 Ang^3
#
#
#
# Elastic Constant Matrix: (Units=GPa)
#
#
# Indices 1 2 3 4 5 6 
#
# 1 87.4635 3.2214 9.2936 -11.9346 -0.5873 2.6581
# 2 3.2214 71.3486 26.3503 -12.3628 -1.6165 5.6913
# 3 9.2936 26.3503 151.9682 -12.9768 -9.8464 21.9671
# 4 -11.9346 -12.3628 -12.9768 37.1845 5.6824 -2.4223
# 5 -0.5873 -1.6165 -9.8464 5.6824 28.7689 -6.1248
# 6 2.6581 5.6913 21.9671 -2.4223 -6.1248 36.2737
#
#
#
# Elastic Compliance Matrix: (Units=1/GPa)
#
#
# Indices 1 2 3 4 5 6 
#
# 1 0.012010 0.000316 -0.000429 0.003892 -0.000767 -0.000540
# 2 0.000316 0.015695 -0.002271 0.004618 -0.001008 -0.000972
# 3 -0.000429 -0.002271 0.007785 0.001348 0.001411 -0.003999
# 4 0.003892 0.004618 0.001348 0.030937 -0.005455 -0.000681
# 5 -0.000767 -0.001008 0.001411 -0.005455 0.037378 0.005307
# 6 -0.000540 -0.000972 -0.003999 -0.000681 0.005307 0.031032
#
#
# Mechanical properties :
#
#
# Convention : Reuss Voigt Hill
#
# Bulk Modulus (GPa) = 32.54986 43.16786 37.85886
# Shear Modulus (GPa) = 33.36790 38.57310 35.97050
#
# Velocity S-wave (km/s) = 3.86763 4.15837 4.01563
# Velocity P-wave (km/s) = 5.87678 6.51213 6.20260
#
# Compressibility (1/GPa) = 0.03072210
#
# Stress axis : x y z
#
# Youngs Moduli (GPa) = 83.26679 63.71437 128.45472
#
# Poissons Ratio (x) = -0.02014 0.05506
# Poissons Ratio (y) = -0.02632 0.29175
# Poissons Ratio (z) = 0.03569 0.14471
#
# Static dielectric constant tensor:
#      x y z
#    x 1.936690 0.256930 0.068390 
#    y 0.256930 5.505460 0.886300 
#    z 0.068390 0.886300 2.033850 
# 
# From -- ./inp_files/73549.got.cif
#   From: 2010.05.17/outbox.cif.g08.bks.cpg/sg2_37_cif.got.tgz:73549.got - 2010.06.03 11:33:40.
