data_PCOD9029957
_publ_section_title
;
Structure prediction by ZEFSAII (Michael W. Deem and Ramdas Pophale) SiO2 
 PCOD9029957
Probable space group: P -1
;
_chemical_formula_sum "Si O2"
_cell_formula_units_Z 16
_cell_length_a 12.301109
_cell_length_b 18.966076
_cell_length_c 9.235511
_cell_angle_alpha 35.101823
_cell_angle_beta 72.128667
_cell_angle_gamma 48.219194
_cell_volume 768.221015
_symmetry_space_group_name_H-M "P -1"
_symmetry_group_IT_number 2
_symmetry_cell_setting 'triclinic'
loop_
_space_group_symop_operation_xyz
x,y,z
-x,-y,-z
loop_
_atom_site_type_symbol
_atom_site_label
_atom_site_fract_x
_atom_site_fract_y
_atom_site_fract_z
Si Si1 0.660448 0.234225 0.980949
Si Si2 0.650235 0.288973 0.351583
Si Si3 0.073677 0.562545 0.442792
Si Si4 0.114010 0.509661 0.860991
Si Si5 0.490038 0.884702 0.604106
Si Si6 0.012614 0.829762 0.532253
Si Si7 0.175608 0.079960 0.242339
Si Si8 0.421205 0.430124 0.465820
O O1 0.536279 0.337901 0.718689
O O2 0.643930 0.374558 0.840379
O O3 0.599028 0.159180 0.208418
O O4 0.862976 0.045782 0.180871
O O5 0.803966 0.251467 0.403647
O O6 0.551964 0.296238 0.506486
O O7 0.743220 0.118260 0.493887
O O8 0.500000 0.500000 0.000000
O O9 0.096933 0.520882 0.675029
O O10 0.260888 0.465735 0.477893
O O11 0.000000 0.500000 0.500000
O O12 0.933293 0.779232 0.084639
O O13 0.036787 0.699437 0.631310
O O14 0.312145 0.323270 0.149269
O O15 0.000000 0.500000 0.000000
O O16 0.500000 0.000000 0.500000
O O17 0.347121 0.023338 0.303099
O O18 0.952683 0.828168 0.718999
#
# Coordination Sequence:
#
# PCOD9029957 Si02
#       8
#     2   2   2   2   2   2   2   2
#     4  10  22  42  69 101 135 183 229 292 339 410
#     4  12  24  41  69 102 141 183 231 289 359 427
#     4  12  26  47  69 102 145 184 231 300 361 415
#     4  12  25  44  71 101 133 187 242 287 345 426
#     4  11  22  45  71  98 136 188 236 280 343 427
#     4  11  23  42  70  97 141 180 239 276 351 421
#     4  11  25  43  68 102 139 184 229 292 356 411
#     4  11  24  42  69  98 143 177 235 287 357 409
#
# _framework density 20.827338999999998
#
# number of rings (size 3 to 8) (size 9 to 14) (size 15 to 20)
#    0.000    0.750    1.250    7.875    3.500    1.500 
#    0.000    1.250    0.000    0.000    0.000    0.000 
#    0.000    0.000    0.000    0.000    0.000    0.000 
#
# Total GULP energy -89353.057296 kJ/mol
# GULP energy per Si atom -5584.566081 kJ/mol
# Density = 2.077993 g / cm^3
# Si number density = 20.827339 Si / 1000 Ang^3
#
#
#
# Elastic Constant Matrix: (Units=GPa)
#
#
# Indices 1 2 3 4 5 6 
#
# 1 128.9444 48.3856 33.4655 7.4002 9.2521 -13.5136
# 2 48.3856 101.9045 23.3813 -1.1954 4.5298 -8.2169
# 3 33.4655 23.3813 94.8178 -13.9163 20.4611 -18.4246
# 4 7.4002 -1.1954 -13.9163 28.9505 0.9732 -1.1315
# 5 9.2521 4.5298 20.4611 0.9732 39.6576 -14.1014
# 6 -13.5136 -8.2169 -18.4246 -1.1315 -14.1014 36.9484
#
#
#
# Elastic Compliance Matrix: (Units=1/GPa)
#
#
# Indices 1 2 3 4 5 6 
#
# 1 0.010517 -0.004239 -0.003086 -0.004302 0.000193 0.001307
# 2 -0.004239 0.012179 -0.001340 0.000953 0.000521 0.000718
# 3 -0.003086 -0.001340 0.015260 0.008427 -0.005689 0.004270
# 4 -0.004302 0.000953 0.008427 0.039955 -0.003458 0.002745
# 5 0.000193 0.000521 -0.005689 -0.003458 0.031414 0.009233
# 6 0.001307 0.000718 0.004270 0.002745 0.009233 0.033440
#
#
# Mechanical properties :
#
#
# Convention : Reuss Voigt Hill
#
# Bulk Modulus (GPa) = 48.48168 59.57018 54.02593
# Shear Modulus (GPa) = 29.94532 35.80693 32.87612
#
# Velocity S-wave (km/s) = 3.79593 4.15086 3.97735
# Velocity P-wave (km/s) = 6.52231 7.18588 6.86212
#
# Compressibility (1/GPa) = 0.02062635
#
# Stress axis : x y z
#
# Youngs Moduli (GPa) = 95.08546 82.10616 65.52963
#
# Poissons Ratio (x) = 0.34807 0.20220
# Poissons Ratio (y) = 0.40309 0.08783
# Poissons Ratio (z) = 0.29339 0.11004
#
# Static dielectric constant tensor:
#      x y z
#    x 1.805600 0.091010 -0.035460 
#    y 0.091010 1.926730 -0.132370 
#    z -0.035460 -0.132370 1.980750 
# 
# From -- ./inp_files/278800.got.cif
#   From: 2010.05.17/outbox.cif.g08.bks.cpg/sg2_140_cif.got.tgz:278800.got - 2010.06.03 11:33:40.
