data_PCOD9029042
_publ_section_title
;
Structure prediction by ZEFSAII (Michael W. Deem and Ramdas Pophale) SiO2 
 PCOD9029042
Probable space group: P -1
;
_chemical_formula_sum "Si O2"
_cell_formula_units_Z 16
_cell_length_a 7.772093
_cell_length_b 12.483647
_cell_length_c 13.174908
_cell_angle_alpha 45.588306
_cell_angle_beta 106.848706
_cell_angle_gamma 73.850959
_cell_volume 621.071931
_symmetry_space_group_name_H-M "P -1"
_symmetry_group_IT_number 2
_symmetry_cell_setting 'triclinic'
loop_
_space_group_symop_operation_xyz
x,y,z
-x,-y,-z
loop_
_atom_site_type_symbol
_atom_site_label
_atom_site_fract_x
_atom_site_fract_y
_atom_site_fract_z
Si Si1 0.909304 0.516002 0.761255
Si Si2 0.590813 0.943539 0.309793
Si Si3 0.015961 0.058752 0.686807
Si Si4 0.684353 0.333245 0.287061
Si Si5 0.739087 0.857919 0.059886
Si Si6 0.764950 0.258893 0.712875
Si Si7 0.288714 0.407389 0.036773
Si Si8 0.676212 0.324851 0.870172
O O1 0.144012 0.365180 0.820422
O O2 0.701376 0.752796 0.528537
O O3 0.810601 0.404704 0.823096
O O4 0.013209 0.502448 0.897791
O O5 0.828640 0.877224 0.335389
O O6 0.462683 0.162275 0.196466
O O7 0.387024 0.998882 0.158726
O O8 0.904649 0.102055 0.526216
O O9 0.819743 0.154923 0.682293
O O10 0.220742 0.816831 0.918540
O O11 0.446123 0.377100 0.179210
O O12 0.607922 0.468434 0.287012
O O13 0.732621 0.430042 0.146610
O O14 0.986692 0.783055 0.202935
O O15 0.500000 0.000000 0.000000
O O16 0.500000 0.500000 0.500000
O O17 0.730708 0.203375 0.855998
#
# Coordination Sequence:
#
# PCOD9029042 Si02
#       8
#     2   2   2   2   2   2   2   2
#     4  10  24  44  65  99 143 181 225 298 348 410
#     4  11  22  43  71  98 138 183 236 285 349 412
#     4  12  23  42  71  99 133 190 228 281 349 424
#     4  11  23  41  71 101 136 177 238 290 352 413
#     4  10  22  42  66 102 136 182 239 287 335 419
#     4  11  23  45  69  99 145 186 228 286 355 415
#     4  10  23  43  68 104 134 178 235 299 344 413
#     4  11  25  44  63 100 140 181 227 287 350 421
#
# _framework density 25.761913
#
# number of rings (size 3 to 8) (size 9 to 14) (size 15 to 20)
#    0.000    1.250    5.000    0.375    0.000    5.500 
#    4.500    1.250    0.000    0.000    0.000    0.000 
#    0.000    0.000    0.000    0.000    0.000    0.000 
#
# Total GULP energy -89261.072373 kJ/mol
# GULP energy per Si atom -5578.817023 kJ/mol
# Density = 2.570328 g / cm^3
# Si number density = 25.761913 Si / 1000 Ang^3
#
#
#
# Elastic Constant Matrix: (Units=GPa)
#
#
# Indices 1 2 3 4 5 6 
#
# 1 81.5032 -8.9359 32.9643 7.2122 10.1381 34.8024
# 2 -8.9359 74.7031 39.3813 19.0140 -2.6896 13.5936
# 3 32.9643 39.3813 204.3122 28.1758 1.8720 17.7486
# 4 7.2122 19.0140 28.1758 34.8529 -1.2971 2.2540
# 5 10.1381 -2.6896 1.8720 -1.2971 42.9719 -0.8398
# 6 34.8024 13.5936 17.7486 2.2540 -0.8398 20.7901
#
#
#
# Elastic Compliance Matrix: (Units=1/GPa)
#
#
# Indices 1 2 3 4 5 6 
#
# 1 6.352615 3.768848 -0.314015 -2.357812 -1.567314-12.638046
# 2 3.768848 2.253945 -0.187851 -1.406740 -0.929080 -7.507379
# 3 -0.314015 -0.187851 0.021575 0.112726 0.076924 0.620951
# 4 -2.357812 -1.406740 0.112726 0.910949 0.582561 4.695273
# 5 -1.567314 -0.929080 0.076924 0.582561 0.410072 3.118873
# 6 -12.638046 -7.507379 0.620951 4.695273 3.118873 25.199518
#
#
# Mechanical properties :
#
#
# Convention : Reuss Voigt Hill
#
# Bulk Modulus (GPa) = 0.06595 54.14867 27.10731
# Shear Modulus (GPa) = 0.14851 39.53023 19.83937
#
# Velocity S-wave (km/s) = 0.24036 3.92145 2.77809
# Velocity P-wave (km/s) = 0.32044 6.44734 4.56459
#
# Compressibility (1/GPa) = 15.16209736
#
# Stress axis : x y z
#
# Youngs Moduli (GPa) = 0.15742 0.44367 46.35042
#
# Poissons Ratio (x) = -1.67211 14.55475
# Poissons Ratio (y) = -0.59327 8.70697
# Poissons Ratio (z) = 0.04943 0.08334
#
# Static dielectric constant tensor:
#      x y z
#    x 2.131480 -0.063040 0.012080 
#    y -0.063040 2.119300 0.003670 
#    z 0.012080 0.003670 2.042550 
# 
# From -- ./inp_files/503881.got.cif
#   From: 2010.05.17/outbox.cif.g08.bks.cpg/sg2_252_cif.got.tgz:503881.got - 2010.06.03 11:33:40.
