data_PCOD9029417
_publ_section_title
;
Structure prediction by ZEFSAII (Michael W. Deem and Ramdas Pophale) SiO2 
 PCOD9029417
Probable space group: P -1
;
_chemical_formula_sum "Si O2"
_cell_formula_units_Z 14
_cell_length_a 11.862603
_cell_length_b 15.268326
_cell_length_c 20.430890
_cell_angle_alpha 28.727203
_cell_angle_beta 160.757486
_cell_angle_gamma 152.650799
_cell_volume 542.040843
_symmetry_space_group_name_H-M "P -1"
_symmetry_group_IT_number 2
_symmetry_cell_setting 'triclinic'
loop_
_space_group_symop_operation_xyz
x,y,z
-x,-y,-z
loop_
_atom_site_type_symbol
_atom_site_label
_atom_site_fract_x
_atom_site_fract_y
_atom_site_fract_z
Si Si1 0.597057 0.042396 0.114498
Si Si2 0.531480 0.206331 0.347760
Si Si3 0.757245 0.172420 0.729550
Si Si4 0.669111 0.737666 0.272187
Si Si5 0.409401 0.800158 0.850285
Si Si6 0.378633 0.340248 0.307871
Si Si7 0.863474 0.611019 0.082207
O O1 0.654239 0.112729 0.173505
O O2 0.978695 0.169995 0.203665
O O3 0.532473 0.818780 0.207787
O O4 0.303053 0.108709 0.872212
O O5 0.524700 0.354668 0.304938
O O6 0.936789 0.277150 0.491075
O O7 0.500000 0.000000 0.500000
O O8 0.235314 0.227954 0.119711
O O9 0.638841 0.272294 0.540283
O O10 0.815477 0.284079 0.758319
O O11 0.437824 0.956585 0.706319
O O12 0.161763 0.178499 0.929117
O O13 0.389597 0.536305 0.220309
O O14 0.134053 0.575886 0.835074
O O15 0.500000 0.500000 0.000000
#
# Coordination Sequence:
#
# PCOD9029417 Si02
#       7
#     2   2   2   2   2   2   2
#     4  11  25  41  64  98 138 181 221 282 339 408
#     4  12  25  43  75 103 134 173 238 284 332 400
#     4  10  24  41  73  96 132 180 230 277 339 399
#     4  11  24  43  66  96 138 176 223 279 347 397
#     4  10  22  42  67  93 134 177 226 271 342 398
#     4  12  25  44  68 102 133 179 229 284 334 405
#     4  10  23  43  69 101 134 174 222 284 335 400
#
# _framework density 25.828310999999999
#
# number of rings (size 3 to 8) (size 9 to 14) (size 15 to 20)
#    0.000    1.143    1.429    4.286    8.000    2.857 
#    0.000    1.429    0.000    0.000    0.000    0.000 
#    0.000    0.000    0.000    0.000    0.000    0.000 
#
# Total GULP energy -78400.203530 kJ/mol
# GULP energy per Si atom -5600.014538 kJ/mol
# Density = 2.576952 g / cm^3
# Si number density = 25.828311 Si / 1000 Ang^3
#
#
#
# Elastic Constant Matrix: (Units=GPa)
#
#
# Indices 1 2 3 4 5 6 
#
# 1 93.9024 19.6998 12.7543 -8.1247 -0.9302 -32.7704
# 2 19.6998 122.8464 -9.9291 -7.5257 7.7671 -22.5555
# 3 12.7543 -9.9291 34.3736 12.0045 -2.0960 -3.9444
# 4 -8.1247 -7.5257 12.0045 29.7890 -3.8554 0.3023
# 5 -0.9302 7.7671 -2.0960 -3.8554 37.0826 -7.6556
# 6 -32.7704 -22.5555 -3.9444 0.3023 -7.6556 51.3950
#
#
#
# Elastic Compliance Matrix: (Units=1/GPa)
#
#
# Indices 1 2 3 4 5 6 
#
# 1 0.015870 -0.001157 -0.007531 0.007354 0.002925 0.009425
# 2 -0.001157 0.009321 0.003260 0.000557 -0.001028 0.003447
# 3 -0.007531 0.003260 0.038643 -0.016866 -0.000520 -0.000384
# 4 0.007354 0.000557 -0.016866 0.043044 0.004425 0.004045
# 5 0.002925 -0.001028 -0.000520 0.004425 0.028852 0.005646
# 6 0.009425 0.003447 -0.000384 0.004045 0.005646 0.027767
#
#
# Mechanical properties :
#
#
# Convention : Reuss Voigt Hill
#
# Bulk Modulus (GPa) = 18.87608 32.90804 25.89206
# Shear Modulus (GPa) = 26.03998 38.89313 32.46655
#
# Velocity S-wave (km/s) = 3.17865 3.88472 3.54929
# Velocity P-wave (km/s) = 4.56026 5.73499 5.18102
#
# Compressibility (1/GPa) = 0.05297709
#
# Stress axis : x y z
#
# Youngs Moduli (GPa) = 63.01365 107.28098 25.87810
#
# Poissons Ratio (x) = 0.12417 0.19489
# Poissons Ratio (y) = 0.07294 -0.08437
# Poissons Ratio (z) = 0.47455 -0.34976
#
# Static dielectric constant tensor:
#      x y z
#    x 2.011720 0.000850 0.028980 
#    y 0.000850 2.112260 -0.064420 
#    z 0.028980 -0.064420 2.056420 
# 
# From -- ./inp_files/595638.got.cif
#   From: 2010.05.17/outbox.cif.g08.bks.cpg/sg2_298_cif.got.tgz:595638.got - 2010.06.03 11:33:40.
