data_PCOD9029979
_publ_section_title
;
Structure prediction by ZEFSAII (Michael W. Deem and Ramdas Pophale) SiO2 
 PCOD9029979
Probable space group: P -1
;
_chemical_formula_sum "Si O2"
_cell_formula_units_Z 13
_cell_length_a 9.959403
_cell_length_b 10.844474
_cell_length_c 7.044682
_cell_angle_alpha 80.710291
_cell_angle_beta 47.567529
_cell_angle_gamma 60.993251
_cell_volume 474.658081
_symmetry_space_group_name_H-M "P -1"
_symmetry_group_IT_number 2
_symmetry_cell_setting 'triclinic'
loop_
_space_group_symop_operation_xyz
x,y,z
-x,-y,-z
loop_
_atom_site_type_symbol
_atom_site_label
_atom_site_fract_x
_atom_site_fract_y
_atom_site_fract_z
Si Si1 0.820888 0.156784 0.198116
Si Si2 0.354183 0.379886 0.036217
Si Si3 0.014374 0.142694 0.420911
Si Si4 0.500000 0.000000 0.000000
Si Si5 0.593934 0.831624 0.267720
Si Si6 0.074812 0.623186 0.998159
Si Si7 0.287708 0.545472 0.412232
O O1 0.596841 0.170123 0.444340
O O2 0.828171 0.280545 0.039491
O O3 0.916259 0.179217 0.295005
O O4 0.000000 0.000000 0.000000
O O5 0.347047 0.406296 0.259175
O O6 0.423759 0.220830 0.924449
O O7 0.131053 0.493993 0.124343
O O8 0.518475 0.423587 0.783867
O O9 0.890608 0.310437 0.565984
O O10 0.252501 0.078899 0.266803
O O11 0.000000 0.000000 0.500000
O O12 0.437346 0.017270 0.812243
O O13 0.825443 0.727867 0.160757
O O14 0.211868 0.540568 0.697667
#
# Coordination Sequence:
#
# PCOD9029979 Si02
#       7
#     2   2   2   1   2   2   2
#     4  11  25  44  67  98 135 176 230 274 347 408
#     4  11  23  43  72 100 140 180 231 278 347 412
#     4  11  21  42  67  92 134 174 221 281 333 392
#     4  12  22  42  70  92 138 174 224 284 332 402
#     4  12  24  45  70 101 136 184 225 284 348 404
#     4  11  24  46  69 101 143 175 226 294 332 409
#     4  10  22  42  69 103 132 183 227 275 347 407
#
# _framework density 27.388137
#
# number of rings (size 3 to 8) (size 9 to 14) (size 15 to 20)
#    0.000    0.923    7.692    0.923    2.154    1.231 
#    2.769    0.000    0.000    0.000    0.000    0.000 
#    0.000    0.000    0.000    0.000    0.000    0.000 
#
# Total GULP energy -72451.511854 kJ/mol
# GULP energy per Si atom -5573.193220 kJ/mol
# Density = 2.732580 g / cm^3
# Si number density = 27.388137 Si / 1000 Ang^3
#
#
#
# Elastic Constant Matrix: (Units=GPa)
#
#
# Indices 1 2 3 4 5 6 
#
# 1 68.3566 -5.9911 42.1677 16.5779 2.2639 -15.8245
# 2 -5.9911 70.3054 12.3994 7.3950 4.0285 5.4983
# 3 42.1677 12.3994 105.0869 14.0857 -15.2999 -0.5129
# 4 16.5779 7.3950 14.0857 40.1146 -9.4542 -2.4858
# 5 2.2639 4.0285 -15.2999 -9.4542 52.4536 17.1826
# 6 -15.8245 5.4983 -0.5129 -2.4858 17.1826 64.5981
#
#
#
# Elastic Compliance Matrix: (Units=1/GPa)
#
#
# Indices 1 2 3 4 5 6 
#
# 1 0.026534 0.005158 -0.011265 -0.009630 -0.009199 0.008048
# 2 0.005158 0.015978 -0.003871 -0.004528 -0.003611 0.000659
# 3 -0.011265 -0.003871 0.015284 0.001357 0.006820 -0.004070
# 4 -0.009630 -0.004528 0.001357 0.030895 0.007648 -0.002808
# 5 -0.009199 -0.003611 0.006820 0.007648 0.025885 -0.008483
# 6 0.008048 0.000659 -0.004070 -0.002808 -0.008483 0.019512
#
#
# Mechanical properties :
#
#
# Convention : Reuss Voigt Hill
#
# Bulk Modulus (GPa) = 26.42647 37.87787 32.15217
# Shear Modulus (GPa) = 30.00215 44.44478 37.22346
#
# Velocity S-wave (km/s) = 3.31334 4.03274 3.69061
# Velocity P-wave (km/s) = 4.93026 5.96188 5.47044
#
# Compressibility (1/GPa) = 0.03784085
#
# Stress axis : x y z
#
# Youngs Moduli (GPa) = 37.68814 62.58791 65.42820
#
# Poissons Ratio (x) = -0.32286 0.73704
# Poissons Ratio (y) = -0.19441 0.25325
# Poissons Ratio (z) = 0.42455 0.24226
#
# Static dielectric constant tensor:
#      x y z
#    x 2.157390 0.184650 0.146330 
#    y 0.184650 0.788940 -0.020580 
#    z 0.146330 -0.020580 2.239430 
# 
# From -- ./inp_files/252708.got.cif
#   From: 2010.05.17/outbox.cif.g08.bks.cpg/sg2_127_cif.got.tgz:252708.got - 2010.06.03 11:33:40.
