data_PCOD9029586
_publ_section_title
;
Structure prediction by ZEFSAII (Michael W. Deem and Ramdas Pophale) SiO2 
 PCOD9029586
Probable space group: P -1
;
_chemical_formula_sum "Si O2"
_cell_formula_units_Z 14
_cell_length_a 14.198909
_cell_length_b 11.525847
_cell_length_c 5.088627
_cell_angle_alpha 108.362014
_cell_angle_beta 57.305078
_cell_angle_gamma 116.909911
_cell_volume 622.176223
_symmetry_space_group_name_H-M "P -1"
_symmetry_group_IT_number 2
_symmetry_cell_setting 'triclinic'
loop_
_space_group_symop_operation_xyz
x,y,z
-x,-y,-z
loop_
_atom_site_type_symbol
_atom_site_label
_atom_site_fract_x
_atom_site_fract_y
_atom_site_fract_z
Si Si1 0.689546 0.779566 0.443502
Si Si2 0.423200 0.010746 0.374643
Si Si3 0.142774 0.420851 0.631829
Si Si4 0.164862 0.796475 0.721999
Si Si5 0.632508 0.600750 0.905860
Si Si6 0.951830 0.876712 0.286763
Si Si7 0.108359 0.610837 0.182131
O O1 0.652917 0.715400 0.739816
O O2 0.831254 0.868739 0.306625
O O3 0.608029 0.859595 0.530266
O O4 0.665444 0.664398 0.186899
O O5 0.293448 0.901675 0.541781
O O6 0.500000 0.000000 0.500000
O O7 0.500000 0.000000 0.000000
O O8 0.273223 0.469605 0.351090
O O9 0.098500 0.263647 0.590974
O O10 0.035416 0.444781 0.661567
O O11 0.148260 0.489938 0.955173
O O12 0.143214 0.692802 0.448980
O O13 0.156906 0.717864 0.949881
O O14 0.061009 0.860584 0.942932
O O15 0.500000 0.500000 0.000000
O O16 0.000000 0.000000 0.500000
#
# Coordination Sequence:
#
# PCOD9029586 Si02
#       7
#     2   2   2   2   2   2   2
#     4  11  26  46  71 103 143 183 239 308 355 418
#     4  12  28  46  68  98 142 188 243 288 348 427
#     4   9  22  40  66 102 140 174 233 282 359 408
#     4  11  25  43  71 100 136 185 238 280 367 407
#     4  11  24  44  70 102 140 188 238 290 358 427
#     4  10  24  43  76 107 143 182 237 302 364 428
#     4  10  22  42  67  98 138 178 223 299 342 428
#
# _framework density 22.501662
#
# number of rings (size 3 to 8) (size 9 to 14) (size 15 to 20)
#    0.000    1.429    0.000    3.000   10.000   11.429 
#    0.000    0.000    0.000    0.000    0.000    0.000 
#    0.000    0.000    0.000    0.000    0.000    0.000 
#
# Total GULP energy -78280.098598 kJ/mol
# GULP energy per Si atom -5591.435614 kJ/mol
# Density = 2.245045 g / cm^3
# Si number density = 22.501662 Si / 1000 Ang^3
#
#
#
# Elastic Constant Matrix: (Units=GPa)
#
#
# Indices 1 2 3 4 5 6 
#
# 1 102.9003 23.3387 46.0454 1.4470 -20.9735 9.1413
# 2 23.3387 91.0970 39.7755 -2.3748 -14.5759 12.6223
# 3 46.0454 39.7755 128.8812 9.0160 -17.8134 20.8476
# 4 1.4470 -2.3748 9.0160 53.3052 1.5541 -3.1270
# 5 -20.9735 -14.5759 -17.8134 1.5541 51.5300 -11.0011
# 6 9.1413 12.6223 20.8476 -3.1270 -11.0011 46.5618
#
#
#
# Elastic Compliance Matrix: (Units=1/GPa)
#
#
# Indices 1 2 3 4 5 6 
#
# 1 0.012266 -0.001033 -0.003645 0.000155 0.003509 0.000343
# 2 -0.001033 0.013196 -0.003296 0.001038 0.001844 -0.001393
# 3 -0.003645 -0.003296 0.010843 -0.002091 0.000709 -0.003219
# 4 0.000155 0.001038 -0.002091 0.019277 -0.000566 0.001785
# 5 0.003509 0.001844 0.000709 -0.000566 0.022419 0.003753
# 6 0.000343 -0.001393 -0.003219 0.001785 0.003753 0.024235
#
#
# Mechanical properties :
#
#
# Convention : Reuss Voigt Hill
#
# Bulk Modulus (GPa) = 49.12100 60.13306 54.62703
# Shear Modulus (GPa) = 40.00950 44.52733 42.26842
#
# Velocity S-wave (km/s) = 4.22129 4.45325 4.33882
# Velocity P-wave (km/s) = 6.75547 7.29546 7.03065
#
# Compressibility (1/GPa) = 0.02035789
#
# Stress axis : x y z
#
# Youngs Moduli (GPa) = 81.52656 75.77910 92.22214
#
# Poissons Ratio (x) = 0.07829 0.33613
# Poissons Ratio (y) = 0.08423 0.30395
# Poissons Ratio (z) = 0.29715 0.24976
#
# Static dielectric constant tensor:
#      x y z
#    x 1.911730 -0.038800 0.027800 
#    y -0.038800 1.857960 0.000270 
#    z 0.027800 0.000270 1.857320 
# 
# From -- ./inp_files/94006.got.cif
#   From: 2010.05.17/outbox.cif.g08.bks.cpg/sg2_48_cif.got.tgz:94006.got - 2010.06.03 11:33:40.
