data_PCOD9029941
_publ_section_title
;
Structure prediction by ZEFSAII (Michael W. Deem and Ramdas Pophale) SiO2 
 PCOD9029941
Probable space group: P -1
;
_chemical_formula_sum "Si O2"
_cell_formula_units_Z 16
_cell_length_a 7.429792
_cell_length_b 13.787803
_cell_length_c 14.160496
_cell_angle_alpha 146.774963
_cell_angle_beta 99.012733
_cell_angle_gamma 69.712023
_cell_volume 719.967294
_symmetry_space_group_name_H-M "P -1"
_symmetry_group_IT_number 2
_symmetry_cell_setting 'triclinic'
loop_
_space_group_symop_operation_xyz
x,y,z
-x,-y,-z
loop_
_atom_site_type_symbol
_atom_site_label
_atom_site_fract_x
_atom_site_fract_y
_atom_site_fract_z
Si Si1 0.951134 0.149091 0.440044
Si Si2 0.416442 0.242111 0.272923
Si Si3 0.138121 0.538732 0.167538
Si Si4 0.163453 0.034435 0.976020
Si Si5 0.589038 0.502219 0.684003
Si Si6 0.869380 0.310263 0.905303
Si Si7 0.815508 0.366765 0.144756
Si Si8 0.107977 0.364076 0.489167
O O1 0.033700 0.205898 0.395466
O O2 0.997040 0.262224 0.625769
O O3 0.036409 0.922193 0.279216
O O4 0.652129 0.133585 0.193886
O O5 0.285762 0.133975 0.127460
O O6 0.711346 0.271870 0.516389
O O7 0.367268 0.433047 0.361619
O O8 0.333257 0.275290 0.398068
O O9 0.302440 0.426512 0.167353
O O10 0.217724 0.605278 0.134749
O O11 0.029704 0.402979 0.015861
O O12 0.013218 0.173191 0.001221
O O13 0.000000 0.000000 0.000000
O O14 0.359279 0.612248 0.779771
O O15 0.731554 0.388619 0.050264
O O16 0.899021 0.511007 0.317540
O O17 0.000000 0.500000 0.500000
#
# Coordination Sequence:
#
# PCOD9029941 Si02
#       8
#     2   2   2   2   2   2   2   2
#     4  10  22  42  69 100 135 180 228 283 345 416
#     4  11  23  41  64  91 137 183 222 284 341 397
#     4   9  21  45  70  97 138 173 226 298 349 407
#     4  11  23  39  62  95 130 174 238 278 330 416
#     4  10  22  43  63  94 141 176 229 287 342 412
#     4  11  22  40  76  98 127 187 231 281 359 406
#     4  12  24  40  64  96 135 182 232 283 347 411
#     4  12  22  42  64  92 141 185 222 284 342 401
#
# _framework density 22.223231999999999
#
# number of rings (size 3 to 8) (size 9 to 14) (size 15 to 20)
#    0.750    0.500    5.000    1.125    1.750    2.000 
#    0.000    1.250    0.000    2.250    0.000    0.000 
#    0.000    0.000    0.000    0.000    0.000    0.000 
#
# Total GULP energy -89099.874976 kJ/mol
# GULP energy per Si atom -5568.742186 kJ/mol
# Density = 2.217265 g / cm^3
# Si number density = 22.223232 Si / 1000 Ang^3
#
#
#
# Elastic Constant Matrix: (Units=GPa)
#
#
# Indices 1 2 3 4 5 6 
#
# 1 116.8161 42.0029 12.2476 6.4728 -9.7814 5.5146
# 2 42.0029 86.5626 39.2993 -5.3343 -7.9126 23.0582
# 3 12.2476 39.2993 82.8384 -0.0882 1.8413 7.7020
# 4 6.4728 -5.3343 -0.0882 35.6027 3.1821 -5.4107
# 5 -9.7814 -7.9126 1.8413 3.1821 29.8388 -6.8419
# 6 5.5146 23.0582 7.7020 -5.4107 -6.8419 33.6996
#
#
#
# Elastic Compliance Matrix: (Units=1/GPa)
#
#
# Indices 1 2 3 4 5 6 
#
# 1 0.011026 -0.006444 0.001137 -0.002838 0.002697 0.002437
# 2 -0.006444 0.021738 -0.008342 0.002584 0.001316 -0.011230
# 3 0.001137 -0.008342 0.015797 -0.001010 -0.002418 0.001258
# 4 -0.002838 0.002584 -0.001010 0.029704 -0.002625 0.003164
# 5 0.002697 0.001316 -0.002418 -0.002625 0.036602 0.006220
# 6 0.002437 -0.011230 0.001258 0.003164 0.006220 0.038443
#
#
# Mechanical properties :
#
#
# Convention : Reuss Voigt Hill
#
# Bulk Modulus (GPa) = 47.03022 52.59075 49.81048
# Shear Modulus (GPa) = 26.63904 32.67271 29.65588
#
# Velocity S-wave (km/s) = 3.46598 3.83849 3.65698
# Velocity P-wave (km/s) = 6.10131 6.58494 6.34773
#
# Compressibility (1/GPa) = 0.02126293
#
# Stress axis : x y z
#
# Youngs Moduli (GPa) = 90.69170 46.00324 63.30411
#
# Poissons Ratio (x) = 0.29646 -0.07200
# Poissons Ratio (y) = 0.58444 0.52809
# Poissons Ratio (z) = -0.10315 0.38376
#
# Static dielectric constant tensor:
#      x y z
#    x 1.870730 0.024200 0.047850 
#    y 0.024200 1.891550 -0.046030 
#    z 0.047850 -0.046030 1.995160 
# 
# From -- ./inp_files/503393.got.cif
#   From: 2010.05.17/outbox.cif.g08.bks.cpg/sg2_252_cif.got.tgz:503393.got - 2010.06.03 11:33:40.
