data_PCOD9029099
_publ_section_title
;
Structure prediction by ZEFSAII (Michael W. Deem and Ramdas Pophale) SiO2 
 PCOD9029099
Probable space group: P -1
;
_chemical_formula_sum "Si O2"
_cell_formula_units_Z 14
_cell_length_a 10.984517
_cell_length_b 14.810975
_cell_length_c 9.431609
_cell_angle_alpha 133.654335
_cell_angle_beta 83.278530
_cell_angle_gamma 60.205541
_cell_volume 655.668288
_symmetry_space_group_name_H-M "P -1"
_symmetry_group_IT_number 2
_symmetry_cell_setting 'triclinic'
loop_
_space_group_symop_operation_xyz
x,y,z
-x,-y,-z
loop_
_atom_site_type_symbol
_atom_site_label
_atom_site_fract_x
_atom_site_fract_y
_atom_site_fract_z
Si Si1 0.095931 0.853792 0.693557
Si Si2 0.305056 0.167380 0.108067
Si Si3 0.609407 0.279862 0.713562
Si Si4 0.842967 0.952260 0.572660
Si Si5 0.584129 0.926842 0.567694
Si Si6 0.871947 0.448595 0.589034
Si Si7 0.809422 0.526042 0.011659
O O1 0.258496 0.807983 0.541004
O O2 0.196255 0.639478 0.495384
O O3 0.931433 0.946861 0.694732
O O4 0.000000 0.000000 0.000000
O O5 0.240416 0.362585 0.294019
O O6 0.109774 0.259736 0.303011
O O7 0.500000 0.000000 0.000000
O O8 0.394331 0.039249 0.811461
O O9 0.421167 0.338947 0.793660
O O10 0.757324 0.115866 0.643808
O O11 0.500000 0.500000 0.000000
O O12 0.663442 0.998622 0.680400
O O13 0.028339 0.713526 0.227526
O O14 0.784343 0.673035 0.264251
O O15 0.500000 0.000000 0.500000
O O16 0.846124 0.516237 0.827887
#
# Coordination Sequence:
#
# PCOD9029099 Si02
#       7
#     2   2   2   2   2   2   2
#     4  11  26  46  69  97 139 183 224 279 335 400
#     4  11  23  41  64  97 132 173 215 274 340 393
#     4  12  23  44  75  97 136 181 232 277 330 404
#     4  11  24  44  74  98 138 177 228 282 340 394
#     4  12  23  43  73 101 135 173 228 281 339 407
#     4  10  22  42  66  91 137 171 212 280 335 384
#     4  11  23  44  70 103 132 179 224 280 339 402
#
# _framework density 21.352260999999999
#
# number of rings (size 3 to 8) (size 9 to 14) (size 15 to 20)
#    0.000    0.857    5.714    2.571    2.000    0.000 
#    2.571    0.714    0.000    0.000    0.000    0.000 
#    0.000    0.000    0.000    0.000    0.000    0.000 
#
# Total GULP energy -78252.742707 kJ/mol
# GULP energy per Si atom -5589.481622 kJ/mol
# Density = 2.130366 g / cm^3
# Si number density = 21.352261 Si / 1000 Ang^3
#
#
#
# Elastic Constant Matrix: (Units=GPa)
#
#
# Indices 1 2 3 4 5 6 
#
# 1 70.4415 27.5525 35.9683 -14.2362 -14.2318 5.2915
# 2 27.5525 119.0288 44.3652 17.5384 -6.8884 18.4642
# 3 35.9683 44.3652 145.7568 -17.1595 -16.2098 11.6499
# 4 -14.2362 17.5384 -17.1595 48.0430 10.1541 -5.5210
# 5 -14.2318 -6.8884 -16.2098 10.1541 44.4498 2.5466
# 6 5.2915 18.4642 11.6499 -5.5210 2.5466 29.8617
#
#
#
# Elastic Compliance Matrix: (Units=1/GPa)
#
#
# Indices 1 2 3 4 5 6 
#
# 1 0.018809 -0.004291 -0.002397 0.005747 0.003110 0.001053
# 2 -0.004291 0.013131 -0.003093 -0.008482 0.001923 -0.007885
# 3 -0.002397 -0.003093 0.008979 0.003269 0.001319 -0.000674
# 4 0.005747 -0.008482 0.003269 0.028928 -0.005392 0.008759
# 5 0.003110 0.001923 0.001319 -0.005392 0.025816 -0.005453
# 6 0.001053 -0.007885 -0.000674 0.008759 -0.005453 0.040524
#
#
# Mechanical properties :
#
#
# Convention : Reuss Voigt Hill
#
# Bulk Modulus (GPa) = 46.81889 61.22213 54.02051
# Shear Modulus (GPa) = 30.69948 39.62697 35.16322
#
# Velocity S-wave (km/s) = 3.79590 4.31265 4.06250
# Velocity P-wave (km/s) = 6.41765 7.31665 6.88185
#
# Compressibility (1/GPa) = 0.02135890
#
# Stress axis : x y z
#
# Youngs Moduli (GPa) = 53.16534 76.15302 111.36903
#
# Poissons Ratio (x) = 0.32674 0.26698
# Poissons Ratio (y) = 0.22811 0.34443
# Poissons Ratio (z) = 0.12745 0.23552
#
# Static dielectric constant tensor:
#      x y z
#    x 2.112120 -0.501460 0.341010 
#    y -0.501460 2.920720 -0.703360 
#    z 0.341010 -0.703360 2.265230 
# 
# From -- ./inp_files/271076.got.cif
#   From: 2010.05.17/outbox.cif.g08.bks.cpg/sg2_136_cif.got.tgz:271076.got - 2010.06.03 11:33:40.
