data_PCOD9029827
_publ_section_title
;
Structure prediction by ZEFSAII (Michael W. Deem and Ramdas Pophale) SiO2 
 PCOD9029827
Probable space group: P -1
;
_chemical_formula_sum "Si O2"
_cell_formula_units_Z 16
_cell_length_a 20.970827
_cell_length_b 18.394737
_cell_length_c 9.062897
_cell_angle_alpha 32.739459
_cell_angle_beta 29.162672
_cell_angle_gamma 29.952194
_cell_volume 797.578323
_symmetry_space_group_name_H-M "P -1"
_symmetry_group_IT_number 2
_symmetry_cell_setting 'triclinic'
loop_
_space_group_symop_operation_xyz
x,y,z
-x,-y,-z
loop_
_atom_site_type_symbol
_atom_site_label
_atom_site_fract_x
_atom_site_fract_y
_atom_site_fract_z
Si Si1 0.088529 0.390178 0.149466
Si Si2 0.383593 0.963781 0.875090
Si Si3 0.206099 0.576364 0.762369
Si Si4 0.346397 0.036418 0.168265
Si Si5 0.937500 0.908608 0.689503
Si Si6 0.186085 0.583113 0.147447
Si Si7 0.479517 0.611093 0.212733
Si Si8 0.853350 0.088117 0.245431
O O1 0.202615 0.209897 0.185311
O O2 0.955231 0.413753 0.491633
O O3 0.196336 0.442151 0.925290
O O4 0.000000 0.500000 0.000000
O O5 0.500000 0.000000 0.500000
O O6 0.418589 0.787345 0.085894
O O7 0.385148 0.004801 0.971925
O O8 0.215632 0.070998 0.967478
O O9 0.353414 0.593361 0.407518
O O10 0.063400 0.732484 0.726384
O O11 0.183874 0.569306 0.996819
O O12 0.285805 0.919190 0.535089
O O13 0.500000 0.000000 0.000000
O O14 0.891132 0.989985 0.486613
O O15 0.000000 0.000000 0.500000
O O16 0.353793 0.450354 0.085061
O O17 0.179224 0.743310 0.931336
O O18 0.500000 0.500000 0.500000
O O19 0.000000 0.000000 0.000000
#
# Coordination Sequence:
#
# PCOD9029827 Si02
#       8
#     2   2   2   2   2   2   2   2
#     4  12  27  45  63  98 141 176 213 272 339 395
#     4  11  25  42  68  97 130 169 221 278 327 389
#     4  11  23  42  70  96 129 170 222 271 327 398
#     4  11  26  44  66  95 135 174 218 272 333 394
#     4  11  20  41  66  95 127 163 218 271 325 387
#     4  11  24  42  70  96 126 175 224 267 327 398
#     4  10  22  42  68  96 128 168 221 273 325 384
#     4  11  22  43  66  93 130 172 216 267 329 396
#
# _framework density 20.060725999999999
#
# number of rings (size 3 to 8) (size 9 to 14) (size 15 to 20)
#    0.000    1.000    3.750    4.125    8.750    2.000 
#    0.000    0.625    0.000    0.000    0.000    0.000 
#    0.000    0.000    0.000    0.000    0.000    0.000 
#
# Total GULP energy -89337.256347 kJ/mol
# GULP energy per Si atom -5583.578522 kJ/mol
# Density = 2.001507 g / cm^3
# Si number density = 20.060726 Si / 1000 Ang^3
#
#
#
# Elastic Constant Matrix: (Units=GPa)
#
#
# Indices 1 2 3 4 5 6 
#
# 1 101.4444 33.1824 34.5957 8.2357 -36.9100 8.6833
# 2 33.1824 87.4120 12.5530 7.5036 -13.1480 1.6489
# 3 34.5957 12.5530 69.3936 21.7437 -29.4409 4.7558
# 4 8.2357 7.5036 21.7437 41.9728 -1.5044 -9.3971
# 5 -36.9100 -13.1480 -29.4409 -1.5044 34.4659 0.3310
# 6 8.6833 1.6489 4.7558 -9.3971 0.3310 41.0292
#
#
#
# Elastic Compliance Matrix: (Units=1/GPa)
#
#
# Indices 1 2 3 4 5 6 
#
# 1 0.018428 -0.003849 0.001251 -0.003998 0.019209 -0.004961
# 2 -0.003849 0.013195 0.000859 -0.002060 0.001558 -0.000300
# 3 0.001251 0.000859 0.031554 -0.017582 0.027932 -0.008209
# 4 -0.003998 -0.002060 -0.017582 0.035960 -0.018625 0.011353
# 5 0.019209 0.001558 0.027932 -0.018625 0.073344 -0.012223
# 6 -0.004961 -0.000300 -0.008209 0.011353 -0.012223 0.029085
#
#
# Mechanical properties :
#
#
# Convention : Reuss Voigt Hill
#
# Bulk Modulus (GPa) = 16.75067 46.54580 31.64823
# Shear Modulus (GPa) = 22.22790 35.35485 28.79138
#
# Velocity S-wave (km/s) = 3.33232 4.20264 3.79253
# Velocity P-wave (km/s) = 4.81393 6.84123 5.91508
#
# Compressibility (1/GPa) = 0.05969911
#
# Stress axis : x y z
#
# Youngs Moduli (GPa) = 54.26484 75.78790 31.69219
#
# Poissons Ratio (x) = 0.29172 -0.03966
# Poissons Ratio (y) = 0.20887 -0.02723
# Poissons Ratio (z) = -0.06790 -0.06512
#
# Static dielectric constant tensor:
#      x y z
#    x 1.795820 0.084980 -0.070880 
#    y 0.084980 1.847810 -0.042990 
#    z -0.070880 -0.042990 1.803850 
# 
# From -- ./inp_files/348769.got.cif
#   From: 2010.05.17/outbox.cif.g08.bks.cpg/sg2_175_cif.got.tgz:348769.got - 2010.06.03 11:33:40.
