data_PCOD9029038
_publ_section_title
;
Structure prediction by ZEFSAII (Michael W. Deem and Ramdas Pophale) SiO2 
 PCOD9029038
Probable space group: P -1
;
_chemical_formula_sum "Si O2"
_cell_formula_units_Z 16
_cell_length_a 14.823287
_cell_length_b 14.088991
_cell_length_c 14.372616
_cell_angle_alpha 20.888764
_cell_angle_beta 142.461203
_cell_angle_gamma 141.767205
_cell_volume 638.164516
_symmetry_space_group_name_H-M "P -1"
_symmetry_group_IT_number 2
_symmetry_cell_setting 'triclinic'
loop_
_space_group_symop_operation_xyz
x,y,z
-x,-y,-z
loop_
_atom_site_type_symbol
_atom_site_label
_atom_site_fract_x
_atom_site_fract_y
_atom_site_fract_z
Si Si1 0.391068 0.521921 0.243086
Si Si2 0.991528 0.375118 0.448931
Si Si3 0.557933 0.701625 0.694047
Si Si4 0.830673 0.750884 0.554042
Si Si5 0.848575 0.875937 0.904088
Si Si6 0.644633 0.898385 0.884741
Si Si7 0.271841 0.165044 0.797650
Si Si8 0.871656 0.226137 0.289313
O O1 0.394155 0.283187 0.389416
O O2 0.323299 0.442363 0.361705
O O3 0.560970 0.686717 0.230965
O O4 0.273541 0.681021 0.953565
O O5 0.888160 0.250329 0.390282
O O6 0.160957 0.347590 0.585301
O O7 0.926452 0.178464 0.660286
O O8 0.962235 0.673458 0.166934
O O9 0.703102 0.773678 0.812096
O O10 0.466496 0.395236 0.920747
O O11 0.445492 0.907609 0.421429
O O12 0.805449 0.923039 0.283990
O O13 0.966960 0.604516 0.772685
O O14 0.871652 0.935700 0.509298
O O15 0.781405 0.860054 0.966583
O O16 0.700250 0.013381 0.927314
#
# Coordination Sequence:
#
# PCOD9029038 Si02
#       8
#     2   2   2   2   2   2   2   2
#     4  11  22  40  70  93 135 180 219 279 340 400
#     4  11  25  44  69 104 135 180 226 282 335 402
#     4  11  23  41  70 104 139 169 230 283 340 394
#     4  10  22  43  67  97 133 177 227 275 338 403
#     4  12  23  43  75  96 137 181 230 275 344 397
#     4  11  25  44  67 104 138 179 222 285 337 405
#     4  10  26  45  61 102 141 177 227 277 336 404
#     4  10  22  42  66 102 130 171 231 280 333 399
#
# _framework density 25.071906999999999
#
# number of rings (size 3 to 8) (size 9 to 14) (size 15 to 20)
#    0.000    1.250    1.250    3.750    5.250    3.500 
#   11.250    0.000    0.000    0.000    0.000    0.000 
#    0.000    0.000    0.000    0.000    0.000    0.000 
#
# Total GULP energy -89539.670253 kJ/mol
# GULP energy per Si atom -5596.229391 kJ/mol
# Density = 2.501484 g / cm^3
# Si number density = 25.071907 Si / 1000 Ang^3
#
#
#
# Elastic Constant Matrix: (Units=GPa)
#
#
# Indices 1 2 3 4 5 6 
#
# 1 126.3498 27.8248 13.9186 14.0144 -14.2522 18.2862
# 2 27.8248 106.8961 29.0675 29.7295 -7.1317 8.0785
# 3 13.9186 29.0675 76.3210 0.7254 2.3925 2.4615
# 4 14.0144 29.7295 0.7254 27.7562 5.2116 -6.5533
# 5 -14.2522 -7.1317 2.3925 5.2116 40.9419 8.8504
# 6 18.2862 8.0785 2.4615 -6.5533 8.8504 35.0507
#
#
#
# Elastic Compliance Matrix: (Units=1/GPa)
#
#
# Indices 1 2 3 4 5 6 
#
# 1 0.011727 0.002933 -0.003043 -0.013331 0.008916 -0.011324
# 2 0.002933 0.020722 -0.008066 -0.029036 0.011860 -0.014163
# 3 -0.003043 -0.008066 0.016611 0.012400 -0.006354 0.006203
# 4 -0.013331 -0.029036 0.012400 0.087723 -0.029508 0.036629
# 5 0.008916 0.011860 -0.006354 -0.029508 0.038517 -0.022181
# 6 -0.011324 -0.014163 0.006203 0.036629 -0.022181 0.049716
#
#
# Mechanical properties :
#
#
# Convention : Reuss Voigt Hill
#
# Bulk Modulus (GPa) = 30.57403 50.13207 40.35305
# Shear Modulus (GPa) = 19.82000 36.66684 28.24342
#
# Velocity S-wave (km/s) = 2.81468 3.82837 3.35997
# Velocity P-wave (km/s) = 4.77328 6.29131 5.58412
#
# Compressibility (1/GPa) = 0.03270750
#
# Stress axis : x y z
#
# Youngs Moduli (GPa) = 85.27213 48.25894 60.20163
#
# Poissons Ratio (x) = -0.14156 0.18322
# Poissons Ratio (y) = -0.25013 0.48558
# Poissons Ratio (z) = 0.25952 0.38925
#
# Static dielectric constant tensor:
#      x y z
#    x 2.001940 0.038100 -0.020050 
#    y 0.038100 2.031080 -0.020300 
#    z -0.020050 -0.020300 1.960060 
# 
# From -- ./inp_files/56929.got.cif
#   From: 2010.05.17/outbox.cif.g08.bks.cpg/sg2_29_cif.got.tgz:56929.got - 2010.06.03 11:33:40.
