data_PCOD9029952
_publ_section_title
;
Structure prediction by ZEFSAII (Michael W. Deem and Ramdas Pophale) SiO2 
 PCOD9029952
Probable space group: P -1
;
_chemical_formula_sum "Si O2"
_cell_formula_units_Z 13
_cell_length_a 12.379139
_cell_length_b 6.830980
_cell_length_c 6.968369
_cell_angle_alpha 65.724962
_cell_angle_beta 88.121115
_cell_angle_gamma 64.335661
_cell_volume 476.536913
_symmetry_space_group_name_H-M "P -1"
_symmetry_group_IT_number 2
_symmetry_cell_setting 'triclinic'
loop_
_space_group_symop_operation_xyz
x,y,z
-x,-y,-z
loop_
_atom_site_type_symbol
_atom_site_label
_atom_site_fract_x
_atom_site_fract_y
_atom_site_fract_z
Si Si1 0.145352 0.575601 0.960919
Si Si2 0.404427 0.418257 0.116195
Si Si3 0.863789 0.552372 0.538949
Si Si4 0.219332 0.110733 0.896830
Si Si5 0.000000 0.000000 0.000000
Si Si6 0.332604 0.570963 0.501200
Si Si7 0.565058 0.105491 0.744357
O O1 0.279656 0.553057 0.947349
O O2 0.135911 0.501617 0.214570
O O3 0.148648 0.369307 0.906414
O O4 0.033844 0.840249 0.857711
O O5 0.371766 0.499005 0.305217
O O6 0.440601 0.133989 0.226480
O O7 0.500000 0.500000 0.000000
O O8 0.780404 0.818189 0.353217
O O9 0.804433 0.395344 0.503534
O O10 0.000000 0.500000 0.500000
O O11 0.349831 0.975047 0.040075
O O12 0.134023 0.987182 0.987285
O O13 0.432492 0.328518 0.695775
O O14 0.362902 0.793228 0.440356
#
# Coordination Sequence:
#
# PCOD9029952 Si02
#       7
#     2   2   2   2   1   2   2
#     4  10  24  45  66  99 141 180 230 299 341 422
#     4  10  22  42  69 100 141 183 232 287 357 422
#     4  11  23  43  69 100 141 187 237 285 350 423
#     4  11  24  43  70  96 139 183 234 290 351 419
#     4  12  22  42  70  98 136 184 234 286 356 410
#     4  10  23  43  67  99 147 179 234 300 341 424
#     4  10  23  41  67 100 133 186 230 286 359 412
#
# _framework density 27.280152999999999
#
# number of rings (size 3 to 8) (size 9 to 14) (size 15 to 20)
#    0.000    1.538    1.538    2.769    0.000    8.615 
#    0.000    7.692    0.000    0.000    0.000    0.000 
#    0.000    0.000    0.000    0.000    0.000    0.000 
#
# Total GULP energy -72559.242171 kJ/mol
# GULP energy per Si atom -5581.480167 kJ/mol
# Density = 2.721806 g / cm^3
# Si number density = 27.280153 Si / 1000 Ang^3
#
#
#
# Elastic Constant Matrix: (Units=GPa)
#
#
# Indices 1 2 3 4 5 6 
#
# 1 180.0532 55.4913 51.0361 -15.6035 -28.2665 30.2123
# 2 55.4913 128.6397 -16.7203 -17.9148 -28.4092 19.5238
# 3 51.0361 -16.7203 51.3167 -29.7524 -16.3030 26.5518
# 4 -15.6035 -17.9148 -29.7524 40.7204 3.2700 -3.7366
# 5 -28.2665 -28.4092 -16.3030 3.2700 54.6436 -3.3468
# 6 30.2123 19.5238 26.5518 -3.7366 -3.3468 31.8634
#
#
#
# Elastic Compliance Matrix: (Units=1/GPa)
#
#
# Indices 1 2 3 4 5 6 
#
# 1 0.005954 0.003258 0.009170 0.008671 0.006157 -0.013620
# 2 0.003258 -0.004362 -0.027958 -0.018735 -0.006578 0.019993
# 3 0.009170 -0.027958 -0.052742 -0.041530 -0.020262 0.045387
# 4 0.008671 -0.018735 -0.041530 -0.006232 -0.015095 0.035549
# 5 0.006157 -0.006578 -0.020262 -0.015095 0.013827 0.014760
# 6 -0.013620 0.019993 0.045387 0.035549 0.014760 -0.000054
#
#
# Mechanical properties :
#
#
# Convention : Reuss Voigt Hill
#
# Bulk Modulus (GPa) = -12.16416 59.95821 23.89702
# Shear Modulus (GPa) = -125.14895 43.45898 -40.84499
#
# Velocity S-wave (km/s) = -6.78049 3.99565 -3.87362
# Velocity P-wave (km/s) = 8.10979 6.58129 3.35077
#
# Compressibility (1/GPa) = -0.08220869
#
# Stress axis : x y z
#
# Youngs Moduli (GPa) = 167.96117 -229.26483 -18.96031
#
# Poissons Ratio (x) = 0.74693 0.17387
# Poissons Ratio (y) = -0.54721 -0.53009
# Poissons Ratio (z) = -1.54028 -6.40974
#
# Static dielectric constant tensor:
#      x y z
#    x 2.232190 -0.168280 0.027770 
#    y -0.168280 2.442430 -0.072300 
#    z 0.027770 -0.072300 2.277730 
# 
# From -- ./inp_files/228886.got.cif
#   From: 2010.05.17/outbox.cif.g08.bks.cpg/sg2_115_cif.got.tgz:228886.got - 2010.06.03 11:33:40.
