data_PCOD9029001
_publ_section_title
;
Structure prediction by ZEFSAII (Michael W. Deem and Ramdas Pophale) SiO2 
 PCOD9029001
Probable space group: P -1
;
_chemical_formula_sum "Si O2"
_cell_formula_units_Z 14
_cell_length_a 11.013300
_cell_length_b 7.118757
_cell_length_c 11.301459
_cell_angle_alpha 104.429989
_cell_angle_beta 43.126225
_cell_angle_gamma 117.562702
_cell_volume 531.204149
_symmetry_space_group_name_H-M "P -1"
_symmetry_group_IT_number 2
_symmetry_cell_setting 'triclinic'
loop_
_space_group_symop_operation_xyz
x,y,z
-x,-y,-z
loop_
_atom_site_type_symbol
_atom_site_label
_atom_site_fract_x
_atom_site_fract_y
_atom_site_fract_z
Si Si1 0.600631 0.720817 0.094413
Si Si2 0.846784 0.909799 0.279003
Si Si3 0.676757 0.132777 0.807841
Si Si4 0.408433 0.673208 0.577445
Si Si5 0.130491 0.839062 0.902781
Si Si6 0.083070 0.347357 0.606923
Si Si7 0.704294 0.718967 0.749045
O O1 0.409486 0.763779 0.209513
O O2 0.505318 0.476264 0.167768
O O3 0.731938 0.919189 0.112434
O O4 0.698581 0.732168 0.897193
O O5 0.617943 0.869078 0.437323
O O6 0.898337 0.843431 0.358873
O O7 0.933061 0.133482 0.181167
O O8 0.939461 0.772384 0.111790
O O9 0.860498 0.310041 0.772249
O O10 0.730158 0.939785 0.705005
O O11 0.500000 0.000000 0.000000
O O12 0.500000 0.500000 0.500000
O O13 0.274611 0.721274 0.777404
O O14 0.252253 0.565988 0.567643
O O15 0.124768 0.327535 0.436997
#
# Coordination Sequence:
#
# PCOD9029001 Si02
#       7
#     2   2   2   2   2   2   2
#     4  10  23  44  71 105 136 185 237 290 365 428
#     4  10  23  43  69 101 142 190 231 298 359 418
#     4  10  22  42  65  99 136 182 227 290 353 413
#     4  10  24  43  68 104 140 189 238 299 357 427
#     4  11  23  46  70 106 144 186 244 296 360 431
#     4  11  23  44  65 105 139 179 239 289 363 427
#     4  10  22  43  67  99 139 180 230 289 353 427
#
# _framework density 26.355218000000001
#
# number of rings (size 3 to 8) (size 9 to 14) (size 15 to 20)
#    0.000    1.714    0.000    3.429    4.000    2.857 
#   23.143    0.000    0.000    0.000    0.000    0.000 
#    0.000    0.000    0.000    0.000    0.000    0.000 
#
# Total GULP energy -78053.340670 kJ/mol
# GULP energy per Si atom -5575.238619 kJ/mol
# Density = 2.629523 g / cm^3
# Si number density = 26.355218 Si / 1000 Ang^3
#
#
#
# Elastic Constant Matrix: (Units=GPa)
#
#
# Indices 1 2 3 4 5 6 
#
# 1 108.1502 25.1170 34.9737 -2.8051 -27.8136 9.8523
# 2 25.1170 76.2635 21.0217 4.7419 -3.6500 5.5796
# 3 34.9737 21.0217 157.7493 18.8077 -21.8251 -5.8799
# 4 -2.8051 4.7419 18.8077 39.3314 0.4158 -4.7892
# 5 -27.8136 -3.6500 -21.8251 0.4158 52.6604 -8.5654
# 6 9.8523 5.5796 -5.8799 -4.7892 -8.5654 34.1687
#
#
#
# Elastic Compliance Matrix: (Units=1/GPa)
#
#
# Indices 1 2 3 4 5 6 
#
# 1 0.012111 -0.003227 -0.001834 0.001864 0.005116 -0.001737
# 2 -0.003227 0.014747 -0.001368 -0.001623 -0.001618 -0.002346
# 3 -0.001834 -0.001368 0.007775 -0.003437 0.002551 0.002248
# 4 0.001864 -0.001623 -0.003437 0.027760 -0.000291 0.002954
# 5 0.005116 -0.001618 0.002551 -0.000291 0.023464 0.005069
# 6 -0.001737 -0.002346 0.002248 0.002954 0.005069 0.032222
#
#
# Mechanical properties :
#
#
# Convention : Reuss Voigt Hill
#
# Bulk Modulus (GPa) = 45.92395 56.04308 50.98351
# Shear Modulus (GPa) = 36.18064 42.63548 39.40806
#
# Velocity S-wave (km/s) = 3.70916 4.02646 3.87106
# Velocity P-wave (km/s) = 5.98387 6.55188 6.27431
#
# Compressibility (1/GPa) = 0.02177513
#
# Stress axis : x y z
#
# Youngs Moduli (GPa) = 82.56756 67.80877 128.62336
#
# Poissons Ratio (x) = 0.21883 0.23594
# Poissons Ratio (y) = 0.26646 0.17590
# Poissons Ratio (z) = 0.15146 0.09273
#
# Static dielectric constant tensor:
#      x y z
#    x 2.118340 0.045690 -0.056370 
#    y 0.045690 2.303120 -0.019420 
#    z -0.056370 -0.019420 2.162810 
# 
# From -- ./inp_files/417747.got.cif
#   From: 2010.05.17/outbox.cif.g08.bks.cpg/sg2_209_cif.got.tgz:417747.got - 2010.06.03 11:33:40.
