data_PCOD9029300
_publ_section_title
;
Structure prediction by ZEFSAII (Michael W. Deem and Ramdas Pophale) SiO2 
 PCOD9029300
Probable space group: P -1
;
_chemical_formula_sum "Si O2"
_cell_formula_units_Z 16
_cell_length_a 5.483046
_cell_length_b 15.998565
_cell_length_c 11.186843
_cell_angle_alpha 122.922787
_cell_angle_beta 63.774179
_cell_angle_gamma 87.157921
_cell_volume 682.025985
_symmetry_space_group_name_H-M "P -1"
_symmetry_group_IT_number 2
_symmetry_cell_setting 'triclinic'
loop_
_space_group_symop_operation_xyz
x,y,z
-x,-y,-z
loop_
_atom_site_type_symbol
_atom_site_label
_atom_site_fract_x
_atom_site_fract_y
_atom_site_fract_z
Si Si1 0.924793 0.989184 0.868935
Si Si2 0.552750 0.605676 0.351288
Si Si3 0.956200 0.935536 0.344140
Si Si4 0.287917 0.182281 0.156447
Si Si5 0.255701 0.243042 0.714139
Si Si6 0.658603 0.424741 0.015064
Si Si7 0.910138 0.599528 0.506046
Si Si8 0.591435 0.740821 0.035671
O O1 0.101055 0.005755 0.727967
O O2 0.910834 0.871439 0.777435
O O3 0.602085 0.084097 0.001977
O O4 0.000000 0.000000 0.000000
O O5 0.548163 0.716822 0.382042
O O6 0.734684 0.501034 0.149968
O O7 0.723692 0.585804 0.423939
O O8 0.222228 0.609850 0.421820
O O9 0.271070 0.837081 0.180543
O O10 0.733229 0.877723 0.381940
O O11 0.000000 0.000000 0.500000
O O12 0.292477 0.285012 0.304272
O O13 0.204017 0.226295 0.073793
O O14 0.299223 0.268830 0.861387
O O15 0.928087 0.327318 0.822928
O O16 0.500000 0.500000 0.000000
O O17 0.456359 0.367371 0.073276
O O18 0.000000 0.500000 0.500000
#
# Coordination Sequence:
#
# PCOD9029300 Si02
#       8
#     2   2   2   2   2   2   2   2
#     4  10  22  45  72 100 135 189 249 295 365 434
#     4  12  27  44  73 106 149 193 240 298 368 430
#     4  10  24  43  68 102 142 178 232 309 371 428
#     4  10  24  43  70  98 138 190 246 294 356 441
#     4  11  24  40  70 102 135 185 236 294 367 433
#     4  11  22  41  66 100 143 185 238 288 357 444
#     4  12  29  49  70 108 152 196 241 300 365 435
#     4  10  22  42  67 100 136 181 238 292 359 432
#
# _framework density 23.459517999999999
#
# number of rings (size 3 to 8) (size 9 to 14) (size 15 to 20)
#    0.000    1.250    1.250    3.000    8.750    0.500 
#    0.000    0.000    0.000    0.000    0.000    0.000 
#    0.000    0.000    0.000    0.000    0.000    0.000 
#
# Total GULP energy -89410.008302 kJ/mol
# GULP energy per Si atom -5588.125519 kJ/mol
# Density = 2.340612 g / cm^3
# Si number density = 23.459518 Si / 1000 Ang^3
#
#
#
# Elastic Constant Matrix: (Units=GPa)
#
#
# Indices 1 2 3 4 5 6 
#
# 1 65.0476 37.7315 17.1810 -9.2664 23.1129 -3.7787
# 2 37.7315 187.8517 52.5195 -3.8622 17.2299 11.7814
# 3 17.1810 52.5195 71.9254 0.2543 22.0470 8.8404
# 4 -9.2664 -3.8622 0.2543 31.0159 5.6532 8.8043
# 5 23.1129 17.2299 22.0470 5.6532 51.0577 -5.5887
# 6 -3.7787 11.7814 8.8404 8.8043 -5.5887 44.5945
#
#
#
# Elastic Compliance Matrix: (Units=1/GPa)
#
#
# Indices 1 2 3 4 5 6 
#
# 1 0.021862 -0.003393 0.000218 0.007901 -0.009729 -0.000074
# 2 -0.003393 0.007298 -0.004662 0.000100 0.000944 -0.001193
# 3 0.000218 -0.004662 0.020178 0.001930 -0.007903 -0.004121
# 4 0.007901 0.000100 0.001930 0.038809 -0.009684 -0.008615
# 5 -0.009729 0.000944 -0.007903 -0.009684 0.028814 0.006016
# 6 -0.000074 -0.001193 -0.004121 -0.008615 0.006016 0.026005
#
#
# Mechanical properties :
#
#
# Convention : Reuss Voigt Hill
#
# Bulk Modulus (GPa) = 29.70437 59.96543 44.83490
# Shear Modulus (GPa) = 29.43577 39.82645 34.63111
#
# Velocity S-wave (km/s) = 3.54608 4.12475 3.84631
# Velocity P-wave (km/s) = 5.42731 6.94992 6.23527
#
# Compressibility (1/GPa) = 0.03366508
#
# Stress axis : x y z
#
# Youngs Moduli (GPa) = 45.74171 137.01469 49.55986
#
# Poissons Ratio (x) = 0.46486 -0.01083
# Poissons Ratio (y) = 0.15519 0.23105
# Poissons Ratio (z) = -0.00999 0.63878
#
# Static dielectric constant tensor:
#      x y z
#    x 1.992270 0.047710 -0.042230 
#    y 0.047710 1.936850 -0.042730 
#    z -0.042230 -0.042730 1.913030 
# 
# From -- ./inp_files/367894.got.cif
#   From: 2010.05.17/outbox.cif.g08.bks.cpg/sg2_184_cif.got.tgz:367894.got - 2010.06.03 11:33:40.
