data_PCOD9029095
_publ_section_title
;
Structure prediction by ZEFSAII (Michael W. Deem and Ramdas Pophale) SiO2 
 PCOD9029095
Probable space group: P -1
;
_chemical_formula_sum "Si O2"
_cell_formula_units_Z 16
_cell_length_a 15.267248
_cell_length_b 8.158578
_cell_length_c 8.209687
_cell_angle_alpha 84.413597
_cell_angle_beta 50.537776
_cell_angle_gamma 114.344554
_cell_volume 618.340651
_symmetry_space_group_name_H-M "P -1"
_symmetry_group_IT_number 2
_symmetry_cell_setting 'triclinic'
loop_
_space_group_symop_operation_xyz
x,y,z
-x,-y,-z
loop_
_atom_site_type_symbol
_atom_site_label
_atom_site_fract_x
_atom_site_fract_y
_atom_site_fract_z
Si Si1 0.585419 0.965640 0.035893
Si Si2 0.931418 0.724924 0.556472
Si Si3 0.333660 0.298209 0.203042
Si Si4 0.152569 0.567928 0.763522
Si Si5 0.030111 0.886622 0.102851
Si Si6 0.858025 0.304216 0.560706
Si Si7 0.409501 0.655560 0.577825
Si Si8 0.676772 0.785477 0.407050
O O1 0.652681 0.859715 0.890749
O O2 0.737471 0.194267 0.855580
O O3 0.491726 0.815509 0.311810
O O4 0.500000 0.000000 0.000000
O O5 0.774078 0.665657 0.756644
O O6 0.932455 0.546575 0.483294
O O7 0.017780 0.914409 0.306262
O O8 0.035204 0.757144 0.574705
O O9 0.284774 0.219111 0.452653
O O10 0.500000 0.500000 0.000000
O O11 0.212223 0.733908 0.531058
O O12 0.265468 0.633419 0.765196
O O13 0.101350 0.350740 0.766736
O O14 0.000000 0.500000 0.000000
O O15 0.197579 0.999859 0.852847
O O16 0.000000 0.000000 0.000000
O O17 0.525375 0.747542 0.575149
O O18 0.357756 0.422328 0.618382
#
# Coordination Sequence:
#
# PCOD9029095 Si02
#       8
#     2   2   2   2   2   2   2   2
#     4  12  24  42  68  94 131 175 211 266 332 385
#     4  10  22  42  66  95 125 169 218 267 318 384
#     4  12  24  40  65  97 132 168 222 262 319 389
#     4  11  24  41  63  93 129 169 210 262 321 384
#     4  11  20  39  68  89 125 167 214 256 325 381
#     4  10  22  42  66  91 130 169 211 267 328 377
#     4  11  23  44  66  95 135 166 215 269 333 379
#     4  11  23  42  68  99 125 172 215 272 320 385
#
# _framework density 25.875703000000001
#
# number of rings (size 3 to 8) (size 9 to 14) (size 15 to 20)
#    0.000    1.000    5.000    2.250    1.750    1.500 
#    0.000    3.750    0.000    0.000    0.000    0.000 
#    0.000    0.000    0.000    0.000    0.000    0.000 
#
# Total GULP energy -89293.311193 kJ/mol
# GULP energy per Si atom -5580.831950 kJ/mol
# Density = 2.581681 g / cm^3
# Si number density = 25.875703 Si / 1000 Ang^3
#
#
#
# Elastic Constant Matrix: (Units=GPa)
#
#
# Indices 1 2 3 4 5 6 
#
# 1 186.6816 34.3106 21.1087 -1.1166 -43.5608 -40.7137
# 2 34.3106 25.6475 -5.3144 0.6781 -0.9393 -21.8705
# 3 21.1087 -5.3144 91.0124 -10.8597 -27.3874 -10.2469
# 4 -1.1166 0.6781 -10.8597 28.1695 -4.2250 -8.2952
# 5 -43.5608 -0.9393 -27.3874 -4.2250 48.2630 2.6881
# 6 -40.7137 -21.8705 -10.2469 -8.2952 2.6881 37.7752
#
#
#
# Elastic Compliance Matrix: (Units=1/GPa)
#
#
# Indices 1 2 3 4 5 6 
#
# 1 0.010769 -0.005691 0.002180 0.005798 0.010830 0.009406
# 2 -0.005691 0.106995 0.020185 0.025577 0.006940 0.066410
# 3 0.002180 0.020185 0.020281 0.016020 0.014043 0.022056
# 4 0.005798 0.025577 0.016020 0.054568 0.017586 0.036135
# 5 0.010830 0.006940 0.014043 0.017586 0.038991 0.020587
# 6 0.009406 0.066410 0.022056 0.036135 0.020587 0.087512
#
#
# Mechanical properties :
#
#
# Convention : Reuss Voigt Hill
#
# Bulk Modulus (GPa) = 5.83458 44.83902 25.33680
# Shear Modulus (GPa) = 14.58149 39.72399 27.15274
#
# Velocity S-wave (km/s) = 2.37643 3.92239 3.24289
# Velocity P-wave (km/s) = 3.12884 6.15466 4.88208
#
# Compressibility (1/GPa) = 0.17139195
#
# Stress axis : x y z
#
# Youngs Moduli (GPa) = 92.85558 9.34626 49.30684
#
# Poissons Ratio (x) = 0.05319 -0.10748
# Poissons Ratio (y) = 0.52847 -0.99525
# Poissons Ratio (z) = -0.20240 -0.18865
#
# Static dielectric constant tensor:
#      x y z
#    x 2.170610 -0.027830 0.000340 
#    y -0.027830 9.415460 -2.254590 
#    z 0.000340 -2.254590 2.752530 
# 
# From -- ./inp_files/206877.got.cif
#   From: 2010.05.17/outbox.cif.g08.bks.cpg/sg2_104_cif.got.tgz:206877.got - 2010.06.03 11:33:40.
