data_PCOD9029850
_publ_section_title
;
Structure prediction by ZEFSAII (Michael W. Deem and Ramdas Pophale) SiO2 
 PCOD9029850
Probable space group: P -1
;
_chemical_formula_sum "Si O2"
_cell_formula_units_Z 14
_cell_length_a 16.120971
_cell_length_b 23.142215
_cell_length_c 6.633251
_cell_angle_alpha 65.210574
_cell_angle_beta 110.097951
_cell_angle_gamma 161.810566
_cell_volume 688.128246
_symmetry_space_group_name_H-M "P -1"
_symmetry_group_IT_number 2
_symmetry_cell_setting 'triclinic'
loop_
_space_group_symop_operation_xyz
x,y,z
-x,-y,-z
loop_
_atom_site_type_symbol
_atom_site_label
_atom_site_fract_x
_atom_site_fract_y
_atom_site_fract_z
Si Si1 0.724372 0.039119 0.125779
Si Si2 0.919752 0.038349 0.444070
Si Si3 0.320368 0.713042 0.939741
Si Si4 0.614553 0.725448 0.386592
Si Si5 0.478715 0.279285 0.080510
Si Si6 0.899213 0.606946 0.291408
Si Si7 0.589414 0.117730 0.549662
O O1 0.868028 0.075920 0.290379
O O2 0.614029 0.011543 0.245179
O O3 0.922119 0.210909 0.889069
O O4 0.468274 0.839711 0.076401
O O5 0.786354 0.902449 0.359381
O O6 0.760274 0.909678 0.701736
O O7 0.228779 0.228469 0.459872
O O8 0.409936 0.702391 0.988253
O O9 0.408065 0.816144 0.673325
O O10 0.000000 0.500000 0.000000
O O11 0.613163 0.729179 0.139233
O O12 0.310788 0.522823 0.514453
O O13 0.714428 0.462187 0.159226
O O14 0.111239 0.696155 0.394648
O O15 0.500000 0.000000 0.500000
#
# Coordination Sequence:
#
# PCOD9029850 Si02
#       7
#     2   2   2   2   2   2   2
#     4  12  25  44  64 100 132 168 215 264 322 392
#     4  10  22  42  68  97 127 171 220 265 318 381
#     4  12  25  39  68  96 129 172 214 266 316 384
#     4  10  22  43  68  94 131 170 216 269 318 379
#     4  11  22  42  66  98 128 169 218 266 321 379
#     4  11  26  40  66  97 132 171 215 263 324 385
#     4  12  26  43  65  93 133 173 208 264 326 381
#
# _framework density 20.345046
#
# number of rings (size 3 to 8) (size 9 to 14) (size 15 to 20)
#    0.000    0.857    4.286    2.571    6.000    1.714 
#    0.000    0.714    0.000    0.000    0.000    0.000 
#    0.000    0.000    0.000    0.000    0.000    0.000 
#
# Total GULP energy -78318.538377 kJ/mol
# GULP energy per Si atom -5594.181313 kJ/mol
# Density = 2.029874 g / cm^3
# Si number density = 20.345046 Si / 1000 Ang^3
#
#
#
# Elastic Constant Matrix: (Units=GPa)
#
#
# Indices 1 2 3 4 5 6 
#
# 1 55.6471 19.0132 9.4245 10.2887 7.3622 11.0206
# 2 19.0132 49.5273 11.4016 5.7879 13.0032 12.7159
# 3 9.4245 11.4016 85.0473 17.3239 12.9070 5.6117
# 4 10.2887 5.7879 17.3239 24.3731 2.1218 7.2351
# 5 7.3622 13.0032 12.9070 2.1218 33.9950 10.8126
# 6 11.0206 12.7159 5.6117 7.2351 10.8126 32.1397
#
#
#
# Elastic Compliance Matrix: (Units=1/GPa)
#
#
# Indices 1 2 3 4 5 6 
#
# 1 0.022261 -0.006742 0.000188 -0.006919 -0.000881 -0.003144
# 2 -0.006742 0.026214 -0.001421 -0.000139 -0.006208 -0.005692
# 3 0.000188 -0.001421 0.014663 -0.010305 -0.005043 0.001954
# 4 -0.006919 -0.000139 -0.010305 0.053708 0.005166 -0.009601
# 5 -0.000881 -0.006208 -0.005043 0.005166 0.036715 -0.009876
# 6 -0.003144 -0.005692 0.001954 -0.009601 -0.009876 0.039587
#
#
# Mechanical properties :
#
#
# Convention : Reuss Voigt Hill
#
# Bulk Modulus (GPa) = 21.19204 29.98892 25.59048
# Shear Modulus (GPa) = 22.23936 28.12705 25.18320
#
# Velocity S-wave (km/s) = 3.30981 3.72223 3.52206
# Velocity P-wave (km/s) = 5.00453 5.76589 5.39865
#
# Compressibility (1/GPa) = 0.04718754
#
# Stress axis : x y z
#
# Youngs Moduli (GPa) = 44.92216 38.14814 68.19714
#
# Poissons Ratio (x) = 0.25718 -0.01280
# Poissons Ratio (y) = 0.30285 0.09692
# Poissons Ratio (z) = -0.00843 0.05421
#
# Static dielectric constant tensor:
#      x y z
#    x 1.711360 0.014290 0.002720 
#    y 0.014290 1.706190 0.010480 
#    z 0.002720 0.010480 1.733720 
# 
# From -- ./inp_files/100891.got.cif
#   From: 2010.05.17/outbox.cif.g08.bks.cpg/sg2_51_cif.got.tgz:100891.got - 2010.06.03 11:33:40.
