data_PCOD9029689
_publ_section_title
;
Structure prediction by ZEFSAII (Michael W. Deem and Ramdas Pophale) SiO2 
 PCOD9029689
Probable space group: P -1
;
_chemical_formula_sum "Si O2"
_cell_formula_units_Z 14
_cell_length_a 9.597072
_cell_length_b 21.621367
_cell_length_c 22.348407
_cell_angle_alpha 17.642213
_cell_angle_beta 28.511429
_cell_angle_gamma 25.478998
_cell_volume 598.519488
_symmetry_space_group_name_H-M "P -1"
_symmetry_group_IT_number 2
_symmetry_cell_setting 'triclinic'
loop_
_space_group_symop_operation_xyz
x,y,z
-x,-y,-z
loop_
_atom_site_type_symbol
_atom_site_label
_atom_site_fract_x
_atom_site_fract_y
_atom_site_fract_z
Si Si1 0.366635 0.466783 0.898227
Si Si2 0.361841 0.472055 0.141282
Si Si3 0.032664 0.772825 0.525025
Si Si4 0.178363 0.062622 0.119505
Si Si5 0.203104 0.040400 0.831939
Si Si6 0.622907 0.279933 0.746498
Si Si7 0.237722 0.823197 0.524037
O O1 0.413596 0.569969 0.847494
O O2 0.428535 0.591077 0.703330
O O3 0.613917 0.201602 0.047376
O O4 0.000000 0.500000 0.000000
O O5 0.230200 0.287007 0.352423
O O6 0.500000 0.500000 0.000000
O O7 0.051289 0.723365 0.032164
O O8 0.014047 0.001166 0.293191
O O9 0.379198 0.547437 0.591107
O O10 0.014045 0.794710 0.583250
O O11 0.304378 0.838299 0.237125
O O12 0.441638 0.140620 0.972842
O O13 0.497710 0.108810 0.668898
O O14 0.945098 0.222469 0.715678
O O15 0.000000 0.000000 0.000000
O O16 0.000000 0.000000 0.500000
#
# Coordination Sequence:
#
# PCOD9029689 Si02
#       7
#     2   2   2   2   2   2   2
#     4  12  26  49  75 103 152 195 242 305 364 436
#     4  11  26  43  72 105 138 190 243 294 362 433
#     4  11  25  44  70 104 142 183 242 302 359 434
#     4  10  22  43  69 102 143 181 230 301 368 421
#     4  12  26  46  76 106 146 192 248 300 364 436
#     4  10  22  42  68 104 141 180 235 295 363 428
#     4  12  28  47  73 106 147 198 243 294 372 436
#
# _framework density 23.391052999999999
#
# number of rings (size 3 to 8) (size 9 to 14) (size 15 to 20)
#    0.000    0.857    2.857    3.000    4.000    6.286 
#    0.000    0.000    0.000    0.000    0.000    0.000 
#    0.000    0.000    0.000    0.000    0.000    0.000 
#
# Total GULP energy -78323.605678 kJ/mol
# GULP energy per Si atom -5594.543263 kJ/mol
# Density = 2.333781 g / cm^3
# Si number density = 23.391053 Si / 1000 Ang^3
#
#
#
# Elastic Constant Matrix: (Units=GPa)
#
#
# Indices 1 2 3 4 5 6 
#
# 1 156.2557 17.5374 43.0872 9.7998 -19.6482 -6.2494
# 2 17.5374 70.4465 1.2993 6.2679 -13.8337 -1.8929
# 3 43.0872 1.2993 91.2257 15.4999 4.8370 0.7054
# 4 9.7998 6.2679 15.4999 33.1192 0.1462 -5.4606
# 5 -19.6482 -13.8337 4.8370 0.1462 29.1331 1.7261
# 6 -6.2494 -1.8929 0.7054 -5.4606 1.7261 30.7101
#
#
#
# Elastic Compliance Matrix: (Units=1/GPa)
#
#
# Indices 1 2 3 4 5 6 
#
# 1 0.008495 -0.000812 -0.004305 -0.000138 0.005975 0.001417
# 2 -0.000812 0.016037 0.000289 -0.002979 0.007041 -0.000109
# 3 -0.004305 0.000289 0.014246 -0.005744 -0.004989 -0.001926
# 4 -0.000138 -0.002979 -0.005744 0.034500 -0.001089 0.006116
# 5 0.005975 0.007041 -0.004989 -0.001089 0.042581 -0.000823
# 6 0.001417 -0.000109 -0.001926 0.006116 -0.000823 0.034022
#
#
# Mechanical properties :
#
#
# Convention : Reuss Voigt Hill
#
# Bulk Modulus (GPa) = 34.33867 49.08621 41.71244
# Shear Modulus (GPa) = 29.54326 35.65943 32.60135
#
# Velocity S-wave (km/s) = 3.55775 3.90871 3.73735
# Velocity P-wave (km/s) = 5.62040 6.43438 6.04112
#
# Compressibility (1/GPa) = 0.02912169
#
# Stress axis : x y z
#
# Youngs Moduli (GPa) = 117.72227 62.35704 70.19382
#
# Poissons Ratio (x) = 0.05061 0.30218
# Poissons Ratio (y) = 0.09555 -0.02026
# Poissons Ratio (z) = 0.50678 -0.01799
#
# Static dielectric constant tensor:
#      x y z
#    x 1.855540 -0.013090 0.010740 
#    y -0.013090 1.971830 0.031650 
#    z 0.010740 0.031650 1.907860 
# 
# From -- ./inp_files/591758.got.cif
#   From: 2010.05.17/outbox.cif.g08.bks.cpg/sg2_296_cif.got.tgz:591758.got - 2010.06.03 11:33:40.
