data_PCOD9029173
_publ_section_title
;
Structure prediction by ZEFSAII (Michael W. Deem and Ramdas Pophale) SiO2 
 PCOD9029173
Probable space group: P -1
;
_chemical_formula_sum "Si O2"
_cell_formula_units_Z 10
_cell_length_a 5.007740
_cell_length_b 14.682037
_cell_length_c 7.734406
_cell_angle_alpha 55.552451
_cell_angle_beta 90.988586
_cell_angle_gamma 64.673663
_cell_volume 397.414153
_symmetry_space_group_name_H-M "P -1"
_symmetry_group_IT_number 2
_symmetry_cell_setting 'triclinic'
loop_
_space_group_symop_operation_xyz
x,y,z
-x,-y,-z
loop_
_atom_site_type_symbol
_atom_site_label
_atom_site_fract_x
_atom_site_fract_y
_atom_site_fract_z
Si Si1 0.833039 0.492569 0.677924
Si Si2 0.785386 0.134163 0.452604
Si Si3 0.528755 0.595266 0.034686
Si Si4 0.162112 0.756478 0.339823
Si Si5 0.512012 0.873166 0.198115
O O1 0.105878 0.467525 0.842940
O O2 0.860950 0.756602 0.274588
O O3 0.000000 0.500000 0.500000
O O4 0.701626 0.397658 0.820661
O O5 0.568314 0.121070 0.606482
O O6 0.599060 0.260690 0.193780
O O7 0.000000 0.000000 0.500000
O O8 0.508876 0.372440 0.472793
O O9 0.500000 0.500000 0.000000
O O10 0.258402 0.845170 0.140450
O O11 0.034318 0.828296 0.447387
O O12 0.500000 0.000000 0.000000
#
# Coordination Sequence:
#
# PCOD9029173 Si02
#       5
#     2   2   2   2   2
#     4  12  27  46  74 106 144 189 244 296 357 429
#     4  10  26  43  70 104 137 180 244 291 352 421
#     4  12  25  47  76 104 144 192 238 300 360 423
#     4  10  23  42  68  96 139 174 241 284 353 407
#     4  10  22  42  66  94 138 183 222 287 358 416
#
# _framework density 25.162668
#
# number of rings (size 3 to 8) (size 9 to 14) (size 15 to 20)
#    1.200    0.000    2.000    3.000    2.800    4.000 
#    0.000    0.000    0.000    0.000    0.000    0.000 
#    0.000    0.000    0.000    0.000    0.000    0.000 
#
# Total GULP energy -55775.552966 kJ/mol
# GULP energy per Si atom -5577.555297 kJ/mol
# Density = 2.510540 g / cm^3
# Si number density = 25.162668 Si / 1000 Ang^3
#
#
#
# Elastic Constant Matrix: (Units=GPa)
#
#
# Indices 1 2 3 4 5 6 
#
# 1 214.8491 36.0050 67.2046 -0.0532 -7.6917 -20.9432
# 2 36.0050 83.2792 60.3872 -15.1426 -9.0190 -34.1912
# 3 67.2046 60.3872 192.3030 -23.9552 -29.6702 -14.8968
# 4 -0.0532 -15.1426 -23.9552 36.9585 -7.6500 -5.4056
# 5 -7.6917 -9.0190 -29.6702 -7.6500 43.3946 6.5435
# 6 -20.9432 -34.1912 -14.8968 -5.4056 6.5435 45.5359
#
#
#
# Elastic Compliance Matrix: (Units=1/GPa)
#
#
# Indices 1 2 3 4 5 6 
#
# 1 0.005477 -0.000929 -0.001886 -0.001628 -0.000972 0.001151
# 2 -0.000929 0.025196 -0.004821 0.009998 0.000827 0.017982
# 3 -0.001886 -0.004821 0.008664 0.004530 0.005677 -0.001931
# 4 -0.001628 0.009998 0.004530 0.037779 0.009841 0.011311
# 5 -0.000972 0.000827 0.005677 0.009841 0.028802 -0.000940
# 6 0.001151 0.017982 -0.001931 0.011311 -0.000940 0.036838
#
#
# Mechanical properties :
#
#
# Convention : Reuss Voigt Hill
#
# Bulk Modulus (GPa) = 41.55686 90.84719 66.20202
# Shear Modulus (GPa) = 30.11143 46.96677 38.53910
#
# Velocity S-wave (km/s) = 3.46305 4.32502 3.91781
# Velocity P-wave (km/s) = 5.70451 7.81814 6.84342
#
# Compressibility (1/GPa) = 0.02406342
#
# Stress axis : x y z
#
# Youngs Moduli (GPa) = 182.57983 39.68941 115.42196
#
# Poissons Ratio (x) = 0.03689 0.21768
# Poissons Ratio (y) = 0.16968 0.55648
# Poissons Ratio (z) = 0.34434 0.19135
#
# Static dielectric constant tensor:
#      x y z
#    x 2.018630 0.063220 0.032670 
#    y 0.063220 2.366680 -0.009390 
#    z 0.032670 -0.009390 2.058510 
# 
# From -- ./inp_files/133830.got.cif
#   From: 2010.05.17/outbox.cif.g08.bks.cpg/sg2_67_cif.got.tgz:133830.got - 2010.06.03 11:33:40.
