data_PCOD9029900
_publ_section_title
;
Structure prediction by ZEFSAII (Michael W. Deem and Ramdas Pophale) SiO2 
 PCOD9029900
Probable space group: P -1
;
_chemical_formula_sum "Si O2"
_cell_formula_units_Z 15
_cell_length_a 22.296995
_cell_length_b 9.554724
_cell_length_c 10.321184
_cell_angle_alpha 41.883490
_cell_angle_beta 147.341439
_cell_angle_gamma 144.723007
_cell_volume 673.634897
_symmetry_space_group_name_H-M "P -1"
_symmetry_group_IT_number 2
_symmetry_cell_setting 'triclinic'
loop_
_space_group_symop_operation_xyz
x,y,z
-x,-y,-z
loop_
_atom_site_type_symbol
_atom_site_label
_atom_site_fract_x
_atom_site_fract_y
_atom_site_fract_z
Si Si1 0.773921 0.428962 0.870668
Si Si2 0.585524 0.960550 0.009062
Si Si3 0.309959 0.625650 0.701916
Si Si4 0.500000 0.500000 0.000000
Si Si5 0.205770 0.219677 0.007439
Si Si6 0.706519 0.818984 0.543125
Si Si7 0.148897 0.712598 0.147528
Si Si8 0.996304 0.286449 0.724727
O O1 0.716877 0.606179 0.634164
O O2 0.770755 0.297112 0.822941
O O3 0.922323 0.593980 0.078457
O O4 0.691848 0.232412 0.969701
O O5 0.586991 0.774504 0.034997
O O6 0.611492 0.872794 0.252672
O O7 0.437019 0.893860 0.777061
O O8 0.260841 0.460753 0.853826
O O9 0.201847 0.648862 0.415303
O O10 0.368318 0.500710 0.803655
O O11 0.078292 0.186868 0.869281
O O12 0.308479 0.254463 0.282374
O O13 0.170376 0.980863 0.023427
O O14 0.848425 0.069914 0.623109
O O15 0.000000 0.500000 0.000000
O O16 0.000000 0.500000 0.500000
#
# Coordination Sequence:
#
# PCOD9029900 Si02
#       8
#     2   2   2   1   2   2   2   2
#     4  11  23  41  72 104 131 191 231 282 351 415
#     4  10  22  42  68  98 136 184 234 279 340 412
#     4  10  25  44  66  98 145 180 230 289 341 407
#     4   8  20  44  64  96 142 188 226 280 338 410
#     4  11  26  43  69 104 142 179 228 298 350 404
#     4  11  23  43  71 103 137 182 235 282 349 425
#     4  12  26  43  69 106 139 178 237 293 353 413
#     4  11  23  45  74  97 142 184 230 289 353 416
#
# _framework density 22.267256
#
# number of rings (size 3 to 8) (size 9 to 14) (size 15 to 20)
#    0.800    0.533    1.333    4.800    3.733    2.667 
#    0.000    4.667    0.000    0.000    0.000    0.000 
#    0.000    0.000    0.000    0.000    0.000    0.000 
#
# Total GULP energy -83601.987612 kJ/mol
# GULP energy per Si atom -5573.465841 kJ/mol
# Density = 2.221657 g / cm^3
# Si number density = 22.267256 Si / 1000 Ang^3
#
#
#
# Elastic Constant Matrix: (Units=GPa)
#
#
# Indices 1 2 3 4 5 6 
#
# 1 65.0381 26.3609 20.7686 -1.0663 -8.9480 -25.7664
# 2 26.3609 80.7743 23.7553 0.0770 -7.8150 -12.3695
# 3 20.7686 23.7553 124.4437 -0.9990 -9.6683 23.8651
# 4 -1.0663 0.0770 -0.9990 31.3574 9.5083 6.4903
# 5 -8.9480 -7.8150 -9.6683 9.5083 20.4689 -0.1435
# 6 -25.7664 -12.3695 23.8651 6.4903 -0.1435 33.2249
#
#
#
# Elastic Compliance Matrix: (Units=1/GPa)
#
#
# Indices 1 2 3 4 5 6 
#
# 1 0.038173 -0.000745 -0.012947 -0.012616 0.016437 0.041162
# 2 -0.000745 0.015803 -0.004241 -0.003757 0.005513 0.009110
# 3 -0.012947 -0.004241 0.015400 0.005875 -0.002901 -0.023841
# 4 -0.012616 -0.003757 0.005875 0.044198 -0.024875 -0.024144
# 5 0.016437 0.005513 -0.002901 -0.024875 0.068484 0.022039
# 6 0.041162 0.009110 -0.023841 -0.024144 0.022039 0.087347
#
#
# Mechanical properties :
#
#
# Convention : Reuss Voigt Hill
#
# Bulk Modulus (GPa) = 29.84103 45.78063 37.81083
# Shear Modulus (GPa) = 15.80082 30.30167 23.05124
#
# Velocity S-wave (km/s) = 2.66672 3.69293 3.22096
# Velocity P-wave (km/s) = 4.78668 6.22799 5.55428
#
# Compressibility (1/GPa) = 0.03351090
#
# Stress axis : x y z
#
# Youngs Moduli (GPa) = 26.19625 63.28100 64.93580
#
# Poissons Ratio (x) = 0.04713 0.84070
# Poissons Ratio (y) = 0.01951 0.27540
# Poissons Ratio (z) = 0.33915 0.26838
#
# Static dielectric constant tensor:
#      x y z
#    x 1.862930 -0.003210 -0.020870 
#    y -0.003210 1.798140 0.003600 
#    z -0.020870 0.003600 1.808290 
# 
# From -- ./inp_files/342508.got.cif
#   From: 2010.05.17/outbox.cif.g08.bks.cpg/sg2_172_cif.got.tgz:342508.got - 2010.06.03 11:33:40.
