data_PCOD9029116
_publ_section_title
;
Structure prediction by ZEFSAII (Michael W. Deem and Ramdas Pophale) SiO2 
 PCOD9029116
Probable space group: P -1
;
_chemical_formula_sum "Si O2"
_cell_formula_units_Z 15
_cell_length_a 17.514556
_cell_length_b 9.614059
_cell_length_c 4.916771
_cell_angle_alpha 120.705481
_cell_angle_beta 60.553057
_cell_angle_gamma 120.312014
_cell_volume 583.218991
_symmetry_space_group_name_H-M "P -1"
_symmetry_group_IT_number 2
_symmetry_cell_setting 'triclinic'
loop_
_space_group_symop_operation_xyz
x,y,z
-x,-y,-z
loop_
_atom_site_type_symbol
_atom_site_label
_atom_site_fract_x
_atom_site_fract_y
_atom_site_fract_z
Si Si1 0.992436 0.202481 0.557002
Si Si2 0.334135 0.323832 0.170471
Si Si3 0.332131 0.820843 0.040880
Si Si4 0.597391 0.472481 0.249372
Si Si5 0.000000 0.500000 0.000000
Si Si6 0.133291 0.701849 0.495103
Si Si7 0.862374 0.941920 0.916314
Si Si8 0.404379 0.030703 0.631752
O O1 0.944749 0.338706 0.652135
O O2 0.066053 0.151061 0.203673
O O3 0.913691 0.037230 0.647389
O O4 0.037790 0.332817 0.850337
O O5 0.331525 0.383790 0.540709
O O6 0.236244 0.194896 0.112207
O O7 0.371112 0.489050 0.077095
O O8 0.404498 0.217209 0.900647
O O9 0.230933 0.706105 0.209637
O O10 0.373423 0.983861 0.330738
O O11 0.399800 0.710151 0.842606
O O12 0.329093 0.892651 0.818105
O O13 0.500000 0.500000 0.500000
O O14 0.904790 0.411279 0.290813
O O15 0.143942 0.900860 0.737280
O O16 0.500000 0.000000 0.500000
#
# Coordination Sequence:
#
# PCOD9029116 Si02
#       8
#     2   2   2   2   1   2   2   2
#     4  10  22  42  66  92 138 178 228 285 348 409
#     4  12  25  45  73 104 140 183 240 289 349 435
#     4  12  26  44  73 105 143 185 234 298 351 423
#     4  12  27  48  70 104 146 186 229 296 368 426
#     4  10  24  40  62  98 132 186 224 286 344 420
#     4  11  23  43  66  96 139 180 240 281 351 404
#     4  10  23  41  65  99 131 179 233 287 343 409
#     4  12  24  46  74 104 136 183 236 292 360 426
#
# _framework density 25.719327
#
# number of rings (size 3 to 8) (size 9 to 14) (size 15 to 20)
#    0.000    0.800    1.333    5.600    5.600    1.067 
#    0.000    0.000    0.000    0.000    0.000    0.000 
#    0.000    0.000    0.000    0.000    0.000    0.000 
#
# Total GULP energy -83893.367883 kJ/mol
# GULP energy per Si atom -5592.891192 kJ/mol
# Density = 2.566079 g / cm^3
# Si number density = 25.719327 Si / 1000 Ang^3
#
#
#
# Elastic Constant Matrix: (Units=GPa)
#
#
# Indices 1 2 3 4 5 6 
#
# 1 69.8920 8.9897 22.7076 -11.4388 3.8936 4.4178
# 2 8.9897 89.8825 9.4427 -9.9514 4.1263 -3.3218
# 3 22.7076 9.4427 83.0064 0.0479 -2.8114 0.7085
# 4 -11.4388 -9.9514 0.0479 47.4519 2.3486 -2.1472
# 5 3.8936 4.1263 -2.8114 2.3486 27.5637 1.5586
# 6 4.4178 -3.3218 0.7085 -2.1472 1.5586 44.5436
#
#
#
# Elastic Compliance Matrix: (Units=1/GPa)
#
#
# Indices 1 2 3 4 5 6 
#
# 1 0.016800 -0.000664 -0.004613 0.004003 -0.003009 -0.001344
# 2 -0.000664 0.011731 -0.001234 0.002455 -0.002062 0.001151
# 3 -0.004613 -0.001234 0.013530 -0.001501 0.002344 -0.000004
# 4 0.004003 0.002455 -0.001501 0.022754 -0.003082 0.001015
# 5 -0.003009 -0.002062 0.002344 -0.003082 0.037592 -0.001357
# 6 -0.001344 0.001151 -0.000004 0.001015 -0.001357 0.022765
#
#
# Mechanical properties :
#
#
# Convention : Reuss Voigt Hill
#
# Bulk Modulus (GPa) = 34.43691 36.11785 35.27738
# Shear Modulus (GPa) = 33.81280 37.35458 35.58369
#
# Velocity S-wave (km/s) = 3.62979 3.81516 3.72363
# Velocity P-wave (km/s) = 5.56648 5.78626 5.67744
#
# Compressibility (1/GPa) = 0.02903861
#
# Stress axis : x y z
#
# Youngs Moduli (GPa) = 59.52476 85.24603 73.91031
#
# Poissons Ratio (x) = 0.05659 0.34095
# Poissons Ratio (y) = 0.03952 0.09120
# Poissons Ratio (z) = 0.27459 0.10519
#
# Static dielectric constant tensor:
#      x y z
#    x 2.162900 0.024550 0.051860 
#    y 0.024550 1.987490 0.059110 
#    z 0.051860 0.059110 2.104440 
# 
# From -- ./inp_files/117302.got.cif
#   From: 2010.05.17/outbox.cif.g08.bks.cpg/sg2_59_cif.got.tgz:117302.got - 2010.06.03 11:33:40.
