data_PCOD9029772
_publ_section_title
;
Structure prediction by ZEFSAII (Michael W. Deem and Ramdas Pophale) SiO2 
 PCOD9029772
Probable space group: P -1
;
_chemical_formula_sum "Si O2"
_cell_formula_units_Z 16
_cell_length_a 8.269034
_cell_length_b 12.056332
_cell_length_c 13.664544
_cell_angle_alpha 73.252723
_cell_angle_beta 33.073592
_cell_angle_gamma 73.844566
_cell_volume 710.117960
_symmetry_space_group_name_H-M "P -1"
_symmetry_group_IT_number 2
_symmetry_cell_setting 'triclinic'
loop_
_space_group_symop_operation_xyz
x,y,z
-x,-y,-z
loop_
_atom_site_type_symbol
_atom_site_label
_atom_site_fract_x
_atom_site_fract_y
_atom_site_fract_z
Si Si1 0.639732 0.864081 0.306752
Si Si2 0.081999 0.909315 0.243889
Si Si3 0.283636 0.150555 0.150595
Si Si4 0.302654 0.095544 0.384495
Si Si5 0.211690 0.566203 0.085904
Si Si6 0.874002 0.219469 0.057251
Si Si7 0.959434 0.358514 0.158109
Si Si8 0.612422 0.615625 0.460980
O O1 0.557914 0.731488 0.393734
O O2 0.811519 0.893965 0.311126
O O3 0.372165 0.957670 0.398810
O O4 0.881026 0.866171 0.097433
O O5 0.973779 0.866388 0.415567
O O6 0.147250 0.044077 0.189330
O O7 0.381592 0.847182 0.062545
O O8 0.280948 0.122610 0.274021
O O9 0.095835 0.269949 0.193236
O O10 0.603522 0.151941 0.252383
O O11 0.077920 0.481667 0.093769
O O12 0.966237 0.592928 0.288528
O O13 0.500000 0.500000 0.000000
O O14 0.256916 0.687534 0.979927
O O15 0.039046 0.294449 0.033566
O O16 0.600077 0.366258 0.342964
O O17 0.500000 0.500000 0.500000
#
# Coordination Sequence:
#
# PCOD9029772 Si02
#       8
#     2   2   2   2   2   2   2   2
#     4  11  22  40  65  93 132 174 225 268 332 399
#     4  11  24  40  62  94 134 174 221 272 333 389
#     4  11  25  41  63  98 135 173 223 275 333 385
#     4  12  23  41  65  96 134 176 225 271 332 394
#     4  10  22  42  68  94 128 171 223 281 331 388
#     4  11  23  39  65  94 130 176 221 269 333 400
#     4  11  22  42  66  92 134 175 221 271 333 397
#     4   9  21  41  66  93 125 171 218 267 327 394
#
# _framework density 22.531466000000002
#
# number of rings (size 3 to 8) (size 9 to 14) (size 15 to 20)
#    0.000    1.250    1.250    4.500    5.250    0.000 
#    2.250    0.625    0.000    0.000    0.000    0.000 
#    0.000    0.000    0.000    0.000    0.000    0.000 
#
# Total GULP energy -89469.925994 kJ/mol
# GULP energy per Si atom -5591.870375 kJ/mol
# Density = 2.248018 g / cm^3
# Si number density = 22.531466 Si / 1000 Ang^3
#
#
#
# Elastic Constant Matrix: (Units=GPa)
#
#
# Indices 1 2 3 4 5 6 
#
# 1 75.4140 24.0755 27.3311 9.5807 10.2396 2.7985
# 2 24.0755 92.0170 28.8087 -5.0038 -4.4531 5.9737
# 3 27.3311 28.8087 138.6490 9.8372 3.8707 -5.1929
# 4 9.5807 -5.0038 9.8372 34.8961 8.8419 -7.8883
# 5 10.2396 -4.4531 3.8707 8.8419 24.3050 8.9289
# 6 2.7985 5.9737 -5.1929 -7.8883 8.9289 36.9975
#
#
#
# Elastic Compliance Matrix: (Units=1/GPa)
#
#
# Indices 1 2 3 4 5 6 
#
# 1 0.016558 -0.004175 -0.002007 -0.002957 -0.006362 0.000045
# 2 -0.004175 0.013209 -0.002297 0.001748 0.005001 -0.002974
# 3 -0.002007 -0.002297 0.008278 -0.001520 -0.000922 0.001583
# 4 -0.002957 0.001748 -0.001520 0.036691 -0.015706 0.011341
# 5 -0.006362 0.005001 -0.000922 -0.015706 0.057057 -0.017575
# 6 0.000045 -0.002974 0.001583 0.011341 -0.017575 0.034387
#
#
# Mechanical properties :
#
#
# Convention : Reuss Voigt Hill
#
# Bulk Modulus (GPa) = 47.42269 51.83449 49.62859
# Shear Modulus (GPa) = 26.29235 34.29737 30.29486
#
# Velocity S-wave (km/s) = 3.41972 3.90577 3.67080
# Velocity P-wave (km/s) = 6.05687 6.58752 6.32776
#
# Compressibility (1/GPa) = 0.02108695
#
# Stress axis : x y z
#
# Youngs Moduli (GPa) = 60.39205 75.70479 120.79850
#
# Poissons Ratio (x) = 0.31611 0.24249
# Poissons Ratio (y) = 0.25217 0.27742
# Poissons Ratio (z) = 0.12123 0.17386
#
# Static dielectric constant tensor:
#      x y z
#    x 1.833090 0.026140 0.001110 
#    y 0.026140 1.805980 -0.012970 
#    z 0.001110 -0.012970 1.885110 
# 
# From -- ./inp_files/500229.got.cif
#   From: 2010.05.17/outbox.cif.g08.bks.cpg/sg2_251_cif.got.tgz:500229.got - 2010.06.03 11:33:40.
