data_PCOD9029379
_publ_section_title
;
Structure prediction by ZEFSAII (Michael W. Deem and Ramdas Pophale) SiO2 
 PCOD9029379
Probable space group: P -1
;
_chemical_formula_sum "Si O2"
_cell_formula_units_Z 12
_cell_length_a 9.463224
_cell_length_b 10.680558
_cell_length_c 12.828832
_cell_angle_alpha 142.185351
_cell_angle_beta 57.244091
_cell_angle_gamma 136.794884
_cell_volume 542.384133
_symmetry_space_group_name_H-M "P -1"
_symmetry_group_IT_number 2
_symmetry_cell_setting 'triclinic'
loop_
_space_group_symop_operation_xyz
x,y,z
-x,-y,-z
loop_
_atom_site_type_symbol
_atom_site_label
_atom_site_fract_x
_atom_site_fract_y
_atom_site_fract_z
Si Si1 0.241792 0.438831 0.658391
Si Si2 0.704503 0.887021 0.829326
Si Si3 0.839214 0.093395 0.703765
Si Si4 0.869044 0.611173 0.655399
Si Si5 0.485944 0.929008 0.579038
Si Si6 0.801043 0.179071 0.193551
O O1 0.476062 0.642769 0.733925
O O2 0.201279 0.180641 0.464344
O O3 0.200618 0.583346 0.683145
O O4 0.071585 0.329231 0.745505
O O5 0.761698 0.085893 0.845581
O O6 0.872111 0.821867 0.728326
O O7 0.712710 0.998886 0.011585
O O8 0.701824 0.073121 0.648401
O O9 0.633317 0.371087 0.581997
O O10 0.000000 0.500000 0.500000
O O11 0.966702 0.721285 0.802285
O O12 0.340748 0.951903 0.732937
O O13 0.500000 0.000000 0.500000
#
# Coordination Sequence:
#
# PCOD9029379 Si02
#       6
#     2   2   2   2   2   2
#     4  11  23  41  67 102 129 172 225 266 330 396
#     4  12  23  44  68  98 140 168 215 282 334 389
#     4  11  23  41  70  98 128 174 227 271 323 393
#     4  10  22  42  67  91 130 178 220 263 326 397
#     4  11  22  41  65  94 131 177 225 270 320 395
#     4  11  24  42  66  99 136 177 213 274 342 386
#
# _framework density 22.124542999999999
#
# number of rings (size 3 to 8) (size 9 to 14) (size 15 to 20)
#    0.000    1.000    3.333    4.500    0.000    4.667 
#    3.000    0.833    0.000    0.000    0.000    0.000 
#    0.000    0.000    0.000    0.000    0.000    0.000 
#
# Total GULP energy -66922.884374 kJ/mol
# GULP energy per Si atom -5576.907031 kJ/mol
# Density = 2.207419 g / cm^3
# Si number density = 22.124543 Si / 1000 Ang^3
#
#
#
# Elastic Constant Matrix: (Units=GPa)
#
#
# Indices 1 2 3 4 5 6 
#
# 1 124.3747 37.1756 27.7115 -12.6980 20.9961 -13.4206
# 2 37.1756 116.3664 42.3639 -31.8790 18.3862 -3.5026
# 3 27.7115 42.3639 66.2256 -18.8275 12.2116 -15.8467
# 4 -12.6980 -31.8790 -18.8275 31.1197 -10.1008 10.6626
# 5 20.9961 18.3862 12.2116 -10.1008 31.5099 -3.6368
# 6 -13.4206 -3.5026 -15.8467 10.6626 -3.6368 36.6803
#
#
#
# Elastic Compliance Matrix: (Units=1/GPa)
#
#
# Indices 1 2 3 4 5 6 
#
# 1 0.010036 -0.002186 -0.001723 -0.001741 -0.004987 0.002730
# 2 -0.002186 0.014987 -0.006316 0.012087 -0.001632 -0.005773
# 3 -0.001723 -0.006316 0.023042 0.003517 -0.002104 0.007490
# 4 -0.001741 0.012087 0.003517 0.052905 0.008257 -0.012523
# 5 -0.004987 -0.001632 -0.002104 0.008257 0.039313 -0.001392
# 6 0.002730 -0.005773 0.007490 -0.012523 -0.001392 0.034448
#
#
# Mechanical properties :
#
#
# Convention : Reuss Voigt Hill
#
# Bulk Modulus (GPa) = 36.21353 57.94096 47.07724
# Shear Modulus (GPa) = 24.46339 33.17636 28.81988
#
# Velocity S-wave (km/s) = 3.32883 3.87657 3.61310
# Velocity P-wave (km/s) = 5.58376 6.80312 6.22338
#
# Compressibility (1/GPa) = 0.02761399
#
# Stress axis : x y z
#
# Youngs Moduli (GPa) = 99.63852 66.72531 43.39960
#
# Poissons Ratio (x) = 0.14583 0.07480
# Poissons Ratio (y) = 0.21776 0.27413
# Poissons Ratio (z) = 0.17172 0.42146
#
# Static dielectric constant tensor:
#      x y z
#    x 1.883970 0.001700 -0.015860 
#    y 0.001700 1.840180 -0.045870 
#    z -0.015860 -0.045870 1.925300 
# 
# From -- ./inp_files/147598.got.cif
#   From: 2010.05.17/outbox.cif.g08.bks.cpg/sg2_74_cif.got.tgz:147598.got - 2010.06.03 11:33:40.
