data_PCOD9029310
_publ_section_title
;
Structure prediction by ZEFSAII (Michael W. Deem and Ramdas Pophale) SiO2 
 PCOD9029310
Probable space group: P -1
;
_chemical_formula_sum "Si O2"
_cell_formula_units_Z 16
_cell_length_a 13.838945
_cell_length_b 15.378808
_cell_length_c 16.713955
_cell_angle_alpha 153.977514
_cell_angle_beta 32.930312
_cell_angle_gamma 129.902904
_cell_volume 747.582216
_symmetry_space_group_name_H-M "P -1"
_symmetry_group_IT_number 2
_symmetry_cell_setting 'triclinic'
loop_
_space_group_symop_operation_xyz
x,y,z
-x,-y,-z
loop_
_atom_site_type_symbol
_atom_site_label
_atom_site_fract_x
_atom_site_fract_y
_atom_site_fract_z
Si Si1 0.235276 0.940491 0.794783
Si Si2 0.879929 0.478680 0.818562
Si Si3 0.283342 0.727632 0.752130
Si Si4 0.526801 0.218506 0.176794
Si Si5 0.855112 0.567138 0.732760
Si Si6 0.137564 0.099048 0.732153
Si Si7 0.411811 0.683281 0.298327
Si Si8 0.952951 0.014494 0.638692
O O1 0.314713 0.800499 0.704121
O O2 0.353212 0.809146 0.527165
O O3 0.253714 0.165615 0.971526
O O4 0.000000 0.000000 0.000000
O O5 0.959341 0.495569 0.688734
O O6 0.002774 0.232365 0.566008
O O7 0.860496 0.674254 0.053893
O O8 0.650198 0.531520 0.005458
O O9 0.341402 0.464552 0.492845
O O10 0.417716 0.766195 0.756994
O O11 0.054880 0.882629 0.068661
O O12 0.500000 0.000000 0.000000
O O13 0.719928 0.184242 0.961509
O O14 0.708711 0.458167 0.736797
O O15 0.000000 0.500000 0.500000
O O16 0.328508 0.877465 0.449187
O O17 0.087650 0.082168 0.660143
O O18 0.000000 0.000000 0.500000
#
# Coordination Sequence:
#
# PCOD9029310 Si02
#       8
#     2   2   2   2   2   2   2   2
#     4  12  23  40  65 104 140 170 224 271 338 413
#     4  12  26  44  70  99 143 182 220 277 340 406
#     4  10  22  42  67 101 132 173 224 284 328 401
#     4  10  23  45  71  93 128 176 232 283 337 379
#     4  12  24  40  69 101 138 180 220 271 336 406
#     4  11  22  45  73  92 140 178 219 278 343 401
#     4  12  25  42  66 106 141 180 219 271 342 416
#     4  11  27  47  68  97 133 179 234 280 334 399
#
# _framework density 21.402328000000001
#
# number of rings (size 3 to 8) (size 9 to 14) (size 15 to 20)
#    0.000    0.750    5.000    1.500    3.500    1.500 
#    2.250    0.000    0.000    0.000    0.000    0.000 
#    0.000    0.000    0.000    0.000    0.000    0.000 
#
# Total GULP energy -89521.573583 kJ/mol
# GULP energy per Si atom -5595.098349 kJ/mol
# Density = 2.135362 g / cm^3
# Si number density = 21.402328 Si / 1000 Ang^3
#
#
#
# Elastic Constant Matrix: (Units=GPa)
#
#
# Indices 1 2 3 4 5 6 
#
# 1 128.0797 56.9833 34.6937 1.3838 36.9149 -16.0177
# 2 56.9833 71.6677 27.1765 15.0852 19.1864 -5.3550
# 3 34.6937 27.1765 81.8185 1.3028 20.3397 -12.9065
# 4 1.3838 15.0852 1.3028 48.4247 4.2681 14.7344
# 5 36.9149 19.1864 20.3397 4.2681 48.4401 1.8155
# 6 -16.0177 -5.3550 -12.9065 14.7344 1.8155 45.1081
#
#
#
# Elastic Compliance Matrix: (Units=1/GPa)
#
#
# Indices 1 2 3 4 5 6 
#
# 1 0.014952 -0.009818 -0.000683 0.002244 -0.007549 0.003519
# 2 -0.009818 0.024919 -0.003817 -0.007634 -0.000145 0.000879
# 3 -0.000683 -0.003817 0.015557 0.000000 -0.004647 0.003942
# 4 0.002244 -0.007634 0.000000 0.025589 -0.000625 -0.008443
# 5 -0.007549 -0.000145 -0.004647 -0.000625 0.028647 -0.004976
# 6 0.003519 0.000879 0.003942 -0.008443 -0.004976 0.027609
#
#
# Mechanical properties :
#
#
# Convention : Reuss Voigt Hill
#
# Bulk Modulus (GPa) = 37.32612 57.69699 47.51156
# Shear Modulus (GPa) = 28.59744 39.24208 33.91976
#
# Velocity S-wave (km/s) = 3.65935 4.28663 3.98535
# Velocity P-wave (km/s) = 5.94412 7.17754 6.58975
#
# Compressibility (1/GPa) = 0.02679089
#
# Stress axis : x y z
#
# Youngs Moduli (GPa) = 66.87883 40.13042 64.27953
#
# Poissons Ratio (x) = 0.39401 0.04391
# Poissons Ratio (y) = 0.65663 0.24538
# Poissons Ratio (z) = 0.04569 0.15319
#
# Static dielectric constant tensor:
#      x y z
#    x 1.765500 0.042240 -0.016310 
#    y 0.042240 1.749270 -0.013340 
#    z -0.016310 -0.013340 1.757970 
# 
# From -- ./inp_files/522568.got.cif
#   From: 2010.05.17/outbox.cif.g08.bks.cpg/sg2_262_cif.got.tgz:522568.got - 2010.06.03 11:33:40.
