data_PCOD9029955
_publ_section_title
;
Structure prediction by ZEFSAII (Michael W. Deem and Ramdas Pophale) SiO2 
 PCOD9029955
Probable space group: P -1
;
_chemical_formula_sum "Si O2"
_cell_formula_units_Z 16
_cell_length_a 8.645746
_cell_length_b 7.976650
_cell_length_c 20.893407
_cell_angle_alpha 64.936194
_cell_angle_beta 151.513027
_cell_angle_gamma 115.931988
_cell_volume 615.455680
_symmetry_space_group_name_H-M "P -1"
_symmetry_group_IT_number 2
_symmetry_cell_setting 'triclinic'
loop_
_space_group_symop_operation_xyz
x,y,z
-x,-y,-z
loop_
_atom_site_type_symbol
_atom_site_label
_atom_site_fract_x
_atom_site_fract_y
_atom_site_fract_z
Si Si1 0.663404 0.550958 0.141708
Si Si2 0.739220 0.923237 0.494695
Si Si3 0.773970 0.735589 0.888980
Si Si4 0.538374 0.911632 0.289055
Si Si5 0.532665 0.784710 0.172564
Si Si6 0.572113 0.707953 0.682292
Si Si7 0.336601 0.856437 0.909883
Si Si8 0.337787 0.405824 0.393225
O O1 0.391112 0.380189 0.092853
O O2 0.735461 0.680735 0.211770
O O3 0.981078 0.467194 0.249115
O O4 0.526565 0.680981 0.018068
O O5 0.678848 0.810881 0.556180
O O6 0.122795 0.942461 0.615002
O O7 0.534523 0.834643 0.372482
O O8 0.646574 0.129239 0.430761
O O9 0.739936 0.955920 0.842014
O O10 0.581867 0.650970 0.769000
O O11 0.155099 0.720765 0.025946
O O12 0.548788 0.769894 0.257328
O O13 0.617663 0.009608 0.156399
O O14 0.483818 0.569022 0.613784
O O15 0.953928 0.794107 0.794625
O O16 0.500000 0.000000 0.000000
O O17 0.500000 0.500000 0.500000
#
# Coordination Sequence:
#
# PCOD9029955 Si02
#       8
#     2   2   2   2   2   2   2   2
#     4  11  25  44  67  98 147 164 223 283 342 394
#     4  10  23  45  68  94 133 178 229 273 327 398
#     4  11  22  45  66 103 134 173 222 284 341 396
#     4  10  22  42  70  98 128 175 229 279 325 400
#     4  11  23  41  71 100 134 179 224 273 339 411
#     4  11  24  44  72  93 138 180 227 274 340 399
#     4  10  22  42  69 101 129 180 222 275 335 414
#     4  12  28  44  64 103 134 184 224 278 335 402
#
# _framework density 25.996997
#
# number of rings (size 3 to 8) (size 9 to 14) (size 15 to 20)
#    0.000    1.250    3.750    1.875    5.250    1.500 
#    0.000    1.250    0.000    0.000    0.000    0.000 
#    0.000    0.000    0.000    0.000    0.000    0.000 
#
# Total GULP energy -89604.535686 kJ/mol
# GULP energy per Si atom -5600.283480 kJ/mol
# Density = 2.593783 g / cm^3
# Si number density = 25.996997 Si / 1000 Ang^3
#
#
#
# Elastic Constant Matrix: (Units=GPa)
#
#
# Indices 1 2 3 4 5 6 
#
# 1 120.8941 23.1420 23.6585 -21.7540 -28.5550 -24.4051
# 2 23.1420 73.4749 16.8601 -23.4726 -11.5049 -3.3315
# 3 23.6585 16.8601 81.3203 -22.9185 -10.8162 -5.5617
# 4 -21.7540 -23.4726 -22.9185 39.9412 -5.5779 -11.7099
# 5 -28.5550 -11.5049 -10.8162 -5.5779 50.1944 -3.3871
# 6 -24.4051 -3.3315 -5.5617 -11.7099 -3.3871 52.6024
#
#
#
# Elastic Compliance Matrix: (Units=1/GPa)
#
#
# Indices 1 2 3 4 5 6 
#
# 1 0.015863 0.002366 0.002096 0.016594 0.012688 0.012242
# 2 0.002366 0.019525 0.001616 0.016874 0.008504 0.006809
# 3 0.002096 0.001616 0.016940 0.014774 0.007302 0.006625
# 4 0.016594 0.016874 0.014774 0.063668 0.025330 0.026134
# 5 0.012688 0.008504 0.007302 0.025330 0.034494 0.015057
# 6 0.012242 0.006809 0.006625 0.026134 0.015057 0.032609
#
#
# Mechanical properties :
#
#
# Convention : Reuss Voigt Hill
#
# Bulk Modulus (GPa) = 15.50779 44.77896 30.14338
# Shear Modulus (GPa) = 25.98237 42.68282 34.33260
#
# Velocity S-wave (km/s) = 3.16482 4.05635 3.63800
# Velocity P-wave (km/s) = 4.39692 6.26105 5.40988
#
# Compressibility (1/GPa) = 0.06448370
#
# Stress axis : x y z
#
# Youngs Moduli (GPa) = 63.04054 51.21598 59.03119
#
# Poissons Ratio (x) = -0.12116 -0.12373
# Poissons Ratio (y) = -0.14914 -0.09540
# Poissons Ratio (z) = -0.13213 -0.08277
#
# Static dielectric constant tensor:
#      x y z
#    x 1.995040 -0.041740 -0.085970 
#    y -0.041740 2.128480 0.036320 
#    z -0.085970 0.036320 2.013540 
# 
# From -- ./inp_files/587953.got.cif
#   From: 2010.05.17/outbox.cif.g08.bks.cpg/sg2_294_cif.got.tgz:587953.got - 2010.06.03 11:33:40.
