data_PCOD9029581
_publ_section_title
;
Structure prediction by ZEFSAII (Michael W. Deem and Ramdas Pophale) SiO2 
 PCOD9029581
Probable space group: P -1
;
_chemical_formula_sum "Si O2"
_cell_formula_units_Z 16
_cell_length_a 6.289685
_cell_length_b 18.232940
_cell_length_c 8.381673
_cell_angle_alpha 66.890916
_cell_angle_beta 129.724303
_cell_angle_gamma 102.821801
_cell_volume 679.401265
_symmetry_space_group_name_H-M "P -1"
_symmetry_group_IT_number 2
_symmetry_cell_setting 'triclinic'
loop_
_space_group_symop_operation_xyz
x,y,z
-x,-y,-z
loop_
_atom_site_type_symbol
_atom_site_label
_atom_site_fract_x
_atom_site_fract_y
_atom_site_fract_z
Si Si1 0.496129 0.625118 0.907272
Si Si2 0.206595 0.892157 0.075000
Si Si3 0.113105 0.242427 0.127222
Si Si4 0.049171 0.320127 0.554237
Si Si5 0.990974 0.560344 0.298896
Si Si6 0.375661 0.624029 0.213694
Si Si7 0.809342 0.032741 0.645835
Si Si8 0.843059 0.839270 0.434692
O O1 0.620638 0.710760 0.844754
O O2 0.200901 0.628753 0.685280
O O3 0.745358 0.561075 0.050142
O O4 0.450693 0.603904 0.087483
O O5 0.202419 0.919877 0.232643
O O6 0.530660 0.870685 0.209941
O O7 0.011528 0.819012 0.005480
O O8 0.048944 0.963499 0.840924
O O9 0.170781 0.198615 0.362164
O O10 0.863239 0.307296 0.978689
O O11 0.026732 0.351059 0.699638
O O12 0.344500 0.343986 0.607792
O O13 0.047033 0.228519 0.580095
O O14 0.000000 0.500000 0.500000
O O15 0.262584 0.557027 0.328237
O O16 0.931740 0.092288 0.522823
O O17 0.500000 0.000000 0.500000
#
# Coordination Sequence:
#
# PCOD9029581 Si02
#       8
#     2   2   2   2   2   2   2   2
#     4  10  24  41  66 103 134 169 225 275 328 399
#     4  11  26  45  68  93 134 181 224 278 336 397
#     4  11  24  40  69  99 133 171 223 278 334 392
#     4  11  24  40  69 103 130 175 226 276 332 395
#     4  10  25  46  68  97 140 179 219 271 333 403
#     4  10  22  42  67  98 136 166 221 272 334 387
#     4  11  28  48  65  97 135 181 230 275 335 403
#     4  12  26  41  71  98 135 177 225 280 336 395
#
# _framework density 23.550144
#
# number of rings (size 3 to 8) (size 9 to 14) (size 15 to 20)
#    0.000    1.250    2.500    1.125   10.500    6.500 
#    0.000    1.250    0.000    0.000    0.000    0.000 
#    0.000    0.000    0.000    0.000    0.000    0.000 
#
# Total GULP energy -89301.809434 kJ/mol
# GULP energy per Si atom -5581.363090 kJ/mol
# Density = 2.349654 g / cm^3
# Si number density = 23.550144 Si / 1000 Ang^3
#
#
#
# Elastic Constant Matrix: (Units=GPa)
#
#
# Indices 1 2 3 4 5 6 
#
# 1 93.2329 37.8342 55.6253 -11.2559 6.0745 28.1063
# 2 37.8342 91.9290 40.5486 -1.9258 -2.6218 12.2677
# 3 55.6253 40.5486 147.7627 -5.8663 26.0857 23.9927
# 4 -11.2559 -1.9258 -5.8663 36.6342 1.6250 -0.3673
# 5 6.0745 -2.6218 26.0857 1.6250 52.7909 -7.3352
# 6 28.1063 12.2677 23.9927 -0.3673 -7.3352 54.2591
#
#
#
# Elastic Compliance Matrix: (Units=1/GPa)
#
#
# Indices 1 2 3 4 5 6 
#
# 1 0.017457 -0.004570 -0.003847 0.004503 -0.001371 -0.006463
# 2 -0.004570 0.013922 -0.002761 -0.001227 0.002731 0.000801
# 3 -0.003847 -0.002761 0.010342 0.000532 -0.005190 -0.002654
# 4 0.004503 -0.001227 0.000532 0.028769 -0.002058 -0.002374
# 5 -0.001371 0.002731 -0.005190 -0.002058 0.022619 0.005432
# 6 -0.006463 0.000801 -0.002654 -0.002374 0.005432 0.023489
#
#
# Mechanical properties :
#
#
# Convention : Reuss Voigt Hill
#
# Bulk Modulus (GPa) = 51.64110 66.77122 59.20616
# Shear Modulus (GPa) = 34.38596 41.99793 38.19194
#
# Velocity S-wave (km/s) = 3.82529 4.22754 4.03144
# Velocity P-wave (km/s) = 6.44098 7.22799 6.84580
#
# Compressibility (1/GPa) = 0.01936442
#
# Stress axis : x y z
#
# Youngs Moduli (GPa) = 57.28281 71.82978 96.69446
#
# Poissons Ratio (x) = 0.32826 0.37202
# Poissons Ratio (y) = 0.26178 0.26697
# Poissons Ratio (z) = 0.22039 0.19832
#
# Static dielectric constant tensor:
#      x y z
#    x 1.915210 0.042210 0.052610 
#    y 0.042210 2.022360 0.043460 
#    z 0.052610 0.043460 1.955250 
# 
# From -- ./inp_files/116548.got.cif
#   From: 2010.05.17/outbox.cif.g08.bks.cpg/sg2_59_cif.got.tgz:116548.got - 2010.06.03 11:33:40.
