data_PCOD9029126
_publ_section_title
;
Structure prediction by ZEFSAII (Michael W. Deem and Ramdas Pophale) SiO2 
 PCOD9029126
Probable space group: P -1
;
_chemical_formula_sum "Si O2"
_cell_formula_units_Z 16
_cell_length_a 7.820737
_cell_length_b 17.962596
_cell_length_c 17.270117
_cell_angle_alpha 16.999417
_cell_angle_beta 99.351547
_cell_angle_gamma 90.971873
_cell_volume 614.031901
_symmetry_space_group_name_H-M "P -1"
_symmetry_group_IT_number 2
_symmetry_cell_setting 'triclinic'
loop_
_space_group_symop_operation_xyz
x,y,z
-x,-y,-z
loop_
_atom_site_type_symbol
_atom_site_label
_atom_site_fract_x
_atom_site_fract_y
_atom_site_fract_z
Si Si1 0.848922 0.529713 0.346265
Si Si2 0.442427 0.532003 0.123071
Si Si3 0.718888 0.107696 0.447912
Si Si4 0.843399 0.306102 0.720275
Si Si5 0.843272 0.050947 0.126496
Si Si6 0.915627 0.771360 0.664636
Si Si7 0.952734 0.329562 0.995717
Si Si8 0.504612 0.980758 0.775277
O O1 0.739355 0.485459 0.457302
O O2 0.700376 0.814989 0.006240
O O3 0.032716 0.555338 0.369123
O O4 0.955399 0.244741 0.583775
O O5 0.532069 0.368555 0.212825
O O6 0.205482 0.721650 0.913914
O O7 0.523966 0.739671 0.953397
O O8 0.482515 0.277906 0.442019
O O9 0.893683 0.185774 0.370087
O O10 0.714993 0.978943 0.491685
O O11 0.825396 0.865197 0.764362
O O12 0.751603 0.224477 0.867331
O O13 0.000000 0.000000 0.000000
O O14 0.908420 0.241496 0.996872
O O15 0.680414 0.985883 0.219244
O O16 0.893587 0.654013 0.696088
O O17 0.000000 0.500000 0.000000
#
# Coordination Sequence:
#
# PCOD9029126 Si02
#       8
#     2   2   2   2   2   2   2   2
#     4  10  22  42  68  91 133 174 218 271 330 386
#     4  11  27  42  64 103 133 171 229 269 325 396
#     4  10  22  42  66  93 130 175 218 270 332 386
#     4   9  21  41  65  98 124 172 222 264 329 396
#     4  10  23  40  65  95 132 170 218 271 331 388
#     4   9  21  41  66  96 126 171 221 265 330 395
#     4  10  23  40  66  94 131 170 216 272 327 389
#     4  11  27  42  64 102 133 173 227 270 325 396
#
# _framework density 26.057276000000002
#
# number of rings (size 3 to 8) (size 9 to 14) (size 15 to 20)
#    0.000    2.000    0.000    0.750   15.750    1.000 
#    0.000   11.250    0.000    0.000    0.000    0.000 
#    0.000    0.000    0.000    0.000    0.000    0.000 
#
# Total GULP energy -89457.072551 kJ/mol
# GULP energy per Si atom -5591.067034 kJ/mol
# Density = 2.599797 g / cm^3
# Si number density = 26.057276 Si / 1000 Ang^3
#
#
#
# Elastic Constant Matrix: (Units=GPa)
#
#
# Indices 1 2 3 4 5 6 
#
# 1 64.3511 36.7021 20.4137 6.9028 0.9442 -15.7472
# 2 36.7021 149.2115 44.0703 -23.5478 7.3796 -26.6486
# 3 20.4137 44.0703 87.6953 1.7646 3.6288 -4.3630
# 4 6.9028 -23.5478 1.7646 48.6203 4.6098 -18.7721
# 5 0.9442 7.3796 3.6288 4.6098 36.6886 2.6543
# 6 -15.7472 -26.6486 -4.3630 -18.7721 2.6543 35.4563
#
#
#
# Elastic Compliance Matrix: (Units=1/GPa)
#
#
# Indices 1 2 3 4 5 6 
#
# 1 0.019869 -0.004149 -0.002325 -0.003448 0.000730 0.003540
# 2 -0.004149 0.015385 -0.005967 0.015616 -0.005639 0.017677
# 3 -0.002325 -0.005967 0.014675 -0.005851 0.001042 -0.006887
# 4 -0.003448 0.015616 -0.005851 0.042426 -0.010171 0.032709
# 5 0.000730 -0.005639 0.001042 -0.010171 0.030375 -0.011444
# 6 0.003540 0.017677 -0.006887 0.032709 -0.011444 0.060388
#
#
# Mechanical properties :
#
#
# Convention : Reuss Voigt Hill
#
# Bulk Modulus (GPa) = 39.92465 55.95892 47.94179
# Shear Modulus (GPa) = 23.11083 37.49116 30.30100
#
# Velocity S-wave (km/s) = 2.98136 3.79726 3.41377
# Velocity P-wave (km/s) = 5.21598 6.38338 5.82898
#
# Compressibility (1/GPa) = 0.02504718
#
# Stress axis : x y z
#
# Youngs Moduli (GPa) = 50.33015 64.99763 68.14257
#
# Poissons Ratio (x) = 0.26965 0.15843
# Poissons Ratio (y) = 0.20880 0.40663
# Poissons Ratio (z) = 0.11701 0.38787
#
# Static dielectric constant tensor:
#      x y z
#    x 2.099740 0.022110 -0.122640 
#    y 0.022110 2.140520 -0.031500 
#    z -0.122640 -0.031500 2.249200 
# 
# From -- ./inp_files/53583.got.cif
#   From: 2010.05.17/outbox.cif.g08.bks.cpg/sg2_27_cif.got.tgz:53583.got - 2010.06.03 11:33:40.
