data_PCOD9029359
_publ_section_title
;
Structure prediction by ZEFSAII (Michael W. Deem and Ramdas Pophale) SiO2 
 PCOD9029359
Probable space group: P -1
;
_chemical_formula_sum "Si O2"
_cell_formula_units_Z 10
_cell_length_a 12.866147
_cell_length_b 7.545672
_cell_length_c 9.858862
_cell_angle_alpha 99.397329
_cell_angle_beta 43.029706
_cell_angle_gamma 122.387884
_cell_volume 506.402275
_symmetry_space_group_name_H-M "P -1"
_symmetry_group_IT_number 2
_symmetry_cell_setting 'triclinic'
loop_
_space_group_symop_operation_xyz
x,y,z
-x,-y,-z
loop_
_atom_site_type_symbol
_atom_site_label
_atom_site_fract_x
_atom_site_fract_y
_atom_site_fract_z
Si Si1 0.539677 0.928788 0.312084
Si Si2 0.164295 0.683519 0.262024
Si Si3 0.635074 0.569101 0.510621
Si Si4 0.557616 0.855449 0.802742
Si Si5 0.968409 0.308888 0.905624
O O1 0.611652 0.716039 0.654066
O O2 0.427813 0.660989 0.385565
O O3 0.479237 0.016315 0.258979
O O4 0.500000 0.000000 0.500000
O O5 0.268613 0.943139 0.245197
O O6 0.062856 0.636780 0.208533
O O7 0.000000 0.500000 0.500000
O O8 0.353601 0.694192 0.058660
O O9 0.500000 0.500000 0.500000
O O10 0.851487 0.693087 0.267125
O O11 0.230949 0.933565 0.897240
O O12 0.000000 0.500000 0.000000
#
# Coordination Sequence:
#
# PCOD9029359 Si02
#       5
#     2   2   2   2   2
#     4  11  21  41  64  91 131 164 202 267 314 364
#     4  10  22  42  67  89 129 173 204 264 320 370
#     4  12  23  39  65  96 128 167 214 262 311 378
#     4  10  23  42  62  95 128 163 216 258 314 379
#     4  11  23  40  65  95 126 167 215 257 318 377
#
# _framework density 19.747146999999998
#
# number of rings (size 3 to 8) (size 9 to 14) (size 15 to 20)
#    0.000    1.200    4.000    2.400    0.000    3.200 
#    0.000   14.000    0.000    0.000    0.000    0.000 
#    0.000    0.000    0.000    0.000    0.000    0.000 
#
# Total GULP energy -55891.400901 kJ/mol
# GULP energy per Si atom -5589.140090 kJ/mol
# Density = 1.970220 g / cm^3
# Si number density = 19.747147 Si / 1000 Ang^3
#
#
#
# Elastic Constant Matrix: (Units=GPa)
#
#
# Indices 1 2 3 4 5 6 
#
# 1 87.8775 41.1254 50.4472 11.0713 -9.5684 21.4144
# 2 41.1254 149.0954 47.4015 33.9449 -11.6730 5.6238
# 3 50.4472 47.4015 159.5429 15.1909 -16.2055 -0.0329
# 4 11.0713 33.9449 15.1909 37.8261 -0.6577 5.9585
# 5 -9.5684 -11.6730 -16.2055 -0.6577 35.7519 6.5693
# 6 21.4144 5.6238 -0.0329 5.9585 6.5693 35.4529
#
#
#
# Elastic Compliance Matrix: (Units=1/GPa)
#
#
# Indices 1 2 3 4 5 6 
#
# 1 0.018703 -0.003183 -0.004674 0.001179 0.004027 -0.011741
# 2 -0.003183 0.009685 -0.001003 -0.007549 0.001462 0.001383
# 3 -0.004674 -0.001003 0.008356 -0.001522 0.001641 0.002942
# 4 0.001179 -0.007549 -0.001522 0.034248 -0.001284 -0.005034
# 5 0.004027 0.001462 0.001641 -0.001284 0.031777 -0.008335
# 6 -0.011741 0.001383 0.002942 -0.005034 -0.008335 0.037472
#
#
# Mechanical properties :
#
#
# Convention : Reuss Voigt Hill
#
# Bulk Modulus (GPa) = 52.56634 74.94045 63.75340
# Shear Modulus (GPa) = 30.43132 38.97563 34.70348
#
# Velocity S-wave (km/s) = 3.92988 4.44749 4.19667
# Velocity P-wave (km/s) = 6.87528 8.02533 7.47246
#
# Compressibility (1/GPa) = 0.01902358
#
# Stress axis : x y z
#
# Youngs Moduli (GPa) = 53.46658 103.24963 119.67366
#
# Poissons Ratio (x) = 0.32868 0.55933
# Poissons Ratio (y) = 0.17020 0.12008
# Poissons Ratio (z) = 0.24989 0.10360
#
# Static dielectric constant tensor:
#      x y z
#    x 1.701110 0.005700 0.012310 
#    y 0.005700 1.652170 0.021870 
#    z 0.012310 0.021870 1.661750 
# 
# From -- ./inp_files/386469.got.cif
#   From: 2010.05.17/outbox.cif.g08.bks.cpg/sg2_194_cif.got.tgz:386469.got - 2010.06.03 11:33:40.
