data_PCOD9029940
_publ_section_title
;
Structure prediction by ZEFSAII (Michael W. Deem and Ramdas Pophale) SiO2 
 PCOD9029940
Probable space group: P -1
;
_chemical_formula_sum "Si O2"
_cell_formula_units_Z 14
_cell_length_a 20.040135
_cell_length_b 14.804480
_cell_length_c 12.240548
_cell_angle_alpha 42.111752
_cell_angle_beta 150.366417
_cell_angle_gamma 158.953535
_cell_volume 593.594951
_symmetry_space_group_name_H-M "P -1"
_symmetry_group_IT_number 2
_symmetry_cell_setting 'triclinic'
loop_
_space_group_symop_operation_xyz
x,y,z
-x,-y,-z
loop_
_atom_site_type_symbol
_atom_site_label
_atom_site_fract_x
_atom_site_fract_y
_atom_site_fract_z
Si Si1 0.522596 0.684866 0.114997
Si Si2 0.092965 0.170084 0.081457
Si Si3 0.730398 0.104233 0.667906
Si Si4 0.126855 0.617091 0.194211
Si Si5 0.799842 0.789539 0.217563
Si Si6 0.079048 0.462309 0.556168
Si Si7 0.189918 0.880784 0.703086
O O1 0.408901 0.473316 0.227462
O O2 0.750124 0.829314 0.223610
O O3 0.586710 0.861893 0.131245
O O4 0.287651 0.534297 0.834314
O O5 0.991434 0.021227 0.186612
O O6 0.939561 0.180941 0.846771
O O7 0.000000 0.000000 0.000000
O O8 0.810812 0.183896 0.839821
O O9 0.769172 0.296556 0.522091
O O10 0.425975 0.805865 0.461157
O O11 0.887419 0.331483 0.172448
O O12 0.000000 0.500000 0.000000
O O13 0.941609 0.770913 0.463597
O O14 0.500000 0.500000 0.000000
O O15 0.000000 0.500000 0.500000
O O16 0.822460 0.161615 0.405857
#
# Coordination Sequence:
#
# PCOD9029940 Si02
#       7
#     2   2   2   2   2   2   2
#     4  12  26  47  71 102 141 179 232 287 340 411
#     4  12  25  44  72 102 136 185 231 276 344 411
#     4  10  23  41  67 100 135 174 232 279 335 411
#     4  10  22  42  69 100 133 175 226 284 340 402
#     4  12  24  46  74  95 138 186 227 285 343 402
#     4  11  22  44  68  98 139 184 223 281 348 403
#     4  11  25  44  69 101 136 182 230 284 348 401
#
# _framework density 23.585107000000001
#
# number of rings (size 3 to 8) (size 9 to 14) (size 15 to 20)
#    0.000    0.857    4.286    2.143    6.000    1.143 
#    2.571    0.000    0.000    0.000    0.000    0.000 
#    0.000    0.000    0.000    0.000    0.000    0.000 
#
# Total GULP energy -77945.636511 kJ/mol
# GULP energy per Si atom -5567.545465 kJ/mol
# Density = 2.353143 g / cm^3
# Si number density = 23.585107 Si / 1000 Ang^3
#
#
#
# Elastic Constant Matrix: (Units=GPa)
#
#
# Indices 1 2 3 4 5 6 
#
# 1 171.6955 36.5259 25.7728 10.4302 -14.8049 -16.7172
# 2 36.5259 91.1676 -4.4494 13.4744 -31.4040 -6.3040
# 3 25.7728 -4.4494 58.7288 6.7227 -18.3899 -6.0562
# 4 10.4302 13.4744 6.7227 23.4028 -19.6043 -10.1360
# 5 -14.8049 -31.4040 -18.3899 -19.6043 38.4518 5.6304
# 6 -16.7172 -6.3040 -6.0562 -10.1360 5.6304 40.4056
#
#
#
# Elastic Compliance Matrix: (Units=1/GPa)
#
#
# Indices 1 2 3 4 5 6 
#
# 1 0.007295 -0.004044 -0.004311 -0.002250 -0.003955 0.001728
# 2 -0.004044 0.020019 0.009821 0.007456 0.023060 0.001579
# 3 -0.004311 0.009821 0.026162 0.009480 0.023297 0.002802
# 4 -0.002250 0.007456 0.009480 0.087189 0.051823 0.016304
# 5 -0.003955 0.023060 0.023297 0.051823 0.079806 0.007333
# 6 0.001728 0.001579 0.002802 0.016304 0.007333 0.029199
#
#
# Mechanical properties :
#
#
# Convention : Reuss Voigt Hill
#
# Bulk Modulus (GPa) = 17.72730 48.58782 33.15756
# Shear Modulus (GPa) = 18.82953 38.03487 28.43220
#
# Velocity S-wave (km/s) = 2.82860 4.02016 3.47582
# Velocity P-wave (km/s) = 4.26622 6.49574 5.49524
#
# Compressibility (1/GPa) = 0.05641018
#
# Stress axis : x y z
#
# Youngs Moduli (GPa) = 137.07143 49.95295 38.22338
#
# Poissons Ratio (x) = 0.20200 0.16477
# Poissons Ratio (y) = 0.55428 -0.37541
# Poissons Ratio (z) = 0.59088 -0.49061
#
# Static dielectric constant tensor:
#      x y z
#    x 3.864330 1.022850 -0.456980 
#    y 1.022850 2.482690 -0.179840 
#    z -0.456980 -0.179840 1.992290 
# 
# From -- ./inp_files/471907.got.cif
#   From: 2010.05.17/outbox.cif.g08.bks.cpg/sg2_236_cif.got.tgz:471907.got - 2010.06.03 11:33:40.
