data_PCOD9029251
_publ_section_title
;
Structure prediction by ZEFSAII (Michael W. Deem and Ramdas Pophale) SiO2 
 PCOD9029251
Probable space group: P -1
;
_chemical_formula_sum "Si O2"
_cell_formula_units_Z 15
_cell_length_a 11.276420
_cell_length_b 10.263054
_cell_length_c 7.001211
_cell_angle_alpha 70.454709
_cell_angle_beta 103.901357
_cell_angle_gamma 65.103696
_cell_volume 619.968135
_symmetry_space_group_name_H-M "P -1"
_symmetry_group_IT_number 2
_symmetry_cell_setting 'triclinic'
loop_
_space_group_symop_operation_xyz
x,y,z
-x,-y,-z
loop_
_atom_site_type_symbol
_atom_site_label
_atom_site_fract_x
_atom_site_fract_y
_atom_site_fract_z
Si Si1 0.338308 0.041772 0.641760
Si Si2 0.688234 0.287584 0.642870
Si Si3 0.648065 0.754209 0.772882
Si Si4 0.177369 0.253733 0.821877
Si Si5 0.878759 0.394665 0.465326
Si Si6 0.000000 0.000000 0.000000
Si Si7 0.441414 0.472264 0.185914
Si Si8 0.029099 0.125056 0.339707
O O1 0.357597 0.174501 0.471629
O O2 0.290951 0.099940 0.811509
O O3 0.199426 0.054550 0.481411
O O4 0.493573 0.871823 0.763620
O O5 0.750474 0.384902 0.510276
O O6 0.565189 0.315189 0.434537
O O7 0.615103 0.374794 0.770257
O O8 0.826771 0.107559 0.820790
O O9 0.676651 0.573818 0.872377
O O10 0.769080 0.761380 0.936463
O O11 0.161193 0.420344 0.654108
O O12 0.019602 0.284126 0.711775
O O13 0.937294 0.297796 0.335254
O O14 0.971347 0.127835 0.105650
O O15 0.500000 0.500000 0.000000
O O16 0.000000 0.000000 0.500000
#
# Coordination Sequence:
#
# PCOD9029251 Si02
#       8
#     2   2   2   2   2   1   2   2
#     4  10  24  43  65 100 135 177 229 285 341 416
#     4  11  25  44  66 102 140 182 237 288 348 418
#     4  11  23  41  69  95 134 180 230 278 348 411
#     4  10  22  42  66  98 131 177 227 282 341 413
#     4  10  22  44  66  95 139 177 228 286 346 411
#     4  12  26  38  70 104 138 182 226 292 352 412
#     4  11  26  47  70  99 142 192 237 290 350 419
#     4  11  24  43  66  99 143 179 230 287 350 415
#
# _framework density 24.194792
#
# number of rings (size 3 to 8) (size 9 to 14) (size 15 to 20)
#    0.000    1.333    1.333    2.800    5.600    1.067 
#    0.000    2.667    0.000    0.000    0.000    0.000 
#    0.000    0.000    0.000    0.000    0.000    0.000 
#
# Total GULP energy -83726.123792 kJ/mol
# GULP energy per Si atom -5581.741586 kJ/mol
# Density = 2.413972 g / cm^3
# Si number density = 24.194792 Si / 1000 Ang^3
#
#
#
# Elastic Constant Matrix: (Units=GPa)
#
#
# Indices 1 2 3 4 5 6 
#
# 1 71.3386 5.1283 4.1838 5.7510 13.3774 2.3004
# 2 5.1283 71.7964 32.0557 13.1116 10.3540 -11.2711
# 3 4.1838 32.0557 97.2863 20.7371 18.0781 -2.5522
# 4 5.7510 13.1116 20.7371 39.9123 -0.3651 15.1446
# 5 13.3774 10.3540 18.0781 -0.3651 37.4233 0.7375
# 6 2.3004 -11.2711 -2.5522 15.1446 0.7375 31.6592
#
#
#
# Elastic Compliance Matrix: (Units=1/GPa)
#
#
# Indices 1 2 3 4 5 6 
#
# 1 0.015318 -0.000101 0.001160 -0.003036 -0.006048 0.000538
# 2 -0.000101 0.019358 -0.003511 -0.008676 -0.003922 0.010858
# 3 0.001160 -0.003511 0.014411 -0.008007 -0.006558 0.003811
# 4 -0.003036 -0.008676 -0.008007 0.041521 0.008223 -0.023567
# 5 -0.006048 -0.003922 -0.006558 0.008223 0.033339 -0.006196
# 6 0.000538 0.010858 0.003811 -0.023567 -0.006196 0.047138
#
#
# Mechanical properties :
#
#
# Convention : Reuss Voigt Hill
#
# Bulk Modulus (GPa) = 22.63302 35.90633 29.26967
# Shear Modulus (GPa) = 26.21685 35.06918 30.64301
#
# Velocity S-wave (km/s) = 3.29534 3.81130 3.56267
# Velocity P-wave (km/s) = 4.88404 5.85156 5.38955
#
# Compressibility (1/GPa) = 0.04418324
#
# Stress axis : x y z
#
# Youngs Moduli (GPa) = 65.28060 51.65918 69.38986
#
# Poissons Ratio (x) = 0.00521 -0.08046
# Poissons Ratio (y) = 0.00658 0.24362
# Poissons Ratio (z) = -0.07570 0.18137
#
# Static dielectric constant tensor:
#      x y z
#    x 1.895960 0.018010 -0.000030 
#    y 0.018010 1.940410 0.002850 
#    z -0.000030 0.002850 1.982890 
# 
# From -- ./inp_files/66406.got.cif
#   From: 2010.05.17/outbox.cif.g08.bks.cpg/sg2_34_cif.got.tgz:66406.got - 2010.06.03 11:33:40.
