data_PCOD9029204
_publ_section_title
;
Structure prediction by ZEFSAII (Michael W. Deem and Ramdas Pophale) SiO2 
 PCOD9029204
Probable space group: P -1
;
_chemical_formula_sum "Si O2"
_cell_formula_units_Z 15
_cell_length_a 6.500638
_cell_length_b 19.450585
_cell_length_c 16.160224
_cell_angle_alpha 20.087683
_cell_angle_beta 110.775726
_cell_angle_gamma 105.437251
_cell_volume 641.741226
_symmetry_space_group_name_H-M "P -1"
_symmetry_group_IT_number 2
_symmetry_cell_setting 'triclinic'
loop_
_space_group_symop_operation_xyz
x,y,z
-x,-y,-z
loop_
_atom_site_type_symbol
_atom_site_label
_atom_site_fract_x
_atom_site_fract_y
_atom_site_fract_z
Si Si1 0.648237 0.081232 0.077415
Si Si2 0.000000 0.000000 0.500000
Si Si3 0.338436 0.155178 0.485617
Si Si4 0.821623 0.935896 0.985811
Si Si5 0.546931 0.499077 0.104750
Si Si6 0.063652 0.733997 0.471442
Si Si7 0.294802 0.114931 0.258652
Si Si8 0.974224 0.349210 0.805644
O O1 0.623579 0.011427 0.247145
O O2 0.846024 0.901661 0.275241
O O3 0.416435 0.092533 0.983653
O O4 0.731496 0.292980 0.843780
O O5 0.109916 0.137084 0.428687
O O6 0.151066 0.078238 0.358349
O O7 0.367354 0.383956 0.253012
O O8 0.544027 0.082766 0.532820
O O9 0.928509 0.738558 0.169355
O O10 0.772233 0.134911 0.694252
O O11 0.000000 0.000000 0.000000
O O12 0.798851 0.386735 0.296375
O O13 0.500000 0.500000 0.000000
O O14 0.538603 0.728977 0.875282
O O15 0.995067 0.576145 0.575079
O O16 0.125998 0.212218 0.051998
#
# Coordination Sequence:
#
# PCOD9029204 Si02
#       8
#     2   1   2   2   2   2   2   2
#     4  11  22  42  68  93 131 175 213 272 334 384
#     4  12  24  36  62  92 122 170 222 262 312 374
#     4  12  23  41  61  90 131 173 216 273 314 379
#     4  11  24  45  72  97 127 173 219 270 339 399
#     4  11  23  40  62  91 131 173 217 267 315 383
#     4  10  24  42  65  99 133 170 220 273 327 389
#     4  11  23  42  60  89 126 171 221 264 322 380
#     4  10  22  42  66  96 131 167 215 270 328 395
#
# _framework density 23.373906999999999
#
# number of rings (size 3 to 8) (size 9 to 14) (size 15 to 20)
#    0.000    1.067    5.333    1.200    0.000    4.800 
#    0.000    3.333    0.000    0.000    0.000    0.000 
#    0.000    0.000    0.000    0.000    0.000    0.000 
#
# Total GULP energy -83623.450818 kJ/mol
# GULP energy per Si atom -5574.896721 kJ/mol
# Density = 2.332071 g / cm^3
# Si number density = 23.373907 Si / 1000 Ang^3
#
#
#
# Elastic Constant Matrix: (Units=GPa)
#
#
# Indices 1 2 3 4 5 6 
#
# 1 55.1379 31.9984 17.2628 -23.5307 -22.9510 25.6027
# 2 31.9984 129.2069 14.9973 -28.1184 2.6742 25.6719
# 3 17.2628 14.9973 57.9697 -30.3606 -13.7602 6.5217
# 4 -23.5307 -28.1184 -30.3606 47.2244 15.5095 -12.2319
# 5 -22.9510 2.6742 -13.7602 15.5095 19.9755 -5.1315
# 6 25.6027 25.6719 6.5217 -12.2319 -5.1315 42.9946
#
#
#
# Elastic Compliance Matrix: (Units=1/GPa)
#
#
# Indices 1 2 3 4 5 6 
#
# 1 0.069029 -0.015698 0.002136 -0.006746 0.081906 -0.024200
# 2 -0.015698 0.014258 -0.000697 0.009371 -0.027622 0.000310
# 3 0.002136 -0.000697 0.026794 0.014839 0.009599 0.000447
# 4 -0.006746 0.009371 0.014839 0.044860 -0.032310 0.005078
# 5 0.081906 -0.027622 0.009599 -0.032310 0.173867 -0.022178
# 6 -0.024200 0.000310 0.000447 0.005078 -0.022178 0.036214
#
#
# Mechanical properties :
#
#
# Convention : Reuss Voigt Hill
#
# Bulk Modulus (GPa) = 12.26053 41.20350 26.73201
# Shear Modulus (GPa) = 11.88417 33.90930 22.89674
#
# Velocity S-wave (km/s) = 2.25730 3.81298 3.13323
# Velocity P-wave (km/s) = 3.47141 6.08698 4.95490
#
# Compressibility (1/GPa) = 0.08156256
#
# Stress axis : x y z
#
# Youngs Moduli (GPa) = 14.48666 70.13829 37.32131
#
# Poissons Ratio (x) = 1.10104 -0.07974
# Poissons Ratio (y) = 0.22741 0.02603
# Poissons Ratio (z) = -0.03095 0.04892
#
# Static dielectric constant tensor:
#      x y z
#    x 2.129010 -0.174480 -0.224160 
#    y -0.174480 2.050710 0.200810 
#    z -0.224160 0.200810 2.118550 
# 
# From -- ./inp_files/112642.got.cif
#   From: 2010.05.17/outbox.cif.g08.bks.cpg/sg2_57_cif.got.tgz:112642.got - 2010.06.03 11:33:40.
