data_PCOD9029894
_publ_section_title
;
Structure prediction by ZEFSAII (Michael W. Deem and Ramdas Pophale) SiO2 
 PCOD9029894
Probable space group: P -1
;
_chemical_formula_sum "Si O2"
_cell_formula_units_Z 16
_cell_length_a 8.350249
_cell_length_b 8.199703
_cell_length_c 11.059616
_cell_angle_alpha 56.335601
_cell_angle_beta 97.167704
_cell_angle_gamma 97.243980
_cell_volume 623.842708
_symmetry_space_group_name_H-M "P -1"
_symmetry_group_IT_number 2
_symmetry_cell_setting 'triclinic'
loop_
_space_group_symop_operation_xyz
x,y,z
-x,-y,-z
loop_
_atom_site_type_symbol
_atom_site_label
_atom_site_fract_x
_atom_site_fract_y
_atom_site_fract_z
Si Si1 0.532993 0.776161 0.563135
Si Si2 0.949522 0.284395 0.530231
Si Si3 0.956560 0.691320 0.061971
Si Si4 0.587161 0.149417 0.105283
Si Si5 0.367069 0.812601 0.303078
Si Si6 0.752231 0.350018 0.260281
Si Si7 0.892763 0.945922 0.185330
Si Si8 0.295528 0.530251 0.187405
O O1 0.516539 0.761013 0.424194
O O2 0.387644 0.629786 0.663068
O O3 0.680642 0.693611 0.683096
O O4 0.500000 0.000000 0.500000
O O5 0.789541 0.195309 0.622683
O O6 0.902259 0.295143 0.380915
O O7 0.000000 0.500000 0.500000
O O8 0.089185 0.150844 0.642996
O O9 0.113532 0.567111 0.119074
O O10 0.802371 0.541886 0.109235
O O11 0.948166 0.798623 0.147483
O O12 0.987377 0.859730 0.897340
O O13 0.675267 0.195245 0.222220
O O14 0.420227 0.024022 0.163629
O O15 0.714035 0.010290 0.111340
O O16 0.590593 0.352602 0.948902
O O17 0.332318 0.653163 0.262723
#
# Coordination Sequence:
#
# PCOD9029894 Si02
#       8
#     2   2   2   2   2   2   2   2
#     4  11  25  47  65  97 137 176 221 276 336 399
#     4  11  22  42  71  98 130 177 226 268 331 395
#     4  10  22  45  67  99 129 175 225 278 332 392
#     4  11  26  43  64 105 136 176 220 276 337 394
#     4  11  23  44  68  99 136 174 226 276 331 396
#     4  11  24  45  63  97 140 172 224 271 337 395
#     4  10  22  42  68  98 134 170 229 273 327 400
#     4  11  24  44  71  96 131 180 226 276 333 396
#
# _framework density 25.647493000000001
#
# number of rings (size 3 to 8) (size 9 to 14) (size 15 to 20)
#    0.000    1.250    3.750    0.750    1.750    6.000 
#    9.000    0.000    0.000    0.000    0.000    0.000 
#    0.000    0.000    0.000    0.000    0.000    0.000 
#
# Total GULP energy -89547.280560 kJ/mol
# GULP energy per Si atom -5596.705035 kJ/mol
# Density = 2.558912 g / cm^3
# Si number density = 25.647493 Si / 1000 Ang^3
#
#
#
# Elastic Constant Matrix: (Units=GPa)
#
#
# Indices 1 2 3 4 5 6 
#
# 1 69.3910 8.4584 15.4167 -19.6306 -16.4975 10.9756
# 2 8.4584 74.2734 27.1748 -5.6648 2.2972 11.0522
# 3 15.4167 27.1748 114.6443 -7.0717 5.1279 -0.8651
# 4 -19.6306 -5.6648 -7.0717 41.9071 7.0678 -6.5647
# 5 -16.4975 2.2972 5.1279 7.0678 52.1289 -10.4707
# 6 10.9756 11.0522 -0.8651 -6.5647 -10.4707 23.0069
#
#
#
# Elastic Compliance Matrix: (Units=1/GPa)
#
#
# Indices 1 2 3 4 5 6 
#
# 1 0.018668 -0.000147 -0.002279 0.006840 0.004195 -0.005060
# 2 -0.000147 0.016270 -0.003773 0.000496 -0.002218 -0.008756
# 3 -0.002279 -0.003773 0.010040 0.000765 -0.001039 0.003023
# 4 0.006840 0.000496 0.000765 0.028061 -0.000909 0.004120
# 5 0.004195 -0.002218 -0.001039 -0.000909 0.022657 0.009077
# 6 -0.005060 -0.008756 0.003023 0.004120 0.009077 0.055506
#
#
# Mechanical properties :
#
#
# Convention : Reuss Voigt Hill
#
# Bulk Modulus (GPa) = 30.69434 40.04540 35.36987
# Shear Modulus (GPa) = 28.65949 37.22585 32.94267
#
# Velocity S-wave (km/s) = 3.34644 3.81391 3.58780
# Velocity P-wave (km/s) = 5.18896 5.91965 5.56631
#
# Compressibility (1/GPa) = 0.03257930
#
# Stress axis : x y z
#
# Youngs Moduli (GPa) = 53.56707 61.46140 99.60145
#
# Poissons Ratio (x) = 0.00904 0.22703
# Poissons Ratio (y) = 0.00788 0.37581
# Poissons Ratio (z) = 0.12210 0.23190
#
# Static dielectric constant tensor:
#      x y z
#    x 2.099400 -0.027180 0.039370 
#    y -0.027180 2.007170 0.017570 
#    z 0.039370 0.017570 2.050780 
# 
# From -- ./inp_files/381079.got.cif
#   From: 2010.05.17/outbox.cif.g08.bks.cpg/sg2_191_cif.got.tgz:381079.got - 2010.06.03 11:33:40.
