data_PCOD9029744
_publ_section_title
;
Structure prediction by ZEFSAII (Michael W. Deem and Ramdas Pophale) SiO2 
 PCOD9029744
Probable space group: P -1
;
_chemical_formula_sum "Si O2"
_cell_formula_units_Z 16
_cell_length_a 12.501414
_cell_length_b 9.663969
_cell_length_c 17.514299
_cell_angle_alpha 31.436607
_cell_angle_beta 114.066995
_cell_angle_gamma 93.226767
_cell_volume 796.559633
_symmetry_space_group_name_H-M "P -1"
_symmetry_group_IT_number 2
_symmetry_cell_setting 'triclinic'
loop_
_space_group_symop_operation_xyz
x,y,z
-x,-y,-z
loop_
_atom_site_type_symbol
_atom_site_label
_atom_site_fract_x
_atom_site_fract_y
_atom_site_fract_z
Si Si1 0.038238 0.652604 0.148409
Si Si2 0.439593 0.755635 0.556894
Si Si3 0.164692 0.592447 0.795333
Si Si4 0.366419 0.120023 0.520555
Si Si5 0.131771 0.325490 0.180100
Si Si6 0.509126 0.800903 0.871912
Si Si7 0.117301 0.789288 0.518282
Si Si8 0.609172 0.789414 0.202164
O O1 0.190978 0.342830 0.376827
O O2 0.083159 0.610263 0.092628
O O3 0.917945 0.580554 0.153968
O O4 0.000000 0.000000 0.000000
O O5 0.590091 0.667879 0.609606
O O6 0.425243 0.470123 0.667416
O O7 0.421561 0.833138 0.606615
O O8 0.304122 0.107995 0.311310
O O9 0.183530 0.680051 0.674251
O O10 0.320968 0.348732 0.996001
O O11 0.058684 0.951317 0.639324
O O12 0.442263 0.008277 0.677033
O O13 0.137055 0.039920 0.362222
O O14 0.000000 0.500000 0.000000
O O15 0.424929 0.997826 0.832471
O O16 0.500000 0.500000 0.000000
O O17 0.217794 0.442138 0.664400
O O18 0.500000 0.000000 0.000000
#
# Coordination Sequence:
#
# PCOD9029744 Si02
#       8
#     2   2   2   2   2   2   2   2
#     4  10  23  39  63  90 129 164 208 257 315 386
#     4   9  21  40  65  88 129 171 210 263 323 381
#     4  10  22  42  68  92 126 175 210 262 330 379
#     4  10  23  42  62  95 131 167 215 267 321 382
#     4   9  19  36  63  90 122 164 209 255 315 378
#     4  12  27  40  67  98 132 166 220 275 320 385
#     4   9  20  38  68  86 124 167 219 252 320 379
#     4  11  21  40  65  95 127 171 215 264 323 386
#
# _framework density 20.086380999999999
#
# number of rings (size 3 to 8) (size 9 to 14) (size 15 to 20)
#    0.000    2.000    1.250    1.500   12.250    2.500 
#    0.000    0.625    0.000    0.000    0.000    0.000 
#    0.000    0.000    0.000    0.000    0.000    0.000 
#
# Total GULP energy -89123.885597 kJ/mol
# GULP energy per Si atom -5570.242850 kJ/mol
# Density = 2.004066 g / cm^3
# Si number density = 20.086381 Si / 1000 Ang^3
#
#
#
# Elastic Constant Matrix: (Units=GPa)
#
#
# Indices 1 2 3 4 5 6 
#
# 1 90.8887 38.2393 42.4810 1.0794 14.6876 5.4566
# 2 38.2393 154.4271 74.0315 -12.9290 13.0796 -7.2472
# 3 42.4810 74.0315 99.6804 12.6832 25.3616 3.1195
# 4 1.0794 -12.9290 12.6832 40.4326 8.2114 2.7645
# 5 14.6876 13.0796 25.3616 8.2114 34.4775 -2.1467
# 6 5.4566 -7.2472 3.1195 2.7645 -2.1467 27.4159
#
#
#
# Elastic Compliance Matrix: (Units=1/GPa)
#
#
# Indices 1 2 3 4 5 6 
#
# 1 0.014242 -0.001063 -0.004676 0.001511 -0.002768 -0.002952
# 2 -0.001063 0.012048 -0.009915 0.006325 0.001920 0.004037
# 3 -0.004676 -0.009915 0.022956 -0.008031 -0.009484 -0.004235
# 4 0.001511 0.006325 -0.008031 0.030203 -0.004398 -0.001105
# 5 -0.002768 0.001920 -0.009484 -0.004398 0.037824 0.005543
# 6 -0.002952 0.004037 -0.004235 -0.001105 0.005543 0.039157
#
#
# Mechanical properties :
#
#
# Convention : Reuss Voigt Hill
#
# Bulk Modulus (GPa) = 55.74430 72.72219 64.23324
# Shear Modulus (GPa) = 25.81101 33.14817 29.47959
#
# Velocity S-wave (km/s) = 3.58858 4.06677 3.83514
# Velocity P-wave (km/s) = 6.70694 7.63772 7.18742
#
# Compressibility (1/GPa) = 0.01793906
#
# Stress axis : x y z
#
# Youngs Moduli (GPa) = 70.21696 82.99987 43.56188
#
# Poissons Ratio (x) = 0.08820 0.20368
# Poissons Ratio (y) = 0.07461 0.43191
# Poissons Ratio (z) = 0.32832 0.82294
#
# Static dielectric constant tensor:
#      x y z
#    x 1.821360 -0.014570 0.033900 
#    y -0.014570 1.726010 0.001400 
#    z 0.033900 0.001400 1.773210 
# 
# From -- ./inp_files/529293.got.cif
#   From: 2010.05.17/outbox.cif.g08.bks.cpg/sg2_265_cif.got.tgz:529293.got - 2010.06.03 11:33:40.
