data_PCOD9029614
_publ_section_title
;
Structure prediction by ZEFSAII (Michael W. Deem and Ramdas Pophale) SiO2 
 PCOD9029614
Probable space group: P -1
;
_chemical_formula_sum "Si O2"
_cell_formula_units_Z 14
_cell_length_a 12.509280
_cell_length_b 8.755369
_cell_length_c 9.065479
_cell_angle_alpha 70.710569
_cell_angle_beta 135.705957
_cell_angle_gamma 97.851541
_cell_volume 646.894372
_symmetry_space_group_name_H-M "P -1"
_symmetry_group_IT_number 2
_symmetry_cell_setting 'triclinic'
loop_
_space_group_symop_operation_xyz
x,y,z
-x,-y,-z
loop_
_atom_site_type_symbol
_atom_site_label
_atom_site_fract_x
_atom_site_fract_y
_atom_site_fract_z
Si Si1 0.360240 0.771479 0.051276
Si Si2 0.404431 0.383206 0.260264
Si Si3 0.433489 0.686721 0.830639
Si Si4 0.135221 0.823317 0.299695
Si Si5 0.990629 0.082382 0.303603
Si Si6 0.915002 0.678264 0.897035
Si Si7 0.607392 0.101002 0.666515
O O1 0.405390 0.575928 0.183645
O O2 0.415415 0.900095 0.179948
O O3 0.403852 0.791270 0.917062
O O4 0.177729 0.809699 0.892830
O O5 0.432784 0.288794 0.161180
O O6 0.251488 0.340201 0.197429
O O7 0.550759 0.295544 0.523256
O O8 0.271031 0.715995 0.567931
O O9 0.500000 0.500000 0.000000
O O10 0.228222 0.927399 0.245596
O O11 0.026874 0.933407 0.272829
O O12 0.025860 0.738348 0.112018
O O13 0.097104 0.207030 0.297828
O O14 0.000000 0.000000 0.500000
O O15 0.000000 0.500000 0.000000
O O16 0.500000 0.000000 0.500000
#
# Coordination Sequence:
#
# PCOD9029614 Si02
#       7
#     2   2   2   2   2   2   2
#     4  11  21  43  68  96 134 182 222 279 342 400
#     4  10  22  42  68 100 131 173 232 277 331 408
#     4   9  21  42  68  95 134 177 221 279 339 395
#     4  11  23  42  68  98 134 183 223 278 342 402
#     4  12  24  42  69  99 140 177 224 277 348 402
#     4  12  24  43  71 104 135 179 229 277 336 410
#     4  11  23  40  67  98 131 175 230 278 334 406
#
# _framework density 21.641864000000002
#
# number of rings (size 3 to 8) (size 9 to 14) (size 15 to 20)
#    0.000    1.143    4.286    1.714    2.000    2.286 
#    0.000   12.143    0.000    0.000    0.000    0.000 
#    0.000    0.000    0.000    0.000    0.000    0.000 
#
# Total GULP energy -77957.836450 kJ/mol
# GULP energy per Si atom -5568.416889 kJ/mol
# Density = 2.159261 g / cm^3
# Si number density = 21.641864 Si / 1000 Ang^3
#
#
#
# Elastic Constant Matrix: (Units=GPa)
#
#
# Indices 1 2 3 4 5 6 
#
# 1 168.2079 41.2830 21.5556 22.2006 -33.9854 -37.8638
# 2 41.2830 89.5061 24.6986 11.1686 -21.0816 -21.6929
# 3 21.5556 24.6986 63.0873 -2.9207 -26.1453 -11.9445
# 4 22.2006 11.1686 -2.9207 46.6364 -11.8592 -8.3197
# 5 -33.9854 -21.0816 -26.1453 -11.8592 35.7372 -2.9424
# 6 -37.8638 -21.6929 -11.9445 -8.3197 -2.9424 42.9709
#
#
#
# Elastic Compliance Matrix: (Units=1/GPa)
#
#
# Indices 1 2 3 4 5 6 
#
# 1 0.011163 0.000077 0.005239 0.001320 0.015976 0.012681
# 2 0.000077 0.015587 -0.000519 0.000163 0.009641 0.008484
# 3 0.005239 -0.000519 0.031871 0.011210 0.033165 0.017654
# 4 0.001320 0.000163 0.011210 0.028560 0.019957 0.011258
# 5 0.015976 0.009641 0.033165 0.019957 0.082853 0.037700
# 6 0.012681 0.008484 0.017654 0.011258 0.037700 0.048397
#
#
# Mechanical properties :
#
#
# Convention : Reuss Voigt Hill
#
# Bulk Modulus (GPa) = 14.65987 55.09733 34.87860
# Shear Modulus (GPa) = 21.59135 40.61984 31.10559
#
# Velocity S-wave (km/s) = 3.16201 4.33703 3.79527
# Velocity P-wave (km/s) = 4.48549 7.11293 5.94615
#
# Compressibility (1/GPa) = 0.06821341
#
# Stress axis : x y z
#
# Youngs Moduli (GPa) = 89.58335 64.15736 31.37685
#
# Poissons Ratio (x) = -0.00496 -0.16437
# Poissons Ratio (y) = -0.00692 0.01629
# Poissons Ratio (z) = -0.46929 0.03331
#
# Static dielectric constant tensor:
#      x y z
#    x 1.966100 -0.012230 -0.087740 
#    y -0.012230 1.803440 -0.028690 
#    z -0.087740 -0.028690 1.909750 
# 
# From -- ./inp_files/155304.got.cif
#   From: 2010.05.17/outbox.cif.g08.bks.cpg/sg2_78_cif.got.tgz:155304.got - 2010.06.03 11:33:40.
