data_PCOD9029374
_publ_section_title
;
Structure prediction by ZEFSAII (Michael W. Deem and Ramdas Pophale) SiO2 
 PCOD9029374
Probable space group: P -1
;
_chemical_formula_sum "Si O2"
_cell_formula_units_Z 16
_cell_length_a 12.432423
_cell_length_b 8.790829
_cell_length_c 21.029343
_cell_angle_alpha 70.802474
_cell_angle_beta 159.392139
_cell_angle_gamma 109.600724
_cell_volume 761.303401
_symmetry_space_group_name_H-M "P -1"
_symmetry_group_IT_number 2
_symmetry_cell_setting 'triclinic'
loop_
_space_group_symop_operation_xyz
x,y,z
-x,-y,-z
loop_
_atom_site_type_symbol
_atom_site_label
_atom_site_fract_x
_atom_site_fract_y
_atom_site_fract_z
Si Si1 0.247754 0.948700 0.459219
Si Si2 0.316887 0.338626 0.249713
Si Si3 0.862096 0.944413 0.122103
Si Si4 0.187266 0.451012 0.298250
Si Si5 0.231673 0.814735 0.237498
Si Si6 0.556342 0.347256 0.010636
Si Si7 0.624432 0.807246 0.190561
Si Si8 0.344088 0.704109 0.177743
O O1 0.452435 0.800416 0.611139
O O2 0.137569 0.943282 0.325577
O O3 0.933370 0.915871 0.329560
O O4 0.450128 0.114168 0.563868
O O5 0.247332 0.347208 0.284454
O O6 0.429639 0.523836 0.268898
O O7 0.996341 0.308046 0.039527
O O8 0.987435 0.918936 0.123953
O O9 0.615285 0.801747 0.027222
O O10 0.673005 0.098545 0.002670
O O11 0.500000 0.500000 0.500000
O O12 0.100865 0.629574 0.204301
O O13 0.921059 0.357966 0.203873
O O14 0.310135 0.813569 0.206355
O O15 0.500000 0.500000 0.000000
O O16 0.411045 0.339786 0.859864
O O17 0.583288 0.764242 0.247333
#
# Coordination Sequence:
#
# PCOD9029374 Si02
#       8
#     2   2   2   2   2   2   2   2
#     4  11  24  41  64  99 132 165 214 269 330 375
#     4  10  22  42  67  91 127 172 213 268 313 385
#     4  11  24  43  66  96 134 173 206 266 334 380
#     4  11  23  37  65  97 128 163 210 273 323 376
#     4  11  24  40  64  97 126 171 221 264 310 388
#     4  11  22  40  62  96 127 165 211 260 325 381
#     4  11  25  43  67  91 136 176 204 266 325 385
#     4  10  23  45  66  91 126 176 225 251 321 383
#
# _framework density 21.016589
#
# number of rings (size 3 to 8) (size 9 to 14) (size 15 to 20)
#    0.000    1.250    2.500    3.375    5.250    3.000 
#    0.000    0.000    0.000    0.000    0.000    0.000 
#    0.000    0.000    0.000    0.000    0.000    0.000 
#
# Total GULP energy -89331.924462 kJ/mol
# GULP energy per Si atom -5583.245279 kJ/mol
# Density = 2.096875 g / cm^3
# Si number density = 21.016589 Si / 1000 Ang^3
#
#
#
# Elastic Constant Matrix: (Units=GPa)
#
#
# Indices 1 2 3 4 5 6 
#
# 1 145.5047 42.4562 24.0918 14.3545 12.9841 -13.1534
# 2 42.4562 65.4727 22.7703 15.6723 1.6088 -1.1454
# 3 24.0918 22.7703 67.4972 14.7487 10.4506 -0.1829
# 4 14.3545 15.6723 14.7487 42.5670 5.3816 0.4182
# 5 12.9841 1.6088 10.4506 5.3816 30.9780 5.7332
# 6 -13.1534 -1.1454 -0.1829 0.4182 5.7332 32.4364
#
#
#
# Elastic Compliance Matrix: (Units=1/GPa)
#
#
# Indices 1 2 3 4 5 6 
#
# 1 0.009428 -0.005585 -0.000742 -0.000384 -0.004151 0.004360
# 2 -0.005585 0.021621 -0.004876 -0.004887 0.004118 -0.002194
# 3 -0.000742 -0.004876 0.018315 -0.003663 -0.005084 0.000576
# 4 -0.000384 -0.004887 -0.003663 0.027074 -0.003023 -0.000164
# 5 -0.004151 0.004118 -0.005084 -0.003023 0.037559 -0.008166
# 6 0.004360 -0.002194 0.000576 -0.000164 -0.008166 0.033969
#
#
# Mechanical properties :
#
#
# Convention : Reuss Voigt Hill
#
# Bulk Modulus (GPa) = 37.09770 50.79015 43.94392
# Shear Modulus (GPa) = 27.87719 33.80670 30.84195
#
# Velocity S-wave (km/s) = 3.64598 4.01505 3.83496
# Velocity P-wave (km/s) = 5.95098 6.76116 6.36897
#
# Compressibility (1/GPa) = 0.02695585
#
# Stress axis : x y z
#
# Youngs Moduli (GPa) = 106.07075 46.25077 54.60123
#
# Poissons Ratio (x) = 0.25831 0.04054
# Poissons Ratio (y) = 0.59241 0.26625
# Poissons Ratio (z) = 0.07876 0.22553
#
# Static dielectric constant tensor:
#      x y z
#    x 1.804140 0.017250 0.017940 
#    y 0.017250 1.828790 0.004330 
#    z 0.017940 0.004330 1.796350 
# 
# From -- ./inp_files/390382.got.cif
#   From: 2010.05.17/outbox.cif.g08.bks.cpg/sg2_196_cif.got.tgz:390382.got - 2010.06.03 11:33:40.
