data_PCOD9029348
_publ_section_title
;
Structure prediction by ZEFSAII (Michael W. Deem and Ramdas Pophale) SiO2 
 PCOD9029348
Probable space group: P -1
;
_chemical_formula_sum "Si O2"
_cell_formula_units_Z 15
_cell_length_a 11.829506
_cell_length_b 17.586916
_cell_length_c 8.322928
_cell_angle_alpha 88.318408
_cell_angle_beta 71.088340
_cell_angle_gamma 149.403116
_cell_volume 640.420379
_symmetry_space_group_name_H-M "P -1"
_symmetry_group_IT_number 2
_symmetry_cell_setting 'triclinic'
loop_
_space_group_symop_operation_xyz
x,y,z
-x,-y,-z
loop_
_atom_site_type_symbol
_atom_site_label
_atom_site_fract_x
_atom_site_fract_y
_atom_site_fract_z
Si Si1 0.000000 0.000000 0.000000
Si Si2 0.594479 0.081488 0.693967
Si Si3 0.986870 0.243257 0.237468
Si Si4 0.847851 0.779822 0.271690
Si Si5 0.615984 0.836777 0.809799
Si Si6 0.979566 0.903991 0.700010
Si Si7 0.229664 0.736538 0.076174
Si Si8 0.704704 0.529647 0.229251
O O1 0.767657 0.790041 0.164560
O O2 0.120771 0.023644 0.787082
O O3 0.884053 0.228213 0.443483
O O4 0.685338 0.192887 0.784630
O O5 0.329734 0.955679 0.704386
O O6 0.450736 0.921570 0.855112
O O7 0.119820 0.240092 0.222738
O O8 0.206701 0.412634 0.000499
O O9 0.844055 0.689916 0.230576
O O10 0.634535 0.667232 0.531609
O O11 0.181635 0.005737 0.151133
O O12 0.705224 0.801517 0.790995
O O13 0.294073 0.687808 0.996911
O O14 0.765760 0.946380 0.565417
O O15 0.889490 0.566282 0.209757
#
# Coordination Sequence:
#
# PCOD9029348 Si02
#       8
#     1   2   2   2   2   2   2   2
#     4  10  20  36  60  78 108 146 196 222 268 338
#     4   9  18  27  52  80 116 143 186 230 286 325
#     4  10  17  32  49  85 113 143 187 238 272 337
#     4  10  20  37  56  85 111 152 184 233 277 343
#     4  10  20  35  56  81 113 149 196 223 277 333
#     4  10  20  32  54  83 106 148 194 234 262 333
#     4  10  18  33  54  84 114 146 183 237 279 330
#     4  10  21  34  56  86 119 141 184 234 299 313
#
# _framework density 23.422115000000002
#
# number of rings (size 3 to 8) (size 9 to 14) (size 15 to 20)
#    0.000    2.133    2.667    2.400    1.867    0.000 
#    0.000    2.000    0.000   10.400    3.467    0.000 
#    0.000    0.000    0.000    0.000    0.000    0.000 
#
# Total GULP energy -83576.024469 kJ/mol
# GULP energy per Si atom -5571.734965 kJ/mol
# Density = 2.336881 g / cm^3
# Si number density = 23.422115 Si / 1000 Ang^3
#
#
#
# Elastic Constant Matrix: (Units=GPa)
#
#
# Indices 1 2 3 4 5 6 
#
# 1 97.5148 11.8117 34.3004 7.8045 -30.3618 -17.0663
# 2 11.8117 31.9761 21.5145 11.6430 -9.8510 -9.0507
# 3 34.3004 21.5145 113.7484 33.2045 -24.3181 -2.1598
# 4 7.8045 11.6430 33.2045 31.8732 -7.5304 -4.9547
# 5 -30.3618 -9.8510 -24.3181 -7.5304 35.0465 6.6374
# 6 -17.0663 -9.0507 -2.1598 -4.9547 6.6374 15.6382
#
#
#
# Elastic Compliance Matrix: (Units=1/GPa)
#
#
# Indices 1 2 3 4 5 6 
#
# 1 0.017391 0.003086 -0.004582 0.004526 0.010485 0.017116
# 2 0.003086 0.044892 -0.006206 -0.005666 0.005124 0.024522
# 3 -0.004582 -0.006206 0.016427 -0.014568 0.005030 -0.013074
# 4 0.004526 -0.005666 -0.014568 0.049919 0.000019 0.015456
# 5 0.010485 0.005124 0.005030 0.000019 0.043159 -0.003210
# 6 0.017116 0.024522 -0.013074 0.015456 -0.003210 0.101271
#
#
# Mechanical properties :
#
#
# Convention : Reuss Voigt Hill
#
# Bulk Modulus (GPa) = 15.79710 42.05471 28.92591
# Shear Modulus (GPa) = 16.15174 28.21909 22.18542
#
# Velocity S-wave (km/s) = 2.62886 3.47480 3.08100
# Velocity P-wave (km/s) = 3.99671 5.83893 5.00334
#
# Compressibility (1/GPa) = 0.06330275
#
# Stress axis : x y z
#
# Youngs Moduli (GPa) = 57.50217 22.27588 60.87717
#
# Poissons Ratio (x) = -0.06874 0.27897
# Poissons Ratio (y) = -0.17744 0.37783
# Poissons Ratio (z) = 0.26350 0.13825
#
# Static dielectric constant tensor:
#      x y z
#    x 2.385400 0.212610 0.152510 
#    y 0.212610 1.985080 0.060410 
#    z 0.152510 0.060410 1.886180 
# 
# From -- ./inp_files/277808.got.cif
#   From: 2010.05.17/outbox.cif.g08.bks.cpg/sg2_139_cif.got.tgz:277808.got - 2010.06.03 11:33:40.
