data_PCOD9029964
_publ_section_title
;
Structure prediction by ZEFSAII (Michael W. Deem and Ramdas Pophale) SiO2 
 PCOD9029964
Probable space group: P -1
;
_chemical_formula_sum "Si O2"
_cell_formula_units_Z 14
_cell_length_a 5.967829
_cell_length_b 9.418659
_cell_length_c 14.591276
_cell_angle_alpha 130.943688
_cell_angle_beta 111.864767
_cell_angle_gamma 70.391707
_cell_volume 570.024480
_symmetry_space_group_name_H-M "P -1"
_symmetry_group_IT_number 2
_symmetry_cell_setting 'triclinic'
loop_
_space_group_symop_operation_xyz
x,y,z
-x,-y,-z
loop_
_atom_site_type_symbol
_atom_site_label
_atom_site_fract_x
_atom_site_fract_y
_atom_site_fract_z
Si Si1 0.948393 0.566309 0.244878
Si Si2 0.863988 0.036940 0.899034
Si Si3 0.517335 0.308653 0.052131
Si Si4 0.937847 0.733798 0.129620
Si Si5 0.542655 0.582674 0.708102
Si Si6 0.911136 0.156894 0.319512
Si Si7 0.320318 0.196278 0.548052
O O1 0.173638 0.461113 0.292304
O O2 0.735863 0.436549 0.139657
O O3 0.055429 0.628357 0.191420
O O4 0.822144 0.749439 0.356523
O O5 0.920339 0.211801 0.916388
O O6 0.601295 0.107953 0.930581
O O7 0.955674 0.869747 0.771532
O O8 0.000000 0.000000 0.000000
O O9 0.459921 0.298216 0.146570
O O10 0.278872 0.376743 0.985594
O O11 0.850537 0.946477 0.243035
O O12 0.334656 0.696502 0.661559
O O13 0.462053 0.375947 0.625836
O O14 0.115603 0.196502 0.439091
O O15 0.500000 0.000000 0.500000
#
# Coordination Sequence:
#
# PCOD9029964 Si02
#       7
#     2   2   2   2   2   2   2
#     4  11  26  44  69 106 143 187 234 298 347 418
#     4  10  22  42  69 101 142 182 235 286 349 421
#     4  11  22  41  69 104 143 189 228 291 349 415
#     4  10  24  41  68 105 142 186 234 284 352 422
#     4  11  24  45  71 101 145 181 242 292 348 423
#     4  10  24  46  70 104 137 189 235 285 353 418
#     4  11  26  48  73 100 139 185 245 295 349 421
#
# _framework density 24.560348999999999
#
# number of rings (size 3 to 8) (size 9 to 14) (size 15 to 20)
#    0.857    0.571    1.429    2.571    2.000    9.714 
#    0.000    0.000    0.000    0.000    0.000    0.000 
#    0.000    0.000    0.000    0.000    0.000    0.000 
#
# Total GULP energy -78125.249586 kJ/mol
# GULP energy per Si atom -5580.374970 kJ/mol
# Density = 2.450445 g / cm^3
# Si number density = 24.560349 Si / 1000 Ang^3
#
#
#
# Elastic Constant Matrix: (Units=GPa)
#
#
# Indices 1 2 3 4 5 6 
#
# 1 61.4962 45.7642 63.7079 10.9170 5.6874 -18.5036
# 2 45.7642 144.4296 39.4008 4.3195 3.2482 -9.3685
# 3 63.7079 39.4008 112.7221 -8.8057 12.9307 -9.9301
# 4 10.9170 4.3195 -8.8057 38.0345 -12.6464 1.4916
# 5 5.6874 3.2482 12.9307 -12.6464 44.9623 1.6020
# 6 -18.5036 -9.3685 -9.9301 1.4916 1.6020 40.2485
#
#
#
# Elastic Compliance Matrix: (Units=1/GPa)
#
#
# Indices 1 2 3 4 5 6 
#
# 1 0.088830 -0.012582 -0.045259 -0.038732 -0.009222 0.028545
# 2 -0.012582 0.009582 0.003696 0.003827 0.001013 -0.002824
# 3 -0.045259 0.003696 0.033467 0.021596 0.002356 -0.012584
# 4 -0.038732 0.003827 0.021596 0.046499 0.011982 -0.013788
# 5 -0.009222 0.001013 0.002356 0.011982 0.026202 -0.004910
# 6 0.028545 -0.002824 -0.012584 -0.013788 -0.004910 0.034913
#
#
# Mechanical properties :
#
#
# Convention : Reuss Voigt Hill
#
# Bulk Modulus (GPa) = 42.39644 68.48821 55.44232
# Shear Modulus (GPa) = 14.05889 35.96741 25.01315
#
# Velocity S-wave (km/s) = 2.39513 3.83097 3.19476
# Velocity P-wave (km/s) = 4.99485 6.89308 6.01926
#
# Compressibility (1/GPa) = 0.02358688
#
# Stress axis : x y z
#
# Youngs Moduli (GPa) = 11.25751 104.36251 29.87986
#
# Poissons Ratio (x) = 1.31313 1.35235
# Poissons Ratio (y) = 0.14165 -0.11043
# Poissons Ratio (z) = 0.50951 -0.38571
#
# Static dielectric constant tensor:
#      x y z
#    x 2.048140 -0.043150 -0.021560 
#    y -0.043150 1.986230 0.050600 
#    z -0.021560 0.050600 1.938520 
# 
# From -- ./inp_files/483122.got.cif
#   From: 2010.05.17/outbox.cif.g08.bks.cpg/sg2_242_cif.got.tgz:483122.got - 2010.06.03 11:33:40.
