data_PCOD9029298
_publ_section_title
;
Structure prediction by ZEFSAII (Michael W. Deem and Ramdas Pophale) SiO2 
 PCOD9029298
Probable space group: P -1
;
_chemical_formula_sum "Si O2"
_cell_formula_units_Z 14
_cell_length_a 9.606551
_cell_length_b 6.933328
_cell_length_c 18.996503
_cell_angle_alpha 43.362166
_cell_angle_beta 131.095101
_cell_angle_gamma 135.487491
_cell_volume 583.149797
_symmetry_space_group_name_H-M "P -1"
_symmetry_group_IT_number 2
_symmetry_cell_setting 'triclinic'
loop_
_space_group_symop_operation_xyz
x,y,z
-x,-y,-z
loop_
_atom_site_type_symbol
_atom_site_label
_atom_site_fract_x
_atom_site_fract_y
_atom_site_fract_z
Si Si1 0.321063 0.701071 0.255420
Si Si2 0.155835 0.814484 0.927729
Si Si3 0.934715 0.634442 0.510476
Si Si4 0.508206 0.184795 0.061382
Si Si5 0.997497 0.680788 0.252570
Si Si6 0.525200 0.326395 0.389613
Si Si7 0.662369 0.124658 0.354100
O O1 0.110358 0.695920 0.213062
O O2 0.325106 0.378342 0.321341
O O3 0.427155 0.933795 0.164339
O O4 0.466380 0.832962 0.337297
O O5 0.271129 0.757878 0.913742
O O6 0.032625 0.016941 0.819371
O O7 0.000000 0.500000 0.000000
O O8 0.339566 0.027774 0.985301
O O9 0.890425 0.396409 0.624044
O O10 0.720756 0.615080 0.416907
O O11 0.000000 0.500000 0.500000
O O12 0.152180 0.923909 0.532695
O O13 0.500000 0.500000 0.000000
O O14 0.777565 0.369195 0.264950
O O15 0.586820 0.311654 0.333772
O O16 0.500000 0.000000 0.500000
#
# Coordination Sequence:
#
# PCOD9029298 Si02
#       7
#     2   2   2   2   2   2   2
#     4  12  25  42  70 101 134 181 223 287 341 399
#     4  11  25  46  72 101 140 183 226 286 350 419
#     4   8  19  40  63  91 126 179 216 272 324 393
#     4  11  26  46  72 105 139 178 232 286 350 412
#     4  10  22  42  67 100 134 175 231 278 337 409
#     4  11  23  42  66  95 137 181 228 278 337 401
#     4   9  22  44  62  91 135 174 226 275 330 405
#
# _framework density 24.007553000000001
#
# number of rings (size 3 to 8) (size 9 to 14) (size 15 to 20)
#    0.857    0.857    0.000    3.429    0.000   10.857 
#    7.714    0.000    0.000    0.000    0.000    0.000 
#    0.000    0.000    0.000    0.000    0.000    0.000 
#
# Total GULP energy -78199.753335 kJ/mol
# GULP energy per Si atom -5585.696667 kJ/mol
# Density = 2.395291 g / cm^3
# Si number density = 24.007553 Si / 1000 Ang^3
#
#
#
# Elastic Constant Matrix: (Units=GPa)
#
#
# Indices 1 2 3 4 5 6 
#
# 1 219.3375 32.8556 55.4048 -28.8901 -11.9674 -25.6933
# 2 32.8556 80.7168 12.1089 6.0109 7.3613 -9.2601
# 3 55.4048 12.1089 67.8462 -16.6993 -4.4119 -21.1564
# 4 -28.8901 6.0109 -16.6993 46.0980 -2.4362 3.0510
# 5 -11.9674 7.3613 -4.4119 -2.4362 38.5564 -7.7739
# 6 -25.6933 -9.2601 -21.1564 3.0510 -7.7739 28.5984
#
#
#
# Elastic Compliance Matrix: (Units=1/GPa)
#
#
# Indices 1 2 3 4 5 6 
#
# 1 0.006686 -0.002419 -0.002866 0.003396 0.003149 0.003597
# 2 -0.002419 0.014364 -0.001678 -0.004242 -0.003822 0.000650
# 3 -0.002866 -0.001678 0.024242 0.006471 0.005778 0.015696
# 4 0.003396 -0.004242 0.006471 0.026664 0.005310 0.005063
# 5 0.003149 -0.003822 0.005778 0.005310 0.031431 0.013843
# 6 0.003597 0.000650 0.015696 0.005063 0.013843 0.053243
#
#
# Mechanical properties :
#
#
# Convention : Reuss Voigt Hill
#
# Bulk Modulus (GPa) = 31.88160 63.18211 47.53185
# Shear Modulus (GPa) = 27.62239 40.48597 34.05418
#
# Velocity S-wave (km/s) = 3.39569 4.11102 3.77035
# Velocity P-wave (km/s) = 5.35564 6.99347 6.22863
#
# Compressibility (1/GPa) = 0.03136606
#
# Stress axis : x y z
#
# Youngs Moduli (GPa) = 149.56875 69.61630 41.25057
#
# Poissons Ratio (x) = 0.16840 0.11822
# Poissons Ratio (y) = 0.36180 0.06923
# Poissons Ratio (z) = 0.42865 0.11684
#
# Static dielectric constant tensor:
#      x y z
#    x 1.965160 0.022830 0.052100 
#    y 0.022830 1.943490 0.048730 
#    z 0.052100 0.048730 1.949990 
# 
# From -- ./inp_files/553202.got.cif
#   From: 2010.05.17/outbox.cif.g08.bks.cpg/sg2_277_cif.got.tgz:553202.got - 2010.06.03 11:33:40.
