data_PCOD9029839
_publ_section_title
;
Structure prediction by ZEFSAII (Michael W. Deem and Ramdas Pophale) SiO2 
 PCOD9029839
Probable space group: P -1
;
_chemical_formula_sum "Si O2"
_cell_formula_units_Z 16
_cell_length_a 5.314191
_cell_length_b 28.325669
_cell_length_c 9.755145
_cell_angle_alpha 34.148720
_cell_angle_beta 71.092629
_cell_angle_gamma 55.545964
_cell_volume 645.885842
_symmetry_space_group_name_H-M "P -1"
_symmetry_group_IT_number 2
_symmetry_cell_setting 'triclinic'
loop_
_space_group_symop_operation_xyz
x,y,z
-x,-y,-z
loop_
_atom_site_type_symbol
_atom_site_label
_atom_site_fract_x
_atom_site_fract_y
_atom_site_fract_z
Si Si1 0.957349 0.408018 0.940742
Si Si2 0.423515 0.612546 0.445365
Si Si3 0.488961 0.082349 0.399672
Si Si4 0.034581 0.704992 0.056760
Si Si5 0.409082 0.793562 0.108998
Si Si6 0.695925 0.544126 0.044857
Si Si7 0.786907 0.123498 0.752927
Si Si8 0.407216 0.095645 0.690598
O O1 0.783201 0.525183 0.638997
O O2 0.014951 0.343521 0.949879
O O3 0.255007 0.384898 0.034637
O O4 0.664017 0.407261 0.068830
O O5 0.290395 0.719699 0.285377
O O6 0.264298 0.552006 0.655709
O O7 0.374885 0.638254 0.230731
O O8 0.566369 0.057794 0.604639
O O9 0.500000 0.000000 0.500000
O O10 0.114864 0.178510 0.231668
O O11 0.689392 0.121919 0.195376
O O12 0.785671 0.721948 0.179376
O O13 0.339033 0.842431 0.152907
O O14 0.000000 0.500000 0.000000
O O15 0.517711 0.157212 0.605844
O O16 0.026372 0.156577 0.599380
O O17 0.000000 0.000000 0.000000
O O18 0.500000 0.000000 0.000000
#
# Coordination Sequence:
#
# PCOD9029839 Si02
#       8
#     2   2   2   2   2   2   2   2
#     4  10  23  43  73 103 143 187 229 298 355 420
#     4  10  23  40  74 103 142 182 235 297 358 420
#     4  10  23  45  71 103 145 189 244 307 355 426
#     4  10  24  42  67 106 141 180 252 288 370 414
#     4  10  24  41  70 102 144 185 247 289 361 424
#     4  10  23  44  73 101 149 190 234 279 370 433
#     4  10  22  42  68  96 135 183 232 286 356 422
#     4  10  22  43  70  98 134 182 235 292 366 418
#
# _framework density 24.772178
#
# number of rings (size 3 to 8) (size 9 to 14) (size 15 to 20)
#    1.500    0.500    0.000    3.000    3.500    3.000 
#    2.250    3.750    0.000    0.000    0.000    0.000 
#    0.000    0.000    0.000    0.000    0.000    0.000 
#
# Total GULP energy -89227.209246 kJ/mol
# GULP energy per Si atom -5576.700578 kJ/mol
# Density = 2.471580 g / cm^3
# Si number density = 24.772178 Si / 1000 Ang^3
#
#
#
# Elastic Constant Matrix: (Units=GPa)
#
#
# Indices 1 2 3 4 5 6 
#
# 1 142.2740 34.0124 17.4349 8.8974 -12.3370 25.7897
# 2 34.0124 170.8767 38.4501 17.7794 -28.2382 27.7300
# 3 17.4349 38.4501 94.6139 -9.0630 -15.0733 19.8151
# 4 8.8974 17.7794 -9.0630 37.3469 10.0353 -6.6510
# 5 -12.3370 -28.2382 -15.0733 10.0353 5.3803 1.0838
# 6 25.7897 27.7300 19.8151 -6.6510 1.0838 47.1895
#
#
#
# Elastic Compliance Matrix: (Units=1/GPa)
#
#
# Indices 1 2 3 4 5 6 
#
# 1 0.006734 -0.003494 -0.001601 0.003229 -0.013371 -0.000192
# 2 -0.003494 0.001491 -0.004667 0.007287 -0.027790 0.004658
# 3 -0.001601 -0.004667 0.012146 0.007893 -0.008827 -0.000167
# 4 0.003229 0.007287 0.007893 0.008112 0.054538 -0.009470
# 5 -0.013371 -0.027790 -0.008827 0.054538 -0.124734 0.037895
# 6 -0.000192 0.004658 -0.000167 -0.009470 0.037895 0.016424
#
#
# Mechanical properties :
#
#
# Convention : Reuss Voigt Hill
#
# Bulk Modulus (GPa) = 1182.85569 65.28438 624.07004
# Shear Modulus (GPa) = -83.30532 39.17450 -22.06541
#
# Velocity S-wave (km/s) = -5.80531 3.98098 -2.98775
# Velocity P-wave (km/s) = 20.82294 6.89508 15.51027
#
# Compressibility (1/GPa) = 0.00084541
#
# Stress axis : x y z
#
# Youngs Moduli (GPa) = 148.50562 670.51763 82.33273
#
# Poissons Ratio (x) = 2.34308 0.13184
# Poissons Ratio (y) = 0.51894 0.38425
# Poissons Ratio (z) = 0.23781 3.12931
#
# Static dielectric constant tensor:
#      x y z
#    x 2.656360 0.629480 0.039300 
#    y 0.629480 2.703260 0.115690 
#    z 0.039300 0.115690 1.874620 
# 
# From -- ./inp_files/143072.got.cif
#   From: 2010.05.17/outbox.cif.g08.bks.cpg/sg2_72_cif.got.tgz:143072.got - 2010.06.03 11:33:40.
