data_PCOD9029729
_publ_section_title
;
Structure prediction by ZEFSAII (Michael W. Deem and Ramdas Pophale) SiO2 
 PCOD9029729
Probable space group: P -1
;
_chemical_formula_sum "Si O2"
_cell_formula_units_Z 13
_cell_length_a 15.918541
_cell_length_b 16.546160
_cell_length_c 13.367545
_cell_angle_alpha 25.421561
_cell_angle_beta 26.357464
_cell_angle_gamma 25.171618
_cell_volume 580.182341
_symmetry_space_group_name_H-M "P -1"
_symmetry_group_IT_number 2
_symmetry_cell_setting 'triclinic'
loop_
_space_group_symop_operation_xyz
x,y,z
-x,-y,-z
loop_
_atom_site_type_symbol
_atom_site_label
_atom_site_fract_x
_atom_site_fract_y
_atom_site_fract_z
Si Si1 0.696430 0.898487 0.017931
Si Si2 0.160225 0.330623 0.405687
Si Si3 0.919898 0.238414 0.098713
Si Si4 0.646138 0.049497 0.533631
Si Si5 0.271368 0.702583 0.544661
Si Si6 0.000000 0.500000 0.000000
Si Si7 0.664239 0.575982 0.697464
O O1 0.804232 0.673226 0.094079
O O2 0.833836 0.864971 0.010558
O O3 0.721731 0.082017 0.728102
O O4 0.450299 0.984199 0.222425
O O5 0.287398 0.288417 0.421764
O O6 0.910760 0.381602 0.628240
O O7 0.288219 0.145358 0.395268
O O8 0.137436 0.554955 0.138571
O O9 0.855516 0.076702 0.296889
O O10 0.782411 0.311834 0.266364
O O11 0.459282 0.274339 0.432829
O O12 0.500000 0.500000 0.500000
O O13 0.096297 0.667353 0.709342
O O14 0.500000 0.500000 0.000000
#
# Coordination Sequence:
#
# PCOD9029729 Si02
#       7
#     2   2   2   2   2   1   2
#     4  11  25  43  67 102 139 184 231 280 336 399
#     4  11  25  44  71 100 137 174 226 281 338 412
#     4  11  23  42  64 102 133 173 231 274 330 408
#     4  12  25  44  71 101 137 181 224 279 344 399
#     4  11  24  42  65  97 138 181 230 278 335 402
#     4  10  22  42  68  90 138 180 224 280 328 392
#     4  11  24  48  71  99 137 174 224 282 346 408
#
# _framework density 22.406749000000001
#
# number of rings (size 3 to 8) (size 9 to 14) (size 15 to 20)
#    0.000    0.923    3.077    4.154    0.000   10.462 
#    2.769    0.000    0.000    0.000    0.000    0.000 
#    0.000    0.000    0.000    0.000    0.000    0.000 
#
# Total GULP energy -72446.976016 kJ/mol
# GULP energy per Si atom -5572.844309 kJ/mol
# Density = 2.235575 g / cm^3
# Si number density = 22.406749 Si / 1000 Ang^3
#
#
#
# Elastic Constant Matrix: (Units=GPa)
#
#
# Indices 1 2 3 4 5 6 
#
# 1 72.1985 9.3128 15.7464 -10.9204 -15.0139 3.2825
# 2 9.3128 85.7331 16.4779 10.5854 -16.2979 25.7586
# 3 15.7464 16.4779 126.9768 14.9028 -5.4757 3.1264
# 4 -10.9204 10.5854 14.9028 30.4121 -3.2687 -1.3692
# 5 -15.0139 -16.2979 -5.4757 -3.2687 29.6107 -0.2840
# 6 3.2825 25.7586 3.1264 -1.3692 -0.2840 30.3776
#
#
#
# Elastic Compliance Matrix: (Units=1/GPa)
#
#
# Indices 1 2 3 4 5 6 
#
# 1 0.017815 -0.000547 -0.002770 0.008902 0.009196 -0.000689
# 2 -0.000547 0.019412 -0.000907 -0.006242 0.009392 -0.016501
# 3 -0.002770 -0.000907 0.008906 -0.005135 -0.000825 -0.000087
# 4 0.008902 -0.006242 -0.005135 0.041587 0.004784 0.006778
# 5 0.009196 0.009392 -0.000825 0.004784 0.043900 -0.008247
# 6 -0.000689 -0.016501 -0.000087 0.006778 -0.008247 0.047223
#
#
# Mechanical properties :
#
#
# Convention : Reuss Voigt Hill
#
# Bulk Modulus (GPa) = 26.53525 40.88696 33.71111
# Shear Modulus (GPa) = 25.01841 34.30485 29.66163
#
# Velocity S-wave (km/s) = 3.34512 3.91705 3.64233
# Velocity P-wave (km/s) = 5.17571 6.22454 5.72420
#
# Compressibility (1/GPa) = 0.03768572
#
# Stress axis : x y z
#
# Youngs Moduli (GPa) = 56.13096 51.51500 112.28416
#
# Poissons Ratio (x) = 0.02817 0.31098
# Poissons Ratio (y) = 0.03069 0.10189
# Poissons Ratio (z) = 0.15546 0.04674
#
# Static dielectric constant tensor:
#      x y z
#    x 1.911450 -0.036900 0.026790 
#    y -0.036900 1.794090 0.026020 
#    z 0.026790 0.026020 1.843460 
# 
# From -- ./inp_files/96112.got.cif
#   From: 2010.05.17/outbox.cif.g08.bks.cpg/sg2_49_cif.got.tgz:96112.got - 2010.06.03 11:33:40.
