data_PCOD9029421
_publ_section_title
;
Structure prediction by ZEFSAII (Michael W. Deem and Ramdas Pophale) SiO2 
 PCOD9029421
Probable space group: P -1
;
_chemical_formula_sum "Si O2"
_cell_formula_units_Z 16
_cell_length_a 11.742076
_cell_length_b 10.015861
_cell_length_c 6.260535
_cell_angle_alpha 98.649554
_cell_angle_beta 103.397373
_cell_angle_gamma 85.473035
_cell_volume 707.355570
_symmetry_space_group_name_H-M "P -1"
_symmetry_group_IT_number 2
_symmetry_cell_setting 'triclinic'
loop_
_space_group_symop_operation_xyz
x,y,z
-x,-y,-z
loop_
_atom_site_type_symbol
_atom_site_label
_atom_site_fract_x
_atom_site_fract_y
_atom_site_fract_z
Si Si1 0.328781 0.957218 0.364153
Si Si2 0.746034 0.466655 0.165983
Si Si3 0.447524 0.710480 0.106291
Si Si4 0.906249 0.907695 0.826891
Si Si5 0.493158 0.887888 0.788538
Si Si6 0.200792 0.325577 0.077480
Si Si7 0.002163 0.622906 0.702243
Si Si8 0.610697 0.580071 0.491602
O O1 0.364709 0.830612 0.197831
O O2 0.376145 0.913996 0.606322
O O3 0.193567 0.002802 0.313881
O O4 0.405542 0.077204 0.328171
O O5 0.862930 0.374171 0.168430
O O6 0.703768 0.477829 0.391683
O O7 0.634985 0.415336 0.978614
O O8 0.777348 0.612899 0.127446
O O9 0.554109 0.677940 0.306155
O O10 0.488371 0.753633 0.898053
O O11 0.836749 0.827523 0.962502
O O12 0.958832 0.780273 0.676756
O O13 0.000000 0.000000 0.000000
O O14 0.500000 0.000000 0.000000
O O15 0.312105 0.349864 0.281081
O O16 0.090057 0.407577 0.158302
O O17 0.000000 0.500000 0.500000
O O18 0.500000 0.500000 0.500000
#
# Coordination Sequence:
#
# PCOD9029421 Si02
#       8
#     2   2   2   2   2   2   2   2
#     4  10  22  42  67  93 143 183 239 295 357 429
#     4  12  23  44  68 103 142 186 236 301 364 442
#     4  11  25  37  68 100 143 179 239 290 370 433
#     4  10  23  43  72 103 141 192 251 295 358 434
#     4   9  22  40  63  98 133 189 232 289 367 432
#     4  10  25  42  73  99 147 185 243 295 368 428
#     4  10  22  45  71 102 141 188 245 300 365 420
#     4  12  26  42  67 111 145 184 234 301 374 441
#
# _framework density 22.619458999999999
#
# number of rings (size 3 to 8) (size 9 to 14) (size 15 to 20)
#    0.750    0.750    2.500    1.500    8.750    0.000 
#    0.000    0.000    0.000    6.750    0.000    0.000 
#    0.000    0.000    0.000    0.000    0.000    0.000 
#
# Total GULP energy -89277.341491 kJ/mol
# GULP energy per Si atom -5579.833843 kJ/mol
# Density = 2.256798 g / cm^3
# Si number density = 22.619459 Si / 1000 Ang^3
#
#
#
# Elastic Constant Matrix: (Units=GPa)
#
#
# Indices 1 2 3 4 5 6 
#
# 1 146.4907 40.5368 48.4960 -4.9265 16.0661 -7.1403
# 2 40.5368 87.6620 28.6902 1.8743 2.4667 2.9619
# 3 48.4960 28.6902 79.6601 -8.6237 10.2954 1.4763
# 4 -4.9265 1.8743 -8.6237 42.1258 -1.2163 0.0592
# 5 16.0661 2.4667 10.2954 -1.2163 39.1431 -1.5438
# 6 -7.1403 2.9619 1.4763 0.0592 -1.5438 48.2724
#
#
#
# Elastic Compliance Matrix: (Units=1/GPa)
#
#
# Indices 1 2 3 4 5 6 
#
# 1 0.009445 -0.002926 -0.004379 0.000265 -0.002468 0.001631
# 2 -0.002926 0.013966 -0.003557 -0.001657 0.001160 -0.001142
# 3 -0.004379 -0.003557 0.017169 0.003092 -0.002439 -0.001036
# 4 0.000265 -0.001657 0.003092 0.024474 -0.000056 0.000014
# 5 -0.002468 0.001160 -0.002439 -0.000056 0.027147 0.000507
# 6 0.001631 -0.001142 -0.001036 0.000014 0.000507 0.021075
#
#
# Mechanical properties :
#
#
# Convention : Reuss Voigt Hill
#
# Bulk Modulus (GPa) = 53.02990 61.02874 57.02932
# Shear Modulus (GPa) = 35.38972 38.98093 37.18533
#
# Velocity S-wave (km/s) = 3.95976 4.15581 4.05897
# Velocity P-wave (km/s) = 6.66344 7.07580 6.87271
#
# Compressibility (1/GPa) = 0.01885728
#
# Stress axis : x y z
#
# Youngs Moduli (GPa) = 105.88073 71.60352 58.24380
#
# Poissons Ratio (x) = 0.20949 0.25503
# Poissons Ratio (y) = 0.30977 0.20716
# Poissons Ratio (z) = 0.46362 0.25468
#
# Static dielectric constant tensor:
#      x y z
#    x 1.860850 -0.032370 -0.037300 
#    y -0.032370 1.922950 0.004400 
#    z -0.037300 0.004400 1.865690 
# 
# From -- ./inp_files/66858.got.cif
#   From: 2010.05.17/outbox.cif.g08.bks.cpg/sg2_34_cif.got.tgz:66858.got - 2010.06.03 11:33:40.
