data_PCOD9029159
_publ_section_title
;
Structure prediction by ZEFSAII (Michael W. Deem and Ramdas Pophale) SiO2 
 PCOD9029159
Probable space group: P -1
;
_chemical_formula_sum "Si O2"
_cell_formula_units_Z 14
_cell_length_a 11.945070
_cell_length_b 19.810943
_cell_length_c 8.135927
_cell_angle_alpha 42.501766
_cell_angle_beta 35.114509
_cell_angle_gamma 29.914749
_cell_volume 549.621675
_symmetry_space_group_name_H-M "P -1"
_symmetry_group_IT_number 2
_symmetry_cell_setting 'triclinic'
loop_
_space_group_symop_operation_xyz
x,y,z
-x,-y,-z
loop_
_atom_site_type_symbol
_atom_site_label
_atom_site_fract_x
_atom_site_fract_y
_atom_site_fract_z
Si Si1 0.458333 0.267003 0.083054
Si Si2 0.552523 0.875745 0.336520
Si Si3 0.321353 0.249855 0.936329
Si Si4 0.569413 0.573979 0.648686
Si Si5 0.030983 0.105112 0.715411
Si Si6 0.733731 0.452071 0.188942
Si Si7 0.079847 0.728956 0.135884
O O1 0.406218 0.211460 0.092142
O O2 0.267421 0.428237 0.041857
O O3 0.740802 0.218961 0.784058
O O4 0.449430 0.210053 0.366496
O O5 0.532025 0.849998 0.217506
O O6 0.845629 0.818466 0.121757
O O7 0.288290 0.027662 0.432133
O O8 0.347672 0.360425 0.673856
O O9 0.017155 0.325479 0.145431
O O10 0.357922 0.572751 0.819359
O O11 0.822122 0.417822 0.671105
O O12 0.364935 0.681943 0.840988
O O13 0.040387 0.172771 0.739589
O O14 0.000000 0.000000 0.000000
O O15 0.500000 0.500000 0.500000
#
# Coordination Sequence:
#
# PCOD9029159 Si02
#       7
#     2   2   2   2   2   2   2
#     4  11  24  42  68  96 137 177 219 281 331 390
#     4  11  25  43  69  96 136 181 226 274 325 394
#     4  12  26  44  67 105 137 172 222 274 336 402
#     4  11  23  39  69 101 138 174 217 276 338 401
#     4  10  22  42  66  94 130 181 228 272 328 387
#     4  12  24  42  64 103 139 172 219 274 340 405
#     4  11  22  41  67 102 134 176 225 275 334 398
#
# _framework density 25.472066000000002
#
# number of rings (size 3 to 8) (size 9 to 14) (size 15 to 20)
#    0.000    0.857    4.286    3.429    4.000    1.714 
#    0.000    0.000    0.000    6.000    0.000    0.000 
#    0.000    0.000    0.000    0.000    0.000    0.000 
#
# Total GULP energy -78278.986590 kJ/mol
# GULP energy per Si atom -5591.356185 kJ/mol
# Density = 2.541409 g / cm^3
# Si number density = 25.472066 Si / 1000 Ang^3
#
#
#
# Elastic Constant Matrix: (Units=GPa)
#
#
# Indices 1 2 3 4 5 6 
#
# 1 151.2602 17.8594 13.3198 7.5256 2.1822 14.7168
# 2 17.8594 90.4937 21.0581 15.1141 -3.2589 6.0210
# 3 13.3198 21.0581 111.4177 0.6971 -0.0183 10.3887
# 4 7.5256 15.1141 0.6971 34.8153 -7.0293 -0.8075
# 5 2.1822 -3.2589 -0.0183 -7.0293 35.1308 13.6321
# 6 14.7168 6.0210 10.3887 -0.8075 13.6321 33.6802
#
#
#
# Elastic Compliance Matrix: (Units=1/GPa)
#
#
# Indices 1 2 3 4 5 6 
#
# 1 0.007095 -0.000908 -0.000388 -0.001117 0.000422 -0.003016
# 2 -0.000908 0.012724 -0.002105 -0.005150 0.000866 -0.001703
# 3 -0.000388 -0.002105 0.009682 0.000969 0.001146 -0.002881
# 4 -0.001117 -0.005150 0.000969 0.032447 0.006349 -0.000682
# 5 0.000422 0.000866 0.001146 0.006349 0.035589 -0.014945
# 6 -0.003016 -0.001703 -0.002881 -0.000682 -0.014945 0.038235
#
#
# Mechanical properties :
#
#
# Convention : Reuss Voigt Hill
#
# Bulk Modulus (GPa) = 44.05422 50.84958 47.45190
# Shear Modulus (GPa) = 33.30185 40.78753 37.04469
#
# Velocity S-wave (km/s) = 3.61970 4.00592 3.81770
# Velocity P-wave (km/s) = 5.89935 6.43450 6.17273
#
# Compressibility (1/GPa) = 0.02269930
#
# Stress axis : x y z
#
# Youngs Moduli (GPa) = 140.93666 78.59069 103.28111
#
# Poissons Ratio (x) = 0.07133 0.04012
# Poissons Ratio (y) = 0.12791 0.21743
# Poissons Ratio (z) = 0.05475 0.16545
#
# Static dielectric constant tensor:
#      x y z
#    x 2.306970 0.150510 0.198440 
#    y 0.150510 2.209240 0.095540 
#    z 0.198440 0.095540 2.140600 
# 
# From -- ./inp_files/281586.got.cif
#   From: 2010.05.17/outbox.cif.g08.bks.cpg/sg2_141_cif.got.tgz:281586.got - 2010.06.03 11:33:40.
