data_PCOD9029606
_publ_section_title
;
Structure prediction by ZEFSAII (Michael W. Deem and Ramdas Pophale) SiO2 
 PCOD9029606
Probable space group: P -1
;
_chemical_formula_sum "Si O2"
_cell_formula_units_Z 16
_cell_length_a 9.052372
_cell_length_b 5.191072
_cell_length_c 15.450786
_cell_angle_alpha 90.707473
_cell_angle_beta 84.384013
_cell_angle_gamma 108.811153
_cell_volume 683.833648
_symmetry_space_group_name_H-M "P -1"
_symmetry_group_IT_number 2
_symmetry_cell_setting 'triclinic'
loop_
_space_group_symop_operation_xyz
x,y,z
-x,-y,-z
loop_
_atom_site_type_symbol
_atom_site_label
_atom_site_fract_x
_atom_site_fract_y
_atom_site_fract_z
Si Si1 0.360758 0.114875 0.028556
Si Si2 0.822184 0.606509 0.262994
Si Si3 0.367358 0.483036 0.897896
Si Si4 0.263466 0.233210 0.364949
Si Si5 0.856646 0.420738 0.943944
Si Si6 0.175835 0.696430 0.470612
Si Si7 0.967222 0.775132 0.771097
Si Si8 0.411562 0.611651 0.580993
O O1 0.450279 0.356295 0.092172
O O2 0.210313 0.896050 0.078251
O O3 0.327621 0.171865 0.929702
O O4 0.500000 0.000000 0.000000
O O5 0.705093 0.483792 0.188671
O O6 0.932954 0.417974 0.271299
O O7 0.717324 0.604483 0.353656
O O8 0.920128 0.913287 0.231834
O O9 0.275248 0.548925 0.984783
O O10 0.246125 0.511005 0.405159
O O11 0.443739 0.239992 0.363002
O O12 0.178091 0.213879 0.278899
O O13 0.171276 0.970679 0.426686
O O14 0.901524 0.623576 0.863092
O O15 0.000000 0.500000 0.000000
O O16 0.304242 0.769557 0.541656
O O17 0.000000 0.500000 0.500000
O O18 0.500000 0.500000 0.500000
#
# Coordination Sequence:
#
# PCOD9029606 Si02
#       8
#     2   2   2   2   2   2   2   2
#     4   9  21  39  65  97 139 184 240 282 357 408
#     4  12  27  47  70 103 145 184 243 292 361 421
#     4  10  22  42  67  99 136 192 228 298 344 419
#     4  11  24  43  67 102 136 176 230 291 345 424
#     4  11  22  41  68  99 141 190 237 285 345 421
#     4  11  22  43  73  98 137 177 226 284 363 422
#     4  12  27  45  69 107 145 187 238 292 357 419
#     4  10  25  47  74 105 137 186 235 297 360 430
#
# _framework density 23.397504000000001
#
# number of rings (size 3 to 8) (size 9 to 14) (size 15 to 20)
#    0.000    1.250    1.250    3.750    3.500    9.000 
#    2.250    0.000    0.000    0.000    0.000    0.000 
#    0.000    0.000    0.000    0.000    0.000    0.000 
#
# Total GULP energy -89175.971671 kJ/mol
# GULP energy per Si atom -5573.498229 kJ/mol
# Density = 2.334425 g / cm^3
# Si number density = 23.397504 Si / 1000 Ang^3
#
#
#
# Elastic Constant Matrix: (Units=GPa)
#
#
# Indices 1 2 3 4 5 6 
#
# 1 130.9300 28.3148 65.2749 -8.1095 27.5454 25.0378
# 2 28.3148 76.8311 40.0844 -18.8750 4.6287 24.1510
# 3 65.2749 40.0844 145.6322 -24.0588 22.3191 16.5343
# 4 -8.1095 -18.8750 -24.0588 32.6197 -0.9852 -2.4400
# 5 27.5454 4.6287 22.3191 -0.9852 59.3819 2.3648
# 6 25.0378 24.1510 16.5343 -2.4400 2.3648 39.5494
#
#
#
# Elastic Compliance Matrix: (Units=1/GPa)
#
#
# Indices 1 2 3 4 5 6 
#
# 1 0.011407 -0.000535 -0.003994 -0.000906 -0.003562 -0.005068
# 2 -0.000535 0.019935 -0.002700 0.008656 0.000258 -0.010187
# 3 -0.003994 -0.002700 0.010504 0.005153 -0.001808 0.000212
# 4 -0.000906 0.008656 0.005153 0.038871 -0.001372 -0.004387
# 5 -0.003562 0.000258 -0.001808 -0.001372 0.019064 0.001628
# 6 -0.005068 -0.010187 0.000212 -0.004387 0.001628 0.034257
#
#
# Mechanical properties :
#
#
# Convention : Reuss Voigt Hill
#
# Bulk Modulus (GPa) = 36.51288 68.97128 52.74208
# Shear Modulus (GPa) = 31.72065 40.95814 36.33940
#
# Velocity S-wave (km/s) = 3.68602 4.18848 3.94525
# Velocity P-wave (km/s) = 5.80990 7.27552 6.58362
#
# Compressibility (1/GPa) = 0.02738760
#
# Stress axis : x y z
#
# Youngs Moduli (GPa) = 87.66638 50.16406 95.19868
#
# Poissons Ratio (x) = 0.02684 0.38022
# Poissons Ratio (y) = 0.04691 0.25704
# Poissons Ratio (z) = 0.35014 0.13545
#
# Static dielectric constant tensor:
#      x y z
#    x 1.770580 0.268870 -0.029400 
#    y 0.268870 1.573840 0.095910 
#    z -0.029400 0.095910 1.880360 
# 
# From -- ./inp_files/488286.got.cif
#   From: 2010.05.17/outbox.cif.g08.bks.cpg/sg2_245_cif.got.tgz:488286.got - 2010.06.03 11:33:40.
