data_PCOD9029143
_publ_section_title
;
Structure prediction by ZEFSAII (Michael W. Deem and Ramdas Pophale) SiO2 
 PCOD9029143
Probable space group: P -1
;
_chemical_formula_sum "Si O2"
_cell_formula_units_Z 16
_cell_length_a 12.158705
_cell_length_b 9.198136
_cell_length_c 9.425372
_cell_angle_alpha 70.337691
_cell_angle_beta 49.140951
_cell_angle_gamma 59.478591
_cell_volume 686.764021
_symmetry_space_group_name_H-M "P -1"
_symmetry_group_IT_number 2
_symmetry_cell_setting 'triclinic'
loop_
_space_group_symop_operation_xyz
x,y,z
-x,-y,-z
loop_
_atom_site_type_symbol
_atom_site_label
_atom_site_fract_x
_atom_site_fract_y
_atom_site_fract_z
Si Si1 0.088046 0.720416 0.976731
Si Si2 0.717333 0.592393 0.593022
Si Si3 0.100380 0.697996 0.281911
Si Si4 0.244074 0.071676 0.493545
Si Si5 0.350957 0.441352 0.661872
Si Si6 0.760230 0.009655 0.164663
Si Si7 0.496185 0.846221 0.150659
Si Si8 0.572291 0.265256 0.035473
O O1 0.200949 0.592345 0.810125
O O2 0.165945 0.852952 0.907092
O O3 0.083501 0.632090 0.160337
O O4 0.906144 0.837638 0.052327
O O5 0.867240 0.432396 0.575356
O O6 0.733821 0.754447 0.594266
O O7 0.695949 0.596473 0.442364
O O8 0.552491 0.602246 0.797948
O O9 0.260127 0.727340 0.133149
O O10 0.945297 0.869887 0.371633
O O11 0.305113 0.010480 0.620490
O O12 0.331811 0.937003 0.345211
O O13 0.500000 0.500000 0.500000
O O14 0.393279 0.277179 0.780762
O O15 0.626407 0.086224 0.133435
O O16 0.503396 0.722086 0.057449
O O17 0.500000 0.000000 0.000000
#
# Coordination Sequence:
#
# PCOD9029143 Si02
#       8
#     2   2   2   2   2   2   2   2
#     4   9  19  40  65  93 131 164 212 272 320 379
#     4  12  24  40  65  97 133 171 215 270 329 385
#     4  10  22  42  66  94 126 171 217 270 321 391
#     4  11  24  42  64  93 135 172 213 266 334 391
#     4  12  25  41  67  98 130 173 229 273 316 390
#     4   9  20  39  66  96 126 168 210 264 329 385
#     4  12  26  43  64  98 138 175 214 279 332 386
#     4  11  22  40  69  92 127 174 222 263 325 391
#
# _framework density 23.297668999999999
#
# number of rings (size 3 to 8) (size 9 to 14) (size 15 to 20)
#    0.000    1.250    1.250    6.000    1.750    2.500 
#    0.000    2.500    0.000    0.000    0.000    0.000 
#    0.000    0.000    0.000    0.000    0.000    0.000 
#
# Total GULP energy -89351.497538 kJ/mol
# GULP energy per Si atom -5584.468596 kJ/mol
# Density = 2.324464 g / cm^3
# Si number density = 23.297669 Si / 1000 Ang^3
#
#
#
# Elastic Constant Matrix: (Units=GPa)
#
#
# Indices 1 2 3 4 5 6 
#
# 1 55.9815 23.3623 37.3983 2.2579 25.7818 -27.9798
# 2 23.3623 88.9972 48.8899 0.2257 19.2464 -21.3697
# 3 37.3983 48.8899 143.6483 26.9102 24.3524 -27.0062
# 4 2.2579 0.2257 26.9102 46.3045 0.2696 -5.7752
# 5 25.7818 19.2464 24.3524 0.2696 40.0314 -11.0631
# 6 -27.9798 -21.3697 -27.0062 -5.7752 -11.0631 28.8971
#
#
#
# Elastic Compliance Matrix: (Units=1/GPa)
#
#
# Indices 1 2 3 4 5 6 
#
# 1 0.046002 0.002846 -0.003711 0.004623 -0.018543 0.037004
# 2 0.002846 0.016118 -0.004342 0.003539 -0.004289 0.009683
# 3 -0.003711 -0.004342 0.011173 -0.006064 -0.001798 0.001737
# 4 0.004623 0.003539 -0.006064 0.025727 0.000729 0.006847
# 5 -0.018543 -0.004289 -0.001798 0.000729 0.037812 -0.008185
# 6 0.037004 0.009683 0.001737 0.006847 -0.008185 0.077453
#
#
# Mechanical properties :
#
#
# Convention : Reuss Voigt Hill
#
# Bulk Modulus (GPa) = 15.90344 56.43645 36.16994
# Shear Modulus (GPa) = 20.35339 34.97835 27.66587
#
# Velocity S-wave (km/s) = 2.95892 3.87895 3.44974
# Velocity P-wave (km/s) = 4.30286 6.65870 5.60593
#
# Compressibility (1/GPa) = 0.06287947
#
# Stress axis : x y z
#
# Youngs Moduli (GPa) = 21.73800 62.04262 89.50291
#
# Poissons Ratio (x) = -0.17659 0.33214
# Poissons Ratio (y) = -0.06187 0.38864
# Poissons Ratio (z) = 0.08067 0.26940
#
# Static dielectric constant tensor:
#      x y z
#    x 1.926540 0.039860 -0.050660 
#    y 0.039860 1.971360 -0.105720 
#    z -0.050660 -0.105720 1.910570 
# 
# From -- ./inp_files/243406.got.cif
#   From: 2010.05.17/outbox.cif.g08.bks.cpg/sg2_122_cif.got.tgz:243406.got - 2010.06.03 11:33:40.
