data_PCOD9029515
_publ_section_title
;
Structure prediction by ZEFSAII (Michael W. Deem and Ramdas Pophale) SiO2 
 PCOD9029515
Probable space group: P -1
;
_chemical_formula_sum "Si O2"
_cell_formula_units_Z 16
_cell_length_a 13.623673
_cell_length_b 12.491767
_cell_length_c 5.181400
_cell_angle_alpha 91.639866
_cell_angle_beta 54.137809
_cell_angle_gamma 80.048785
_cell_volume 694.500124
_symmetry_space_group_name_H-M "P -1"
_symmetry_group_IT_number 2
_symmetry_cell_setting 'triclinic'
loop_
_space_group_symop_operation_xyz
x,y,z
-x,-y,-z
loop_
_atom_site_type_symbol
_atom_site_label
_atom_site_fract_x
_atom_site_fract_y
_atom_site_fract_z
Si Si1 0.267761 0.415000 0.069552
Si Si2 0.272923 0.216167 0.750557
Si Si3 0.538331 0.393400 0.748558
Si Si4 0.997057 0.761977 0.905509
Si Si5 0.791867 0.449222 0.307688
Si Si6 0.499607 0.822294 0.941712
Si Si7 0.663937 0.963185 0.997438
Si Si8 0.952982 0.896949 0.461144
O O1 0.238486 0.466452 0.399192
O O2 0.255384 0.290938 0.039944
O O3 0.412897 0.408882 0.776457
O O4 0.185479 0.489216 0.983148
O O5 0.141777 0.249747 0.816594
O O6 0.386938 0.237715 0.417199
O O7 0.309832 0.086949 0.758918
O O8 0.671618 0.398917 0.434630
O O9 0.500000 0.500000 0.000000
O O10 0.550835 0.274027 0.853261
O O11 0.017265 0.851000 0.090889
O O12 0.988304 0.806487 0.629522
O O13 0.096009 0.649306 0.787094
O O14 0.565168 0.896870 0.032311
O O15 0.397474 0.908847 0.941295
O O16 0.802700 0.932872 0.663370
O O17 0.000000 0.000000 0.500000
#
# Coordination Sequence:
#
# PCOD9029515 Si02
#       8
#     2   2   2   2   2   2   2   2
#     4  11  23  42  68  96 137 178 220 287 335 397
#     4  11  22  41  67  95 138 175 228 274 350 391
#     4  10  22  42  67  96 135 175 220 279 341 396
#     4  11  25  44  69  95 136 176 222 283 330 415
#     4  11  25  43  65 102 135 175 235 269 337 406
#     4  11  21  42  67  96 136 174 230 278 335 402
#     4  10  23  40  66  99 132 176 228 280 333 405
#     4  11  24  46  68  96 137 179 223 276 347 396
#
# _framework density 23.038155
#
# number of rings (size 3 to 8) (size 9 to 14) (size 15 to 20)
#    0.000    1.250    2.500    3.375    1.750    2.000 
#    2.250    0.000    0.000    0.000    0.000    0.000 
#    0.000    0.000    0.000    0.000    0.000    0.000 
#
# Total GULP energy -89422.118293 kJ/mol
# GULP energy per Si atom -5588.882393 kJ/mol
# Density = 2.298572 g / cm^3
# Si number density = 23.038155 Si / 1000 Ang^3
#
#
#
# Elastic Constant Matrix: (Units=GPa)
#
#
# Indices 1 2 3 4 5 6 
#
# 1 77.4322 43.7314 9.2838 16.1541 -2.2592 -14.9660
# 2 43.7314 151.6782 12.2681 6.9785 -15.2276 -22.2579
# 3 9.2838 12.2681 35.4035 8.3269 1.6678 -6.1724
# 4 16.1541 6.9785 8.3269 30.6643 -3.2015 -2.9155
# 5 -2.2592 -15.2276 1.6678 -3.2015 28.2392 12.6522
# 6 -14.9660 -22.2579 -6.1724 -2.9155 12.6522 46.8210
#
#
#
# Elastic Compliance Matrix: (Units=1/GPa)
#
#
# Indices 1 2 3 4 5 6 
#
# 1 0.017925 -0.004547 -0.000285 -0.008340 -0.003750 0.004024
# 2 -0.004547 0.008603 -0.002098 0.001552 0.003953 0.001388
# 3 -0.000285 -0.002098 0.032002 -0.008276 -0.005864 0.004200
# 4 -0.008340 0.001552 -0.008276 0.039325 0.006112 -0.002222
# 5 -0.003750 0.003953 -0.005864 0.006112 0.043409 -0.011442
# 6 0.004024 0.001388 0.004200 -0.002222 -0.011442 0.026811
#
#
# Mechanical properties :
#
#
# Convention : Reuss Voigt Hill
#
# Bulk Modulus (GPa) = 22.38647 43.89782 33.14214
# Shear Modulus (GPa) = 25.40309 34.42695 29.91502
#
# Velocity S-wave (km/s) = 3.32422 3.86987 3.60738
# Velocity P-wave (km/s) = 4.94694 6.25009 5.63630
#
# Compressibility (1/GPa) = 0.04466985
#
# Stress axis : x y z
#
# Youngs Moduli (GPa) = 55.78771 116.24152 31.24770
#
# Poissons Ratio (x) = 0.52858 0.00891
# Poissons Ratio (y) = 0.25368 0.06556
# Poissons Ratio (z) = 0.01590 0.24387
#
# Static dielectric constant tensor:
#      x y z
#    x 1.911880 0.027170 0.028510 
#    y 0.027170 1.871790 -0.009030 
#    z 0.028510 -0.009030 1.868800 
# 
# From -- ./inp_files/71918.got.cif
#   From: 2010.05.17/outbox.cif.g08.bks.cpg/sg2_36_cif.got.tgz:71918.got - 2010.06.03 11:33:40.
