data_PCOD9029004
_publ_section_title
;
Structure prediction by ZEFSAII (Michael W. Deem and Ramdas Pophale) SiO2 
 PCOD9029004
Probable space group: P -1
;
_chemical_formula_sum "Si O2"
_cell_formula_units_Z 12
_cell_length_a 11.657115
_cell_length_b 6.085862
_cell_length_c 9.451561
_cell_angle_alpha 62.584196
_cell_angle_beta 118.356436
_cell_angle_gamma 111.752437
_cell_volume 513.800258
_symmetry_space_group_name_H-M "P -1"
_symmetry_group_IT_number 2
_symmetry_cell_setting 'triclinic'
loop_
_space_group_symop_operation_xyz
x,y,z
-x,-y,-z
loop_
_atom_site_type_symbol
_atom_site_label
_atom_site_fract_x
_atom_site_fract_y
_atom_site_fract_z
Si Si1 0.895995 0.899985 0.255133
Si Si2 0.531924 0.801560 0.459605
Si Si3 0.844603 0.386466 0.920823
Si Si4 0.824662 0.783561 0.573524
Si Si5 0.275078 0.468048 0.912720
Si Si6 0.491824 0.121416 0.108851
O O1 0.046843 0.033053 0.337693
O O2 0.833472 0.822412 0.396868
O O3 0.836516 0.102080 0.062428
O O4 0.859013 0.646206 0.215778
O O5 0.500000 0.500000 0.500000
O O6 0.690576 0.858926 0.524965
O O7 0.500000 0.000000 0.500000
O O8 0.453461 0.892639 0.257743
O O9 0.820216 0.498904 0.717901
O O10 0.759331 0.506343 0.951422
O O11 0.000000 0.500000 0.000000
O O12 0.384682 0.295697 0.008288
O O13 0.358539 0.725911 0.821220
O O14 0.500000 0.000000 0.000000
#
# Coordination Sequence:
#
# PCOD9029004 Si02
#       6
#     2   2   2   2   2   2
#     4  10  23  46  70 101 141 184 240 302 361 442
#     4  12  29  48  73 109 151 193 245 306 367 443
#     4  10  22  42  65  99 140 180 230 293 358 431
#     4  10  23  46  69 103 143 187 240 298 368 429
#     4  11  23  42  75 101 137 187 243 296 371 434
#     4  11  26  45  72 100 141 190 244 303 368 439
#
# _framework density 23.35538
#
# number of rings (size 3 to 8) (size 9 to 14) (size 15 to 20)
#    0.000    1.333    0.000    4.000   11.667    2.667 
#    6.000    5.000    0.000    0.000    0.000    0.000 
#    0.000    0.000    0.000    0.000    0.000    0.000 
#
# Total GULP energy -66856.311932 kJ/mol
# GULP energy per Si atom -5571.359328 kJ/mol
# Density = 2.330222 g / cm^3
# Si number density = 23.355380 Si / 1000 Ang^3
#
#
#
# Elastic Constant Matrix: (Units=GPa)
#
#
# Indices 1 2 3 4 5 6 
#
# 1 112.4199 39.8585 11.9561 -1.9302 -7.2695 0.1636
# 2 39.8585 137.9487 47.1055 -0.3976 -12.2529 13.1313
# 3 11.9561 47.1055 97.9227 -20.0988 -7.2514 6.5897
# 4 -1.9302 -0.3976 -20.0988 38.8550 -0.7770 0.7125
# 5 -7.2695 -12.2529 -7.2514 -0.7770 24.0019 -3.5569
# 6 0.1636 13.1313 6.5897 0.7125 -3.5569 33.9402
#
#
#
# Elastic Compliance Matrix: (Units=1/GPa)
#
#
# Indices 1 2 3 4 5 6 
#
# 1 0.010041 -0.002991 0.000410 0.000695 0.001840 0.001207
# 2 -0.002991 0.010165 -0.004646 -0.002350 0.002401 -0.002715
# 3 0.000410 -0.004646 0.014119 0.007335 0.002125 -0.000877
# 4 0.000695 -0.002350 0.007335 0.029599 0.002048 -0.000925
# 5 0.001840 0.002401 0.002125 0.002048 0.044642 0.003285
# 6 0.001207 -0.002715 -0.000877 -0.000925 0.003285 0.031042
#
#
# Mechanical properties :
#
#
# Convention : Reuss Voigt Hill
#
# Bulk Modulus (GPa) = 50.32405 60.68126 55.50266
# Shear Modulus (GPa) = 31.11661 35.98414 33.55037
#
# Velocity S-wave (km/s) = 3.65404 3.92946 3.79425
# Velocity P-wave (km/s) = 6.27667 6.82830 6.55829
#
# Compressibility (1/GPa) = 0.01987121
#
# Stress axis : x y z
#
# Youngs Moduli (GPa) = 99.59019 98.37824 70.82602
#
# Poissons Ratio (x) = 0.29424 -0.02907
# Poissons Ratio (y) = 0.29787 0.32909
# Poissons Ratio (z) = -0.04088 0.45711
#
# Static dielectric constant tensor:
#      x y z
#    x 1.836810 0.094570 0.012690 
#    y 0.094570 1.823840 -0.061190 
#    z 0.012690 -0.061190 1.939330 
# 
# From -- ./inp_files/21225.got.cif
#   From: 2010.05.17/outbox.cif.g08.bks.cpg/sg2_11_cif.got.tgz:21225.got - 2010.06.03 11:33:40.
