data_PCOD9029243
_publ_section_title
;
Structure prediction by ZEFSAII (Michael W. Deem and Ramdas Pophale) SiO2 
 PCOD9029243
Probable space group: P -1
;
_chemical_formula_sum "Si O2"
_cell_formula_units_Z 16
_cell_length_a 5.277496
_cell_length_b 9.296791
_cell_length_c 18.319933
_cell_angle_alpha 44.973588
_cell_angle_beta 92.542223
_cell_angle_gamma 103.290524
_cell_volume 609.062867
_symmetry_space_group_name_H-M "P -1"
_symmetry_group_IT_number 2
_symmetry_cell_setting 'triclinic'
loop_
_space_group_symop_operation_xyz
x,y,z
-x,-y,-z
loop_
_atom_site_type_symbol
_atom_site_label
_atom_site_fract_x
_atom_site_fract_y
_atom_site_fract_z
Si Si1 0.449914 0.413913 0.174970
Si Si2 0.497437 0.310130 0.451574
Si Si3 0.874182 0.303101 0.131879
Si Si4 0.253803 0.072576 0.404059
Si Si5 0.176687 0.111137 0.646857
Si Si6 0.705833 0.240138 0.858555
Si Si7 0.053329 0.278162 0.724789
Si Si8 0.813773 0.104232 0.055184
O O1 0.689623 0.435816 0.115173
O O2 0.466503 0.230173 0.297761
O O3 0.445086 0.613630 0.152993
O O4 0.169000 0.346466 0.152883
O O5 0.263870 0.205769 0.429370
O O6 0.389519 0.286622 0.541138
O O7 0.672682 0.539680 0.346645
O O8 0.675370 0.146265 0.505872
O O9 0.864231 0.288308 0.049777
O O10 0.728129 0.054819 0.242698
O O11 0.992339 0.026929 0.369934
O O12 0.996801 0.204753 0.666334
O O13 0.854610 0.353518 0.747724
O O14 0.496009 0.022863 0.909643
O O15 0.888145 0.190621 0.943740
O O16 0.064497 0.071841 0.845504
#
# Coordination Sequence:
#
# PCOD9029243 Si02
#       8
#     2   2   2   2   2   2   2   2
#     4  11  24  45  73 107 144 182 236 290 355 421
#     4  11  22  39  66 100 136 181 227 286 347 412
#     4  10  24  44  76 103 143 187 230 295 351 420
#     4  10  23  38  64  97 139 182 226 284 342 418
#     4  10  22  42  66  97 141 184 229 283 343 418
#     4  11  26  44  72  98 138 184 235 293 357 417
#     4  11  25  42  67  98 136 182 232 287 346 421
#     4  10  25  48  69  98 137 184 236 294 354 423
#
# _framework density 26.269867000000001
#
# number of rings (size 3 to 8) (size 9 to 14) (size 15 to 20)
#    0.000    1.500    1.250    1.875    8.750    4.500 
#    0.000    0.000    0.000    0.000    0.000    0.000 
#    0.000    0.000    0.000    0.000    0.000    0.000 
#
# Total GULP energy -89506.650173 kJ/mol
# GULP energy per Si atom -5594.165636 kJ/mol
# Density = 2.621008 g / cm^3
# Si number density = 26.269867 Si / 1000 Ang^3
#
#
#
# Elastic Constant Matrix: (Units=GPa)
#
#
# Indices 1 2 3 4 5 6 
#
# 1 100.4787 58.6246 36.0733 17.4510 -20.0095 -18.6670
# 2 58.6246 104.5576 48.5198 23.1457 -14.6731 -8.9781
# 3 36.0733 48.5198 96.8325 22.8562 -28.8145 -19.4387
# 4 17.4510 23.1457 22.8562 45.4229 -16.9052 -6.0493
# 5 -20.0095 -14.6731 -28.8145 -16.9052 48.5273 6.9943
# 6 -18.6670 -8.9781 -19.4387 -6.0493 6.9943 42.3178
#
#
#
# Elastic Compliance Matrix: (Units=1/GPa)
#
#
# Indices 1 2 3 4 5 6 
#
# 1 0.016398 -0.008300 0.000137 -0.000156 0.003570 0.004923
# 2 -0.008300 0.017256 -0.006008 -0.003986 -0.002746 -0.002876
# 3 0.000137 -0.006008 0.016846 -0.002293 0.006711 0.005087
# 4 -0.000156 -0.003986 -0.002293 0.027978 0.006989 0.000877
# 5 0.003570 -0.002746 0.006711 0.006989 0.027594 0.000513
# 6 0.004923 -0.002876 0.005087 0.000877 0.000513 0.027570
#
#
# Mechanical properties :
#
#
# Convention : Reuss Voigt Hill
#
# Bulk Modulus (GPa) = 45.12970 65.36714 55.24842
# Shear Modulus (GPa) = 29.52134 37.83036 33.67585
#
# Velocity S-wave (km/s) = 3.35591 3.79894 3.58427
# Velocity P-wave (km/s) = 5.67739 6.64677 6.18111
#
# Compressibility (1/GPa) = 0.02215836
#
# Stress axis : x y z
#
# Youngs Moduli (GPa) = 60.98215 57.95130 59.36220
#
# Poissons Ratio (x) = 0.48099 -0.00815
# Poissons Ratio (y) = 0.50615 0.35665
# Poissons Ratio (z) = -0.00837 0.34818
#
# Static dielectric constant tensor:
#      x y z
#    x 2.078020 -0.028870 -0.013230 
#    y -0.028870 2.071910 -0.018520 
#    z -0.013230 -0.018520 2.118740 
# 
# From -- ./inp_files/547775.got.cif
#   From: 2010.05.17/outbox.cif.g08.bks.cpg/sg2_274_cif.got.tgz:547775.got - 2010.06.03 11:33:40.
