data_PCOD9029700
_publ_section_title
;
Structure prediction by ZEFSAII (Michael W. Deem and Ramdas Pophale) SiO2 
 PCOD9029700
Probable space group: P -1
;
_chemical_formula_sum "Si O2"
_cell_formula_units_Z 14
_cell_length_a 12.081505
_cell_length_b 10.653194
_cell_length_c 9.335297
_cell_angle_alpha 56.758856
_cell_angle_beta 118.200859
_cell_angle_gamma 142.418916
_cell_volume 611.162721
_symmetry_space_group_name_H-M "P -1"
_symmetry_group_IT_number 2
_symmetry_cell_setting 'triclinic'
loop_
_space_group_symop_operation_xyz
x,y,z
-x,-y,-z
loop_
_atom_site_type_symbol
_atom_site_label
_atom_site_fract_x
_atom_site_fract_y
_atom_site_fract_z
Si Si1 0.112839 0.618990 0.639714
Si Si2 0.758904 0.867731 0.354044
Si Si3 0.984617 0.644994 0.822537
Si Si4 0.437073 0.464487 0.796264
Si Si5 0.208803 0.403771 0.010536
Si Si6 0.030112 0.079861 0.781561
Si Si7 0.315770 0.070687 0.421981
O O1 0.167255 0.513602 0.820960
O O2 0.000000 0.500000 0.500000
O O3 0.986756 0.608186 0.678737
O O4 0.293854 0.876787 0.562613
O O5 0.594071 0.652222 0.300025
O O6 0.920875 0.901139 0.370868
O O7 0.709501 0.854765 0.494503
O O8 0.836126 0.096685 0.206079
O O9 0.817621 0.576305 0.847384
O O10 0.000000 0.500000 0.000000
O O11 0.228807 0.287956 0.832181
O O12 0.510853 0.697912 0.683459
O O13 0.592894 0.499624 0.943926
O O14 0.047013 0.141366 0.064846
O O15 0.863553 0.048996 0.707324
#
# Coordination Sequence:
#
# PCOD9029700 Si02
#       7
#     2   2   2   2   2   2   2
#     4  10  21  36  57  77 109 153 185 218 272 317
#     4   8  15  27  49  82 110 134 166 226 276 313
#     4   8  15  31  54  80 106 139 180 217 261 326
#     4   9  18  30  55  87 109 137 176 227 279 322
#     4   9  17  36  58  83 109 138 181 226 265 333
#     4   8  17  30  54  80 110 138 174 222 278 315
#     4  10  17  32  50  80 112 140 183 220 268 328
#
# _framework density 22.907157999999999
#
# number of rings (size 3 to 8) (size 9 to 14) (size 15 to 20)
#    0.857    2.286    0.000    0.857    0.000    1.143 
#    0.000   10.714    0.000    5.143    0.000    0.000 
#    0.000    0.000    0.000    0.000    0.000    0.000 
#
# Total GULP energy -77962.001056 kJ/mol
# GULP energy per Si atom -5568.714361 kJ/mol
# Density = 2.285502 g / cm^3
# Si number density = 22.907158 Si / 1000 Ang^3
#
#
#
# Elastic Constant Matrix: (Units=GPa)
#
#
# Indices 1 2 3 4 5 6 
#
# 1 74.3330 57.3373 33.9187 -16.2969 -6.2570 5.6658
# 2 57.3373 156.7364 55.8430 -13.3258 8.6369 7.5713
# 3 33.9187 55.8430 88.0458 -10.3268 -6.6664 -0.8560
# 4 -16.2969 -13.3258 -10.3268 47.2582 -11.3383 -3.4269
# 5 -6.2570 8.6369 -6.6664 -11.3383 39.2929 -3.2304
# 6 5.6658 7.5713 -0.8560 -3.4269 -3.2304 38.7332
#
#
#
# Elastic Compliance Matrix: (Units=1/GPa)
#
#
# Indices 1 2 3 4 5 6 
#
# 1 0.022041 -0.006755 -0.002978 0.006492 0.006291 -0.000871
# 2 -0.006755 0.010783 -0.004816 -0.001642 -0.004883 -0.001779
# 3 -0.002978 -0.004816 0.016171 0.002319 0.004185 0.002289
# 4 0.006492 -0.001642 0.002319 0.025895 0.009466 0.002503
# 5 0.006291 -0.004883 0.004185 0.009466 0.031260 0.003571
# 6 -0.000871 -0.001779 0.002289 0.002503 0.003571 0.026863
#
#
# Mechanical properties :
#
#
# Convention : Reuss Voigt Hill
#
# Bulk Modulus (GPa) = 50.25859 68.14589 59.20224
# Shear Modulus (GPa) = 29.63101 36.52461 33.07781
#
# Velocity S-wave (km/s) = 3.60046 3.99740 3.80412
# Velocity P-wave (km/s) = 6.26675 7.14975 6.72277
#
# Compressibility (1/GPa) = 0.01989710
#
# Stress axis : x y z
#
# Youngs Moduli (GPa) = 45.36937 92.74247 61.84091
#
# Poissons Ratio (x) = 0.62647 0.18413
# Poissons Ratio (y) = 0.30647 0.29783
# Poissons Ratio (z) = 0.13509 0.44666
#
# Static dielectric constant tensor:
#      x y z
#    x 1.931890 -0.055980 -0.112580 
#    y -0.055980 1.861600 0.039420 
#    z -0.112580 0.039420 1.981620 
# 
# From -- ./inp_files/304849.got.cif
#   From: 2010.05.17/outbox.cif.g08.bks.cpg/sg2_153_cif.got.tgz:304849.got - 2010.06.03 11:33:40.
