data_PCOD9029557
_publ_section_title
;
Structure prediction by ZEFSAII (Michael W. Deem and Ramdas Pophale) SiO2 
 PCOD9029557
Probable space group: P -1
;
_chemical_formula_sum "Si O2"
_cell_formula_units_Z 14
_cell_length_a 12.470742
_cell_length_b 5.086277
_cell_length_c 9.193961
_cell_angle_alpha 98.135988
_cell_angle_beta 91.717848
_cell_angle_gamma 82.973627
_cell_volume 572.916923
_symmetry_space_group_name_H-M "P -1"
_symmetry_group_IT_number 2
_symmetry_cell_setting 'triclinic'
loop_
_space_group_symop_operation_xyz
x,y,z
-x,-y,-z
loop_
_atom_site_type_symbol
_atom_site_label
_atom_site_fract_x
_atom_site_fract_y
_atom_site_fract_z
Si Si1 0.577832 0.455195 0.862812
Si Si2 0.194371 0.800269 0.017960
Si Si3 0.573123 0.794047 0.387956
Si Si4 0.109248 0.385077 0.167650
Si Si5 0.219532 0.031828 0.568473
Si Si6 0.878923 0.388124 0.298910
Si Si7 0.691270 0.706830 0.650956
O O1 0.689256 0.292078 0.912097
O O2 0.504947 0.316930 0.735681
O O3 0.613332 0.702805 0.786609
O O4 0.500000 0.500000 0.000000
O O5 0.105837 0.637879 0.081131
O O6 0.157886 0.115024 0.062860
O O7 0.194451 0.695793 0.844758
O O8 0.669744 0.940307 0.335011
O O9 0.634613 0.593295 0.496970
O O10 0.500000 0.000000 0.500000
O O11 0.197593 0.437837 0.295769
O O12 0.999609 0.343123 0.239414
O O13 0.148204 0.310132 0.625358
O O14 0.266832 0.035046 0.405911
O O15 0.149530 0.803946 0.589058
#
# Coordination Sequence:
#
# PCOD9029557 Si02
#       7
#     2   2   2   2   2   2   2
#     4  11  23  42  73 101 137 183 233 289 342 411
#     4  11  24  41  67 101 141 174 231 276 347 414
#     4  10  22  42  67  97 137 187 220 280 353 403
#     4  11  23  43  70  97 137 185 219 285 348 402
#     4  10  26  40  69  97 137 174 235 274 335 414
#     4  12  23  44  67 102 137 178 229 284 337 407
#     4   9  24  43  66  99 137 177 230 274 347 409
#
# _framework density 24.436354000000001
#
# number of rings (size 3 to 8) (size 9 to 14) (size 15 to 20)
#    0.857    0.571    0.000    4.714    2.000    4.571 
#    0.000    4.286    0.000    0.000    0.000    0.000 
#    0.000    0.000    0.000    0.000    0.000    0.000 
#
# Total GULP energy -78195.686058 kJ/mol
# GULP energy per Si atom -5585.406147 kJ/mol
# Density = 2.438074 g / cm^3
# Si number density = 24.436354 Si / 1000 Ang^3
#
#
#
# Elastic Constant Matrix: (Units=GPa)
#
#
# Indices 1 2 3 4 5 6 
#
# 1 111.4969 21.9323 42.5868 -7.4952 -18.5763 11.2508
# 2 21.9323 109.1700 38.7203 8.5129 -10.7318 15.0428
# 3 42.5868 38.7203 145.9686 -0.7063 -7.2044 17.3139
# 4 -7.4952 8.5129 -0.7063 27.5223 10.5814 -10.1349
# 5 -18.5763 -10.7318 -7.2044 10.5814 41.7972 -7.7738
# 6 11.2508 15.0428 17.3139 -10.1349 -7.7738 29.6506
#
#
#
# Elastic Compliance Matrix: (Units=1/GPa)
#
#
# Indices 1 2 3 4 5 6 
#
# 1 0.010955 -0.000924 -0.002689 0.001564 0.003656 -0.000625
# 2 -0.000924 0.011779 -0.002009 -0.007373 0.002983 -0.006190
# 3 -0.002689 -0.002009 0.008538 -0.000904 -0.000647 -0.003425
# 4 0.001564 -0.007373 -0.000904 0.049677 -0.010605 0.017874
# 5 0.003656 0.002983 -0.000647 -0.010605 0.029168 0.001500
# 6 -0.000625 -0.006190 -0.003425 0.017874 0.001500 0.045606
#
#
# Mechanical properties :
#
#
# Convention : Reuss Voigt Hill
#
# Bulk Modulus (GPa) = 49.92878 63.67936 56.80407
# Shear Modulus (GPa) = 28.79453 37.35377 33.07415
#
# Velocity S-wave (km/s) = 3.43643 3.91399 3.68296
# Velocity P-wave (km/s) = 6.01847 6.82214 6.43287
#
# Compressibility (1/GPa) = 0.02002853
#
# Stress axis : x y z
#
# Youngs Moduli (GPa) = 91.28301 84.89400 117.12050
#
# Poissons Ratio (x) = 0.07841 0.31494
# Poissons Ratio (y) = 0.08431 0.23534
# Poissons Ratio (z) = 0.24546 0.17058
#
# Static dielectric constant tensor:
#      x y z
#    x 1.986090 -0.028230 0.074940 
#    y -0.028230 2.048860 -0.106920 
#    z 0.074940 -0.106920 2.116170 
# 
# From -- ./inp_files/229719.got.cif
#   From: 2010.05.17/outbox.cif.g08.bks.cpg/sg2_115_cif.got.tgz:229719.got - 2010.06.03 11:33:40.
