data_PCOD9029860
_publ_section_title
;
Structure prediction by ZEFSAII (Michael W. Deem and Ramdas Pophale) SiO2 
 PCOD9029860
Probable space group: P -1
;
_chemical_formula_sum "Si O2"
_cell_formula_units_Z 16
_cell_length_a 13.151962
_cell_length_b 7.519407
_cell_length_c 16.216519
_cell_angle_alpha 40.671275
_cell_angle_beta 42.816545
_cell_angle_gamma 45.486450
_cell_volume 671.375350
_symmetry_space_group_name_H-M "P -1"
_symmetry_group_IT_number 2
_symmetry_cell_setting 'triclinic'
loop_
_space_group_symop_operation_xyz
x,y,z
-x,-y,-z
loop_
_atom_site_type_symbol
_atom_site_label
_atom_site_fract_x
_atom_site_fract_y
_atom_site_fract_z
Si Si1 0.815900 0.442422 0.794694
Si Si2 0.661557 0.648894 0.969104
Si Si3 0.574572 0.325237 0.758725
Si Si4 0.254135 0.278439 0.428489
Si Si5 0.473121 0.325407 0.498990
Si Si6 0.857047 0.783099 0.241346
Si Si7 0.941821 0.018311 0.258128
Si Si8 0.994682 0.530584 0.092205
O O1 0.691908 0.467051 0.931306
O O2 0.759815 0.684268 0.674150
O O3 0.979220 0.445664 0.740402
O O4 0.875231 0.130976 0.824248
O O5 0.827256 0.576754 0.943695
O O6 0.610946 0.983247 0.853788
O O7 0.538232 0.583979 0.126432
O O8 0.722079 0.434039 0.651057
O O9 0.505269 0.496971 0.656529
O O10 0.107945 0.219360 0.579202
O O11 0.402736 0.998127 0.462010
O O12 0.500000 0.500000 0.500000
O O13 0.298503 0.296301 0.619960
O O14 0.854255 0.050749 0.209353
O O15 0.893872 0.795212 0.117566
O O16 0.911749 0.286060 0.241538
O O17 0.000000 0.500000 0.000000
#
# Coordination Sequence:
#
# PCOD9029860 Si02
#       8
#     2   2   2   2   2   2   2   2
#     4   9  21  44  65  97 131 171 230 270 331 398
#     4  10  24  44  64  96 136 183 220 271 337 407
#     4  11  24  43  67  95 140 175 222 273 339 409
#     4  12  23  41  73  99 132 176 223 286 338 390
#     4  12  25  42  66 102 135 175 223 281 342 395
#     4   9  23  43  64 100 132 172 227 274 337 394
#     4  10  22  42  68  97 133 169 232 273 338 388
#     4  11  24  42  68  95 134 182 223 276 334 399
#
# _framework density 23.831678
#
# number of rings (size 3 to 8) (size 9 to 14) (size 15 to 20)
#    0.750    0.750    1.250    3.000    3.500    2.000 
#    2.250    5.000    0.000    0.000    0.000    0.000 
#    0.000    0.000    0.000    0.000    0.000    0.000 
#
# Total GULP energy -89329.983971 kJ/mol
# GULP energy per Si atom -5583.123998 kJ/mol
# Density = 2.377744 g / cm^3
# Si number density = 23.831678 Si / 1000 Ang^3
#
#
#
# Elastic Constant Matrix: (Units=GPa)
#
#
# Indices 1 2 3 4 5 6 
#
# 1 55.7774 6.8422 16.0746 -8.5375 22.7347 1.8075
# 2 6.8422 66.0429 33.4984 3.4874 13.9062 1.0545
# 3 16.0746 33.4984 106.3161 1.2236 31.1415 -5.6119
# 4 -8.5375 3.4874 1.2236 36.7698 4.0614 5.0826
# 5 22.7347 13.9062 31.1415 4.0614 47.4256 -4.5515
# 6 1.8075 1.0545 -5.6119 5.0826 -4.5515 35.7571
#
#
#
# Elastic Compliance Matrix: (Units=1/GPa)
#
#
# Indices 1 2 3 4 5 6 
#
# 1 0.024421 -0.000083 -0.000295 0.007618 -0.012521 -0.003955
# 2 -0.000083 0.018304 -0.005257 -0.001170 -0.001913 -0.001438
# 3 -0.000295 -0.005257 0.013190 0.000577 -0.006905 0.001279
# 4 0.007618 -0.001170 0.000577 0.030568 -0.006831 -0.005474
# 5 -0.012521 -0.001913 -0.006905 -0.006831 0.033229 0.004806
# 6 -0.003955 -0.001438 0.001279 -0.005474 0.004806 0.029799
#
#
# Mechanical properties :
#
#
# Convention : Reuss Voigt Hill
#
# Bulk Modulus (GPa) = 22.39857 37.88521 30.14189
# Shear Modulus (GPa) = 28.46338 35.43858 31.95098
#
# Velocity S-wave (km/s) = 3.45969 3.86039 3.66552
# Velocity P-wave (km/s) = 5.03769 5.98345 5.53082
#
# Compressibility (1/GPa) = 0.04464570
#
# Stress axis : x y z
#
# Youngs Moduli (GPa) = 40.94802 54.63209 75.81314
#
# Poissons Ratio (x) = 0.00454 0.02238
# Poissons Ratio (y) = 0.00340 0.39853
# Poissons Ratio (z) = 0.01209 0.28719
#
# Static dielectric constant tensor:
#      x y z
#    x 1.945140 0.016740 0.013380 
#    y 0.016740 1.971920 -0.041020 
#    z 0.013380 -0.041020 1.979370 
# 
# From -- ./inp_files/528049.got.cif
#   From: 2010.05.17/outbox.cif.g08.bks.cpg/sg2_265_cif.got.tgz:528049.got - 2010.06.03 11:33:40.
