data_PCOD9029783
_publ_section_title
;
Structure prediction by ZEFSAII (Michael W. Deem and Ramdas Pophale) SiO2 
 PCOD9029783
Probable space group: P -1
;
_chemical_formula_sum "Si O2"
_cell_formula_units_Z 14
_cell_length_a 14.833725
_cell_length_b 21.215835
_cell_length_c 8.392708
_cell_angle_alpha 46.809657
_cell_angle_beta 32.621061
_cell_angle_gamma 25.198272
_cell_volume 570.431891
_symmetry_space_group_name_H-M "P -1"
_symmetry_group_IT_number 2
_symmetry_cell_setting 'triclinic'
loop_
_space_group_symop_operation_xyz
x,y,z
-x,-y,-z
loop_
_atom_site_type_symbol
_atom_site_label
_atom_site_fract_x
_atom_site_fract_y
_atom_site_fract_z
Si Si1 0.114727 0.217851 0.599790
Si Si2 0.092372 0.976166 0.720143
Si Si3 0.335438 0.570979 0.381179
Si Si4 0.252466 0.005997 0.985546
Si Si5 0.842560 0.480453 0.714124
Si Si6 0.845138 0.868796 0.763380
Si Si7 0.680477 0.610030 0.374749
O O1 0.827601 0.339491 0.701886
O O2 0.072325 0.301009 0.666377
O O3 0.200033 0.088463 0.765657
O O4 0.399207 0.138680 0.227248
O O5 0.413718 0.796292 0.485849
O O6 0.853193 0.040382 0.837855
O O7 0.080081 0.083521 0.543186
O O8 0.000000 0.000000 0.000000
O O9 0.444005 0.424452 0.465269
O O10 0.068235 0.694133 0.694764
O O11 0.568465 0.549940 0.092034
O O12 0.095469 0.119618 0.170380
O O13 0.754074 0.544103 0.555900
O O14 0.000000 0.500000 0.500000
O O15 0.500000 0.000000 0.000000
O O16 0.000000 0.500000 0.000000
#
# Coordination Sequence:
#
# PCOD9029783 Si02
#       7
#     2   2   2   2   2   2   2
#     4  10  22  42  68  94 135 177 228 277 346 405
#     4  12  27  45  72 103 140 185 232 283 351 416
#     4  11  23  48  69  98 140 187 223 286 353 412
#     4  11  24  42  69 100 135 178 230 285 339 410
#     4  11  25  41  69  98 135 180 234 274 343 421
#     4  12  25  43  70 103 139 177 232 288 344 409
#     4  11  25  46  71  99 141 181 230 288 351 408
#
# _framework density 24.542805999999999
#
# number of rings (size 3 to 8) (size 9 to 14) (size 15 to 20)
#    0.000    0.857    1.429    6.429    8.000    2.286 
#    0.000    2.143    0.000    0.000    0.000    0.000 
#    0.000    0.000    0.000    0.000    0.000    0.000 
#
# Total GULP energy -78156.902068 kJ/mol
# GULP energy per Si atom -5582.635862 kJ/mol
# Density = 2.448695 g / cm^3
# Si number density = 24.542806 Si / 1000 Ang^3
#
#
#
# Elastic Constant Matrix: (Units=GPa)
#
#
# Indices 1 2 3 4 5 6 
#
# 1 108.2471 2.4766 33.9309 4.7416 -12.1779 21.1232
# 2 2.4766 74.2970 17.3611 16.5702 -9.1035 21.7351
# 3 33.9309 17.3611 99.7562 14.7528 -13.6026 4.7015
# 4 4.7416 16.5702 14.7528 36.5371 13.1198 5.3250
# 5 -12.1779 -9.1035 -13.6026 13.1198 41.3572 -5.1537
# 6 21.1232 21.7351 4.7015 5.3250 -5.1537 39.0536
#
#
#
# Elastic Compliance Matrix: (Units=1/GPa)
#
#
# Indices 1 2 3 4 5 6 
#
# 1 0.012148 0.003267 -0.003802 -0.001360 0.002554 -0.007409
# 2 0.003267 0.019690 -0.001782 -0.009421 0.006405 -0.010381
# 3 -0.003802 -0.001782 0.013123 -0.006294 0.005176 0.003010
# 4 -0.001360 -0.009421 -0.006294 0.040869 -0.017655 -0.001166
# 5 0.002554 0.006405 0.005176 -0.017655 0.033806 0.001299
# 6 -0.007409 -0.010381 0.003010 -0.001166 0.001299 0.035359
#
#
# Mechanical properties :
#
#
# Convention : Reuss Voigt Hill
#
# Bulk Modulus (GPa) = 24.79765 43.31528 34.05646
# Shear Modulus (GPa) = 28.88997 38.62502 33.75750
#
# Velocity S-wave (km/s) = 3.43465 3.97140 3.71273
# Velocity P-wave (km/s) = 5.08477 6.22226 5.68205
#
# Compressibility (1/GPa) = 0.04032641
#
# Stress axis : x y z
#
# Youngs Moduli (GPa) = 82.31995 50.78752 76.20463
#
# Poissons Ratio (x) = -0.16593 0.28972
# Poissons Ratio (y) = -0.26895 0.13580
# Poissons Ratio (z) = 0.31297 0.09051
#
# Static dielectric constant tensor:
#      x y z
#    x 1.964930 0.005030 0.037440 
#    y 0.005030 2.018570 0.131990 
#    z 0.037440 0.131990 2.269970 
# 
# From -- ./inp_files/206756.got.cif
#   From: 2010.05.17/outbox.cif.g08.bks.cpg/sg2_104_cif.got.tgz:206756.got - 2010.06.03 11:33:40.
