data_PCOD9029613
_publ_section_title
;
Structure prediction by ZEFSAII (Michael W. Deem and Ramdas Pophale) SiO2 
 PCOD9029613
Probable space group: P -1
;
_chemical_formula_sum "Si O2"
_cell_formula_units_Z 16
_cell_length_a 12.701152
_cell_length_b 16.321086
_cell_length_c 10.801740
_cell_angle_alpha 61.785513
_cell_angle_beta 78.052676
_cell_angle_gamma 26.232638
_cell_volume 724.154035
_symmetry_space_group_name_H-M "P -1"
_symmetry_group_IT_number 2
_symmetry_cell_setting 'triclinic'
loop_
_space_group_symop_operation_xyz
x,y,z
-x,-y,-z
loop_
_atom_site_type_symbol
_atom_site_label
_atom_site_fract_x
_atom_site_fract_y
_atom_site_fract_z
Si Si1 0.128221 0.482416 0.554880
Si Si2 0.492618 0.267119 0.429656
Si Si3 0.243060 0.078764 0.559783
Si Si4 0.205306 0.732593 0.485409
Si Si5 0.795924 0.416080 0.954673
Si Si6 0.913417 0.154232 0.285960
Si Si7 0.432072 0.944903 0.064549
Si Si8 0.713284 0.666865 0.945870
O O1 0.218444 0.485834 0.428465
O O2 0.417563 0.215300 0.736711
O O3 0.000000 0.500000 0.500000
O O4 0.919288 0.693600 0.556880
O O5 0.564950 0.107237 0.470097
O O6 0.770260 0.069505 0.582119
O O7 0.430091 0.381405 0.243995
O O8 0.988947 0.203806 0.536675
O O9 0.466607 0.900767 0.745831
O O10 0.500000 0.500000 0.500000
O O11 0.259914 0.699261 0.645483
O O12 0.996344 0.987800 0.327597
O O13 0.791574 0.322024 0.093825
O O14 0.777274 0.512396 0.992515
O O15 0.100484 0.188337 0.978715
O O16 0.576552 0.778692 0.033364
O O17 0.500000 0.000000 0.000000
O O18 0.000000 0.500000 0.000000
#
# Coordination Sequence:
#
# PCOD9029613 Si02
#       8
#     2   2   2   2   2   2   2   2
#     4  12  25  38  65  94 131 180 224 273 331 399
#     4  10  22  43  65  97 134 173 220 281 330 397
#     4  10  24  43  64  96 131 171 225 271 337 402
#     4  10  22  42  71  96 134 171 221 287 345 398
#     4  11  23  41  69  97 137 178 228 276 335 403
#     4  10  22  42  68 100 129 174 225 278 345 407
#     4  12  24  40  62  96 137 177 223 273 331 397
#     4  11  24  41  64  93 138 179 219 276 330 396
#
# _framework density 22.094747999999999
#
# number of rings (size 3 to 8) (size 9 to 14) (size 15 to 20)
#    0.000    1.250    2.500    3.000    5.250    0.500 
#    0.000   10.000    0.000    9.000    0.000    0.000 
#    0.000    0.000    0.000    0.000    0.000    0.000 
#
# Total GULP energy -89392.750840 kJ/mol
# GULP energy per Si atom -5587.046928 kJ/mol
# Density = 2.204446 g / cm^3
# Si number density = 22.094748 Si / 1000 Ang^3
#
#
#
# Elastic Constant Matrix: (Units=GPa)
#
#
# Indices 1 2 3 4 5 6 
#
# 1 83.6350 25.6931 27.6397 -7.0449 7.9909 10.5571
# 2 25.6931 137.2720 21.4329 -5.5162 0.6889 -6.7326
# 3 27.6397 21.4329 84.0779 -7.0955 -6.2806 3.3068
# 4 -7.0449 -5.5162 -7.0955 32.5920 -1.5134 0.2947
# 5 7.9909 0.6889 -6.2806 -1.5134 43.1560 -5.8605
# 6 10.5571 -6.7326 3.3068 0.2947 -5.8605 32.2041
#
#
#
# Elastic Compliance Matrix: (Units=1/GPa)
#
#
# Indices 1 2 3 4 5 6 
#
# 1 0.015445 -0.002399 -0.004393 0.001835 -0.004197 -0.005894
# 2 -0.002399 0.008088 -0.001293 0.000568 0.000513 0.002698
# 3 -0.004393 -0.001293 0.014051 0.002027 0.002984 0.000251
# 4 0.001835 0.000568 0.002027 0.031668 0.000947 -0.000808
# 5 -0.004197 0.000513 0.002984 0.000947 0.025189 0.005752
# 6 -0.005894 0.002698 0.000251 -0.000808 0.005752 0.034577
#
#
# Mechanical properties :
#
#
# Convention : Reuss Voigt Hill
#
# Bulk Modulus (GPa) = 46.69604 50.50182 48.59893
# Shear Modulus (GPa) = 32.82422 36.93836 34.88129
#
# Velocity S-wave (km/s) = 3.85855 4.09322 3.97761
# Velocity P-wave (km/s) = 6.40558 6.72650 6.56800
#
# Compressibility (1/GPa) = 0.02141509
#
# Stress axis : x y z
#
# Youngs Moduli (GPa) = 64.74582 123.63440 71.16705
#
# Poissons Ratio (x) = 0.29664 0.31261
# Poissons Ratio (y) = 0.15534 0.09202
# Poissons Ratio (z) = 0.28440 0.15985
#
# Static dielectric constant tensor:
#      x y z
#    x 1.564720 0.220800 -0.201170 
#    y 0.220800 1.607430 0.157110 
#    z -0.201170 0.157110 1.689700 
# 
# From -- ./inp_files/433809.got.cif
#   From: 2010.05.17/outbox.cif.g08.bks.cpg/sg2_217_cif.got.tgz:433809.got - 2010.06.03 11:33:40.
