data_PCOD9029959
_publ_section_title
;
Structure prediction by ZEFSAII (Michael W. Deem and Ramdas Pophale) SiO2 
 PCOD9029959
Probable space group: P -1
;
_chemical_formula_sum "Si O2"
_cell_formula_units_Z 15
_cell_length_a 7.186579
_cell_length_b 11.728184
_cell_length_c 12.343692
_cell_angle_alpha 74.074577
_cell_angle_beta 81.133016
_cell_angle_gamma 136.905920
_cell_volume 575.464867
_symmetry_space_group_name_H-M "P -1"
_symmetry_group_IT_number 2
_symmetry_cell_setting 'triclinic'
loop_
_space_group_symop_operation_xyz
x,y,z
-x,-y,-z
loop_
_atom_site_type_symbol
_atom_site_label
_atom_site_fract_x
_atom_site_fract_y
_atom_site_fract_z
Si Si1 0.843644 0.618640 0.145136
Si Si2 0.916472 0.144570 0.229776
Si Si3 0.296245 0.039129 0.078397
Si Si4 0.602152 0.810305 0.199556
Si Si5 0.210496 0.988320 0.483801
Si Si6 0.349056 0.451455 0.410495
Si Si7 0.500000 0.500000 0.000000
Si Si8 0.741543 0.302450 0.180229
O O1 0.566922 0.489868 0.294479
O O2 0.881443 0.505076 0.126094
O O3 0.169641 0.843116 0.105623
O O4 0.728274 0.640808 0.049904
O O5 0.775306 0.045412 0.385118
O O6 0.003501 0.329188 0.153489
O O7 0.653891 0.958652 0.220529
O O8 0.283590 0.289016 0.145008
O O9 0.945836 0.920856 0.159982
O O10 0.517357 0.160960 0.133053
O O11 0.439491 0.181295 0.924334
O O12 0.356885 0.591540 0.332562
O O13 0.008119 0.783103 0.495984
O O14 0.533249 0.176051 0.340186
O O15 0.000000 0.000000 0.500000
O O16 0.500000 0.500000 0.500000
#
# Coordination Sequence:
#
# PCOD9029959 Si02
#       8
#     2   2   2   2   2   2   1   2
#     4  11  23  43  72 104 138 188 244 294 355 428
#     4  12  26  45  71 104 144 188 232 302 368 422
#     4  10  22  44  71 103 139 190 243 296 352 426
#     4  10  22  42  69 101 137 186 247 291 344 428
#     4  12  22  45  72 101 138 186 244 288 342 439
#     4  11  22  39  72 104 130 185 245 293 344 415
#     4  12  22  46  72 100 132 188 256 284 348 430
#     4  12  27  44  69 107 155 183 231 303 369 422
#
# _framework density 26.065881000000001
#
# number of rings (size 3 to 8) (size 9 to 14) (size 15 to 20)
#    0.000    0.800    4.000    4.400    3.733    1.067 
#    2.400    0.667    0.000    0.000    0.000    0.000 
#    0.000    0.000    0.000    0.000    0.000    0.000 
#
# Total GULP energy -83857.264037 kJ/mol
# GULP energy per Si atom -5590.484269 kJ/mol
# Density = 2.600655 g / cm^3
# Si number density = 26.065881 Si / 1000 Ang^3
#
#
#
# Elastic Constant Matrix: (Units=GPa)
#
#
# Indices 1 2 3 4 5 6 
#
# 1 61.5945 30.0260 -11.1288 -4.1400 24.0875 -14.3652
# 2 30.0260 146.8211 26.7314 -5.4217 19.0033 -27.7619
# 3 -11.1288 26.7314 142.4321 7.0159 11.4296 -3.0130
# 4 -4.1400 -5.4217 7.0159 59.9356 0.7698 10.9452
# 5 24.0875 19.0033 11.4296 0.7698 28.9677 -15.0303
# 6 -14.3652 -27.7619 -3.0130 10.9452 -15.0303 40.8644
#
#
#
# Elastic Compliance Matrix: (Units=1/GPa)
#
#
# Indices 1 2 3 4 5 6 
#
# 1 0.027744 -0.003715 0.004621 0.001593 -0.023224 -0.001399
# 2 -0.003715 0.008727 -0.001867 -0.000118 0.000553 0.004720
# 3 0.004621 -0.001867 0.008254 -0.000493 -0.006540 -0.001309
# 4 0.001593 -0.000118 -0.000493 0.018018 -0.004703 -0.006112
# 5 -0.023224 0.000553 -0.006540 -0.004703 0.064929 0.016871
# 6 -0.001399 0.004720 -0.001309 -0.006112 0.016871 0.034932
#
#
# Mechanical properties :
#
#
# Convention : Reuss Voigt Hill
#
# Bulk Modulus (GPa) = 23.36314 49.12278 36.24296
# Shear Modulus (GPa) = 27.96511 46.30148 37.13329
#
# Velocity S-wave (km/s) = 3.27901 4.21922 3.77847
# Velocity P-wave (km/s) = 4.82892 6.52857 5.74198
#
# Compressibility (1/GPa) = 0.04280246
#
# Stress axis : x y z
#
# Youngs Moduli (GPa) = 36.04394 114.58315 121.15807
#
# Poissons Ratio (x) = 0.42566 -0.55981
# Poissons Ratio (y) = 0.13390 0.22619
# Poissons Ratio (z) = -0.16654 0.21391
#
# Static dielectric constant tensor:
#      x y z
#    x 1.552920 -0.041220 0.100950 
#    y -0.041220 2.112050 0.002230 
#    z 0.100950 0.002230 2.005400 
# 
# From -- ./inp_files/389767.got.cif
#   From: 2010.05.17/outbox.cif.g08.bks.cpg/sg2_195_cif.got.tgz:389767.got - 2010.06.03 11:33:40.
