data_PCOD9029462
_publ_section_title
;
Structure prediction by ZEFSAII (Michael W. Deem and Ramdas Pophale) SiO2 
 PCOD9029462
Probable space group: P -1
;
_chemical_formula_sum "Si O2"
_cell_formula_units_Z 14
_cell_length_a 6.976948
_cell_length_b 10.648374
_cell_length_c 9.572287
_cell_angle_alpha 103.979390
_cell_angle_beta 121.820500
_cell_angle_gamma 64.463495
_cell_volume 545.146264
_symmetry_space_group_name_H-M "P -1"
_symmetry_group_IT_number 2
_symmetry_cell_setting 'triclinic'
loop_
_space_group_symop_operation_xyz
x,y,z
-x,-y,-z
loop_
_atom_site_type_symbol
_atom_site_label
_atom_site_fract_x
_atom_site_fract_y
_atom_site_fract_z
Si Si1 0.496997 0.211437 0.558500
Si Si2 0.044573 0.019237 0.227273
Si Si3 0.982046 0.307242 0.304972
Si Si4 0.829877 0.550526 0.119416
Si Si5 0.750040 0.836390 0.087039
Si Si6 0.510477 0.464647 0.780044
Si Si7 0.369814 0.909657 0.727575
O O1 0.556683 0.347729 0.650625
O O2 0.543655 0.162413 0.403319
O O3 0.209629 0.256959 0.482240
O O4 0.679418 0.079324 0.675817
O O5 0.993224 0.170765 0.186512
O O6 0.907016 0.070274 0.337484
O O7 0.903648 0.920311 0.097673
O O8 0.012283 0.420482 0.239125
O O9 0.722905 0.393692 0.298965
O O10 0.894470 0.683846 0.155462
O O11 0.589248 0.596745 0.140203
O O12 0.735618 0.499935 0.930186
O O13 0.633491 0.935545 0.201018
O O14 0.546622 0.829296 0.900519
#
# Coordination Sequence:
#
# PCOD9029462 Si02
#       7
#     2   2   2   2   2   2   2
#     4  12  23  42  61 104 127 174 211 270 313 390
#     4  10  22  42  67  95 130 169 217 264 318 381
#     4  10  22  42  67  95 130 169 217 264 318 381
#     4   9  20  43  69  90 127 173 214 261 324 383
#     4   9  20  43  69  90 127 173 214 261 324 383
#     4   9  22  40  68  90 133 162 218 262 326 368
#     4   9  22  40  68  90 133 162 218 262 326 368
#
# _framework density 25.681180999999999
#
# number of rings (size 3 to 8) (size 9 to 14) (size 15 to 20)
#    1.714    0.571    0.000    2.143    0.000    3.429 
#    0.000   10.714    0.000    0.000    0.000    0.000 
#    0.000    0.000    0.000    0.000    0.000    0.000 
#
# Total GULP energy -78149.480116 kJ/mol
# GULP energy per Si atom -5582.105723 kJ/mol
# Density = 2.562273 g / cm^3
# Si number density = 25.681181 Si / 1000 Ang^3
#
#
#
# Elastic Constant Matrix: (Units=GPa)
#
#
# Indices 1 2 3 4 5 6 
#
# 1 40.3007 36.5029 30.8688 6.5825 8.3175 -11.4664
# 2 36.5029 203.2649 53.1174 10.1329 1.6994 7.7880
# 3 30.8688 53.1174 94.4295 30.6430 -1.5504 -16.8000
# 4 6.5825 10.1329 30.6430 40.1333 -11.8754 11.2765
# 5 8.3175 1.6994 -1.5504 -11.8754 35.2674 7.8787
# 6 -11.4664 7.7880 -16.8000 11.2765 7.8787 39.0839
#
#
#
# Elastic Compliance Matrix: (Units=1/GPa)
#
#
# Indices 1 2 3 4 5 6 
#
# 1 0.048166 -0.008372 -0.000365 -0.019775 -0.023456 0.026076
# 2 -0.008372 0.008129 -0.006992 0.009994 0.007190 -0.011414
# 3 -0.000365 -0.006992 0.029880 -0.033060 -0.015375 0.026768
# 4 -0.019775 0.009994 -0.033060 0.077687 0.040641 -0.052610
# 5 -0.023456 0.007190 -0.015375 0.040641 0.054978 -0.037732
# 6 0.026076 -0.011414 0.026768 -0.052610 -0.037732 0.069802
#
#
# Mechanical properties :
#
#
# Convention : Reuss Voigt Hill
#
# Bulk Modulus (GPa) = 18.27540 64.33035 41.30288
# Shear Modulus (GPa) = 14.77809 37.39733 26.08771
#
# Velocity S-wave (km/s) = 2.40144 3.82018 3.19067
# Velocity P-wave (km/s) = 3.84980 6.67550 5.44900
#
# Compressibility (1/GPa) = 0.05471836
#
# Stress axis : x y z
#
# Youngs Moduli (GPa) = 20.76161 123.01373 33.46705
#
# Poissons Ratio (x) = 1.02981 0.01222
# Poissons Ratio (y) = 0.17381 0.23399
# Poissons Ratio (z) = 0.00758 0.86008
#
# Static dielectric constant tensor:
#      x y z
#    x 2.145240 0.029020 0.014010 
#    y 0.029020 2.024630 -0.003670 
#    z 0.014010 -0.003670 2.000870 
# 
# From -- ./inp_files/392885.got.cif
#   From: 2010.05.17/outbox.cif.g08.bks.cpg/sg2_197_cif.got.tgz:392885.got - 2010.06.03 11:33:40.
