data_PCOD9029743
_publ_section_title
;
Structure prediction by ZEFSAII (Michael W. Deem and Ramdas Pophale) SiO2 
 PCOD9029743
Probable space group: P -1
;
_chemical_formula_sum "Si O2"
_cell_formula_units_Z 12
_cell_length_a 6.985329
_cell_length_b 6.743324
_cell_length_c 12.316590
_cell_angle_alpha 122.896660
_cell_angle_beta 73.535967
_cell_angle_gamma 87.442388
_cell_volume 452.737655
_symmetry_space_group_name_H-M "P -1"
_symmetry_group_IT_number 2
_symmetry_cell_setting 'triclinic'
loop_
_space_group_symop_operation_xyz
x,y,z
-x,-y,-z
loop_
_atom_site_type_symbol
_atom_site_label
_atom_site_fract_x
_atom_site_fract_y
_atom_site_fract_z
Si Si1 0.306005 0.831905 0.690800
Si Si2 0.083935 0.716717 0.138894
Si Si3 0.700324 0.245864 0.081417
Si Si4 0.224231 0.298881 0.152830
Si Si5 0.279241 0.998475 0.357293
Si Si6 0.830335 0.348195 0.554754
O O1 0.298805 0.723015 0.780076
O O2 0.520101 0.902070 0.656099
O O3 0.259448 0.658329 0.552167
O O4 0.128402 0.082991 0.782985
O O5 0.086994 0.507826 0.163281
O O6 0.238943 0.860816 0.213631
O O7 0.186785 0.613002 0.977929
O O8 0.195151 0.038983 0.045805
O O9 0.535702 0.711558 0.905407
O O10 0.183057 0.392580 0.310247
O O11 0.067260 0.197600 0.475566
O O12 0.293888 0.799394 0.392157
#
# Coordination Sequence:
#
# PCOD9029743 Si02
#       6
#     2   2   2   2   2   2
#     4  11  22  39  66  98 129 164 213 268 317 377
#     4  10  22  43  67  93 130 172 211 259 320 379
#     4  11  23  41  64  96 132 166 214 266 313 376
#     4  10  22  42  68  92 125 176 214 256 321 379
#     4   9  18  38  65  95 129 164 212 265 314 378
#     4   9  20  38  64  95 127 167 211 261 320 377
#
# _framework density 26.505417999999999
#
# number of rings (size 3 to 8) (size 9 to 14) (size 15 to 20)
#    0.000    2.000    0.000    4.500    0.000    2.667 
#    0.000   14.167    0.000    2.000    0.000    1.167 
#    0.000    0.000    0.000    0.000    0.000    0.000 
#
# Total GULP energy -67373.189720 kJ/mol
# GULP energy per Si atom -5614.432477 kJ/mol
# Density = 2.644509 g / cm^3
# Si number density = 26.505418 Si / 1000 Ang^3
#
#
#
# Elastic Constant Matrix: (Units=GPa)
#
#
# Indices 1 2 3 4 5 6 
#
# 1 143.4131 24.3429 46.7820 -13.6720 3.7600 3.9542
# 2 24.3429 80.7319 36.1810 -16.2635 -3.4631 -1.4079
# 3 46.7820 36.1810 174.6137 -16.3897 20.9401 14.1641
# 4 -13.6720 -16.2635 -16.3897 51.8365 7.5751 -0.8149
# 5 3.7600 -3.4631 20.9401 7.5751 43.6611 -3.4616
# 6 3.9542 -1.4079 14.1641 -0.8149 -3.4616 34.6093
#
#
#
# Elastic Compliance Matrix: (Units=1/GPa)
#
#
# Indices 1 2 3 4 5 6 
#
# 1 0.007877 -0.001415 -0.001663 0.001134 -0.000211 -0.000271
# 2 -0.001415 0.014859 -0.002872 0.003077 0.002322 0.002246
# 3 -0.001663 -0.002872 0.007732 0.001688 -0.004362 -0.003488
# 4 0.001134 0.003077 0.001688 0.021735 -0.004484 -0.000632
# 5 -0.000211 0.002322 -0.004362 -0.004484 0.026327 0.004431
# 6 -0.000271 0.002246 -0.003488 -0.000632 0.004431 0.030872
#
#
# Mechanical properties :
#
#
# Convention : Reuss Voigt Hill
#
# Bulk Modulus (GPa) = 53.85639 68.15225 61.00432
# Shear Modulus (GPa) = 39.21844 45.45157 42.33500
#
# Velocity S-wave (km/s) = 3.85078 4.14551 4.00086
# Velocity P-wave (km/s) = 6.33518 6.97725 6.66395
#
# Compressibility (1/GPa) = 0.01856790
#
# Stress axis : x y z
#
# Youngs Moduli (GPa) = 126.95559 67.30002 129.33222
#
# Poissons Ratio (x) = 0.09522 0.21513
# Poissons Ratio (y) = 0.17963 0.37139
# Poissons Ratio (z) = 0.21117 0.19326
#
# Static dielectric constant tensor:
#      x y z
#    x 2.042040 0.011130 0.007810 
#    y 0.011130 2.075000 0.003980 
#    z 0.007810 0.003980 2.056310 
# 
# From -- ./inp_files/36691.got.cif
#   From: 2010.05.17/outbox.cif.g08.bks.cpg/sg2_19_cif.got.tgz:36691.got - 2010.06.03 11:33:40.
