data_PCOD9029158
_publ_section_title
;
Structure prediction by ZEFSAII (Michael W. Deem and Ramdas Pophale) SiO2 
 PCOD9029158
Probable space group: P -1
;
_chemical_formula_sum "Si O2"
_cell_formula_units_Z 16
_cell_length_a 9.030983
_cell_length_b 21.073636
_cell_length_c 9.133310
_cell_angle_alpha 137.717895
_cell_angle_beta 62.942215
_cell_angle_gamma 83.525913
_cell_volume 688.963614
_symmetry_space_group_name_H-M "P -1"
_symmetry_group_IT_number 2
_symmetry_cell_setting 'triclinic'
loop_
_space_group_symop_operation_xyz
x,y,z
-x,-y,-z
loop_
_atom_site_type_symbol
_atom_site_label
_atom_site_fract_x
_atom_site_fract_y
_atom_site_fract_z
Si Si1 0.770806 0.367283 0.077636
Si Si2 0.849539 0.160626 0.871123
Si Si3 0.313971 0.998246 0.526945
Si Si4 0.954793 0.455690 0.585918
Si Si5 0.602838 0.773089 0.789623
Si Si6 0.716284 0.129199 0.407490
Si Si7 0.535564 0.423697 0.996659
Si Si8 0.242883 0.291220 0.717435
O O1 0.500000 0.500000 0.500000
O O2 0.836347 0.232293 0.859010
O O3 0.712195 0.402337 0.993295
O O4 0.009916 0.328633 0.944310
O O5 0.568027 0.248327 0.187141
O O6 0.000000 0.000000 0.500000
O O7 0.015978 0.143881 0.889266
O O8 0.318975 0.906707 0.480084
O O9 0.500000 0.000000 0.500000
O O10 0.414220 0.932800 0.206550
O O11 0.000000 0.500000 0.500000
O O12 0.204419 0.314605 0.311488
O O13 0.753105 0.466983 0.638483
O O14 0.830312 0.571657 0.968671
O O15 0.728037 0.736847 0.516122
O O16 0.644964 0.270478 0.677930
O O17 0.513337 0.162167 0.451589
O O18 0.000000 0.000000 0.000000
O O19 0.500000 0.500000 0.000000
#
# Coordination Sequence:
#
# PCOD9029158 Si02
#       8
#     2   2   2   2   2   2   2   2
#     4  12  25  43  68  99 134 174 223 278 334 401
#     4  10  22  42  66  94 130 176 223 275 336 399
#     4  11  24  43  68 100 133 178 229 280 339 404
#     4  11  22  41  65  92 128 173 219 272 333 398
#     4  11  22  41  65  93 132 175 219 274 334 400
#     4  11  25  47  71  99 137 181 228 281 338 405
#     4  11  25  44  65  97 135 174 220 274 333 397
#     4  11  24  41  65 100 132 171 221 276 335 400
#
# _framework density 23.223286000000002
#
# number of rings (size 3 to 8) (size 9 to 14) (size 15 to 20)
#    0.000    1.000    0.000    7.875    0.000    8.000 
#    0.000    3.750    0.000    0.000    0.000    0.000 
#    0.000    0.000    0.000    0.000    0.000    0.000 
#
# Total GULP energy -89353.092480 kJ/mol
# GULP energy per Si atom -5584.568280 kJ/mol
# Density = 2.317043 g / cm^3
# Si number density = 23.223286 Si / 1000 Ang^3
#
#
#
# Elastic Constant Matrix: (Units=GPa)
#
#
# Indices 1 2 3 4 5 6 
#
# 1 123.9874 13.2556 40.0883 4.3536 -36.3837 -7.5867
# 2 13.2556 117.2290 24.2489 0.8846 0.5457 -11.0820
# 3 40.0883 24.2489 96.5761 -0.7225 -21.6279 -4.3145
# 4 4.3536 0.8846 -0.7225 38.3675 -4.8985 -4.7127
# 5 -36.3837 0.5457 -21.6279 -4.8985 53.2251 1.6253
# 6 -7.5867 -11.0820 -4.3145 -4.7127 1.6253 35.1009
#
#
#
# Elastic Compliance Matrix: (Units=1/GPa)
#
#
# Indices 1 2 3 4 5 6 
#
# 1 0.011023 -0.000513 -0.002981 -0.000310 0.006254 0.001523
# 2 -0.000513 0.009327 -0.002346 -0.000071 -0.001485 0.002605
# 3 -0.002981 -0.002346 0.012946 0.001087 0.003341 0.000198
# 4 -0.000310 -0.000071 0.001087 0.026887 0.002597 0.003534
# 5 0.006254 -0.001485 0.003341 0.002597 0.024660 0.000500
# 6 0.001523 0.002605 0.000198 0.003534 0.000500 0.030117
#
#
# Mechanical properties :
#
#
# Convention : Reuss Voigt Hill
#
# Bulk Modulus (GPa) = 46.25763 54.77533 50.51648
# Shear Modulus (GPa) = 37.35685 42.68536 40.02110
#
# Velocity S-wave (km/s) = 4.01508 4.29189 4.15579
# Velocity P-wave (km/s) = 6.43866 6.94248 6.69531
#
# Compressibility (1/GPa) = 0.02161806
#
# Stress axis : x y z
#
# Youngs Moduli (GPa) = 90.71727 107.21288 77.24407
#
# Poissons Ratio (x) = 0.05497 0.23023
# Poissons Ratio (y) = 0.04651 0.18121
# Poissons Ratio (z) = 0.27039 0.25151
#
# Static dielectric constant tensor:
#      x y z
#    x 1.999540 -0.047290 0.019600 
#    y -0.047290 1.797250 0.064960 
#    z 0.019600 0.064960 1.903810 
# 
# From -- ./inp_files/216580.got.cif
#   From: 2010.05.17/outbox.cif.g08.bks.cpg/sg2_109_cif.got.tgz:216580.got - 2010.06.03 11:33:40.
