data_PCOD9029881
_publ_section_title
;
Structure prediction by ZEFSAII (Michael W. Deem and Ramdas Pophale) SiO2 
 PCOD9029881
Probable space group: P -1
;
_chemical_formula_sum "Si O2"
_cell_formula_units_Z 14
_cell_length_a 9.407759
_cell_length_b 7.860243
_cell_length_c 13.100713
_cell_angle_alpha 73.000182
_cell_angle_beta 37.864349
_cell_angle_gamma 71.584751
_cell_volume 562.632822
_symmetry_space_group_name_H-M "P -1"
_symmetry_group_IT_number 2
_symmetry_cell_setting 'triclinic'
loop_
_space_group_symop_operation_xyz
x,y,z
-x,-y,-z
loop_
_atom_site_type_symbol
_atom_site_label
_atom_site_fract_x
_atom_site_fract_y
_atom_site_fract_z
Si Si1 0.321230 0.035778 0.751183
Si Si2 0.209666 0.273381 0.121563
Si Si3 0.529531 0.742443 0.826870
Si Si4 0.168094 0.979388 0.630065
Si Si5 0.497399 0.386718 0.772707
Si Si6 0.129440 0.432777 0.832667
Si Si7 0.995544 0.713009 0.463179
O O1 0.583355 0.069655 0.560751
O O2 0.159448 0.222427 0.831137
O O3 0.348495 0.901251 0.854781
O O4 0.222986 0.945838 0.723588
O O5 0.425932 0.280540 0.074765
O O6 0.046474 0.122880 0.260010
O O7 0.018035 0.454342 0.191266
O O8 0.333711 0.260114 0.943237
O O9 0.496729 0.559344 0.817669
O O10 0.784574 0.788112 0.642160
O O11 0.075288 0.188497 0.620186
O O12 0.394202 0.458996 0.709699
O O13 0.749382 0.269850 0.645143
O O14 0.000000 0.500000 0.000000
O O15 0.000000 0.500000 0.500000
#
# Coordination Sequence:
#
# PCOD9029881 Si02
#       7
#     2   2   2   2   2   2   2
#     4  10  23  44  70  94 135 175 220 279 329 386
#     4  11  24  41  65 101 135 168 228 270 329 399
#     4  10  22  42  68  98 129 174 226 271 328 389
#     4  10  23  42  68 102 132 171 226 270 332 396
#     4  10  22  43  63  92 143 175 215 270 335 394
#     4  10  24  44  64  95 133 178 220 266 333 396
#     4   9  21  39  68  94 131 170 221 268 328 393
#
# _framework density 24.883013999999999
#
# number of rings (size 3 to 8) (size 9 to 14) (size 15 to 20)
#    0.000    2.000    0.000    1.286    8.000    3.429 
#    2.571    5.714    0.000    0.000    0.000    0.000 
#    0.000    0.000    0.000    0.000    0.000    0.000 
#
# Total GULP energy -78178.026368 kJ/mol
# GULP energy per Si atom -5584.144741 kJ/mol
# Density = 2.482638 g / cm^3
# Si number density = 24.883014 Si / 1000 Ang^3
#
#
#
# Elastic Constant Matrix: (Units=GPa)
#
#
# Indices 1 2 3 4 5 6 
#
# 1 124.5281 42.2507 5.6594 -14.1375 0.1949 -14.0455
# 2 42.2507 127.7445 15.6767 2.0762 9.0754 -25.7529
# 3 5.6594 15.6767 58.1044 -4.4908 -24.0298 -3.4907
# 4 -14.1375 2.0762 -4.4908 21.4640 -1.6435 -2.0091
# 5 0.1949 9.0754 -24.0298 -1.6435 30.1704 -2.2933
# 6 -14.0455 -25.7529 -3.4907 -2.0091 -2.2933 47.7058
#
#
#
# Elastic Compliance Matrix: (Units=1/GPa)
#
#
# Indices 1 2 3 4 5 6 
#
# 1 0.010268 -0.003664 0.002034 0.007947 0.003217 0.001683
# 2 -0.003664 0.011285 -0.006309 -0.005098 -0.008374 0.003934
# 3 0.002034 -0.006309 0.030807 0.010582 0.027089 0.001195
# 4 0.007947 -0.005098 0.010582 0.055856 0.013207 0.003349
# 5 0.003217 -0.008374 0.027089 0.013207 0.058071 0.001756
# 6 0.001683 0.003934 0.001195 0.003349 0.001756 0.023894
#
#
# Mechanical properties :
#
#
# Convention : Reuss Voigt Hill
#
# Bulk Modulus (GPa) = 27.41034 48.61672 38.01353
# Shear Modulus (GPa) = 22.91265 36.32073 29.61669
#
# Velocity S-wave (km/s) = 3.03778 3.82469 3.45372
# Velocity P-wave (km/s) = 4.83154 6.25179 5.58698
#
# Compressibility (1/GPa) = 0.03648258
#
# Stress axis : x y z
#
# Youngs Moduli (GPa) = 97.38913 88.61182 32.46027
#
# Poissons Ratio (x) = 0.32468 -0.06603
# Poissons Ratio (y) = 0.35684 0.20479
# Poissons Ratio (z) = -0.19811 0.55904
#
# Static dielectric constant tensor:
#      x y z
#    x 2.104610 -0.032500 -0.028360 
#    y -0.032500 1.994500 -0.013170 
#    z -0.028360 -0.013170 2.035510 
# 
# From -- ./inp_files/492395.got.cif
#   From: 2010.05.17/outbox.cif.g08.bks.cpg/sg2_247_cif.got.tgz:492395.got - 2010.06.03 11:33:40.
