data_PCOD9029815
_publ_section_title
;
Structure prediction by ZEFSAII (Michael W. Deem and Ramdas Pophale) SiO2 
 PCOD9029815
Probable space group: P -1
;
_chemical_formula_sum "Si O2"
_cell_formula_units_Z 12
_cell_length_a 16.733668
_cell_length_b 9.697755
_cell_length_c 9.798719
_cell_angle_alpha 43.024450
_cell_angle_beta 48.218057
_cell_angle_gamma 26.266697
_cell_volume 479.846224
_symmetry_space_group_name_H-M "P -1"
_symmetry_group_IT_number 2
_symmetry_cell_setting 'triclinic'
loop_
_space_group_symop_operation_xyz
x,y,z
-x,-y,-z
loop_
_atom_site_type_symbol
_atom_site_label
_atom_site_fract_x
_atom_site_fract_y
_atom_site_fract_z
Si Si1 0.669161 0.790593 0.357803
Si Si2 0.578803 0.388076 0.276799
Si Si3 0.049235 0.140329 0.906586
Si Si4 0.231502 0.961268 0.091382
Si Si5 0.934515 0.747899 0.636678
Si Si6 0.633801 0.533938 0.342163
O O1 0.676398 0.650864 0.310005
O O2 0.860400 0.482457 0.441830
O O3 0.500000 0.000000 0.500000
O O4 0.683544 0.990876 0.131634
O O5 0.411259 0.597059 0.217666
O O6 0.582344 0.605379 0.188504
O O7 0.541896 0.290574 0.511112
O O8 0.767501 0.074171 0.221010
O O9 0.924792 0.529922 0.752838
O O10 0.104808 0.031564 0.080945
O O11 0.000000 0.000000 0.000000
O O12 0.114780 0.196491 0.186509
O O13 0.800883 0.122266 0.461969
#
# Coordination Sequence:
#
# PCOD9029815 Si02
#       6
#     2   2   2   2   2   2
#     4  11  22  40  70 104 133 173 224 278 337 394
#     4  10  23  43  65  95 135 176 222 274 329 396
#     4  11  23  40  67 101 130 169 230 278 326 391
#     4  10  23  45  70  93 134 180 225 268 336 401
#     4  10  23  44  69  95 135 180 221 274 334 402
#     4  10  22  42  68  95 136 175 223 275 335 392
#
# _framework density 25.008012999999998
#
# number of rings (size 3 to 8) (size 9 to 14) (size 15 to 20)
#    0.000    1.667    0.000    5.000    4.667    2.667 
#    9.000    0.000    0.000    0.000    0.000    0.000 
#    0.000    0.000    0.000    0.000    0.000    0.000 
#
# Total GULP energy -66968.459589 kJ/mol
# GULP energy per Si atom -5580.704966 kJ/mol
# Density = 2.495109 g / cm^3
# Si number density = 25.008013 Si / 1000 Ang^3
#
#
#
# Elastic Constant Matrix: (Units=GPa)
#
#
# Indices 1 2 3 4 5 6 
#
# 1 182.9616 44.7605 4.3135 -16.8672 -6.5131 35.8977
# 2 44.7605 130.8398 31.0140 26.2807 -8.6176 -0.0919
# 3 4.3135 31.0140 50.7010 14.9246 -8.4296 -4.0343
# 4 -16.8672 26.2807 14.9246 30.5710 -14.0761 -2.9029
# 5 -6.5131 -8.6176 -8.4296 -14.0761 21.6113 0.8811
# 6 35.8977 -0.0919 -4.0343 -2.9029 0.8811 43.8762
#
#
#
# Elastic Compliance Matrix: (Units=1/GPa)
#
#
# Indices 1 2 3 4 5 6 
#
# 1 0.010053 -0.005564 -0.000653 0.014756 0.010474 -0.007531
# 2 -0.005564 0.013161 -0.004012 -0.016066 -0.008594 0.003320
# 3 -0.000653 -0.004012 0.025147 -0.007607 0.002965 0.002276
# 4 0.014756 -0.016066 -0.007607 0.079218 0.047018 -0.008509
# 5 0.010474 -0.008594 0.002965 0.047018 0.078059 -0.006772
# 6 -0.007531 0.003320 0.002276 -0.008509 -0.006772 0.028742
#
#
# Mechanical properties :
#
#
# Convention : Reuss Voigt Hill
#
# Bulk Modulus (GPa) = 35.84061 58.29760 47.06910
# Shear Modulus (GPa) = 18.92950 38.17266 28.55108
#
# Velocity S-wave (km/s) = 2.75423 3.91118 3.38254
# Velocity P-wave (km/s) = 4.94744 6.61503 5.84105
#
# Compressibility (1/GPa) = 0.02790131
#
# Stress axis : x y z
#
# Youngs Moduli (GPa) = 99.47376 75.98365 39.76693
#
# Poissons Ratio (x) = 0.42274 0.02598
# Poissons Ratio (y) = 0.55343 0.15956
# Poissons Ratio (z) = 0.06500 0.30488
#
# Static dielectric constant tensor:
#      x y z
#    x 2.230820 0.030340 0.025690 
#    y 0.030340 2.007100 -0.072600 
#    z 0.025690 -0.072600 2.022330 
# 
# From -- ./inp_files/152424.got.cif
#   From: 2010.05.17/outbox.cif.g08.bks.cpg/sg2_77_cif.got.tgz:152424.got - 2010.06.03 11:33:40.
