data_PCOD9029377
_publ_section_title
;
Structure prediction by ZEFSAII (Michael W. Deem and Ramdas Pophale) SiO2 
 PCOD9029377
Probable space group: P -1
;
_chemical_formula_sum "Si O2"
_cell_formula_units_Z 14
_cell_length_a 20.959656
_cell_length_b 14.442109
_cell_length_c 11.574023
_cell_angle_alpha 148.038497
_cell_angle_beta 30.866434
_cell_angle_gamma 159.671219
_cell_volume 605.550028
_symmetry_space_group_name_H-M "P -1"
_symmetry_group_IT_number 2
_symmetry_cell_setting 'triclinic'
loop_
_space_group_symop_operation_xyz
x,y,z
-x,-y,-z
loop_
_atom_site_type_symbol
_atom_site_label
_atom_site_fract_x
_atom_site_fract_y
_atom_site_fract_z
Si Si1 0.954250 0.642822 0.769709
Si Si2 0.567183 0.737825 0.928784
Si Si3 0.183153 0.000028 0.422331
Si Si4 0.554936 0.060070 0.755999
Si Si5 0.277072 0.134423 0.669708
Si Si6 0.086165 0.962736 0.133294
Si Si7 0.874865 0.422010 0.000790
O O1 0.727344 0.370416 0.868470
O O2 0.000000 0.500000 0.500000
O O3 0.043606 0.861963 0.762474
O O4 0.068999 0.844145 0.913233
O O5 0.692372 0.863010 0.745809
O O6 0.380727 0.411680 0.859156
O O7 0.702413 0.815256 0.903098
O O8 0.511364 0.882487 0.184423
O O9 0.309698 0.177540 0.527022
O O10 0.010698 0.953164 0.632026
O O11 0.097429 0.711561 0.269269
O O12 0.632465 0.947090 0.504953
O O13 0.357145 0.822974 0.883359
O O14 0.950875 0.693293 0.137882
O O15 0.000000 0.500000 0.000000
#
# Coordination Sequence:
#
# PCOD9029377 Si02
#       7
#     2   2   2   2   2   2   2
#     4  10  24  46  66  92 131 182 224 267 311 395
#     4  11  24  39  66 103 130 169 216 275 333 384
#     4  11  24  40  67 101 134 172 215 272 327 395
#     4  10  22  42  67  91 129 172 218 268 320 387
#     4  11  24  43  65  93 136 177 225 257 324 384
#     4  12  24  42  68  98 139 165 220 274 328 387
#     4  11  22  40  67  99 132 165 208 273 340 379
#
# _framework density 23.119475999999999
#
# number of rings (size 3 to 8) (size 9 to 14) (size 15 to 20)
#    0.000    1.143    2.857    4.286    2.000    9.143 
#    0.000    2.857    0.000    0.000    0.000    0.000 
#    0.000    0.000    0.000    0.000    0.000    0.000 
#
# Total GULP energy -78102.748211 kJ/mol
# GULP energy per Si atom -5578.767729 kJ/mol
# Density = 2.306686 g / cm^3
# Si number density = 23.119476 Si / 1000 Ang^3
#
#
#
# Elastic Constant Matrix: (Units=GPa)
#
#
# Indices 1 2 3 4 5 6 
#
# 1 24.4918 31.3070 21.0706 -20.9893 -17.2513 3.5467
# 2 31.3070 93.6560 18.2545 14.0330 3.2753 7.3249
# 3 21.0706 18.2545 73.1259 3.5577 -36.2127 5.7683
# 4 -20.9893 14.0330 3.5577 23.7060 -7.6683 -5.7443
# 5 -17.2513 3.2753 -36.2127 -7.6683 54.1308 5.8693
# 6 3.5467 7.3249 5.7683 -5.7443 5.8693 26.5397
#
#
#
# Elastic Compliance Matrix: (Units=1/GPa)
#
#
# Indices 1 2 3 4 5 6 
#
# 1 -0.030004 0.018127 -0.001910 -0.044195 -0.017518 -0.006270
# 2 0.018127 0.002716 -0.004173 0.016797 0.005176 0.000226
# 3 -0.001910 -0.004173 0.024045 0.000775 0.016634 -0.007330
# 4 -0.044195 0.016797 0.000775 -0.011811 -0.016494 0.002193
# 5 -0.017518 0.005176 0.016634 -0.016494 0.022591 -0.011269
# 6 -0.006270 0.000226 -0.007330 0.002193 -0.011269 0.043015
#
#
# Mechanical properties :
#
#
# Convention : Reuss Voigt Hill
#
# Bulk Modulus (GPa) = 47.97271 36.94866 42.46068
# Shear Modulus (GPa) = 149.65152 28.91806 89.28479
#
# Velocity S-wave (km/s) = 8.05420 3.54052 6.22115
# Velocity P-wave (km/s) = 10.35802 5.72101 8.36715
#
# Compressibility (1/GPa) = 0.02084519
#
# Stress axis : x y z
#
# Youngs Moduli (GPa) = -33.32868 368.22304 41.58902
#
# Poissons Ratio (x) = -6.67477 0.07943
# Poissons Ratio (y) = 0.60415 0.17354
# Poissons Ratio (z) = -0.06365 1.53652
#
# Static dielectric constant tensor:
#      x y z
#    x 1.938520 -0.019170 0.017710 
#    y -0.019170 1.938470 -0.070070 
#    z 0.017710 -0.070070 1.922270 
# 
# From -- ./inp_files/263813.got.cif
#   From: 2010.05.17/outbox.cif.g08.bks.cpg/sg2_132_cif.got.tgz:263813.got - 2010.06.03 11:33:40.
