data_PCOD9029060
_publ_section_title
;
Structure prediction by ZEFSAII (Michael W. Deem and Ramdas Pophale) SiO2 
 PCOD9029060
Probable space group: P -1
;
_chemical_formula_sum "Si O2"
_cell_formula_units_Z 16
_cell_length_a 12.437174
_cell_length_b 10.219057
_cell_length_c 8.011811
_cell_angle_alpha 62.253573
_cell_angle_beta 82.873495
_cell_angle_gamma 121.631437
_cell_volume 669.454025
_symmetry_space_group_name_H-M "P -1"
_symmetry_group_IT_number 2
_symmetry_cell_setting 'triclinic'
loop_
_space_group_symop_operation_xyz
x,y,z
-x,-y,-z
loop_
_atom_site_type_symbol
_atom_site_label
_atom_site_fract_x
_atom_site_fract_y
_atom_site_fract_z
Si Si1 0.863025 0.038802 0.390029
Si Si2 0.387951 0.487235 0.907611
Si Si3 0.428744 0.982700 0.199768
Si Si4 0.978549 0.154648 0.938716
Si Si5 0.842457 0.682974 0.666010
Si Si6 0.428110 0.116714 0.564813
Si Si7 0.336337 0.155560 0.921157
Si Si8 0.145907 0.538665 0.481511
O O1 0.813942 0.822375 0.517528
O O2 0.721340 0.010308 0.433555
O O3 0.982923 0.162660 0.435947
O O4 0.947843 0.153574 0.137817
O O5 0.458883 0.688769 0.680073
O O6 0.340774 0.329557 0.866203
O O7 0.500000 0.500000 0.000000
O O8 0.250914 0.406181 0.095232
O O9 0.527329 0.005893 0.312055
O O10 0.276103 0.761171 0.377458
O O11 0.500000 0.000000 0.000000
O O12 0.408158 0.135770 0.075371
O O13 0.103001 0.372050 0.718788
O O14 0.827497 0.051660 0.935694
O O15 0.000000 0.000000 0.000000
O O16 0.804344 0.510771 0.659989
O O17 0.403177 0.179548 0.711902
O O18 0.000000 0.500000 0.500000
#
# Coordination Sequence:
#
# PCOD9029060 Si02
#       8
#     2   2   2   2   2   2   2   2
#     4  10  22  42  66 105 137 179 226 286 352 404
#     4  12  25  40  69 110 140 179 230 294 357 403
#     4  10  24  44  72  97 139 183 239 284 344 404
#     4  11  21  39  72 103 129 175 238 284 335 411
#     4  11  25  42  69 100 147 175 224 290 358 408
#     4  10  23  43  71 104 135 187 239 282 336 429
#     4  10  23  43  70  97 139 185 233 286 340 416
#     4  12  26  46  73 101 133 187 237 282 348 419
#
# _framework density 23.900072999999999
#
# number of rings (size 3 to 8) (size 9 to 14) (size 15 to 20)
#    0.000    1.250    3.750    1.125    8.750    0.000 
#    0.000    1.250    2.750    0.000    0.000    0.000 
#    0.000    0.000    0.000    0.000    0.000    0.000 
#
# Total GULP energy -89571.176316 kJ/mol
# GULP energy per Si atom -5598.198520 kJ/mol
# Density = 2.384568 g / cm^3
# Si number density = 23.900073 Si / 1000 Ang^3
#
#
#
# Elastic Constant Matrix: (Units=GPa)
#
#
# Indices 1 2 3 4 5 6 
#
# 1 119.8640 20.7277 46.0407 -7.8586 17.6748 16.1144
# 2 20.7277 74.4713 20.3702 -0.3075 -3.1732 -14.5557
# 3 46.0407 20.3702 154.9654 -6.9648 0.5172 -10.5810
# 4 -7.8586 -0.3075 -6.9648 31.7147 1.6720 1.1944
# 5 17.6748 -3.1732 0.5172 1.6720 39.2319 3.3201
# 6 16.1144 -14.5557 -10.5810 1.1944 3.3201 36.3774
#
#
#
# Elastic Compliance Matrix: (Units=1/GPa)
#
#
# Indices 1 2 3 4 5 6 
#
# 1 0.012474 -0.004258 -0.003537 0.002852 -0.005374 -0.007862
# 2 -0.004258 0.016424 -0.000411 -0.001431 0.002624 0.008146
# 3 -0.003537 -0.000411 0.007826 0.000645 0.001129 0.003555
# 4 0.002852 -0.001431 0.000645 0.032596 -0.002588 -0.002483
# 5 -0.005374 0.002624 0.001129 -0.002588 0.028110 0.001278
# 6 -0.007862 0.008146 0.003555 -0.002483 0.001278 0.035230
#
#
# Mechanical properties :
#
#
# Convention : Reuss Voigt Hill
#
# Bulk Modulus (GPa) = 49.23263 58.17533 53.70398
# Shear Modulus (GPa) = 32.08386 38.94228 35.51307
#
# Velocity S-wave (km/s) = 3.66788 4.04094 3.85892
# Velocity P-wave (km/s) = 6.21143 6.79457 6.50953
#
# Compressibility (1/GPa) = 0.02031173
#
# Stress axis : x y z
#
# Youngs Moduli (GPa) = 80.16638 60.88817 127.78246
#
# Poissons Ratio (x) = 0.25928 0.45197
# Poissons Ratio (y) = 0.34137 0.05247
# Poissons Ratio (z) = 0.28355 0.02500
#
# Static dielectric constant tensor:
#      x y z
#    x 2.017000 -0.015540 0.019210 
#    y -0.015540 2.011920 -0.004480 
#    z 0.019210 -0.004480 1.874900 
# 
# From -- ./inp_files/261637.got.cif
#   From: 2010.05.17/outbox.cif.g08.bks.cpg/sg2_131_cif.got.tgz:261637.got - 2010.06.03 11:33:40.
