data_PCOD9029284
_publ_section_title
;
Structure prediction by ZEFSAII (Michael W. Deem and Ramdas Pophale) SiO2 
 PCOD9029284
Probable space group: P -1
;
_chemical_formula_sum "Si O2"
_cell_formula_units_Z 14
_cell_length_a 25.907700
_cell_length_b 11.626670
_cell_length_c 8.089388
_cell_angle_alpha 41.416269
_cell_angle_beta 37.048295
_cell_angle_gamma 22.780869
_cell_volume 567.417406
_symmetry_space_group_name_H-M "P -1"
_symmetry_group_IT_number 2
_symmetry_cell_setting 'triclinic'
loop_
_space_group_symop_operation_xyz
x,y,z
-x,-y,-z
loop_
_atom_site_type_symbol
_atom_site_label
_atom_site_fract_x
_atom_site_fract_y
_atom_site_fract_z
Si Si1 0.332640 0.828174 0.578583
Si Si2 0.045301 0.827133 0.323906
Si Si3 0.941456 0.833638 0.923957
Si Si4 0.393909 0.196298 0.718939
Si Si5 0.661088 0.820542 0.655848
Si Si6 0.220782 0.205429 0.962882
Si Si7 0.229025 0.836248 0.494417
O O1 0.500000 0.500000 0.500000
O O2 0.263551 0.863472 0.552404
O O3 0.333783 0.030290 0.390566
O O4 0.229348 0.921726 0.885351
O O5 0.983963 0.826496 0.641745
O O6 0.219531 0.511643 0.222536
O O7 0.943299 0.925488 0.333965
O O8 0.016146 0.075381 0.166297
O O9 0.044341 0.506804 0.071455
O O10 0.278235 0.233283 0.935951
O O11 0.317110 0.512891 0.580991
O O12 0.500000 0.000000 0.500000
O O13 0.503162 0.008773 0.799565
O O14 0.720978 0.805729 0.344676
O O15 0.268386 0.929691 0.169222
#
# Coordination Sequence:
#
# PCOD9029284 Si02
#       7
#     2   2   2   2   2   2   2
#     4  12  26  44  61  98 147 182 214 273 351 416
#     4  10  22  43  74 102 122 180 239 282 329 386
#     4  10  22  43  70 100 137 171 231 287 332 393
#     4  10  22  42  66  99 137 171 227 286 326 394
#     4  10  22  44  65  97 141 172 229 285 330 397
#     4  10  22  43  74 100 125 180 235 287 325 385
#     4  12  24  43  68  99 136 177 229 266 345 411
#
# _framework density 24.673195
#
# number of rings (size 3 to 8) (size 9 to 14) (size 15 to 20)
#    0.000    1.429    2.857    1.714    2.000    8.571 
#    5.143    1.429    0.000    0.000    0.000    0.000 
#    0.000    0.000    0.000    0.000    0.000    0.000 
#
# Total GULP energy -78344.226492 kJ/mol
# GULP energy per Si atom -5596.016178 kJ/mol
# Density = 2.461704 g / cm^3
# Si number density = 24.673195 Si / 1000 Ang^3
#
#
#
# Elastic Constant Matrix: (Units=GPa)
#
#
# Indices 1 2 3 4 5 6 
#
# 1 204.5913 53.9499 32.7666 -17.1216 -18.6490 -11.0905
# 2 53.9499 131.7326 38.6745 -3.4543 -8.8031 -12.1590
# 3 32.7666 38.6745 75.8681 2.8007 -12.2142 1.5261
# 4 -17.1216 -3.4543 2.8007 33.5860 2.6262 -13.0714
# 5 -18.6490 -8.8031 -12.2142 2.6262 36.7924 -0.5785
# 6 -11.0905 -12.1590 1.5261 -13.0714 -0.5785 45.5941
#
#
#
# Elastic Compliance Matrix: (Units=1/GPa)
#
#
# Indices 1 2 3 4 5 6 
#
# 1 0.006214 -0.001588 -0.001750 0.003888 0.001947 0.002286
# 2 -0.001588 0.009862 -0.004462 0.001698 -0.000003 0.002880
# 3 -0.001750 -0.004462 0.017083 -0.004411 0.003978 -0.003402
# 4 0.003888 0.001698 -0.004411 0.037160 -0.001548 0.012180
# 5 0.001947 -0.000003 0.003978 -0.001548 0.029601 0.000271
# 6 0.002286 0.002880 -0.003402 0.012180 0.000271 0.026866
#
#
# Mechanical properties :
#
#
# Convention : Reuss Voigt Hill
#
# Bulk Modulus (GPa) = 56.95581 73.66377 65.30979
# Shear Modulus (GPa) = 33.72955 42.31458 38.02207
#
# Velocity S-wave (km/s) = 3.70138 4.14575 3.92985
# Velocity P-wave (km/s) = 6.43437 7.26890 6.86433
#
# Compressibility (1/GPa) = 0.01755747
#
# Stress axis : x y z
#
# Youngs Moduli (GPa) = 160.93952 101.40309 58.53784
#
# Poissons Ratio (x) = 0.16101 0.10245
# Poissons Ratio (y) = 0.25555 0.26121
# Poissons Ratio (z) = 0.28167 0.45249
#
# Static dielectric constant tensor:
#      x y z
#    x 1.822340 -0.250300 0.263040 
#    y -0.250300 1.508640 0.472910 
#    z 0.263040 0.472910 1.615660 
# 
# From -- ./inp_files/212814.got.cif
#   From: 2010.05.17/outbox.cif.g08.bks.cpg/sg2_107_cif.got.tgz:212814.got - 2010.06.03 11:33:40.
