data_PCOD9029213
_publ_section_title
;
Structure prediction by ZEFSAII (Michael W. Deem and Ramdas Pophale) SiO2 
 PCOD9029213
Probable space group: P -1
;
_chemical_formula_sum "Si O2"
_cell_formula_units_Z 14
_cell_length_a 8.628738
_cell_length_b 12.084057
_cell_length_c 12.429336
_cell_angle_alpha 45.239818
_cell_angle_beta 85.226879
_cell_angle_gamma 118.075959
_cell_volume 608.719360
_symmetry_space_group_name_H-M "P -1"
_symmetry_group_IT_number 2
_symmetry_cell_setting 'triclinic'
loop_
_space_group_symop_operation_xyz
x,y,z
-x,-y,-z
loop_
_atom_site_type_symbol
_atom_site_label
_atom_site_fract_x
_atom_site_fract_y
_atom_site_fract_z
Si Si1 0.744679 0.843487 0.485681
Si Si2 0.189175 0.097927 0.787403
Si Si3 0.289251 0.648563 0.127635
Si Si4 0.877968 0.138183 0.476358
Si Si5 0.347561 0.296887 0.864518
Si Si6 0.156322 0.439085 0.519996
Si Si7 0.346615 0.871126 0.302902
O O1 0.773312 0.950215 0.297392
O O2 0.957420 0.876164 0.470405
O O3 0.507075 0.568190 0.676048
O O4 0.750827 0.963348 0.503586
O O5 0.339020 0.197422 0.819127
O O6 0.216899 0.304589 0.619992
O O7 0.919790 0.864386 0.989917
O O8 0.065481 0.411370 0.241899
O O9 0.519752 0.714283 0.051070
O O10 0.212815 0.554787 0.319622
O O11 0.402017 0.897878 0.920866
O O12 0.704641 0.085787 0.609285
O O13 0.285603 0.642021 0.461016
O O14 0.874089 0.235498 0.684965
#
# Coordination Sequence:
#
# PCOD9029213 Si02
#       7
#     2   2   2   2   2   2   2
#     4  10  18  33  48  71 100 127 158 199 235 288
#     4  11  19  33  48  77  98 124 160 198 237 291
#     4  10  17  32  49  76  96 126 158 197 241 284
#     4   9  19  31  49  71  98 129 160 191 242 282
#     4  10  20  30  52  73  98 126 158 197 246 277
#     4  10  19  29  49  71 102 125 159 193 241 283
#     4  10  18  32  47  72 102 127 154 200 233 288
#
# _framework density 22.999106000000001
#
# number of rings (size 3 to 8) (size 9 to 14) (size 15 to 20)
#    0.000    2.000    5.714    0.857    0.000    1.143 
#    0.000    4.286    0.000    0.857    0.000    3.000 
#    0.000    0.000    0.000    0.000    0.000    0.000 
#
# Total GULP energy -78107.079009 kJ/mol
# GULP energy per Si atom -5579.077072 kJ/mol
# Density = 2.294676 g / cm^3
# Si number density = 22.999106 Si / 1000 Ang^3
#
#
#
# Elastic Constant Matrix: (Units=GPa)
#
#
# Indices 1 2 3 4 5 6 
#
# 1 20.7069 14.6317 6.0556 -2.0054 -0.1279 1.6179
# 2 14.6317 168.7151 54.3589 -9.7183 -10.3369 -17.7451
# 3 6.0556 54.3589 124.5050 -21.6508 -13.8039 4.5077
# 4 -2.0054 -9.7183 -21.6508 26.2252 3.9307 -4.2263
# 5 -0.1279 -10.3369 -13.8039 3.9307 25.8804 -1.8643
# 6 1.6179 -17.7451 4.5077 -4.2263 -1.8643 29.4784
#
#
#
# Elastic Compliance Matrix: (Units=1/GPa)
#
#
# Indices 1 2 3 4 5 6 
#
# 1 0.052608 -0.005236 -0.000089 0.001424 -0.002526 -0.005981
# 2 -0.005236 0.008192 -0.003216 0.000656 0.001858 0.005922
# 3 -0.000089 -0.003216 0.011140 0.007101 0.003405 -0.002401
# 4 0.001424 0.000656 0.007101 0.045620 -0.002468 0.005615
# 5 -0.002526 0.001858 0.003405 -0.002468 0.041778 0.003024
# 6 -0.005981 0.005922 -0.002401 0.005615 0.003024 0.039180
#
#
# Mechanical properties :
#
#
# Convention : Reuss Voigt Hill
#
# Bulk Modulus (GPa) = 18.22872 51.55770 34.89321
# Shear Modulus (GPa) = 21.37806 32.24218 26.81012
#
# Velocity S-wave (km/s) = 3.05211 3.74824 3.41794
# Velocity P-wave (km/s) = 4.51259 6.41859 5.54806
#
# Compressibility (1/GPa) = 0.05485850
#
# Stress axis : x y z
#
# Youngs Moduli (GPa) = 19.00844 122.07107 89.77004
#
# Poissons Ratio (x) = 0.63912 0.00796
# Poissons Ratio (y) = 0.09952 0.28873
# Poissons Ratio (z) = 0.00168 0.39262
#
# Static dielectric constant tensor:
#      x y z
#    x 2.009620 -0.040210 0.003640 
#    y -0.040210 1.861560 0.024880 
#    z 0.003640 0.024880 1.922710 
# 
# From -- ./inp_files/423446.got.cif
#   From: 2010.05.17/outbox.cif.g08.bks.cpg/sg2_212_cif.got.tgz:423446.got - 2010.06.03 11:33:40.
