data_PCOD9029430
_publ_section_title
;
Structure prediction by ZEFSAII (Michael W. Deem and Ramdas Pophale) SiO2 
 PCOD9029430
Probable space group: P -1
;
_chemical_formula_sum "Si O2"
_cell_formula_units_Z 16
_cell_length_a 14.193455
_cell_length_b 6.876155
_cell_length_c 7.854432
_cell_angle_alpha 66.050741
_cell_angle_beta 77.071271
_cell_angle_gamma 78.815859
_cell_volume 678.214167
_symmetry_space_group_name_H-M "P -1"
_symmetry_group_IT_number 2
_symmetry_cell_setting 'triclinic'
loop_
_space_group_symop_operation_xyz
x,y,z
-x,-y,-z
loop_
_atom_site_type_symbol
_atom_site_label
_atom_site_fract_x
_atom_site_fract_y
_atom_site_fract_z
Si Si1 0.977142 0.704224 0.195039
Si Si2 0.318525 0.298620 0.193808
Si Si3 0.073963 0.950544 0.332228
Si Si4 0.389227 0.951791 0.059557
Si Si5 0.364190 0.341378 0.698313
Si Si6 0.188248 0.488765 0.493257
Si Si7 0.537989 0.523209 0.729001
Si Si8 0.140183 0.384488 0.065535
O O1 0.910936 0.618235 0.400882
O O2 0.013186 0.913815 0.195842
O O3 0.074306 0.564271 0.135492
O O4 0.906232 0.662122 0.080612
O O5 0.252368 0.368999 0.358943
O O6 0.429108 0.341232 0.175132
O O7 0.252586 0.420812 0.027569
O O8 0.334610 0.057160 0.208579
O O9 0.148077 0.736065 0.395843
O O10 0.130290 0.155895 0.233714
O O11 0.000000 0.000000 0.500000
O O12 0.393904 0.699349 0.175633
O O13 0.500000 0.000000 0.000000
O O14 0.350751 0.102027 0.859888
O O15 0.261933 0.459763 0.633359
O O16 0.430381 0.462830 0.758921
O O17 0.430867 0.350422 0.496526
#
# Coordination Sequence:
#
# PCOD9029430 Si02
#       8
#     2   2   2   2   2   2   2   2
#     4  11  23  44  61  96 134 169 219 281 339 391
#     4  11  23  40  68  97 129 178 222 273 338 399
#     4  12  23  41  68  92 131 180 221 272 340 397
#     4  10  22  42  67  94 130 175 223 277 337 398
#     4   9  20  41  65  95 132 169 220 277 323 404
#     4  11  22  42  64  94 134 172 223 275 330 399
#     4   9  21  43  68  91 134 175 217 278 339 395
#     4  11  24  40  68  94 134 171 221 280 329 404
#
# _framework density 23.591366000000001
#
# number of rings (size 3 to 8) (size 9 to 14) (size 15 to 20)
#    0.000    1.500    2.500    2.250    3.500    2.000 
#    0.000   18.125    5.500    0.000    0.000    0.000 
#    0.000    0.000    0.000    0.000    0.000    0.000 
#
# Total GULP energy -89095.856868 kJ/mol
# GULP energy per Si atom -5568.491054 kJ/mol
# Density = 2.353767 g / cm^3
# Si number density = 23.591366 Si / 1000 Ang^3
#
#
#
# Elastic Constant Matrix: (Units=GPa)
#
#
# Indices 1 2 3 4 5 6 
#
# 1 136.3344 4.8186 25.1787 24.3168 15.5579 12.1330
# 2 4.8186 81.1225 42.4561 26.5161 -6.6158 5.2415
# 3 25.1787 42.4561 95.3611 15.4507 13.0900 0.7499
# 4 24.3168 26.5161 15.4507 33.4293 3.1708 3.9173
# 5 15.5579 -6.6158 13.0900 3.1708 47.6162 7.2933
# 6 12.1330 5.2415 0.7499 3.9173 7.2933 39.7338
#
#
#
# Elastic Compliance Matrix: (Units=1/GPa)
#
#
# Indices 1 2 3 4 5 6 
#
# 1 0.009454 0.003511 -0.002593 -0.008097 -0.000994 -0.002320
# 2 0.003511 0.023300 -0.009407 -0.016882 0.006331 -0.003466
# 3 -0.002593 -0.009407 0.015695 0.002306 -0.005308 0.002483
# 4 -0.008097 -0.016882 0.002306 0.048410 -0.003642 0.000552
# 5 -0.000994 0.006331 -0.005308 -0.003642 0.024610 -0.004590
# 6 -0.002320 -0.003466 0.002483 0.000552 -0.004590 0.027074
#
#
# Mechanical properties :
#
#
# Convention : Reuss Voigt Hill
#
# Bulk Modulus (GPa) = 31.77543 50.85831 41.31687
# Shear Modulus (GPa) = 28.40729 40.18015 34.29372
#
# Velocity S-wave (km/s) = 3.47384 4.13143 3.81682
# Velocity P-wave (km/s) = 5.43952 6.66056 6.08077
#
# Compressibility (1/GPa) = 0.03147085
#
# Stress axis : x y z
#
# Youngs Moduli (GPa) = 105.77813 42.91808 63.71590
#
# Poissons Ratio (x) = -0.15068 0.16519
# Poissons Ratio (y) = -0.37137 0.59938
# Poissons Ratio (z) = 0.27425 0.40374
#
# Static dielectric constant tensor:
#      x y z
#    x 1.935230 0.010260 0.035100 
#    y 0.010260 1.877080 0.023730 
#    z 0.035100 0.023730 2.068040 
# 
# From -- ./inp_files/288453.got.cif
#   From: 2010.05.17/outbox.cif.g08.bks.cpg/sg2_145_cif.got.tgz:288453.got - 2010.06.03 11:33:40.
