data_PCOD9029885
_publ_section_title
;
Structure prediction by ZEFSAII (Michael W. Deem and Ramdas Pophale) SiO2 
 PCOD9029885
Probable space group: P -1
;
_chemical_formula_sum "Si O2"
_cell_formula_units_Z 12
_cell_length_a 4.852209
_cell_length_b 7.364328
_cell_length_c 18.874658
_cell_angle_alpha 55.190580
_cell_angle_beta 56.888493
_cell_angle_gamma 69.047957
_cell_volume 462.809700
_symmetry_space_group_name_H-M "P -1"
_symmetry_group_IT_number 2
_symmetry_cell_setting 'triclinic'
loop_
_space_group_symop_operation_xyz
x,y,z
-x,-y,-z
loop_
_atom_site_type_symbol
_atom_site_label
_atom_site_fract_x
_atom_site_fract_y
_atom_site_fract_z
Si Si1 0.195549 0.303602 0.930546
Si Si2 0.845047 0.814508 0.327046
Si Si3 0.486041 0.151575 0.064081
Si Si4 0.325892 0.528547 0.399985
Si Si5 0.317439 0.105747 0.402592
Si Si6 0.444431 0.783224 0.797724
O O1 0.309081 0.547879 0.849283
O O2 0.426886 0.108927 0.904666
O O3 0.221874 0.249836 0.022888
O O4 0.823037 0.267411 0.968873
O O5 0.644410 0.606158 0.377671
O O6 0.798517 0.269478 0.678956
O O7 0.625854 0.925299 0.396693
O O8 0.815147 0.006040 0.229383
O O9 0.437632 0.208835 0.140271
O O10 0.397453 0.312844 0.391828
O O11 0.000000 0.500000 0.500000
O O12 0.280010 0.176130 0.309632
O O13 0.000000 0.000000 0.500000
#
# Coordination Sequence:
#
# PCOD9029885 Si02
#       6
#     2   2   2   2   2   2
#     4  10  22  42  68  98 131 177 219 283 340 411
#     4  10  27  41  67 101 130 181 226 284 334 409
#     4  10  22  42  68  98 134 171 226 276 347 405
#     4  12  23  46  69  92 136 182 230 285 339 391
#     4  10  24  46  68 104 137 184 232 280 340 407
#     4  10  23  43  67 101 138 177 228 282 337 410
#
# _framework density 25.928581000000001
#
# number of rings (size 3 to 8) (size 9 to 14) (size 15 to 20)
#    1.000    0.667    1.667    1.500    2.333    4.667 
#    6.000    0.000    0.000    0.000    0.000    0.000 
#    0.000    0.000    0.000    0.000    0.000    0.000 
#
# Total GULP energy -67309.911577 kJ/mol
# GULP energy per Si atom -5609.159298 kJ/mol
# Density = 2.586957 g / cm^3
# Si number density = 25.928581 Si / 1000 Ang^3
#
#
#
# Elastic Constant Matrix: (Units=GPa)
#
#
# Indices 1 2 3 4 5 6 
#
# 1 84.3569 24.4017 0.6229 -0.7102 0.8234 5.4554
# 2 24.4017 183.8749 39.2829 -0.9576 0.0262 26.3781
# 3 0.6229 39.2829 133.7739 -6.5106 5.9620 8.5239
# 4 -0.7102 -0.9576 -6.5106 41.6801 5.2034 -0.1984
# 5 0.8234 0.0262 5.9620 5.2034 28.6913 -4.2941
# 6 5.4554 26.3781 8.5239 -0.1984 -4.2941 32.9769
#
#
#
# Elastic Compliance Matrix: (Units=1/GPa)
#
#
# Indices 1 2 3 4 5 6 
#
# 1 0.012390 -0.001614 0.000525 0.000335 -0.000671 -0.000980
# 2 -0.001614 0.006676 -0.001647 -0.000116 -0.000298 -0.004687
# 3 0.000525 -0.001647 0.008201 0.001517 -0.002167 -0.001162
# 4 0.000335 -0.000116 0.001517 0.024847 -0.004958 -0.000851
# 5 -0.000671 -0.000298 -0.002167 -0.004958 0.037077 0.005708
# 6 -0.000980 -0.004687 -0.001162 -0.000851 0.005708 0.035274
#
#
# Mechanical properties :
#
#
# Convention : Reuss Voigt Hill
#
# Bulk Modulus (GPa) = 45.88081 58.95787 52.41934
# Shear Modulus (GPa) = 36.44241 43.18287 39.81264
#
# Velocity S-wave (km/s) = 3.75306 4.08543 3.92276
# Velocity P-wave (km/s) = 6.04269 6.71135 6.38578
#
# Compressibility (1/GPa) = 0.02179560
#
# Stress axis : x y z
#
# Youngs Moduli (GPa) = 80.70948 149.78288 121.93797
#
# Poissons Ratio (x) = 0.24175 -0.06400
# Poissons Ratio (y) = 0.13027 0.20080
# Poissons Ratio (z) = -0.04236 0.24665
#
# Static dielectric constant tensor:
#      x y z
#    x 1.999420 -0.043510 0.006090 
#    y -0.043510 1.989040 -0.008170 
#    z 0.006090 -0.008170 2.099960 
# 
# From -- ./inp_files/86144.got.cif
#   From: 2010.05.17/outbox.cif.g08.bks.cpg/sg2_44_cif.got.tgz:86144.got - 2010.06.03 11:33:40.
