data_PCOD9029112
_publ_section_title
;
Structure prediction by ZEFSAII (Michael W. Deem and Ramdas Pophale) SiO2 
 PCOD9029112
Probable space group: P -1
;
_chemical_formula_sum "Si O2"
_cell_formula_units_Z 12
_cell_length_a 9.074381
_cell_length_b 12.491509
_cell_length_c 8.847432
_cell_angle_alpha 35.519292
_cell_angle_beta 80.461227
_cell_angle_gamma 66.325471
_cell_volume 508.566731
_symmetry_space_group_name_H-M "P -1"
_symmetry_group_IT_number 2
_symmetry_cell_setting 'triclinic'
loop_
_space_group_symop_operation_xyz
x,y,z
-x,-y,-z
loop_
_atom_site_type_symbol
_atom_site_label
_atom_site_fract_x
_atom_site_fract_y
_atom_site_fract_z
Si Si1 0.156489 0.832006 0.300055
Si Si2 0.930073 0.658529 0.633948
Si Si3 0.275262 0.256440 0.143973
Si Si4 0.777858 0.483125 0.607573
Si Si5 0.468231 0.499416 0.828030
Si Si6 0.674090 0.898921 0.991898
O O1 0.165622 0.724718 0.260333
O O2 0.306982 0.683771 0.559797
O O3 0.989411 0.834494 0.393922
O O4 0.195618 0.025167 0.054156
O O5 0.769416 0.762865 0.653265
O O6 0.885229 0.550993 0.624236
O O7 0.098323 0.461082 0.896831
O O8 0.317051 0.078214 0.217146
O O9 0.430865 0.304905 0.043336
O O10 0.624750 0.495089 0.718870
O O11 0.727923 0.658195 0.286658
O O12 0.500000 0.500000 0.000000
O O13 0.500000 0.000000 0.000000
#
# Coordination Sequence:
#
# PCOD9029112 Si02
#       6
#     2   2   2   2   2   2
#     4  11  24  41  66  95 130 169 212 261 323 379
#     4  10  22  42  66  95 126 175 208 263 322 375
#     4  10  22  42  66  92 134 164 216 263 316 382
#     4  12  22  42  68  94 130 166 218 264 316 381
#     4  11  20  39  66  92 121 170 214 256 315 374
#     4  12  24  41  67  96 131 169 210 268 318 375
#
# _framework density 23.595723
#
# number of rings (size 3 to 8) (size 9 to 14) (size 15 to 20)
#    0.000    1.000    6.667    2.000    0.000    1.333 
#    0.000    5.000    0.000    0.000    0.000    0.000 
#    0.000    0.000    0.000    0.000    0.000    0.000 
#
# Total GULP energy -66922.390026 kJ/mol
# GULP energy per Si atom -5576.865836 kJ/mol
# Density = 2.354202 g / cm^3
# Si number density = 23.595723 Si / 1000 Ang^3
#
#
#
# Elastic Constant Matrix: (Units=GPa)
#
#
# Indices 1 2 3 4 5 6 
#
# 1 134.5687 51.9727 36.2539 5.5363 -35.4754 15.8077
# 2 51.9727 143.6370 30.7870 16.3105 -24.6820 13.7151
# 3 36.2539 30.7870 44.2499 12.1838 -19.7390 -3.6952
# 4 5.5363 16.3105 12.1838 33.8822 8.9243 -14.9327
# 5 -35.4754 -24.6820 -19.7390 8.9243 52.4261 2.0520
# 6 15.8077 13.7151 -3.6952 -14.9327 2.0520 41.1141
#
#
#
# Elastic Compliance Matrix: (Units=1/GPa)
#
#
# Indices 1 2 3 4 5 6 
#
# 1 0.011976 -0.000893 -0.005721 -0.004102 0.006487 -0.006635
# 2 -0.000893 0.010170 -0.002544 -0.007926 0.004826 -0.006398
# 3 -0.005721 -0.002544 0.038358 -0.014455 0.011808 0.000656
# 4 -0.004102 -0.007926 -0.014455 0.055813 -0.022402 0.024312
# 5 0.006487 0.004826 0.011808 -0.022402 0.034501 -0.012901
# 6 -0.006635 -0.006398 0.000656 0.024312 -0.012901 0.038540
#
#
# Mechanical properties :
#
#
# Convention : Reuss Voigt Hill
#
# Bulk Modulus (GPa) = 23.70287 62.27587 42.98937
# Shear Modulus (GPa) = 22.54928 39.04730 30.79829
#
# Velocity S-wave (km/s) = 3.09471 4.07239 3.61674
# Velocity P-wave (km/s) = 4.77880 6.96869 5.97493
#
# Compressibility (1/GPa) = 0.04218898
#
# Stress axis : x y z
#
# Youngs Moduli (GPa) = 83.50333 98.32393 26.07000
#
# Poissons Ratio (x) = 0.08779 0.14915
# Poissons Ratio (y) = 0.07456 0.06632
# Poissons Ratio (z) = 0.47772 0.25011
#
# Static dielectric constant tensor:
#      x y z
#    x 1.912230 0.037780 0.081970 
#    y 0.037780 2.049350 0.074140 
#    z 0.081970 0.074140 1.978780 
# 
# From -- ./inp_files/152170.got.cif
#   From: 2010.05.17/outbox.cif.g08.bks.cpg/sg2_77_cif.got.tgz:152170.got - 2010.06.03 11:33:40.
