data_PCOD9029679
_publ_section_title
;
Structure prediction by ZEFSAII (Michael W. Deem and Ramdas Pophale) SiO2 
 PCOD9029679
Probable space group: P -1
;
_chemical_formula_sum "Si O2"
_cell_formula_units_Z 16
_cell_length_a 16.496851
_cell_length_b 7.367827
_cell_length_c 7.925885
_cell_angle_alpha 122.396234
_cell_angle_beta 112.911610
_cell_angle_gamma 49.220976
_cell_volume 614.784126
_symmetry_space_group_name_H-M "P -1"
_symmetry_group_IT_number 2
_symmetry_cell_setting 'triclinic'
loop_
_space_group_symop_operation_xyz
x,y,z
-x,-y,-z
loop_
_atom_site_type_symbol
_atom_site_label
_atom_site_fract_x
_atom_site_fract_y
_atom_site_fract_z
Si Si1 0.628141 0.326060 0.997695
Si Si2 0.921135 0.631546 0.768158
Si Si3 0.012649 0.850934 0.765253
Si Si4 0.155390 0.198484 0.856764
Si Si5 0.257681 0.399568 0.809730
Si Si6 0.862230 0.237860 0.555379
Si Si7 0.363574 0.564594 0.553781
Si Si8 0.603492 0.111252 0.540633
O O1 0.643808 0.125593 0.764910
O O2 0.500000 0.500000 0.000000
O O3 0.678896 0.471829 0.031778
O O4 0.659413 0.296403 0.208756
O O5 0.895654 0.422445 0.604908
O O6 0.932335 0.759048 0.675075
O O7 0.041927 0.470879 0.857196
O O8 0.844935 0.820720 0.950591
O O9 0.139961 0.629022 0.761021
O O10 0.952263 0.074004 0.687597
O O11 0.000000 0.000000 0.000000
O O12 0.238385 0.251308 0.867985
O O13 0.143142 0.982552 0.655151
O O14 0.329910 0.183438 0.618960
O O15 0.736403 0.435875 0.592249
O O16 0.473874 0.277108 0.518021
O O17 0.376746 0.729392 0.504253
#
# Coordination Sequence:
#
# PCOD9029679 Si02
#       8
#     2   2   2   2   2   2   2   2
#     4  10  25  48  78 113 151 203 261 329 395 465
#     4  10  24  45  71 104 146 209 252 307 399 454
#     4  11  27  48  76 111 159 209 260 323 390 475
#     4  10  22  42  68 103 148 190 255 313 368 471
#     4  11  24  46  78 113 148 208 265 311 402 476
#     4  12  24  47  72 108 157 194 255 325 374 468
#     4  10  24  47  77 112 149 202 256 326 393 463
#     4  10  23  52  78 105 156 198 260 330 389 466
#
# _framework density 26.025397000000002
#
# number of rings (size 3 to 8) (size 9 to 14) (size 15 to 20)
#    0.000    1.500    1.250    2.625    3.500    8.000 
#    0.000   14.375    0.000    0.000    0.000    0.000 
#    0.000    0.000    0.000    0.000    0.000    0.000 
#
# Total GULP energy -89501.259797 kJ/mol
# GULP energy per Si atom -5593.828737 kJ/mol
# Density = 2.596616 g / cm^3
# Si number density = 26.025397 Si / 1000 Ang^3
#
#
#
# Elastic Constant Matrix: (Units=GPa)
#
#
# Indices 1 2 3 4 5 6 
#
# 1 185.7156 51.9853 14.9641 2.3477 17.8898 -0.9381
# 2 51.9853 104.8999 26.9749 0.1896 10.6675 -18.3668
# 3 14.9641 26.9749 108.1687 15.8247 -7.3593 -21.8342
# 4 2.3477 0.1896 15.8247 39.1016 2.3421 2.8355
# 5 17.8898 10.6675 -7.3593 2.3421 40.2545 4.3263
# 6 -0.9381 -18.3668 -21.8342 2.8355 4.3263 58.0714
#
#
#
# Elastic Compliance Matrix: (Units=1/GPa)
#
#
# Indices 1 2 3 4 5 6 
#
# 1 0.006463 -0.003029 -0.000454 -0.000003 -0.002059 -0.000871
# 2 -0.003029 0.012487 -0.002399 0.001031 -0.002801 0.003157
# 3 -0.000454 -0.002399 0.011574 -0.005079 0.002860 0.003621
# 4 -0.000003 0.001031 -0.005079 0.027977 -0.002531 -0.002761
# 5 -0.002059 -0.002801 0.002860 -0.002531 0.027358 -0.001758
# 6 -0.000871 0.003157 0.003621 -0.002761 -0.001758 0.019832
#
#
# Mechanical properties :
#
#
# Convention : Reuss Voigt Hill
#
# Bulk Modulus (GPa) = 53.30667 65.18142 59.24404
# Shear Modulus (GPa) = 40.41751 47.80949 44.11350
#
# Velocity S-wave (km/s) = 3.94509 4.29071 4.12153
# Velocity P-wave (km/s) = 6.42485 7.04604 6.74260
#
# Compressibility (1/GPa) = 0.01875938
#
# Stress axis : x y z
#
# Youngs Moduli (GPa) = 154.72521 80.08560 86.39757
#
# Poissons Ratio (x) = 0.24260 0.03923
# Poissons Ratio (y) = 0.46870 0.20727
# Poissons Ratio (z) = 0.07026 0.19213
#
# Static dielectric constant tensor:
#      x y z
#    x 2.160880 -0.010800 -0.127110 
#    y -0.010800 2.126720 -0.002260 
#    z -0.127110 -0.002260 2.087500 
# 
# From -- ./inp_files/299870.got.cif
#   From: 2010.05.17/outbox.cif.g08.bks.cpg/sg2_150_cif.got.tgz:299870.got - 2010.06.03 11:33:40.
