data_PCOD9029216
_publ_section_title
;
Structure prediction by ZEFSAII (Michael W. Deem and Ramdas Pophale) SiO2 
 PCOD9029216
Probable space group: P -1
;
_chemical_formula_sum "Si O2"
_cell_formula_units_Z 14
_cell_length_a 16.061281
_cell_length_b 15.864731
_cell_length_c 14.651364
_cell_angle_alpha 142.864791
_cell_angle_beta 17.216858
_cell_angle_gamma 147.313866
_cell_volume 596.219662
_symmetry_space_group_name_H-M "P -1"
_symmetry_group_IT_number 2
_symmetry_cell_setting 'triclinic'
loop_
_space_group_symop_operation_xyz
x,y,z
-x,-y,-z
loop_
_atom_site_type_symbol
_atom_site_label
_atom_site_fract_x
_atom_site_fract_y
_atom_site_fract_z
Si Si1 0.371458 0.050767 0.497126
Si Si2 0.073208 0.470539 0.792006
Si Si3 0.539765 0.214407 0.293174
Si Si4 0.548421 0.599950 0.126033
Si Si5 0.924273 0.825285 0.400020
Si Si6 0.037708 0.613080 0.779086
Si Si7 0.327241 0.073462 0.810217
O O1 0.314904 0.072809 0.469518
O O2 0.691789 0.210684 0.325652
O O3 0.046299 0.019407 0.860260
O O4 0.477727 0.917238 0.293726
O O5 0.402536 0.628406 0.577673
O O6 0.078875 0.305035 0.638928
O O7 0.894680 0.510943 0.932304
O O8 0.000000 0.500000 0.000000
O O9 0.409670 0.232184 0.347761
O O10 0.835541 0.179833 0.932917
O O11 0.229411 0.533032 0.459878
O O12 0.613968 0.765862 0.157898
O O13 0.500000 0.500000 0.000000
O O14 0.810182 0.619515 0.944127
O O15 0.000000 0.000000 0.500000
O O16 0.500000 0.000000 0.500000
#
# Coordination Sequence:
#
# PCOD9029216 Si02
#       7
#     2   2   2   2   2   2   2
#     4  11  23  40  70 102 129 170 239 287 335 396
#     4   9  22  44  72 100 133 178 228 279 339 406
#     4  10  22  42  66  96 135 177 225 274 333 411
#     4  12  27  47  65  96 144 185 228 273 341 416
#     4  11  22  41  66  99 140 174 216 278 344 404
#     4  11  24  43  72 100 133 181 232 283 335 405
#     4  12  24  42  69  98 132 172 228 291 344 391
#
# _framework density 23.481279000000001
#
# number of rings (size 3 to 8) (size 9 to 14) (size 15 to 20)
#    0.000    1.143    1.429    4.286    0.000    8.000 
#    7.714    0.000    0.000    0.000    0.000    0.000 
#    0.000    0.000    0.000    0.000    0.000    0.000 
#
# Total GULP energy -78021.059025 kJ/mol
# GULP energy per Si atom -5572.932788 kJ/mol
# Density = 2.342783 g / cm^3
# Si number density = 23.481279 Si / 1000 Ang^3
#
#
#
# Elastic Constant Matrix: (Units=GPa)
#
#
# Indices 1 2 3 4 5 6 
#
# 1 120.3822 59.7453 50.8892 17.9691 -18.8545 -35.4451
# 2 59.7453 118.7581 43.8304 29.6438 -11.2057 -14.6924
# 3 50.8892 43.8304 129.2630 12.5313 -25.1277 -6.3712
# 4 17.9691 29.6438 12.5313 29.0491 -5.4404 6.4692
# 5 -18.8545 -11.2057 -25.1277 -5.4404 40.8381 5.6824
# 6 -35.4451 -14.6924 -6.3712 6.4692 5.6824 42.1346
#
#
#
# Elastic Compliance Matrix: (Units=1/GPa)
#
#
# Indices 1 2 3 4 5 6 
#
# 1 0.017070 -0.003243 -0.003820 -0.008353 0.001620 0.013715
# 2 -0.003243 0.014597 -0.002464 -0.013001 -0.001319 0.004163
# 3 -0.003820 -0.002464 0.010662 0.001947 0.004855 -0.003414
# 4 -0.008353 -0.013001 0.001947 0.057426 0.004299 -0.020663
# 5 0.001620 -0.001319 0.004855 0.004299 0.028838 -0.002913
# 6 0.013715 0.004163 -0.003414 -0.020663 -0.002913 0.039772
#
#
# Mechanical properties :
#
#
# Convention : Reuss Voigt Hill
#
# Bulk Modulus (GPa) = 42.96278 75.25924 59.11101
# Shear Modulus (GPa) = 25.61761 36.66692 31.14226
#
# Velocity S-wave (km/s) = 3.30658 3.95592 3.64574
# Velocity P-wave (km/s) = 5.73710 7.27915 6.55364
#
# Compressibility (1/GPa) = 0.02327596
#
# Stress axis : x y z
#
# Youngs Moduli (GPa) = 58.58193 68.50578 93.78937
#
# Poissons Ratio (x) = 0.22218 0.35827
# Poissons Ratio (y) = 0.18999 0.23106
# Poissons Ratio (z) = 0.22378 0.16877
#
# Static dielectric constant tensor:
#      x y z
#    x 2.160490 -0.051820 0.034390 
#    y -0.051820 1.984570 -0.049980 
#    z 0.034390 -0.049980 1.909390 
# 
# From -- ./inp_files/533792.got.cif
#   From: 2010.05.17/outbox.cif.g08.bks.cpg/sg2_267_cif.got.tgz:533792.got - 2010.06.03 11:33:40.
