data_PCOD9029648
_publ_section_title
;
Structure prediction by ZEFSAII (Michael W. Deem and Ramdas Pophale) SiO2 
 PCOD9029648
Probable space group: P -1
;
_chemical_formula_sum "Si O2"
_cell_formula_units_Z 14
_cell_length_a 7.343883
_cell_length_b 15.590637
_cell_length_c 12.586275
_cell_angle_alpha 140.053023
_cell_angle_beta 47.100956
_cell_angle_gamma 144.646326
_cell_volume 529.394609
_symmetry_space_group_name_H-M "P -1"
_symmetry_group_IT_number 2
_symmetry_cell_setting 'triclinic'
loop_
_space_group_symop_operation_xyz
x,y,z
-x,-y,-z
loop_
_atom_site_type_symbol
_atom_site_label
_atom_site_fract_x
_atom_site_fract_y
_atom_site_fract_z
Si Si1 0.149681 0.460200 0.497322
Si Si2 0.080983 0.974540 0.123179
Si Si3 0.722207 0.577195 0.244904
Si Si4 0.221374 0.147805 0.659019
Si Si5 0.362219 0.934222 0.611956
Si Si6 0.785678 0.273859 0.121443
Si Si7 0.711542 0.406672 0.895662
O O1 0.479038 0.512664 0.375229
O O2 0.204311 0.589391 0.685758
O O3 0.000000 0.500000 0.500000
O O4 0.926409 0.266642 0.444770
O O5 0.062876 0.978550 0.264661
O O6 0.422922 0.135667 0.097937
O O7 0.102167 0.822024 0.953021
O O8 0.791668 0.975873 0.204190
O O9 0.772210 0.732204 0.313045
O O10 0.060782 0.638377 0.207549
O O11 0.574422 0.420329 0.071824
O O12 0.343257 0.058986 0.460340
O O13 0.484195 0.289323 0.778191
O O14 0.500000 0.000000 0.500000
O O15 0.049249 0.393305 0.042492
#
# Coordination Sequence:
#
# PCOD9029648 Si02
#       7
#     2   2   2   2   2   2   2
#     4  12  24  42  74 108 143 187 244 304 356 431
#     4  10  24  41  69  99 145 189 240 290 357 439
#     4  11  24  39  67 111 140 170 250 310 342 427
#     4  11  21  44  72  98 142 193 236 294 360 429
#     4  10  22  42  68 101 138 188 236 287 361 426
#     4  11  23  44  72 101 141 197 237 292 367 429
#     4  11  23  41  75 102 133 192 243 293 358 429
#
# _framework density 26.445302000000002
#
# number of rings (size 3 to 8) (size 9 to 14) (size 15 to 20)
#    0.000    1.143    4.286    1.286    4.000    1.143 
#    0.000    4.286    0.000    0.000    0.000    0.000 
#    0.000    0.000    0.000    0.000    0.000    0.000 
#
# Total GULP energy -78307.239816 kJ/mol
# GULP energy per Si atom -5593.374273 kJ/mol
# Density = 2.638511 g / cm^3
# Si number density = 26.445302 Si / 1000 Ang^3
#
#
#
# Elastic Constant Matrix: (Units=GPa)
#
#
# Indices 1 2 3 4 5 6 
#
# 1 103.1654 29.5636 29.6721 24.4307 -25.7069 -11.3998
# 2 29.5636 110.0782 46.4009 4.6419 -7.4399 -10.4735
# 3 29.6721 46.4009 152.9229 -12.7580 -38.1290 -1.2645
# 4 24.4307 4.6419 -12.7580 32.2108 -6.4696 -18.1981
# 5 -25.7069 -7.4399 -38.1290 -6.4696 49.7792 6.0943
# 6 -11.3998 -10.4735 -1.2645 -18.1981 6.0943 40.7346
#
#
#
# Elastic Compliance Matrix: (Units=1/GPa)
#
#
# Indices 1 2 3 4 5 6 
#
# 1 0.014699 -0.002538 -0.002029 -0.012245 0.004400 -0.002731
# 2 -0.002538 0.011359 -0.003652 -0.000392 -0.002747 0.002332
# 3 -0.002029 -0.003652 0.010648 0.008681 0.007497 0.001580
# 4 -0.012245 -0.000392 0.008681 0.056948 0.005045 0.021428
# 5 0.004400 -0.002747 0.007497 0.005045 0.028502 -0.001253
# 6 -0.002731 0.002332 0.001580 0.021428 -0.001253 0.034194
#
#
# Mechanical properties :
#
#
# Convention : Reuss Voigt Hill
#
# Bulk Modulus (GPa) = 49.34522 64.16000 56.75261
# Shear Modulus (GPa) = 27.84853 41.91359 34.88106
#
# Velocity S-wave (km/s) = 3.24861 3.98542 3.63573
# Velocity P-wave (km/s) = 5.72461 6.74479 6.25553
#
# Compressibility (1/GPa) = 0.02026539
#
# Stress axis : x y z
#
# Youngs Moduli (GPa) = 68.03359 88.03927 93.91718
#
# Poissons Ratio (x) = 0.22348 0.19055
# Poissons Ratio (y) = 0.17270 0.34302
# Poissons Ratio (z) = 0.13803 0.32156
#
# Static dielectric constant tensor:
#      x y z
#    x 2.172380 0.029910 -0.021790 
#    y 0.029910 2.121490 0.005460 
#    z -0.021790 0.005460 2.120480 
# 
# From -- ./inp_files/507301.got.cif
#   From: 2010.05.17/outbox.cif.g08.bks.cpg/sg2_254_cif.got.tgz:507301.got - 2010.06.03 11:33:40.
