data_PCOD9029469
_publ_section_title
;
Structure prediction by ZEFSAII (Michael W. Deem and Ramdas Pophale) SiO2 
 PCOD9029469
Probable space group: P -1
;
_chemical_formula_sum "Si O2"
_cell_formula_units_Z 16
_cell_length_a 8.175811
_cell_length_b 14.295685
_cell_length_c 9.147752
_cell_angle_alpha 52.525709
_cell_angle_beta 71.311740
_cell_angle_gamma 96.162409
_cell_volume 735.947264
_symmetry_space_group_name_H-M "P -1"
_symmetry_group_IT_number 2
_symmetry_cell_setting 'triclinic'
loop_
_space_group_symop_operation_xyz
x,y,z
-x,-y,-z
loop_
_atom_site_type_symbol
_atom_site_label
_atom_site_fract_x
_atom_site_fract_y
_atom_site_fract_z
Si Si1 0.675636 0.470292 0.409663
Si Si2 0.860366 0.672784 0.378464
Si Si3 0.444654 0.764433 0.954723
Si Si4 0.272320 0.781184 0.292075
Si Si5 0.487920 0.501688 0.175485
Si Si6 0.770172 0.022763 0.672111
Si Si7 0.288878 0.890971 0.682983
Si Si8 0.985629 0.923127 0.930536
O O1 0.500000 0.500000 0.500000
O O2 0.844591 0.555302 0.387636
O O3 0.665975 0.326776 0.553853
O O4 0.671423 0.509939 0.205173
O O5 0.685398 0.621304 0.590073
O O6 0.049699 0.726581 0.368773
O O7 0.857689 0.778494 0.159988
O O8 0.320558 0.767076 0.847878
O O9 0.646314 0.882581 0.773301
O O10 0.366207 0.803971 0.085101
O O11 0.452767 0.628534 0.102871
O O12 0.322884 0.905790 0.260969
O O13 0.500000 0.500000 0.000000
O O14 0.824480 0.115511 0.427026
O O15 0.913557 0.991099 0.761854
O O16 0.180031 0.925439 0.811833
O O17 0.500000 0.000000 0.500000
O O18 0.000000 0.000000 0.000000
#
# Coordination Sequence:
#
# PCOD9029469 Si02
#       8
#     2   2   2   2   2   2   2   2
#     4  10  22  42  67  95 132 182 222 277 340 407
#     4  11  23  43  70  97 134 177 226 287 332 406
#     4  11  22  45  68  96 139 183 222 281 345 412
#     4  12  22  42  68 102 135 173 232 278 342 410
#     4  11  26  46  68 102 135 180 233 282 346 406
#     4  11  25  41  67 106 138 180 223 287 343 409
#     4  10  24  44  65  99 143 181 216 288 348 402
#     4  12  23  43  70 102 134 181 236 275 342 413
#
# _framework density 21.740689
#
# number of rings (size 3 to 8) (size 9 to 14) (size 15 to 20)
#    0.000    1.000    5.000    1.875    3.500    3.000 
#    4.500    0.625    0.000    0.000    0.000    0.000 
#    0.000    0.000    0.000    0.000    0.000    0.000 
#
# Total GULP energy -89211.243297 kJ/mol
# GULP energy per Si atom -5575.702706 kJ/mol
# Density = 2.169121 g / cm^3
# Si number density = 21.740689 Si / 1000 Ang^3
#
#
#
# Elastic Constant Matrix: (Units=GPa)
#
#
# Indices 1 2 3 4 5 6 
#
# 1 79.1855 19.5017 41.0833 -2.6626 40.4175 -2.2187
# 2 19.5017 70.8288 24.8979 -2.0919 4.8889 -4.9806
# 3 41.0833 24.8979 107.1635 6.4242 34.9801 -1.5548
# 4 -2.6626 -2.0919 6.4242 41.7949 -0.4470 14.4019
# 5 40.4175 4.8889 34.9801 -0.4470 48.2106 -3.4059
# 6 -2.2187 -4.9806 -1.5548 14.4019 -3.4059 27.1506
#
#
#
# Elastic Compliance Matrix: (Units=1/GPa)
#
#
# Indices 1 2 3 4 5 6 
#
# 1 0.024472 -0.004715 -0.002456 0.002395 -0.018417 -0.002586
# 2 -0.004715 0.016574 -0.003692 0.000106 0.005166 0.003036
# 3 -0.002456 -0.003692 0.013760 -0.002667 -0.007549 0.000378
# 4 0.002395 0.000106 -0.002667 0.029983 -0.000933 -0.015959
# 5 -0.018417 0.005166 -0.007549 -0.000933 0.041459 0.004706
# 6 -0.002586 0.003036 0.000378 -0.015959 0.004706 0.046255
#
#
# Mechanical properties :
#
#
# Convention : Reuss Voigt Hill
#
# Bulk Modulus (GPa) = 30.22829 47.57152 38.89991
# Shear Modulus (GPa) = 24.35975 34.87755 29.61865
#
# Velocity S-wave (km/s) = 3.35097 4.00966 3.69502
# Velocity P-wave (km/s) = 5.37645 6.58523 6.01130
#
# Compressibility (1/GPa) = 0.03308159
#
# Stress axis : x y z
#
# Youngs Moduli (GPa) = 40.86272 60.33373 72.67294
#
# Poissons Ratio (x) = 0.28445 0.17849
# Poissons Ratio (y) = 0.19265 0.26831
# Poissons Ratio (z) = 0.10036 0.22275
#
# Static dielectric constant tensor:
#      x y z
#    x 1.973010 -0.042150 0.044460 
#    y -0.042150 1.908510 -0.097070 
#    z 0.044460 -0.097070 1.922700 
# 
# From -- ./inp_files/199431.got.cif
#   From: 2010.05.17/outbox.cif.g08.bks.cpg/sg2_100_cif.got.tgz:199431.got - 2010.06.03 11:33:40.
