data_PCOD9029167
_publ_section_title
;
Structure prediction by ZEFSAII (Michael W. Deem and Ramdas Pophale) SiO2 
 PCOD9029167
Probable space group: P -1
;
_chemical_formula_sum "Si O2"
_cell_formula_units_Z 14
_cell_length_a 13.062898
_cell_length_b 26.320194
_cell_length_c 21.080575
_cell_angle_alpha 12.230260
_cell_angle_beta 155.747971
_cell_angle_gamma 157.212976
_cell_volume 589.571502
_symmetry_space_group_name_H-M "P -1"
_symmetry_group_IT_number 2
_symmetry_cell_setting 'triclinic'
loop_
_space_group_symop_operation_xyz
x,y,z
-x,-y,-z
loop_
_atom_site_type_symbol
_atom_site_label
_atom_site_fract_x
_atom_site_fract_y
_atom_site_fract_z
Si Si1 0.178845 0.251002 0.756610
Si Si2 0.819196 0.739664 0.647237
Si Si3 0.210834 0.202969 0.229055
Si Si4 0.982217 0.975077 0.245788
Si Si5 0.764969 0.449996 0.836253
Si Si6 0.727173 0.228619 0.432952
Si Si7 0.245561 0.671023 0.387998
O O1 0.468498 0.250384 0.901655
O O2 0.240168 0.495130 0.538865
O O3 0.999146 0.283864 0.557933
O O4 0.000000 0.000000 0.000000
O O5 0.775094 0.556522 0.783828
O O6 0.525444 0.730433 0.509434
O O7 0.006251 0.013681 0.392210
O O8 0.990607 0.651401 0.902453
O O9 0.471826 0.124349 0.462169
O O10 0.285412 0.498892 0.928557
O O11 0.076069 0.151884 0.145283
O O12 0.822230 0.689881 0.528844
O O13 0.238450 0.958743 0.373093
O O14 0.812451 0.086170 0.968513
O O15 0.000000 0.500000 0.500000
#
# Coordination Sequence:
#
# PCOD9029167 Si02
#       7
#     2   2   2   2   2   2   2
#     4  11  22  40  64  92 136 171 215 272 324 380
#     4   9  20  41  65  91 130 172 217 267 322 384
#     4  10  22  42  66  94 133 173 216 267 320 385
#     4  11  23  42  68  95 129 172 218 269 318 392
#     4   9  21  39  67  95 125 177 218 261 328 382
#     4  11  23  39  65  99 130 170 217 267 324 384
#     4  11  24  41  65  97 130 172 218 268 330 385
#
# _framework density 23.74606
#
# number of rings (size 3 to 8) (size 9 to 14) (size 15 to 20)
#    0.000    1.714    1.429    2.143    2.000    8.000 
#    2.571    0.714    0.000    0.000    0.000    0.000 
#    0.000    0.000    0.000    0.000    0.000    0.000 
#
# Total GULP energy -78328.850685 kJ/mol
# GULP energy per Si atom -5594.917906 kJ/mol
# Density = 2.369201 g / cm^3
# Si number density = 23.746060 Si / 1000 Ang^3
#
#
#
# Elastic Constant Matrix: (Units=GPa)
#
#
# Indices 1 2 3 4 5 6 
#
# 1 66.8545 34.5019 42.8167 10.7105 7.2271 15.7068
# 2 34.5019 137.8093 66.0494 30.7321 -13.5321 47.2558
# 3 42.8167 66.0494 136.0328 29.7832 -4.2546 21.0527
# 4 10.7105 30.7321 29.7832 36.1828 -5.6950 12.8705
# 5 7.2271 -13.5321 -4.2546 -5.6950 35.8993 -5.3939
# 6 15.7068 47.2558 21.0527 12.8705 -5.3939 40.6793
#
#
#
# Elastic Compliance Matrix: (Units=1/GPa)
#
#
# Indices 1 2 3 4 5 6 
#
# 1 0.020902 -0.002066 -0.005231 0.000282 -0.006143 -0.003867
# 2 -0.002066 0.015402 -0.003750 -0.004114 0.003105 -0.013440
# 3 -0.005231 -0.003750 0.011730 -0.005611 0.000461 0.002142
# 4 0.000282 -0.004114 -0.005611 0.037539 0.003098 -0.003892
# 5 -0.006143 0.003105 0.000461 0.003098 0.031059 0.001664
# 6 -0.003867 -0.013440 0.002142 -0.003892 0.001664 0.042032
#
#
# Mechanical properties :
#
#
# Convention : Reuss Voigt Hill
#
# Bulk Modulus (GPa) = 38.55170 69.71474 54.13322
# Shear Modulus (GPa) = 26.39849 35.70751 31.05300
#
# Velocity S-wave (km/s) = 3.33783 3.88199 3.62015
# Velocity P-wave (km/s) = 5.57899 7.03671 6.34982
#
# Compressibility (1/GPa) = 0.02593919
#
# Stress axis : x y z
#
# Youngs Moduli (GPa) = 47.84305 64.92601 85.25157
#
# Poissons Ratio (x) = 0.13412 0.44598
# Poissons Ratio (y) = 0.09883 0.31972
# Poissons Ratio (z) = 0.25028 0.24349
#
# Static dielectric constant tensor:
#      x y z
#    x 1.764870 0.000590 -0.031730 
#    y 0.000590 1.905900 0.014170 
#    z -0.031730 0.014170 1.843500 
# 
# From -- ./inp_files/352289.got.cif
#   From: 2010.05.17/outbox.cif.g08.bks.cpg/sg2_177_cif.got.tgz:352289.got - 2010.06.03 11:33:40.
