data_PCOD9029464
_publ_section_title
;
Structure prediction by ZEFSAII (Michael W. Deem and Ramdas Pophale) SiO2 
 PCOD9029464
Probable space group: P -1
;
_chemical_formula_sum "Si O2"
_cell_formula_units_Z 15
_cell_length_a 11.013356
_cell_length_b 10.376351
_cell_length_c 8.279339
_cell_angle_alpha 114.565730
_cell_angle_beta 57.723993
_cell_angle_gamma 126.721591
_cell_volume 634.678864
_symmetry_space_group_name_H-M "P -1"
_symmetry_group_IT_number 2
_symmetry_cell_setting 'triclinic'
loop_
_space_group_symop_operation_xyz
x,y,z
-x,-y,-z
loop_
_atom_site_type_symbol
_atom_site_label
_atom_site_fract_x
_atom_site_fract_y
_atom_site_fract_z
Si Si1 0.759163 0.574252 0.857045
Si Si2 0.950428 0.314789 0.472587
Si Si3 0.470022 0.326077 0.744725
Si Si4 0.426610 0.902521 0.340262
Si Si5 0.992332 0.269550 0.791896
Si Si6 0.745108 0.391727 0.071541
Si Si7 0.601054 0.821818 0.643902
Si Si8 0.000000 0.000000 0.500000
O O1 0.646877 0.486895 0.734621
O O2 0.935801 0.713006 0.748581
O O3 0.665762 0.635326 0.071249
O O4 0.774780 0.442280 0.889039
O O5 0.759651 0.211401 0.532776
O O6 0.987611 0.271219 0.599719
O O7 0.000000 0.500000 0.500000
O O8 0.478723 0.198299 0.796587
O O9 0.436129 0.260822 0.552549
O O10 0.500000 0.000000 0.500000
O O11 0.425292 0.020382 0.266815
O O12 0.149923 0.437577 0.820763
O O13 0.994444 0.102337 0.721267
O O14 0.836758 0.284814 0.978159
O O15 0.552952 0.305080 0.205414
O O16 0.791481 0.889669 0.589041
#
# Coordination Sequence:
#
# PCOD9029464 Si02
#       8
#     2   2   2   2   2   2   2   1
#     4  11  23  40  72 105 130 172 234 290 342 405
#     4  12  21  43  72  94 135 180 231 282 336 414
#     4  10  22  43  68 102 132 170 231 287 342 409
#     4  10  22  42  67  95 131 178 223 277 342 402
#     4  11  25  45  71 107 138 187 232 287 353 415
#     4  11  25  45  74 103 140 185 237 281 348 430
#     4  11  25  47  70  98 144 187 228 283 351 419
#     4  12  26  46  68 102 150 182 228 290 352 406
#
# _framework density 23.634001000000001
#
# number of rings (size 3 to 8) (size 9 to 14) (size 15 to 20)
#    0.000    1.067    4.000    1.600    1.867    4.800 
#    2.400    2.667    0.000    0.000    0.000    0.000 
#    0.000    0.000    0.000    0.000    0.000    0.000 
#
# Total GULP energy -83520.096246 kJ/mol
# GULP energy per Si atom -5568.006416 kJ/mol
# Density = 2.358021 g / cm^3
# Si number density = 23.634001 Si / 1000 Ang^3
#
#
#
# Elastic Constant Matrix: (Units=GPa)
#
#
# Indices 1 2 3 4 5 6 
#
# 1 74.5150 27.1700 24.6870 -19.7532 -18.3569 29.1010
# 2 27.1700 81.5473 40.0477 -10.5276 -4.0371 38.9604
# 3 24.6870 40.0477 82.6571 -7.8965 -13.9033 24.6249
# 4 -19.7532 -10.5276 -7.8965 36.4037 -2.7582 -7.9700
# 5 -18.3569 -4.0371 -13.9033 -2.7582 32.0789 5.1263
# 6 29.1010 38.9604 24.6249 -7.9700 5.1263 39.0144
#
#
#
# Elastic Compliance Matrix: (Units=1/GPa)
#
#
# Indices 1 2 3 4 5 6 
#
# 1 0.035934 0.007937 0.003255 0.016617 0.030375 -0.037380
# 2 0.007937 0.028129 -0.003938 0.005493 0.011957 -0.031974
# 3 0.003255 -0.003938 0.018555 0.003094 0.011446 -0.011079
# 4 0.016617 0.005493 0.003094 0.036853 0.017034 -0.014543
# 5 0.030375 0.011957 0.011446 0.017034 0.063955 -0.046745
# 6 -0.037380 -0.031974 -0.011079 -0.014543 -0.046745 0.095607
#
#
# Mechanical properties :
#
#
# Convention : Reuss Voigt Hill
#
# Bulk Modulus (GPa) = 10.29578 46.94764 28.62171
# Shear Modulus (GPa) = 16.84062 31.28706 24.06384
#
# Velocity S-wave (km/s) = 2.67228 3.64238 3.19437
# Velocity P-wave (km/s) = 3.72656 6.13162 5.07366
#
# Compressibility (1/GPa) = 0.09712714
#
# Stress axis : x y z
#
# Youngs Moduli (GPa) = 27.82874 35.54992 53.89306
#
# Poissons Ratio (x) = -0.28215 -0.17543
# Poissons Ratio (y) = -0.22087 0.21221
# Poissons Ratio (z) = -0.09058 0.13998
#
# Static dielectric constant tensor:
#      x y z
#    x 2.379350 -0.566260 -0.456840 
#    y -0.566260 2.562210 0.575540 
#    z -0.456840 0.575540 2.360060 
# 
# From -- ./inp_files/262966.got.cif
#   From: 2010.05.17/outbox.cif.g08.bks.cpg/sg2_132_cif.got.tgz:262966.got - 2010.06.03 11:33:40.
