data_PCOD9029504
_publ_section_title
;
Structure prediction by ZEFSAII (Michael W. Deem and Ramdas Pophale) SiO2 
 PCOD9029504
Probable space group: P -1
;
_chemical_formula_sum "Si O2"
_cell_formula_units_Z 12
_cell_length_a 11.690604
_cell_length_b 8.578360
_cell_length_c 8.440405
_cell_angle_alpha 47.755772
_cell_angle_beta 57.639939
_cell_angle_gamma 42.427957
_cell_volume 421.465839
_symmetry_space_group_name_H-M "P -1"
_symmetry_group_IT_number 2
_symmetry_cell_setting 'triclinic'
loop_
_space_group_symop_operation_xyz
x,y,z
-x,-y,-z
loop_
_atom_site_type_symbol
_atom_site_label
_atom_site_fract_x
_atom_site_fract_y
_atom_site_fract_z
Si Si1 0.470927 0.280225 0.337120
Si Si2 0.682337 0.292211 0.591658
Si Si3 0.658855 0.719042 0.873984
Si Si4 0.848508 0.075019 0.289582
Si Si5 0.302323 0.162185 0.914757
Si Si6 0.005681 0.659201 0.197166
O O1 0.329651 0.509535 0.404293
O O2 0.404817 0.388537 0.133736
O O3 0.655144 0.202551 0.292103
O O4 0.500000 0.000000 0.500000
O O5 0.500000 0.500000 0.500000
O O6 0.824365 0.135381 0.455271
O O7 0.693850 0.068549 0.841380
O O8 0.708977 0.652934 0.066583
O O9 0.830229 0.645601 0.721996
O O10 0.490714 0.017761 0.807617
O O11 0.962321 0.791274 0.310005
O O12 0.924880 0.209776 0.051225
O O13 0.154279 0.287008 0.812201
#
# Coordination Sequence:
#
# PCOD9029504 Si02
#       6
#     2   2   2   2   2   2
#     4  11  23  43  71 100 135 176 226 279 338 397
#     4  10  22  42  67  96 131 181 220 271 334 394
#     4  11  23  42  70 101 135 179 223 278 339 393
#     4  10  23  44  66  98 140 170 228 273 331 402
#     4  11  24  44  71  97 138 178 227 277 330 403
#     4  11  24  43  71 101 136 176 227 275 334 403
#
# _framework density 28.472059000000002
#
# number of rings (size 3 to 8) (size 9 to 14) (size 15 to 20)
#    0.000    1.333    1.667    4.500    4.667    3.333 
#    3.000    1.667    0.000    0.000    0.000    0.000 
#    0.000    0.000    0.000    0.000    0.000    0.000 
#
# Total GULP energy -67087.262920 kJ/mol
# GULP energy per Si atom -5590.605243 kJ/mol
# Density = 2.840726 g / cm^3
# Si number density = 28.472059 Si / 1000 Ang^3
#
#
#
# Elastic Constant Matrix: (Units=GPa)
#
#
# Indices 1 2 3 4 5 6 
#
# 1 196.3474 88.2005 31.7922 12.0850 8.8321 -4.6190
# 2 88.2005 218.6489 84.8618 72.9519 24.7384 12.1891
# 3 31.7922 84.8618 114.4023 13.9893 -20.3652 20.9418
# 4 12.0850 72.9519 13.9893 67.8241 11.0211 16.8561
# 5 8.8321 24.7384 -20.3652 11.0211 43.2855 15.1288
# 6 -4.6190 12.1891 20.9418 16.8561 15.1288 69.2328
#
#
#
# Elastic Compliance Matrix: (Units=1/GPa)
#
#
# Indices 1 2 3 4 5 6 
#
# 1 0.006551 -0.004054 0.000956 0.002881 0.000694 0.000009
# 2 -0.004054 0.018659 -0.015140 -0.015714 -0.015866 0.008317
# 3 0.000956 -0.015140 0.024405 0.010559 0.021411 -0.011902
# 4 0.002881 -0.015714 0.010559 0.029836 0.009079 -0.009483
# 5 0.000694 -0.015866 0.021411 0.009079 0.045294 -0.015745
# 6 0.000009 0.008317 -0.011902 -0.009483 -0.015745 0.022330
#
#
# Mechanical properties :
#
#
# Convention : Reuss Voigt Hill
#
# Bulk Modulus (GPa) = 76.10303 104.34528 90.22415
# Shear Modulus (GPa) = 26.60571 57.70477 42.15524
#
# Velocity S-wave (km/s) = 3.06019 4.50679 3.85201
# Velocity P-wave (km/s) = 6.26685 7.98808 7.17924
#
# Compressibility (1/GPa) = 0.01314008
#
# Stress axis : x y z
#
# Youngs Moduli (GPa) = 152.65085 53.59298 40.97544
#
# Poissons Ratio (x) = 0.21726 -0.03918
# Poissons Ratio (y) = 0.61883 0.62036
# Poissons Ratio (z) = -0.14597 0.81138
#
# Static dielectric constant tensor:
#      x y z
#    x 2.141130 0.010480 0.026450 
#    y 0.010480 2.252250 -0.051250 
#    z 0.026450 -0.051250 2.329150 
# 
# From -- ./inp_files/168144.got.cif
#   From: 2010.05.17/outbox.cif.g08.bks.cpg/sg2_85_cif.got.tgz:168144.got - 2010.06.03 11:33:40.
