data_PCOD9029427
_publ_section_title
;
Structure prediction by ZEFSAII (Michael W. Deem and Ramdas Pophale) SiO2 
 PCOD9029427
Probable space group: P -1
;
_chemical_formula_sum "Si O2"
_cell_formula_units_Z 16
_cell_length_a 8.533954
_cell_length_b 13.082458
_cell_length_c 12.349080
_cell_angle_alpha 32.894511
_cell_angle_beta 67.785407
_cell_angle_gamma 85.645982
_cell_volume 607.961310
_symmetry_space_group_name_H-M "P -1"
_symmetry_group_IT_number 2
_symmetry_cell_setting 'triclinic'
loop_
_space_group_symop_operation_xyz
x,y,z
-x,-y,-z
loop_
_atom_site_type_symbol
_atom_site_label
_atom_site_fract_x
_atom_site_fract_y
_atom_site_fract_z
Si Si1 0.762970 0.616098 0.786820
Si Si2 0.622946 0.802948 0.478305
Si Si3 0.898511 0.725453 0.877772
Si Si4 0.404326 0.199356 0.745704
Si Si5 0.316945 0.732134 0.208893
Si Si6 0.014501 0.442017 0.386798
Si Si7 0.287703 0.745324 0.732112
Si Si8 0.060480 0.166408 0.999889
O O1 0.628473 0.651913 0.706590
O O2 0.812247 0.750652 0.764839
O O3 0.958516 0.678466 0.614149
O O4 0.693334 0.372754 0.059709
O O5 0.541037 0.695285 0.479800
O O6 0.488755 0.891059 0.490117
O O7 0.150211 0.193873 0.071934
O O8 0.842024 0.973759 0.238101
O O9 0.130310 0.821323 0.725379
O O10 0.816133 0.466735 0.130653
O O11 0.549633 0.314245 0.704039
O O12 0.195651 0.151696 0.885734
O O13 0.413257 0.976309 0.927301
O O14 0.140118 0.706666 0.353771
O O15 0.218428 0.566426 0.285592
O O16 0.959857 0.622648 0.205728
#
# Coordination Sequence:
#
# PCOD9029427 Si02
#       8
#     2   2   2   2   2   2   2   2
#     4  10  22  42  67  94 129 171 212 263 318 380
#     4  12  25  39  67  95 133 172 211 270 323 372
#     4   9  21  43  67  91 130 167 221 261 313 382
#     4  11  26  45  62  97 135 168 211 272 326 382
#     4  10  25  44  66  94 128 173 217 261 330 383
#     4  11  22  43  70  96 125 172 216 265 320 388
#     4   9  20  43  64  93 123 174 214 261 315 378
#     4  12  24  43  63 101 133 166 216 267 320 381
#
# _framework density 26.317463
#
# number of rings (size 3 to 8) (size 9 to 14) (size 15 to 20)
#    0.750    0.750    2.500    1.500    7.000    2.500 
#    0.000    0.000    0.000    0.000    0.000    0.000 
#    0.000    0.000    0.000    0.000    0.000    0.000 
#
# Total GULP energy -89540.387625 kJ/mol
# GULP energy per Si atom -5596.274227 kJ/mol
# Density = 2.625756 g / cm^3
# Si number density = 26.317463 Si / 1000 Ang^3
#
#
#
# Elastic Constant Matrix: (Units=GPa)
#
#
# Indices 1 2 3 4 5 6 
#
# 1 118.8963 29.1955 36.0507 17.1531 19.8341 26.0246
# 2 29.1955 83.3844 29.9523 36.6749 15.0842 22.7749
# 3 36.0507 29.9523 85.8684 13.1902 0.9839 4.7862
# 4 17.1531 36.6749 13.1902 48.7016 -3.8619 1.8446
# 5 19.8341 15.0842 0.9839 -3.8619 43.6513 11.9265
# 6 26.0246 22.7749 4.7862 1.8446 11.9265 40.0327
#
#
#
# Elastic Compliance Matrix: (Units=1/GPa)
#
#
# Indices 1 2 3 4 5 6 
#
# 1 0.012374 0.002432 -0.004820 -0.004995 -0.004834 -0.007181
# 2 0.002432 0.027342 -0.006697 -0.019832 -0.008647 -0.012846
# 3 -0.004820 -0.006697 0.015330 0.002699 0.003304 0.004002
# 4 -0.004995 -0.019832 0.002699 0.036901 0.009699 0.009618
# 5 -0.004834 -0.008647 0.003304 0.009699 0.029288 -0.001505
# 6 -0.007181 -0.012846 0.004002 0.009618 -0.001505 0.036483
#
#
# Mechanical properties :
#
#
# Convention : Reuss Voigt Hill
#
# Bulk Modulus (GPa) = 27.11828 53.17180 40.14504
# Shear Modulus (GPa) = 26.57017 39.34050 32.95533
#
# Velocity S-wave (km/s) = 3.18087 3.87052 3.54252
# Velocity P-wave (km/s) = 4.88029 6.34211 5.65861
#
# Compressibility (1/GPa) = 0.03687550
#
# Stress axis : x y z
#
# Youngs Moduli (GPa) = 80.81434 36.57336 65.23194
#
# Poissons Ratio (x) = -0.08895 0.31444
# Poissons Ratio (y) = -0.19654 0.43686
# Poissons Ratio (z) = 0.38956 0.24493
#
# Static dielectric constant tensor:
#      x y z
#    x 2.090560 0.039940 -0.019250 
#    y 0.039940 2.033080 -0.050300 
#    z -0.019250 -0.050300 2.082770 
# 
# From -- ./inp_files/392038.got.cif
#   From: 2010.05.17/outbox.cif.g08.bks.cpg/sg2_197_cif.got.tgz:392038.got - 2010.06.03 11:33:40.
