data_PCOD9029925
_publ_section_title
;
Structure prediction by ZEFSAII (Michael W. Deem and Ramdas Pophale) SiO2 
 PCOD9029925
Probable space group: P -1
;
_chemical_formula_sum "Si O2"
_cell_formula_units_Z 12
_cell_length_a 4.861498
_cell_length_b 21.473380
_cell_length_c 8.922165
_cell_angle_alpha 146.201359
_cell_angle_beta 90.000047
_cell_angle_gamma 99.957748
_cell_volume 492.451277
_symmetry_space_group_name_H-M "P -1"
_symmetry_group_IT_number 2
_symmetry_cell_setting 'triclinic'
loop_
_space_group_symop_operation_xyz
x,y,z
-x,-y,-z
loop_
_atom_site_type_symbol
_atom_site_label
_atom_site_fract_x
_atom_site_fract_y
_atom_site_fract_z
Si Si1 0.511665 0.869364 0.288660
Si Si2 0.523173 0.005023 0.187202
Si Si3 0.023173 0.505023 0.832890
Si Si4 0.988335 0.630636 0.811205
Si Si5 0.575496 0.624021 0.540453
Si Si6 0.075496 0.124021 0.955631
O O1 0.806194 0.870201 0.204828
O O2 0.500000 0.000000 0.500000
O O3 0.505486 0.882915 0.495751
O O4 0.250000 0.750000 0.010707
O O5 0.816154 0.977851 0.175780
O O6 0.253658 0.901535 0.049457
O O7 0.500000 0.000000 0.000000
O O8 0.753658 0.401535 0.556684
O O9 0.994515 0.617085 0.964090
O O10 0.316154 0.477851 0.735623
O O11 0.000000 0.500000 0.000000
O O12 0.000000 0.500000 0.500000
O O13 0.693806 0.629799 0.724025
O O14 0.750000 0.750000 0.726713
#
# Coordination Sequence:
#
# PCOD9029925 Si02
#       6
#     2   2   2   2   2   2
#     4  10  22  42  68  99 135 181 237 293 347 417
#     4  11  24  42  64  99 139 182 231 293 360 428
#     4  11  24  42  64  99 139 182 231 293 360 428
#     4  10  22  42  68  99 135 181 237 293 347 417
#     4  11  22  42  67  94 132 181 233 290 352 421
#     4  11  22  42  67  94 132 181 233 290 352 421
#
# _framework density 24.367894
#
# number of rings (size 3 to 8) (size 9 to 14) (size 15 to 20)
#    0.000    1.333    0.000    7.000    0.000    5.333 
#    0.000    1.667    0.000    0.000    0.000    0.000 
#    0.000    0.000    0.000    0.000    0.000    0.000 
#
# Total GULP energy -66871.563790 kJ/mol
# GULP energy per Si atom -5572.630316 kJ/mol
# Density = 2.431243 g / cm^3
# Si number density = 24.367894 Si / 1000 Ang^3
#
#
#
# Elastic Constant Matrix: (Units=GPa)
#
#
# Indices 1 2 3 4 5 6 
#
# 1 79.4255 22.8422 27.7413 5.6759 5.1134 2.8339
# 2 22.8422 144.7875 73.0389 -32.7837 0.9652 13.1259
# 3 27.7413 73.0389 124.4956 2.2980 24.0606 15.3311
# 4 5.6759 -32.7837 2.2980 58.0552 16.0773 7.0344
# 5 5.1134 0.9652 24.0606 16.0773 44.4851 10.0009
# 6 2.8339 13.1259 15.3311 7.0344 10.0009 34.7191
#
#
#
# Elastic Compliance Matrix: (Units=1/GPa)
#
#
# Indices 1 2 3 4 5 6 
#
# 1 0.013987 -0.001715 -0.002239 -0.002445 0.000322 0.000898
# 2 -0.001715 0.012867 -0.007225 0.007638 0.001880 -0.003623
# 3 -0.002239 -0.007225 0.014114 -0.002621 -0.006037 -0.001048
# 4 -0.002445 0.007638 -0.002621 0.024147 -0.006148 -0.004652
# 5 0.000322 0.001880 -0.006037 -0.006148 0.029057 -0.005195
# 6 0.000898 -0.003623 -0.001048 -0.004652 -0.005195 0.033001
#
#
# Mechanical properties :
#
#
# Convention : Reuss Voigt Hill
#
# Bulk Modulus (GPa) = 53.72706 66.21706 59.97206
# Shear Modulus (GPa) = 32.10590 42.45763 37.28176
#
# Velocity S-wave (km/s) = 3.63374 4.17869 3.91571
# Velocity P-wave (km/s) = 6.30092 7.10737 6.71626
#
# Compressibility (1/GPa) = 0.01861259
#
# Stress axis : x y z
#
# Youngs Moduli (GPa) = 71.49319 77.71637 70.85088
#
# Poissons Ratio (x) = 0.13325 0.15860
# Poissons Ratio (y) = 0.12258 0.51190
# Poissons Ratio (z) = 0.16004 0.56150
#
# Static dielectric constant tensor:
#      x y z
#    x 2.021440 -0.010610 -0.026300 
#    y -0.010610 2.061790 -0.045910 
#    z -0.026300 -0.045910 2.015310 
# 
# From -- ./inp_files/141742.got.cif
#   From: 2010.05.17/outbox.cif.g08.bks.cpg/sg2_71_cif.got.tgz:141742.got - 2010.06.03 11:33:40.
