data_PCOD9029768
_publ_section_title
;
Structure prediction by ZEFSAII (Michael W. Deem and Ramdas Pophale) SiO2 
 PCOD9029768
Probable space group: P -1
;
_chemical_formula_sum "Si O2"
_cell_formula_units_Z 16
_cell_length_a 14.207244
_cell_length_b 6.576037
_cell_length_c 18.203272
_cell_angle_alpha 48.351262
_cell_angle_beta 39.939687
_cell_angle_gamma 70.441101
_cell_volume 759.771298
_symmetry_space_group_name_H-M "P -1"
_symmetry_group_IT_number 2
_symmetry_cell_setting 'triclinic'
loop_
_space_group_symop_operation_xyz
x,y,z
-x,-y,-z
loop_
_atom_site_type_symbol
_atom_site_label
_atom_site_fract_x
_atom_site_fract_y
_atom_site_fract_z
Si Si1 0.112516 0.199346 0.300183
Si Si2 0.587907 0.388405 0.036801
Si Si3 0.646036 0.790893 0.317877
Si Si4 0.288889 0.142525 0.907098
Si Si5 0.951886 0.404850 0.467546
Si Si6 0.045135 0.838219 0.866224
Si Si7 0.497304 0.281442 0.277691
Si Si8 0.848668 0.925923 0.406053
O O1 0.087577 0.409427 0.327689
O O2 0.148797 0.939306 0.381847
O O3 0.242628 0.350462 0.125540
O O4 0.951551 0.054815 0.386032
O O5 0.489653 0.334245 0.182975
O O6 0.639309 0.109335 0.061352
O O7 0.500000 0.500000 0.000000
O O8 0.500000 0.500000 0.500000
O O9 0.692746 0.767317 0.211277
O O10 0.805458 0.921935 0.239413
O O11 0.579449 0.050026 0.295606
O O12 0.394239 0.417182 0.824591
O O13 0.107423 0.071881 0.053912
O O14 0.871076 0.627731 0.438391
O O15 0.000000 0.500000 0.500000
O O16 0.092378 0.852068 0.749316
O O17 0.000000 0.500000 0.000000
O O18 0.330390 0.157857 0.445808
#
# Coordination Sequence:
#
# PCOD9029768 Si02
#       8
#     2   2   2   2   2   2   2   2
#     4  10  22  42  68  93 138 178 236 286 339 415
#     4  11  27  43  69 102 140 185 230 289 351 415
#     4  11  26  46  73 105 141 184 234 291 353 414
#     4  11  25  47  71  99 144 182 236 286 348 421
#     4   9  21  40  66  97 130 176 230 281 342 409
#     4  12  25  46  75 104 139 187 236 290 352 417
#     4  11  26  46  67 105 142 182 232 288 353 423
#     4  11  25  41  70  98 137 180 229 286 350 414
#
# _framework density 21.058971
#
# number of rings (size 3 to 8) (size 9 to 14) (size 15 to 20)
#    0.000    1.250    1.250    2.625   10.500    5.500 
#    0.000    0.000    0.000    0.000    0.000    0.000 
#    0.000    0.000    0.000    0.000    0.000    0.000 
#
# Total GULP energy -89353.648763 kJ/mol
# GULP energy per Si atom -5584.603048 kJ/mol
# Density = 2.101104 g / cm^3
# Si number density = 21.058971 Si / 1000 Ang^3
#
#
#
# Elastic Constant Matrix: (Units=GPa)
#
#
# Indices 1 2 3 4 5 6 
#
# 1 111.7045 38.6246 50.2544 3.4951 -2.0321 6.3449
# 2 38.6246 75.6385 36.2651 16.5009 6.4430 7.4600
# 3 50.2544 36.2651 140.8214 19.2150 7.2382 1.4617
# 4 3.4951 16.5009 19.2150 33.2496 -0.8713 -5.7247
# 5 -2.0321 6.4430 7.2382 -0.8713 40.6258 -3.5112
# 6 6.3449 7.4600 1.4617 -5.7247 -3.5112 18.1899
#
#
#
# Elastic Compliance Matrix: (Units=1/GPa)
#
#
# Indices 1 2 3 4 5 6 
#
# 1 0.012439 -0.005567 -0.003602 0.003556 0.002204 -0.000222
# 2 -0.005567 0.020531 -0.001509 -0.010666 -0.004408 -0.010565
# 3 -0.003602 -0.001509 0.009490 -0.004516 -0.001785 -0.000653
# 4 0.003556 -0.010666 -0.004516 0.040713 0.005041 0.017283
# 5 0.002204 -0.004408 -0.001785 0.005041 0.026532 0.007890
# 6 -0.000222 -0.010565 -0.000653 0.017283 0.007890 0.066401
#
#
# Mechanical properties :
#
#
# Convention : Reuss Voigt Hill
#
# Bulk Modulus (GPa) = 47.38187 64.27252 55.82719
# Shear Modulus (GPa) = 24.45044 31.94773 28.19909
#
# Velocity S-wave (km/s) = 3.41111 3.89917 3.66328
# Velocity P-wave (km/s) = 6.16950 7.13147 6.66786
#
# Compressibility (1/GPa) = 0.02110512
#
# Stress axis : x y z
#
# Youngs Moduli (GPa) = 80.39408 48.70616 105.37582
#
# Poissons Ratio (x) = 0.27113 0.37952
# Poissons Ratio (y) = 0.44752 0.15903
# Poissons Ratio (z) = 0.28955 0.07351
#
# Static dielectric constant tensor:
#      x y z
#    x 1.779530 -0.002660 0.017870 
#    y -0.002660 1.779090 0.025230 
#    z 0.017870 0.025230 1.841290 
# 
# From -- ./inp_files/571589.got.cif
#   From: 2010.05.17/outbox.cif.g08.bks.cpg/sg2_286_cif.got.tgz:571589.got - 2010.06.03 11:33:40.
