data_PCOD9029297
_publ_section_title
;
Structure prediction by ZEFSAII (Michael W. Deem and Ramdas Pophale) SiO2 
 PCOD9029297
Probable space group: P -1
;
_chemical_formula_sum "Si O2"
_cell_formula_units_Z 16
_cell_length_a 19.969309
_cell_length_b 13.096901
_cell_length_c 9.859280
_cell_angle_alpha 64.155262
_cell_angle_beta 48.848652
_cell_angle_gamma 25.970042
_cell_volume 749.504468
_symmetry_space_group_name_H-M "P -1"
_symmetry_group_IT_number 2
_symmetry_cell_setting 'triclinic'
loop_
_space_group_symop_operation_xyz
x,y,z
-x,-y,-z
loop_
_atom_site_type_symbol
_atom_site_label
_atom_site_fract_x
_atom_site_fract_y
_atom_site_fract_z
Si Si1 0.712921 0.686320 0.420466
Si Si2 0.855578 0.808726 0.467299
Si Si3 0.861845 0.354923 0.187682
Si Si4 0.979783 0.589885 0.148237
Si Si5 0.362812 0.062998 0.077439
Si Si6 0.238934 0.485468 0.248792
Si Si7 0.526667 0.588988 0.339108
Si Si8 0.870073 0.156644 0.936460
O O1 0.739632 0.549281 0.363719
O O2 0.882537 0.587941 0.216169
O O3 0.748799 0.589298 0.577599
O O4 0.500000 0.000000 0.500000
O O5 0.842648 0.759218 0.371504
O O6 0.792759 0.806165 0.680068
O O7 0.091078 0.577619 0.300408
O O8 0.696338 0.095767 0.531029
O O9 0.686205 0.500528 0.239746
O O10 0.027606 0.063374 0.155586
O O11 0.001195 0.300797 0.983749
O O12 0.220039 0.281249 0.027983
O O13 0.500000 0.000000 0.000000
O O14 0.526707 0.784343 0.963161
O O15 0.131153 0.731117 0.223254
O O16 0.500000 0.500000 0.500000
O O17 0.634028 0.428181 0.147971
O O18 0.000000 0.000000 0.000000
#
# Coordination Sequence:
#
# PCOD9029297 Si02
#       8
#     2   2   2   2   2   2   2   2
#     4  12  27  46  68  98 145 196 241 282 340 424
#     4  12  21  38  65 102 134 171 225 292 361 402
#     4  11  24  44  68  98 142 188 235 288 345 423
#     4  12  23  43  69 103 143 184 235 291 357 419
#     4  12  22  37  63 101 142 172 221 291 357 413
#     4  12  24  44  68 103 142 182 236 290 349 422
#     4  11  21  40  69 101 136 174 231 295 358 413
#     4  10  22  42  67 100 134 173 227 301 353 410
#
# _framework density 21.347438
#
# number of rings (size 3 to 8) (size 9 to 14) (size 15 to 20)
#    0.000    0.500    3.750    7.500    0.000    0.500 
#    0.000    0.000    0.000    3.000    0.000    0.000 
#    0.000    0.000    0.000    0.000    0.000    0.000 
#
# Total GULP energy -89172.209742 kJ/mol
# GULP energy per Si atom -5573.263109 kJ/mol
# Density = 2.129885 g / cm^3
# Si number density = 21.347438 Si / 1000 Ang^3
#
#
#
# Elastic Constant Matrix: (Units=GPa)
#
#
# Indices 1 2 3 4 5 6 
#
# 1 63.1060 38.2161 9.4162 2.6194 -4.9433 12.2498
# 2 38.2161 198.8833 30.9597 -0.2139 -2.4462 23.1408
# 3 9.4162 30.9597 67.0149 -2.6475 -9.7912 6.8873
# 4 2.6194 -0.2139 -2.6475 54.7711 3.9996 0.7693
# 5 -4.9433 -2.4462 -9.7912 3.9996 30.6696 3.3161
# 6 12.2498 23.1408 6.8873 0.7693 3.3161 32.1103
#
#
#
# Elastic Compliance Matrix: (Units=1/GPa)
#
#
# Indices 1 2 3 4 5 6 
#
# 1 0.019040 -0.002941 -0.000297 -0.001114 0.003470 -0.005412
# 2 -0.002941 0.006272 -0.002241 0.000126 -0.000394 -0.002880
# 3 -0.000297 -0.002241 0.017069 0.000469 0.005432 -0.002505
# 4 -0.001114 0.000126 0.000469 0.018512 -0.002438 0.000042
# 5 0.003470 -0.000394 0.005432 -0.002438 0.035818 -0.005845
# 6 -0.005412 -0.002880 -0.002505 0.000042 -0.005845 0.036423
#
#
# Mechanical properties :
#
#
# Convention : Reuss Voigt Hill
#
# Bulk Modulus (GPa) = 31.82459 54.02090 42.92275
# Shear Modulus (GPa) = 32.34834 40.20434 36.27634
#
# Velocity S-wave (km/s) = 3.89694 4.34445 4.12677
# Velocity P-wave (km/s) = 5.93199 7.10817 6.54655
#
# Compressibility (1/GPa) = 0.03142224
#
# Stress axis : x y z
#
# Youngs Moduli (GPa) = 52.51971 159.42633 58.58630
#
# Poissons Ratio (x) = 0.46891 0.01742
# Poissons Ratio (y) = 0.15447 0.13130
# Poissons Ratio (z) = 0.01562 0.35730
#
# Static dielectric constant tensor:
#      x y z
#    x 1.832220 0.025440 0.013540 
#    y 0.025440 1.862740 -0.036780 
#    z 0.013540 -0.036780 1.817880 
# 
# From -- ./inp_files/470962.got.cif
#   From: 2010.05.17/outbox.cif.g08.bks.cpg/sg2_236_cif.got.tgz:470962.got - 2010.06.03 11:33:40.
