data_PCOD9029371
_publ_section_title
;
Structure prediction by ZEFSAII (Michael W. Deem and Ramdas Pophale) SiO2 
 PCOD9029371
Probable space group: P -1
;
_chemical_formula_sum "Si O2"
_cell_formula_units_Z 14
_cell_length_a 11.082962
_cell_length_b 11.340965
_cell_length_c 5.823712
_cell_angle_alpha 80.612160
_cell_angle_beta 53.042559
_cell_angle_gamma 65.998967
_cell_volume 531.012606
_symmetry_space_group_name_H-M "P -1"
_symmetry_group_IT_number 2
_symmetry_cell_setting 'triclinic'
loop_
_space_group_symop_operation_xyz
x,y,z
-x,-y,-z
loop_
_atom_site_type_symbol
_atom_site_label
_atom_site_fract_x
_atom_site_fract_y
_atom_site_fract_z
Si Si1 0.199225 0.294811 0.772353
Si Si2 0.475313 0.103875 0.246350
Si Si3 0.197931 0.541275 0.439949
Si Si4 0.631423 0.652510 0.052547
Si Si5 0.964607 0.224009 0.760951
Si Si6 0.244174 0.978095 0.332482
Si Si7 0.298062 0.716498 0.605226
O O1 0.379000 0.181135 0.553287
O O2 0.161158 0.422165 0.619143
O O3 0.211623 0.344937 0.994691
O O4 0.069722 0.236976 0.856345
O O5 0.376586 0.015550 0.316080
O O6 0.430528 0.220720 0.076056
O O7 0.671497 0.034002 0.012232
O O8 0.065963 0.657647 0.413105
O O9 0.250921 0.608402 0.567849
O O10 0.333267 0.469314 0.113677
O O11 0.494093 0.660630 0.391971
O O12 0.790786 0.241019 0.063405
O O13 0.070628 0.092950 0.547136
O O14 0.240913 0.844449 0.469059
#
# Coordination Sequence:
#
# PCOD9029371 Si02
#       7
#     2   2   2   2   2   2   2
#     4  10  22  42  67  91 118 158 208 255 300 356
#     4   8  18  39  66  91 118 156 206 252 296 354
#     4  11  24  40  62  90 124 163 204 248 300 363
#     4  10  22  42  67  91 118 158 208 255 300 356
#     4  11  24  40  62  93 126 160 199 250 308 361
#     4   9  19  41  62  87 125 161 201 247 297 362
#     4  11  24  40  62  93 126 160 199 250 308 361
#
# _framework density 26.364722
#
# number of rings (size 3 to 8) (size 9 to 14) (size 15 to 20)
#    0.000    2.000    0.000    2.143    0.000   12.000 
#    0.000   23.571    0.000    0.000    0.000    0.000 
#    0.000    0.000    0.000    0.000    0.000    0.000 
#
# Total GULP energy -78364.013611 kJ/mol
# GULP energy per Si atom -5597.429544 kJ/mol
# Density = 2.630471 g / cm^3
# Si number density = 26.364722 Si / 1000 Ang^3
#
#
#
# Elastic Constant Matrix: (Units=GPa)
#
#
# Indices 1 2 3 4 5 6 
#
# 1 52.4121 4.5342 9.8226 10.2571 11.1973 9.8163
# 2 4.5342 134.2036 40.4927 24.0710 -6.1885 3.1413
# 3 9.8226 40.4927 148.4551 15.7706 -23.9691 -14.5343
# 4 10.2571 24.0710 15.7706 40.4643 -2.1800 4.6341
# 5 11.1973 -6.1885 -23.9691 -2.1800 19.5390 0.1952
# 6 9.8163 3.1413 -14.5343 4.6341 0.1952 44.0574
#
#
#
# Elastic Compliance Matrix: (Units=1/GPa)
#
#
# Indices 1 2 3 4 5 6 
#
# 1 0.027657 0.000992 -0.006028 -0.005655 -0.023486 -0.007523
# 2 0.000992 0.008909 -0.002289 -0.004587 -0.001055 -0.001124
# 3 -0.006028 -0.002289 0.010969 -0.001115 0.016009 0.005171
# 4 -0.005655 -0.004587 -0.001115 0.029733 0.003756 -0.001925
# 5 -0.023486 -0.001055 0.016009 0.003756 0.084265 0.009821
# 6 -0.007523 -0.001124 0.005171 -0.001925 0.009821 0.026319
#
#
# Mechanical properties :
#
#
# Convention : Reuss Voigt Hill
#
# Bulk Modulus (GPa) = 30.40986 49.41888 39.91437
# Shear Modulus (GPa) = 23.42342 39.49358 31.45850
#
# Velocity S-wave (km/s) = 2.98390 3.87456 3.45803
# Velocity P-wave (km/s) = 4.84055 6.22907 5.57818
#
# Compressibility (1/GPa) = 0.03288408
#
# Stress axis : x y z
#
# Youngs Moduli (GPa) = 36.15777 112.24820 91.16850
#
# Poissons Ratio (x) = -0.11133 0.54958
# Poissons Ratio (y) = -0.03586 0.20865
# Poissons Ratio (z) = 0.21796 0.25690
#
# Static dielectric constant tensor:
#      x y z
#    x 2.034480 -0.003900 -0.026190 
#    y -0.003900 2.012370 0.058160 
#    z -0.026190 0.058160 2.132280 
# 
# From -- ./inp_files/69520.got.cif
#   From: 2010.05.17/outbox.cif.g08.bks.cpg/sg2_35_cif.got.tgz:69520.got - 2010.06.03 11:33:40.
