data_PCOD9029999
_publ_section_title
;
Structure prediction by ZEFSAII (Michael W. Deem and Ramdas Pophale) SiO2 
 PCOD9029999
Probable space group: P -1
;
_chemical_formula_sum "Si O2"
_cell_formula_units_Z 16
_cell_length_a 10.478568
_cell_length_b 9.117807
_cell_length_c 13.690926
_cell_angle_alpha 120.406731
_cell_angle_beta 42.848365
_cell_angle_gamma 128.253492
_cell_volume 695.202759
_symmetry_space_group_name_H-M "P -1"
_symmetry_group_IT_number 2
_symmetry_cell_setting 'triclinic'
loop_
_space_group_symop_operation_xyz
x,y,z
-x,-y,-z
loop_
_atom_site_type_symbol
_atom_site_label
_atom_site_fract_x
_atom_site_fract_y
_atom_site_fract_z
Si Si1 0.184227 0.742537 0.692667
Si Si2 0.264414 0.524882 0.933284
Si Si3 0.105346 0.405175 0.765194
Si Si4 0.278667 0.324726 0.041257
Si Si5 0.194586 0.705417 0.460025
Si Si6 0.051213 0.027072 0.595076
Si Si7 0.594619 0.903510 0.840332
Si Si8 0.452582 0.067405 0.796020
O O1 0.188768 0.579720 0.704135
O O2 0.280763 0.735758 0.531658
O O3 0.940372 0.699997 0.797778
O O4 0.310981 0.932647 0.745380
O O5 0.183499 0.454750 0.847907
O O6 0.491776 0.682782 0.843113
O O7 0.244117 0.356882 0.957466
O O8 0.134679 0.625222 0.095228
O O9 0.163584 0.244605 0.634453
O O10 0.500000 0.500000 0.000000
O O11 0.317167 0.139467 0.963949
O O12 0.366638 0.749309 0.293840
O O13 0.000000 0.500000 0.500000
O O14 0.135395 0.879525 0.532196
O O15 0.832782 0.973791 0.749949
O O16 0.000000 0.000000 0.500000
O O17 0.546664 0.957397 0.776448
O O18 0.500000 0.000000 0.000000
#
# Coordination Sequence:
#
# PCOD9029999 Si02
#       8
#     2   2   2   2   2   2   2   2
#     4  11  25  46  71 100 140 186 230 288 348 412
#     4  10  22  42  69 105 137 179 227 292 351 405
#     4  10  22  45  71 101 140 178 231 289 346 417
#     4  11  25  41  71 105 141 179 235 287 348 415
#     4  12  28  48  71  97 144 188 231 288 351 416
#     4  12  26  45  70 102 138 182 235 288 349 419
#     4  12  24  42  72 102 137 178 236 292 347 409
#     4  12  26  47  66 104 142 185 235 286 348 416
#
# _framework density 23.014868
#
# number of rings (size 3 to 8) (size 9 to 14) (size 15 to 20)
#    0.000    0.750    3.750    3.000    8.750    0.000 
#    0.000    1.250    0.000    0.000    0.000    0.000 
#    0.000    0.000    0.000    0.000    0.000    0.000 
#
# Total GULP energy -89398.750922 kJ/mol
# GULP energy per Si atom -5587.421933 kJ/mol
# Density = 2.296249 g / cm^3
# Si number density = 23.014868 Si / 1000 Ang^3
#
#
#
# Elastic Constant Matrix: (Units=GPa)
#
#
# Indices 1 2 3 4 5 6 
#
# 1 52.8267 2.0551 9.5920 -0.3981 12.2066 -14.2653
# 2 2.0551 93.2629 13.0804 7.2161 5.6734 -3.9600
# 3 9.5920 13.0804 76.9622 6.3503 9.7392 -9.6490
# 4 -0.3981 7.2161 6.3503 44.0152 -5.8501 2.8532
# 5 12.2066 5.6734 9.7392 -5.8501 40.4882 -3.7263
# 6 -14.2653 -3.9600 -9.6490 2.8532 -3.7263 41.1154
#
#
#
# Elastic Compliance Matrix: (Units=1/GPa)
#
#
# Indices 1 2 3 4 5 6 
#
# 1 0.022415 0.000406 -0.001134 -0.000960 -0.006030 0.007070
# 2 0.000406 0.011198 -0.001499 -0.001874 -0.001523 0.000860
# 3 -0.001134 -0.001499 0.014306 -0.002402 -0.002986 0.002716
# 4 -0.000960 -0.001874 -0.002402 0.024101 0.004396 -0.002351
# 5 -0.006030 -0.001523 -0.002986 0.004396 0.028019 -0.000705
# 6 0.007070 0.000860 0.002716 -0.002351 -0.000705 0.027594
#
#
# Mechanical properties :
#
#
# Convention : Reuss Voigt Hill
#
# Bulk Modulus (GPa) = 23.00623 30.27855 26.64239
# Shear Modulus (GPa) = 34.11239 38.34538 36.22888
#
# Velocity S-wave (km/s) = 3.85410 4.08623 3.97186
# Velocity P-wave (km/s) = 5.46108 5.95380 5.71275
#
# Compressibility (1/GPa) = 0.04346649
#
# Stress axis : x y z
#
# Youngs Moduli (GPa) = 44.61230 89.30357 69.90093
#
# Poissons Ratio (x) = -0.03630 0.07927
# Poissons Ratio (y) = -0.01813 0.10476
# Poissons Ratio (z) = 0.05059 0.13384
#
# Static dielectric constant tensor:
#      x y z
#    x 1.849800 0.042220 -0.034090 
#    y 0.042220 1.835310 -0.006850 
#    z -0.034090 -0.006850 1.900910 
# 
# From -- ./inp_files/205067.got.cif
#   From: 2010.05.17/outbox.cif.g08.bks.cpg/sg2_103_cif.got.tgz:205067.got - 2010.06.03 11:33:40.
