data_PCOD9029748
_publ_section_title
;
Structure prediction by ZEFSAII (Michael W. Deem and Ramdas Pophale) SiO2 
 PCOD9029748
Probable space group: P -1
;
_chemical_formula_sum "Si O2"
_cell_formula_units_Z 11
_cell_length_a 8.789605
_cell_length_b 17.778344
_cell_length_c 8.628165
_cell_angle_alpha 142.768490
_cell_angle_beta 149.590214
_cell_angle_gamma 40.399806
_cell_volume 400.389220
_symmetry_space_group_name_H-M "P -1"
_symmetry_group_IT_number 2
_symmetry_cell_setting 'triclinic'
loop_
_space_group_symop_operation_xyz
x,y,z
-x,-y,-z
loop_
_atom_site_type_symbol
_atom_site_label
_atom_site_fract_x
_atom_site_fract_y
_atom_site_fract_z
Si Si1 0.222687 0.765846 0.069685
Si Si2 0.330710 0.454075 0.423682
Si Si3 0.771581 0.184789 0.339073
Si Si4 0.157904 0.303079 0.628879
Si Si5 0.500000 0.500000 0.000000
Si Si6 0.657244 0.975910 0.268568
O O1 0.476397 0.730415 0.094810
O O2 0.253643 0.901426 0.379089
O O3 0.911120 0.751555 0.689308
O O4 0.322560 0.654109 0.098867
O O5 0.500000 0.500000 0.500000
O O6 0.471976 0.301943 0.298424
O O7 0.978121 0.541968 0.234828
O O8 0.376586 0.492172 0.702240
O O9 0.992466 0.237184 0.502274
O O10 0.013881 0.129709 0.600473
O O11 0.612162 0.073166 0.958320
O O12 0.500000 0.000000 0.000000
#
# Coordination Sequence:
#
# PCOD9029748 Si02
#       6
#     2   2   2   2   1   2
#     4  11  24  42  66  97 130 171 230 273 331 409
#     4   9  21  41  66  99 132 171 226 273 330 402
#     4  11  24  43  68  95 136 178 215 279 342 391
#     4  10  23  43  68  99 130 171 224 282 333 395
#     4  10  22  42  68  92 130 178 216 282 338 376
#     4  12  26  42  64  96 134 178 225 274 334 410
#
# _framework density 27.473268999999998
#
# number of rings (size 3 to 8) (size 9 to 14) (size 15 to 20)
#    0.000    1.455    0.000    3.818    0.000   13.091 
#    0.000   10.909    0.000    0.000    0.000    0.000 
#    0.000    0.000    0.000    0.000    0.000    0.000 
#
# Total GULP energy -61298.008167 kJ/mol
# GULP energy per Si atom -5572.546197 kJ/mol
# Density = 2.741074 g / cm^3
# Si number density = 27.473269 Si / 1000 Ang^3
#
#
#
# Elastic Constant Matrix: (Units=GPa)
#
#
# Indices 1 2 3 4 5 6 
#
# 1 46.1397 26.2557 17.6646 -11.7164 -13.0299 4.2725
# 2 26.2557 185.4966 54.9057 2.6819 -12.0511 1.8208
# 3 17.6646 54.9057 114.8356 -12.8092 -17.4053 8.7120
# 4 -11.7164 2.6819 -12.8092 47.7749 -3.4281 -2.5440
# 5 -13.0299 -12.0511 -17.4053 -3.4281 49.8255 -5.0661
# 6 4.2725 1.8208 8.7120 -2.5440 -5.0661 39.1338
#
#
#
# Elastic Compliance Matrix: (Units=1/GPa)
#
#
# Indices 1 2 3 4 5 6 
#
# 1 0.027659 -0.003357 -0.000759 0.007161 0.006508 -0.001387
# 2 -0.003357 0.006766 -0.003044 -0.002018 -0.000388 0.000548
# 3 -0.000759 -0.003044 0.011214 0.003119 0.003027 -0.001677
# 4 0.007161 -0.002018 0.003119 0.023977 0.004197 0.000720
# 5 0.006508 -0.000388 0.003027 0.004197 0.023219 0.001912
# 6 -0.001387 0.000548 -0.001677 0.000720 0.001912 0.026347
#
#
# Mechanical properties :
#
#
# Convention : Reuss Voigt Hill
#
# Bulk Modulus (GPa) = 31.93028 60.45821 46.19425
# Shear Modulus (GPa) = 34.73637 43.85659 39.29648
#
# Velocity S-wave (km/s) = 3.55966 3.99975 3.78610
# Velocity P-wave (km/s) = 5.34251 6.58670 5.99696
#
# Compressibility (1/GPa) = 0.03131823
#
# Stress axis : x y z
#
# Youngs Moduli (GPa) = 36.15454 147.80428 89.17292
#
# Poissons Ratio (x) = 0.49624 0.06769
# Poissons Ratio (y) = 0.12139 0.27143
# Poissons Ratio (z) = 0.02744 0.44990
#
# Static dielectric constant tensor:
#      x y z
#    x 2.198320 -0.003690 0.068470 
#    y -0.003690 2.195760 0.077610 
#    z 0.068470 0.077610 2.079280 
# 
# From -- ./inp_files/189622.got.cif
#   From: 2010.05.17/outbox.cif.g08.bks.cpg/sg2_95_cif.got.tgz:189622.got - 2010.06.03 11:33:40.
