data_PCOD9029459
_publ_section_title
;
Structure prediction by ZEFSAII (Michael W. Deem and Ramdas Pophale) SiO2 
 PCOD9029459
Probable space group: P -1
;
_chemical_formula_sum "Si O2"
_cell_formula_units_Z 14
_cell_length_a 20.961278
_cell_length_b 6.578097
_cell_length_c 8.134809
_cell_angle_alpha 81.865332
_cell_angle_beta 137.548649
_cell_angle_gamma 74.109002
_cell_volume 617.844804
_symmetry_space_group_name_H-M "P -1"
_symmetry_group_IT_number 2
_symmetry_cell_setting 'triclinic'
loop_
_space_group_symop_operation_xyz
x,y,z
-x,-y,-z
loop_
_atom_site_type_symbol
_atom_site_label
_atom_site_fract_x
_atom_site_fract_y
_atom_site_fract_z
Si Si1 0.632413 0.111982 0.193147
Si Si2 0.043254 0.933912 0.339873
Si Si3 0.394699 0.537838 0.195689
Si Si4 0.475933 0.120377 0.146624
Si Si5 0.186280 0.847103 0.308006
Si Si6 0.063348 0.600833 0.707355
Si Si7 0.293709 0.425977 0.297918
O O1 0.522354 0.232263 0.091868
O O2 0.738442 0.047775 0.515067
O O3 0.633065 0.269961 0.025094
O O4 0.622747 0.900236 0.116021
O O5 0.136494 0.822571 0.387187
O O6 0.079491 0.756508 0.583231
O O7 0.012954 0.199878 0.317048
O O8 0.926009 0.983000 0.037047
O O9 0.500000 0.500000 0.500000
O O10 0.431780 0.284609 0.204591
O O11 0.305477 0.585455 0.160801
O O12 0.586685 0.841266 0.426315
O O13 0.261386 0.588355 0.382730
O O14 0.000000 0.500000 0.500000
O O15 0.188455 0.409918 0.044880
#
# Coordination Sequence:
#
# PCOD9029459 Si02
#       7
#     2   2   2   2   2   2   2
#     4  11  25  41  67  91 130 171 211 263 317 382
#     4   9  21  45  65  94 128 165 212 261 312 386
#     4  12  24  44  65  90 131 175 211 263 320 375
#     4  11  26  43  62  99 130 165 220 264 312 386
#     4  10  22  43  68  91 129 172 208 259 324 373
#     4  10  22  42  67  95 129 162 211 265 318 371
#     4  11  24  42  66  97 131 166 217 267 310 387
#
# _framework density 22.659410000000001
#
# number of rings (size 3 to 8) (size 9 to 14) (size 15 to 20)
#    0.000    1.429    1.429    2.571    6.000    1.143 
#    5.143    2.143    0.000    0.000    0.000    0.000 
#    0.000    0.000    0.000    0.000    0.000    0.000 
#
# Total GULP energy -78260.183503 kJ/mol
# GULP energy per Si atom -5590.013107 kJ/mol
# Density = 2.260784 g / cm^3
# Si number density = 22.659410 Si / 1000 Ang^3
#
#
#
# Elastic Constant Matrix: (Units=GPa)
#
#
# Indices 1 2 3 4 5 6 
#
# 1 125.5507 49.2453 37.1044 -4.3776 -10.1979 -15.9416
# 2 49.2453 113.1439 73.9435 44.3036 13.5607 -9.0184
# 3 37.1044 73.9435 124.1487 40.2603 7.2803 11.5209
# 4 -4.3776 44.3036 40.2603 52.0731 15.1511 -8.2710
# 5 -10.1979 13.5607 7.2803 15.1511 33.3955 6.4252
# 6 -15.9416 -9.0184 11.5209 -8.2710 6.4252 39.3398
#
#
#
# Elastic Compliance Matrix: (Units=1/GPa)
#
#
# Indices 1 2 3 4 5 6 
#
# 1 0.013330 -0.007038 -0.004084 0.010949 0.001496 0.007042
# 2 -0.007038 0.021973 -0.006987 -0.012202 -0.004474 0.002396
# 3 -0.004084 -0.006987 0.018049 -0.011779 0.005285 -0.011882
# 4 0.010949 -0.012202 -0.011779 0.046198 -0.013361 0.016984
# 5 0.001496 -0.004474 0.005285 -0.013361 0.039280 -0.011192
# 6 0.007042 0.002396 -0.011882 0.016984 -0.011192 0.037701
#
#
# Mechanical properties :
#
#
# Convention : Reuss Voigt Hill
#
# Bulk Modulus (GPa) = 58.36189 75.93665 67.14927
# Shear Modulus (GPa) = 22.88752 38.46503 30.67628
#
# Velocity S-wave (km/s) = 3.18160 4.12458 3.68339
# Velocity P-wave (km/s) = 6.26968 7.50119 6.91291
#
# Compressibility (1/GPa) = 0.01713447
#
# Stress axis : x y z
#
# Youngs Moduli (GPa) = 75.01915 45.51084 55.40446
#
# Poissons Ratio (x) = 0.32032 0.22626
# Poissons Ratio (y) = 0.52801 0.38708
# Poissons Ratio (z) = 0.30637 0.31796
#
# Static dielectric constant tensor:
#      x y z
#    x 1.843160 0.023870 -0.003140 
#    y 0.023870 1.836780 -0.017030 
#    z -0.003140 -0.017030 1.866050 
# 
# From -- ./inp_files/288930.got.cif
#   From: 2010.05.17/outbox.cif.g08.bks.cpg/sg2_145_cif.got.tgz:288930.got - 2010.06.03 11:33:40.
