data_PCOD9029657
_publ_section_title
;
Structure prediction by ZEFSAII (Michael W. Deem and Ramdas Pophale) SiO2 
 PCOD9029657
Probable space group: P -1
;
_chemical_formula_sum "Si O2"
_cell_formula_units_Z 13
_cell_length_a 6.554557
_cell_length_b 5.576466
_cell_length_c 16.677989
_cell_angle_alpha 85.955448
_cell_angle_beta 111.408245
_cell_angle_gamma 74.540185
_cell_volume 537.353171
_symmetry_space_group_name_H-M "P -1"
_symmetry_group_IT_number 2
_symmetry_cell_setting 'triclinic'
loop_
_space_group_symop_operation_xyz
x,y,z
-x,-y,-z
loop_
_atom_site_type_symbol
_atom_site_label
_atom_site_fract_x
_atom_site_fract_y
_atom_site_fract_z
Si Si1 0.457865 0.444424 0.164758
Si Si2 0.000000 0.500000 0.000000
Si Si3 0.182424 0.037608 0.721405
Si Si4 0.339043 0.279592 0.603564
Si Si5 0.087105 0.226860 0.417369
Si Si6 0.256207 0.542193 0.310534
Si Si7 0.395989 0.289879 0.950397
O O1 0.249671 0.403162 0.084705
O O2 0.687564 0.202794 0.201263
O O3 0.377109 0.478403 0.243852
O O4 0.528305 0.677659 0.130954
O O5 0.868600 0.615631 0.063370
O O6 0.025983 0.968627 0.631371
O O7 0.366271 0.118424 0.692544
O O8 0.997715 0.255332 0.738363
O O9 0.256012 0.153683 0.518848
O O10 0.569340 0.347449 0.617639
O O11 0.129093 0.533546 0.590202
O O12 0.216357 0.316266 0.361042
O O13 0.500000 0.500000 0.000000
O O14 0.500000 0.000000 0.000000
#
# Coordination Sequence:
#
# PCOD9029657 Si02
#       7
#     2   1   2   2   2   2   2
#     4  11  26  46  71 105 140 174 241 295 360 436
#     4  10  26  48  78 100 138 188 230 300 376 438
#     4  11  25  42  68 104 140 189 235 292 348 420
#     4  10  22  42  68 101 143 189 236 291 342 415
#     4  10  22  43  66 102 145 187 238 284 346 421
#     4  11  25  41  70 103 140 190 233 291 354 421
#     4  10  25  48  74 107 139 182 237 301 369 447
#
# _framework density 24.192654000000001
#
# number of rings (size 3 to 8) (size 9 to 14) (size 15 to 20)
#    0.000    1.538    1.538    0.923    4.308    9.231 
#    0.000    0.000    0.000    0.000    0.000    0.000 
#    0.000    0.000    0.000    0.000    0.000    0.000 
#
# Total GULP energy -72448.806649 kJ/mol
# GULP energy per Si atom -5572.985127 kJ/mol
# Density = 2.413759 g / cm^3
# Si number density = 24.192654 Si / 1000 Ang^3
#
#
#
# Elastic Constant Matrix: (Units=GPa)
#
#
# Indices 1 2 3 4 5 6 
#
# 1 121.0729 28.7582 28.9461 -15.4131 -24.4142 -10.6266
# 2 28.7582 65.0086 21.2428 -13.9372 -14.5124 -0.8116
# 3 28.9461 21.2428 115.7335 5.4876 -3.9868 -4.3471
# 4 -15.4131 -13.9372 5.4876 45.4040 10.0516 2.1887
# 5 -24.4142 -14.5124 -3.9868 10.0516 45.0906 2.2249
# 6 -10.6266 -0.8116 -4.3471 2.1887 2.2249 32.5680
#
#
#
# Elastic Compliance Matrix: (Units=1/GPa)
#
#
# Indices 1 2 3 4 5 6 
#
# 1 0.010722 -0.002680 -0.002038 0.002006 0.004180 0.002739
# 2 -0.002680 0.019330 -0.003029 0.004674 0.003527 -0.001352
# 3 -0.002038 -0.003029 0.009842 -0.002707 -0.000644 0.000799
# 4 0.002006 0.004674 -0.002707 0.025232 -0.003221 -0.001066
# 5 0.004180 0.003527 -0.000644 -0.003221 0.026248 -0.000211
# 6 0.002739 -0.001352 0.000799 -0.001066 -0.000211 0.031758
#
#
# Mechanical properties :
#
#
# Convention : Reuss Voigt Hill
#
# Bulk Modulus (GPa) = 40.98053 51.07878 46.02965
# Shear Modulus (GPa) = 34.06940 39.47038 36.76989
#
# Velocity S-wave (km/s) = 3.75674 4.04357 3.90279
# Velocity P-wave (km/s) = 5.98277 6.55437 6.27508
#
# Compressibility (1/GPa) = 0.02440183
#
# Stress axis : x y z
#
# Youngs Moduli (GPa) = 93.26601 51.73190 101.60130
#
# Poissons Ratio (x) = 0.13863 0.20707
# Poissons Ratio (y) = 0.24992 0.30773
# Poissons Ratio (z) = 0.19008 0.15668
#
# Static dielectric constant tensor:
#      x y z
#    x 1.877180 0.010870 -0.043360 
#    y 0.010870 1.955260 0.075110 
#    z -0.043360 0.075110 2.019720 
# 
# From -- ./inp_files/4583.got.cif
#   From: 2010.05.17/outbox.cif.g08.bks.cpg/sg2_3_cif.got.tgz:4583.got - 2010.06.03 11:33:40.
