data_PCOD9029513
_publ_section_title
;
Structure prediction by ZEFSAII (Michael W. Deem and Ramdas Pophale) SiO2 
 PCOD9029513
Probable space group: P -1
;
_chemical_formula_sum "Si O2"
_cell_formula_units_Z 14
_cell_length_a 6.224417
_cell_length_b 16.605601
_cell_length_c 5.919899
_cell_angle_alpha 75.747709
_cell_angle_beta 74.155850
_cell_angle_gamma 88.102714
_cell_volume 570.135767
_symmetry_space_group_name_H-M "P -1"
_symmetry_group_IT_number 2
_symmetry_cell_setting 'triclinic'
loop_
_space_group_symop_operation_xyz
x,y,z
-x,-y,-z
loop_
_atom_site_type_symbol
_atom_site_label
_atom_site_fract_x
_atom_site_fract_y
_atom_site_fract_z
Si Si1 0.772056 0.795277 0.707063
Si Si2 0.160169 0.749033 0.298704
Si Si3 0.541988 0.321233 0.386660
Si Si4 0.724548 0.550926 0.832258
Si Si5 0.736055 0.971636 0.367518
Si Si6 0.958010 0.390276 0.936742
Si Si7 0.963729 0.882895 0.975715
O O1 0.549073 0.747479 0.719988
O O2 0.770787 0.890007 0.559423
O O3 0.833709 0.807216 0.940469
O O4 0.977505 0.756166 0.544190
O O5 0.387806 0.723449 0.373098
O O6 0.082332 0.676517 0.200839
O O7 0.143043 0.837791 0.115816
O O8 0.350844 0.389674 0.390042
O O9 0.763006 0.367007 0.191247
O O10 0.907588 0.481868 0.791537
O O11 0.500000 0.500000 0.000000
O O12 0.815449 0.604036 0.985615
O O13 0.500000 0.000000 0.500000
O O14 0.785129 0.935639 0.127866
O O15 0.900841 0.052696 0.268069
#
# Coordination Sequence:
#
# PCOD9029513 Si02
#       7
#     2   2   2   2   2   2   2
#     4  11  25  44  66  98 136 177 226 287 343 415
#     4  11  24  40  66  97 136 179 227 280 346 404
#     4  11  23  41  65  97 133 179 227 280 342 414
#     4   9  20  41  67  96 134 178 228 281 342 403
#     4  10  24  44  72 104 132 185 234 284 354 413
#     4  10  22  42  67  96 134 180 226 288 335 404
#     4  10  23  48  67  99 146 177 230 300 336 412
#
# _framework density 24.555553
#
# number of rings (size 3 to 8) (size 9 to 14) (size 15 to 20)
#    0.000    1.714    0.000    3.000    4.000    5.714 
#    0.000   10.000    0.000    0.000    0.000    0.000 
#    0.000    0.000    0.000    0.000    0.000    0.000 
#
# Total GULP energy -78241.555272 kJ/mol
# GULP energy per Si atom -5588.682519 kJ/mol
# Density = 2.449966 g / cm^3
# Si number density = 24.555553 Si / 1000 Ang^3
#
#
#
# Elastic Constant Matrix: (Units=GPa)
#
#
# Indices 1 2 3 4 5 6 
#
# 1 125.5607 60.8751 46.7733 -11.5825 20.9259 3.1489
# 2 60.8751 133.6057 29.2691 -4.8254 20.7176 -9.1674
# 3 46.7733 29.2691 37.7746 -17.4778 1.7613 -9.1241
# 4 -11.5825 -4.8254 -17.4778 43.1491 -6.3482 3.4603
# 5 20.9259 20.7176 1.7613 -6.3482 36.3583 -3.5220
# 6 3.1489 -9.1674 -9.1241 3.4603 -3.5220 55.4160
#
#
#
# Elastic Compliance Matrix: (Units=1/GPa)
#
#
# Indices 1 2 3 4 5 6 
#
# 1 0.021348 -0.002261 -0.029235 -0.007528 -0.011542 -0.006664
# 2 -0.002261 0.010589 -0.006271 -0.002732 -0.004837 0.000711
# 3 -0.029235 -0.006271 0.082336 0.026991 0.022473 0.013923
# 4 -0.007528 -0.002732 0.026991 0.033107 0.010656 0.003030
# 5 -0.011542 -0.004837 0.022473 0.010656 0.038190 0.005318
# 6 -0.006664 0.000711 0.013923 0.003030 0.005318 0.020983
#
#
# Mechanical properties :
#
#
# Convention : Reuss Voigt Hill
#
# Bulk Modulus (GPa) = 25.81585 63.41956 44.61771
# Shear Modulus (GPa) = 16.94916 37.65291 27.30104
#
# Velocity S-wave (km/s) = 2.63009 3.92008 3.33799
# Velocity P-wave (km/s) = 4.44513 6.80973 5.75029
#
# Compressibility (1/GPa) = 0.03873589
#
# Stress axis : x y z
#
# Youngs Moduli (GPa) = 46.84388 94.43707 12.14541
#
# Poissons Ratio (x) = 0.21356 0.35508
# Poissons Ratio (y) = 0.10594 0.07617
# Poissons Ratio (z) = 1.36950 0.59224
#
# Static dielectric constant tensor:
#      x y z
#    x 1.969170 -0.034200 0.038170 
#    y -0.034200 1.977710 -0.014190 
#    z 0.038170 -0.014190 1.998320 
# 
# From -- ./inp_files/7449.got.cif
#   From: 2010.05.17/outbox.cif.g08.bks.cpg/sg2_4_cif.got.tgz:7449.got - 2010.06.03 11:33:40.
