data_PCOD9029911
_publ_section_title
;
Structure prediction by ZEFSAII (Michael W. Deem and Ramdas Pophale) SiO2 
 PCOD9029911
Probable space group: P -1
;
_chemical_formula_sum "Si O2"
_cell_formula_units_Z 15
_cell_length_a 12.738135
_cell_length_b 14.344683
_cell_length_c 11.925571
_cell_angle_alpha 49.420800
_cell_angle_beta 38.214029
_cell_angle_gamma 30.064784
_cell_volume 672.248152
_symmetry_space_group_name_H-M "P -1"
_symmetry_group_IT_number 2
_symmetry_cell_setting 'triclinic'
loop_
_space_group_symop_operation_xyz
x,y,z
-x,-y,-z
loop_
_atom_site_type_symbol
_atom_site_label
_atom_site_fract_x
_atom_site_fract_y
_atom_site_fract_z
Si Si1 0.122848 0.664919 0.130178
Si Si2 0.901738 0.687017 0.074392
Si Si3 0.925034 0.259663 0.537251
Si Si4 0.216404 0.526327 0.721186
Si Si5 0.500000 0.000000 0.000000
Si Si6 0.696762 0.990100 0.394919
Si Si7 0.276172 0.842420 0.331203
Si Si8 0.434230 0.393446 0.273503
O O1 0.257795 0.491117 0.233321
O O2 0.961823 0.690366 0.147131
O O3 0.342336 0.629518 0.919332
O O4 0.946057 0.845621 0.217326
O O5 0.879468 0.553845 0.178390
O O6 0.650658 0.888859 0.077512
O O7 0.126110 0.601550 0.864672
O O8 0.936041 0.298817 0.369277
O O9 0.780938 0.207254 0.692982
O O10 0.745824 0.456713 0.594504
O O11 0.190563 0.103379 0.503903
O O12 0.524459 0.344284 0.611793
O O13 0.403936 0.903940 0.151699
O O14 0.560110 0.195405 0.349218
O O15 0.500000 0.000000 0.500000
O O16 0.000000 0.000000 0.500000
#
# Coordination Sequence:
#
# PCOD9029911 Si02
#       8
#     2   2   2   2   1   2   2   2
#     4  10  23  44  71  95 133 186 229 289 349 412
#     4  10  22  42  68  98 143 185 230 293 353 419
#     4  11  25  42  74  99 142 187 229 290 357 416
#     4  10  23  42  66 104 141 185 233 285 359 425
#     4  10  24  42  64 104 138 176 240 282 340 432
#     4  11  27  43  70 106 135 181 237 291 355 412
#     4  11  24  42  69 103 142 184 233 287 354 428
#     4  10  24  46  68 100 135 177 242 286 347 417
#
# _framework density 22.313189000000001
#
# number of rings (size 3 to 8) (size 9 to 14) (size 15 to 20)
#    0.000    1.600    0.000    2.400    7.467    3.200 
#    4.800    0.000    0.000    0.000    0.000    0.000 
#    0.000    0.000    0.000    0.000    0.000    0.000 
#
# Total GULP energy -83617.056009 kJ/mol
# GULP energy per Si atom -5574.470401 kJ/mol
# Density = 2.226240 g / cm^3
# Si number density = 22.313189 Si / 1000 Ang^3
#
#
#
# Elastic Constant Matrix: (Units=GPa)
#
#
# Indices 1 2 3 4 5 6 
#
# 1 115.4031 55.5692 10.2765 -7.8859 -2.2724 -26.4546
# 2 55.5692 154.0912 30.4094 -16.4461 3.9750 -8.4573
# 3 10.2765 30.4094 29.4208 -13.6651 2.1974 -3.7761
# 4 -7.8859 -16.4461 -13.6651 28.6267 6.6882 -4.5085
# 5 -2.2724 3.9750 2.1974 6.6882 23.9641 5.5346
# 6 -26.4546 -8.4573 -3.7761 -4.5085 5.5346 36.1245
#
#
#
# Elastic Compliance Matrix: (Units=1/GPa)
#
#
# Indices 1 2 3 4 5 6 
#
# 1 0.012921 -0.004256 0.003501 0.004779 -0.001971 0.009730
# 2 -0.004256 0.009673 -0.008498 0.000307 -0.000955 -0.001555
# 3 0.003501 -0.008498 0.057685 0.028967 -0.014506 0.012442
# 4 0.004779 0.000307 0.028967 0.058238 -0.022507 0.017316
# 5 -0.001971 -0.000955 -0.014506 -0.022507 0.052556 -0.014044
# 6 0.009730 -0.001555 0.012442 0.017316 -0.014044 0.040057
#
#
# Mechanical properties :
#
#
# Convention : Reuss Voigt Hill
#
# Bulk Modulus (GPa) = 16.18798 54.60284 35.39541
# Shear Modulus (GPa) = 18.50305 31.25375 24.87840
#
# Velocity S-wave (km/s) = 2.88278 3.74663 3.34273
# Velocity P-wave (km/s) = 4.28383 6.57576 5.54940
#
# Compressibility (1/GPa) = 0.06177421
#
# Stress axis : x y z
#
# Youngs Moduli (GPa) = 77.39363 103.37651 17.33568
#
# Poissons Ratio (x) = 0.43993 -0.06069
# Poissons Ratio (y) = 0.32936 0.14731
# Poissons Ratio (z) = -0.27096 0.87846
#
# Static dielectric constant tensor:
#      x y z
#    x 1.807370 0.003580 -0.018520 
#    y 0.003580 1.823330 0.025780 
#    z -0.018520 0.025780 1.919170 
# 
# From -- ./inp_files/432553.got.cif
#   From: 2010.05.17/outbox.cif.g08.bks.cpg/sg2_217_cif.got.tgz:432553.got - 2010.06.03 11:33:40.
