data_PCOD9029662
_publ_section_title
;
Structure prediction by ZEFSAII (Michael W. Deem and Ramdas Pophale) SiO2 
 PCOD9029662
Probable space group: P -1
;
_chemical_formula_sum "Si O2"
_cell_formula_units_Z 15
_cell_length_a 10.222433
_cell_length_b 18.035862
_cell_length_c 11.004015
_cell_angle_alpha 43.567083
_cell_angle_beta 34.966712
_cell_angle_gamma 32.900126
_cell_volume 627.199459
_symmetry_space_group_name_H-M "P -1"
_symmetry_group_IT_number 2
_symmetry_cell_setting 'triclinic'
loop_
_space_group_symop_operation_xyz
x,y,z
-x,-y,-z
loop_
_atom_site_type_symbol
_atom_site_label
_atom_site_fract_x
_atom_site_fract_y
_atom_site_fract_z
Si Si1 0.659289 0.594405 0.614578
Si Si2 0.741726 0.209882 0.879248
Si Si3 0.303154 0.512232 0.880179
Si Si4 0.323704 0.311857 0.758109
Si Si5 0.741189 0.949616 0.481749
Si Si6 0.500000 0.500000 0.500000
Si Si7 0.443330 0.937897 0.943179
Si Si8 0.150856 0.828622 0.882236
O O1 0.572931 0.502982 0.736937
O O2 0.596134 0.698829 0.431369
O O3 0.424018 0.684859 0.791207
O O4 0.000000 0.500000 0.500000
O O5 0.429917 0.356830 0.949454
O O6 0.693040 0.101615 0.009202
O O7 0.873450 0.186863 0.938172
O O8 0.961204 0.190690 0.632475
O O9 0.255357 0.570471 0.712562
O O10 0.024468 0.598560 0.072638
O O11 0.404837 0.403064 0.647779
O O12 0.457129 0.173835 0.896039
O O13 0.777126 0.067319 0.317365
O O14 0.500000 0.000000 0.500000
O O15 0.672342 0.933156 0.690692
O O16 0.177958 0.089464 0.014241
#
# Coordination Sequence:
#
# PCOD9029662 Si02
#       8
#     2   2   2   2   2   1   2   2
#     4  11  28  48  69  97 140 192 238 283 345 419
#     4  11  22  38  67 103 137 172 230 289 345 406
#     4  11  25  42  69 102 139 179 230 289 348 416
#     4  11  25  45  70 105 142 182 231 285 354 414
#     4  11  21  38  66  99 135 178 225 285 349 399
#     4  10  22  42  68 102 138 178 218 286 350 414
#     4  11  23  41  67 103 136 175 229 287 349 412
#     4  11  24  43  64 100 139 181 238 283 338 416
#
# _framework density 23.915837
#
# number of rings (size 3 to 8) (size 9 to 14) (size 15 to 20)
#    0.000    1.067    4.000    2.000    3.733    5.867 
#    0.000    1.333    0.000    0.000    0.000    0.000 
#    0.000    0.000    0.000    0.000    0.000    0.000 
#
# Total GULP energy -83540.053954 kJ/mol
# GULP energy per Si atom -5569.336930 kJ/mol
# Density = 2.386140 g / cm^3
# Si number density = 23.915837 Si / 1000 Ang^3
#
#
#
# Elastic Constant Matrix: (Units=GPa)
#
#
# Indices 1 2 3 4 5 6 
#
# 1 58.5028 17.3734 18.6581 0.7246 10.2843 -5.0128
# 2 17.3734 93.6124 21.2478 19.1405 9.8719 -11.1635
# 3 18.6581 21.2478 108.4794 -0.1335 14.8293 -5.8435
# 4 0.7246 19.1405 -0.1335 40.3232 -2.8353 4.0244
# 5 10.2843 9.8719 14.8293 -2.8353 28.3743 1.5471
# 6 -5.0128 -11.1635 -5.8435 4.0244 1.5471 27.3312
#
#
#
# Elastic Compliance Matrix: (Units=1/GPa)
#
#
# Indices 1 2 3 4 5 6 
#
# 1 0.019590 -0.002338 -0.002048 0.000127 -0.005340 0.002484
# 2 -0.002338 0.014261 -0.001439 -0.007694 -0.004484 0.006475
# 3 -0.002048 -0.001439 0.010521 0.000304 -0.004307 0.001485
# 4 0.000127 -0.007694 0.000304 0.029635 0.005856 -0.007749
# 5 -0.005340 -0.004484 -0.004307 0.005856 0.041955 -0.006969
# 6 0.002484 0.006475 0.001485 -0.007749 -0.006969 0.041542
#
#
# Mechanical properties :
#
#
# Convention : Reuss Voigt Hill
#
# Bulk Modulus (GPa) = 30.55836 41.68369 36.12102
# Shear Modulus (GPa) = 27.76833 32.76010 30.26422
#
# Velocity S-wave (km/s) = 3.41117 3.70511 3.56117
# Velocity P-wave (km/s) = 5.32165 5.98088 5.66087
#
# Compressibility (1/GPa) = 0.03272427
#
# Stress axis : x y z
#
# Youngs Moduli (GPa) = 51.04533 70.12164 95.04357
#
# Poissons Ratio (x) = 0.16393 0.19462
# Poissons Ratio (y) = 0.11933 0.13676
# Poissons Ratio (z) = 0.10452 0.10090
#
# Static dielectric constant tensor:
#      x y z
#    x 2.003870 -0.016480 -0.003030 
#    y -0.016480 1.983560 -0.020530 
#    z -0.003030 -0.020530 1.952970 
# 
# From -- ./inp_files/438622.got.cif
#   From: 2010.05.17/outbox.cif.g08.bks.cpg/sg2_220_cif.got.tgz:438622.got - 2010.06.03 11:33:40.
