data_PCOD9029206
_publ_section_title
;
Structure prediction by ZEFSAII (Michael W. Deem and Ramdas Pophale) SiO2 
 PCOD9029206
Probable space group: P -1
;
_chemical_formula_sum "Si O2"
_cell_formula_units_Z 16
_cell_length_a 8.712612
_cell_length_b 19.324738
_cell_length_c 11.083041
_cell_angle_alpha 146.133370
_cell_angle_beta 137.444470
_cell_angle_gamma 56.691777
_cell_volume 693.531788
_symmetry_space_group_name_H-M "P -1"
_symmetry_group_IT_number 2
_symmetry_cell_setting 'triclinic'
loop_
_space_group_symop_operation_xyz
x,y,z
-x,-y,-z
loop_
_atom_site_type_symbol
_atom_site_label
_atom_site_fract_x
_atom_site_fract_y
_atom_site_fract_z
Si Si1 0.055780 0.596466 0.483350
Si Si2 0.384814 0.188538 0.569022
Si Si3 0.363035 0.014432 0.643498
Si Si4 0.424501 0.390684 0.699880
Si Si5 0.533374 0.588073 0.864999
Si Si6 0.899203 0.116060 0.465256
Si Si7 0.145433 0.858248 0.794812
Si Si8 0.971073 0.592710 0.005947
O O1 0.277842 0.592279 0.683436
O O2 0.108176 0.707342 0.575312
O O3 0.977320 0.469678 0.179341
O O4 0.850468 0.623201 0.487465
O O5 0.461437 0.261707 0.594609
O O6 0.119104 0.120192 0.299520
O O7 0.571014 0.097603 0.564571
O O8 0.388814 0.297036 0.829885
O O9 0.160516 0.083333 0.574442
O O10 0.253767 0.960139 0.629494
O O11 0.617908 0.093780 0.927267
O O12 0.535592 0.452802 0.733711
O O13 0.500000 0.500000 0.000000
O O14 0.700412 0.600813 0.866961
O O15 0.810811 0.091735 0.243042
O O16 0.908290 0.264850 0.704535
O O17 0.000000 0.500000 0.000000
#
# Coordination Sequence:
#
# PCOD9029206 Si02
#       8
#     2   2   2   2   2   2   2   2
#     4  11  23  39  66  97 131 167 214 272 327 388
#     4  10  22  42  66  96 132 176 213 269 331 381
#     4  11  26  44  70  93 134 177 220 271 318 399
#     4   9  20  38  62  91 132 169 208 263 327 385
#     4  11  22  39  62 101 133 166 216 269 322 392
#     4  11  25  46  66  99 131 171 225 270 326 386
#     4  11  22  46  67  98 130 169 224 270 327 393
#     4  12  22  41  67  93 127 173 211 267 332 386
#
# _framework density 23.070318
#
# number of rings (size 3 to 8) (size 9 to 14) (size 15 to 20)
#    0.000    1.250    2.500    3.750    5.250    0.500 
#    4.500    1.250    0.000    0.000    0.000    0.000 
#    0.000    0.000    0.000    0.000    0.000    0.000 
#
# Total GULP energy -89358.332098 kJ/mol
# GULP energy per Si atom -5584.895756 kJ/mol
# Density = 2.301781 g / cm^3
# Si number density = 23.070318 Si / 1000 Ang^3
#
#
#
# Elastic Constant Matrix: (Units=GPa)
#
#
# Indices 1 2 3 4 5 6 
#
# 1 77.0239 18.7749 6.3455 6.5543 16.9443 -6.2246
# 2 18.7749 98.4599 30.5549 -0.0590 4.3174 -12.2737
# 3 6.3455 30.5549 61.8497 -7.9740 10.2294 -16.0065
# 4 6.5543 -0.0590 -7.9740 35.0921 -5.6482 3.8023
# 5 16.9443 4.3174 10.2294 -5.6482 22.9714 -1.9492
# 6 -6.2246 -12.2737 -16.0065 3.8023 -1.9492 42.0282
#
#
#
# Elastic Compliance Matrix: (Units=1/GPa)
#
#
# Indices 1 2 3 4 5 6 
#
# 1 0.017312 -0.003008 0.001954 -0.005323 -0.014192 0.002253
# 2 -0.003008 0.012663 -0.006157 -0.000523 0.002543 0.001073
# 3 0.001954 -0.006157 0.022510 0.002576 -0.009131 0.006408
# 4 -0.005323 -0.000523 0.002576 0.032030 0.010552 -0.002369
# 5 -0.014192 0.002543 -0.009131 0.010552 0.059928 -0.003012
# 6 0.002253 0.001073 0.006408 -0.002369 -0.003012 0.026955
#
#
# Mechanical properties :
#
#
# Convention : Reuss Voigt Hill
#
# Bulk Modulus (GPa) = 26.27232 38.74267 32.50749
# Shear Modulus (GPa) = 25.18776 32.12890 28.65833
#
# Velocity S-wave (km/s) = 3.30780 3.73587 3.52833
# Velocity P-wave (km/s) = 5.09915 5.95304 5.54257
#
# Compressibility (1/GPa) = 0.03806287
#
# Stress axis : x y z
#
# Youngs Moduli (GPa) = 57.76222 78.97254 44.42423
#
# Poissons Ratio (x) = 0.23751 -0.08679
# Poissons Ratio (y) = 0.17372 0.27354
# Poissons Ratio (z) = -0.11285 0.48627
#
# Static dielectric constant tensor:
#      x y z
#    x 1.895840 -0.017080 0.007090 
#    y -0.017080 1.899630 0.030950 
#    z 0.007090 0.030950 1.849590 
# 
# From -- ./inp_files/279576.got.cif
#   From: 2010.05.17/outbox.cif.g08.bks.cpg/sg2_140_cif.got.tgz:279576.got - 2010.06.03 11:33:40.
