data_PCOD9029212
_publ_section_title
;
Structure prediction by ZEFSAII (Michael W. Deem and Ramdas Pophale) SiO2 
 PCOD9029212
Probable space group: P -1
;
_chemical_formula_sum "Si O2"
_cell_formula_units_Z 16
_cell_length_a 9.710194
_cell_length_b 6.779944
_cell_length_c 20.751592
_cell_angle_alpha 55.825584
_cell_angle_beta 118.387446
_cell_angle_gamma 135.341573
_cell_volume 787.655565
_symmetry_space_group_name_H-M "P -1"
_symmetry_group_IT_number 2
_symmetry_cell_setting 'triclinic'
loop_
_space_group_symop_operation_xyz
x,y,z
-x,-y,-z
loop_
_atom_site_type_symbol
_atom_site_label
_atom_site_fract_x
_atom_site_fract_y
_atom_site_fract_z
Si Si1 0.008092 0.225302 0.051029
Si Si2 0.697496 0.189413 0.779253
Si Si3 0.311653 0.221232 0.044156
Si Si4 0.699879 0.176044 0.318173
Si Si5 0.439266 0.954487 0.420315
Si Si6 0.798054 0.806158 0.678370
Si Si7 0.093831 0.267260 0.420540
Si Si8 0.974029 0.815283 0.226485
O O1 0.216949 0.327409 0.051515
O O2 0.968481 0.051066 0.140803
O O3 0.000000 0.500000 0.000000
O O4 0.846689 0.985606 0.008068
O O5 0.782029 0.525696 0.754278
O O6 0.854101 0.188557 0.768991
O O7 0.654471 0.982765 0.868264
O O8 0.496798 0.071910 0.718984
O O9 0.500000 0.500000 0.000000
O O10 0.766846 0.487173 0.244013
O O11 0.904684 0.222724 0.354787
O O12 0.625724 0.087082 0.391378
O O13 0.258812 0.602405 0.426071
O O14 0.500000 0.000000 0.500000
O O15 0.374300 0.165411 0.352162
O O16 0.813399 0.789947 0.608132
O O17 0.975893 0.090636 0.705019
O O18 0.000000 0.000000 0.500000
#
# Coordination Sequence:
#
# PCOD9029212 Si02
#       8
#     2   2   2   2   2   2   2   2
#     4  10  22  42  66  96 134 171 215 268 321 381
#     4  11  23  43  66  97 134 170 217 272 317 382
#     4  10  22  42  66  96 134 171 215 268 321 381
#     4  12  22  46  66  94 133 168 218 265 322 385
#     4  12  28  46  66  96 132 167 212 274 328 383
#     4  12  22  46  66  94 133 168 218 265 322 385
#     4  12  28  46  68  98 130 168 218 268 322 398
#     4  11  23  43  66  97 134 170 217 272 317 382
#
# _framework density 20.313448000000001
#
# number of rings (size 3 to 8) (size 9 to 14) (size 15 to 20)
#    0.000    0.750    5.000    2.250    3.500    2.500 
#    4.500    0.000    0.000    0.000    0.000    0.000 
#    0.000    0.000    0.000    0.000    0.000    0.000 
#
# Total GULP energy -89267.702317 kJ/mol
# GULP energy per Si atom -5579.231395 kJ/mol
# Density = 2.026721 g / cm^3
# Si number density = 20.313448 Si / 1000 Ang^3
#
#
#
# Elastic Constant Matrix: (Units=GPa)
#
#
# Indices 1 2 3 4 5 6 
#
# 1 36.1628 29.8806 2.5545 -14.6523 -3.4893 5.8204
# 2 29.8806 71.5216 9.5402 -10.4648 -9.6958 -0.4184
# 3 2.5545 9.5402 96.2849 -16.7665 -8.9868 3.5331
# 4 -14.6523 -10.4648 -16.7665 47.1604 0.0969 -0.1640
# 5 -3.4893 -9.6958 -8.9868 0.0969 35.8113 -8.1773
# 6 5.8204 -0.4184 3.5331 -0.1640 -8.1773 28.8583
#
#
#
# Elastic Compliance Matrix: (Units=1/GPa)
#
#
# Indices 1 2 3 4 5 6 
#
# 1 0.050728 -0.020189 0.002993 0.012310 -0.002434 -0.011510
# 2 -0.020189 0.023145 -0.001799 -0.001766 0.005246 0.006104
# 3 0.002993 -0.001799 0.011563 0.004632 0.002387 -0.001343
# 4 0.012310 -0.001766 0.004632 0.026272 0.001224 -0.002579
# 5 -0.002434 0.005246 0.002387 0.001224 0.031827 0.009300
# 6 -0.011510 0.006104 -0.001343 -0.002579 0.009300 0.039847
#
#
# Mechanical properties :
#
#
# Convention : Reuss Voigt Hill
#
# Bulk Modulus (GPa) = 21.07627 31.99109 26.53368
# Shear Modulus (GPa) = 21.08026 33.16561 27.12293
#
# Velocity S-wave (km/s) = 3.22491 4.04504 3.65803
# Velocity P-wave (km/s) = 4.92593 6.13184 5.56166
#
# Compressibility (1/GPa) = 0.04744672
#
# Stress axis : x y z
#
# Youngs Moduli (GPa) = 19.71280 43.20593 86.47962
#
# Poissons Ratio (x) = 0.87228 -0.25886
# Poissons Ratio (y) = 0.39798 0.15562
# Poissons Ratio (z) = -0.05901 0.07775
#
# Static dielectric constant tensor:
#      x y z
#    x 1.709370 -0.020810 0.021810 
#    y -0.020810 1.688490 0.006860 
#    z 0.021810 0.006860 1.740280 
# 
# From -- ./inp_files/52638.got.cif
#   From: 2010.05.17/outbox.cif.g08.bks.cpg/sg2_27_cif.got.tgz:52638.got - 2010.06.03 11:33:40.
