data_PCOD9029980
_publ_section_title
;
Structure prediction by ZEFSAII (Michael W. Deem and Ramdas Pophale) SiO2 
 PCOD9029980
Probable space group: P -1
;
_chemical_formula_sum "Si O2"
_cell_formula_units_Z 16
_cell_length_a 9.253229
_cell_length_b 17.330814
_cell_length_c 11.647240
_cell_angle_alpha 122.419926
_cell_angle_beta 56.582784
_cell_angle_gamma 150.543363
_cell_volume 759.360224
_symmetry_space_group_name_H-M "P -1"
_symmetry_group_IT_number 2
_symmetry_cell_setting 'triclinic'
loop_
_space_group_symop_operation_xyz
x,y,z
-x,-y,-z
loop_
_atom_site_type_symbol
_atom_site_label
_atom_site_fract_x
_atom_site_fract_y
_atom_site_fract_z
Si Si1 0.311386 0.464402 0.451403
Si Si2 0.781748 0.053287 0.412700
Si Si3 0.454573 0.264644 0.557601
Si Si4 0.278600 0.703462 0.338538
Si Si5 0.833846 0.750579 0.825456
Si Si6 0.433236 0.018948 0.920720
Si Si7 0.172700 0.952735 0.363012
Si Si8 0.322001 0.680644 0.035280
O O1 0.500000 0.500000 0.500000
O O2 0.426615 0.614606 0.492571
O O3 0.309923 0.405858 0.285974
O O4 0.972612 0.333097 0.540443
O O5 0.938260 0.123528 0.522548
O O6 0.983218 0.144612 0.286322
O O7 0.500000 0.000000 0.500000
O O8 0.614556 0.885180 0.349417
O O9 0.706649 0.368441 0.629159
O O10 0.132663 0.161605 0.662613
O O11 0.371365 0.130537 0.429832
O O12 0.261489 0.677244 0.192066
O O13 0.577681 0.713513 0.935681
O O14 0.085848 0.859263 0.902733
O O15 0.624324 0.039730 0.766377
O O16 0.557504 0.176633 0.972267
O O17 0.500000 0.000000 0.000000
O O18 0.000000 0.500000 0.000000
#
# Coordination Sequence:
#
# PCOD9029980 Si02
#       8
#     2   2   2   2   2   2   2   2
#     4  12  25  41  72 107 143 182 236 300 362 421
#     4  11  18  39  72 100 128 172 234 294 343 418
#     4  10  24  40  69 103 137 176 234 296 359 415
#     4  11  23  43  68  95 137 184 232 292 348 420
#     4  12  25  45  74 105 144 189 237 293 362 426
#     4  12  28  46  73 101 147 194 244 288 360 439
#     4  10  22  42  69 103 134 179 236 295 349 420
#     4  12  29  48  69 105 146 194 242 294 361 429
#
# _framework density 21.07037
#
# number of rings (size 3 to 8) (size 9 to 14) (size 15 to 20)
#    0.000    0.750    3.750    3.000    5.250    5.000 
#    0.000    1.250    0.000    0.000    0.000    0.000 
#    0.000    0.000    0.000    0.000    0.000    0.000 
#
# Total GULP energy -89208.943647 kJ/mol
# GULP energy per Si atom -5575.558978 kJ/mol
# Density = 2.102241 g / cm^3
# Si number density = 21.070370 Si / 1000 Ang^3
#
#
#
# Elastic Constant Matrix: (Units=GPa)
#
#
# Indices 1 2 3 4 5 6 
#
# 1 149.9766 49.4874 39.5095 6.6887 10.3357 14.3042
# 2 49.4874 82.6982 24.9406 3.7025 -0.4439 11.5235
# 3 39.5095 24.9406 79.2872 1.8800 -8.5452 5.1106
# 4 6.6887 3.7025 1.8800 21.3054 6.5256 1.6298
# 5 10.3357 -0.4439 -8.5452 6.5256 42.7734 -6.5713
# 6 14.3042 11.5235 5.1106 1.6298 -6.5713 38.1272
#
#
#
# Elastic Compliance Matrix: (Units=1/GPa)
#
#
# Indices 1 2 3 4 5 6 
#
# 1 0.009501 -0.004265 -0.003581 -0.000736 -0.003302 -0.002333
# 2 -0.004265 0.015866 -0.002618 -0.001108 0.000423 -0.002724
# 3 -0.003581 -0.002618 0.015655 -0.001173 0.004271 0.000822
# 4 -0.000736 -0.001108 -0.001173 0.050173 -0.008150 -0.002781
# 5 -0.003302 0.000423 0.004271 -0.008150 0.027133 0.005563
# 6 -0.002333 -0.002724 0.000822 -0.002781 0.005563 0.028894
#
#
# Mechanical properties :
#
#
# Convention : Reuss Voigt Hill
#
# Bulk Modulus (GPa) = 49.76579 59.98188 54.87383
# Shear Modulus (GPa) = 28.59633 33.64283 31.11958
#
# Velocity S-wave (km/s) = 3.68799 4.00019 3.84726
# Velocity P-wave (km/s) = 6.46569 7.06149 6.77015
#
# Compressibility (1/GPa) = 0.02009412
#
# Stress axis : x y z
#
# Youngs Moduli (GPa) = 105.24786 63.02966 63.87602
#
# Poissons Ratio (x) = 0.26885 0.22873
# Poissons Ratio (y) = 0.44893 0.16721
# Poissons Ratio (z) = 0.37688 0.16499
#
# Static dielectric constant tensor:
#      x y z
#    x 1.985680 -0.036520 0.078390 
#    y -0.036520 1.866230 0.056590 
#    z 0.078390 0.056590 1.774950 
# 
# From -- ./inp_files/403191.got.cif
#   From: 2010.05.17/outbox.cif.g08.bks.cpg/sg2_202_cif.got.tgz:403191.got - 2010.06.03 11:33:40.
