data_PCOD9029939
_publ_section_title
;
Structure prediction by ZEFSAII (Michael W. Deem and Ramdas Pophale) SiO2 
 PCOD9029939
Probable space group: P -1
;
_chemical_formula_sum "Si O2"
_cell_formula_units_Z 14
_cell_length_a 11.579624
_cell_length_b 9.770349
_cell_length_c 8.051292
_cell_angle_alpha 70.448183
_cell_angle_beta 58.082137
_cell_angle_gamma 56.441626
_cell_volume 643.147766
_symmetry_space_group_name_H-M "P -1"
_symmetry_group_IT_number 2
_symmetry_cell_setting 'triclinic'
loop_
_space_group_symop_operation_xyz
x,y,z
-x,-y,-z
loop_
_atom_site_type_symbol
_atom_site_label
_atom_site_fract_x
_atom_site_fract_y
_atom_site_fract_z
Si Si1 0.914873 0.018572 0.277163
Si Si2 0.234110 0.969619 0.931318
Si Si3 0.079611 0.304026 0.496014
Si Si4 0.646014 0.829084 0.419271
Si Si5 0.576189 0.349079 0.875405
Si Si6 0.149416 0.710802 0.555095
Si Si7 0.614545 0.568285 0.328584
O O1 0.780089 0.098353 0.212144
O O2 0.861646 0.116315 0.449226
O O3 0.961255 0.825628 0.321685
O O4 0.065079 0.031810 0.108256
O O5 0.265269 0.121022 0.807903
O O6 0.356044 0.823164 0.008528
O O7 0.252069 0.240346 0.462697
O O8 0.000000 0.500000 0.500000
O O9 0.011064 0.281477 0.382065
O O10 0.602360 0.703089 0.415095
O O11 0.500000 0.000000 0.500000
O O12 0.721747 0.350469 0.665452
O O13 0.446256 0.365242 0.835022
O O14 0.500000 0.500000 0.000000
O O15 0.217426 0.585039 0.708350
O O16 0.500000 0.500000 0.500000
#
# Coordination Sequence:
#
# PCOD9029939 Si02
#       7
#     2   2   2   2   2   2   2
#     4  10  22  42  69 100 132 179 227 274 337 412
#     4  10  23  41  67  96 138 170 227 278 341 396
#     4  11  22  40  70 103 134 173 231 280 331 403
#     4  11  26  43  68 102 137 180 223 287 350 403
#     4  11  24  39  67  99 135 176 228 280 337 403
#     4  11  22  42  72  98 131 183 232 269 339 410
#     4  10  24  42  67  97 134 178 228 271 344 407
#
# _framework density 21.767938000000001
#
# number of rings (size 3 to 8) (size 9 to 14) (size 15 to 20)
#    0.000    1.429    2.857    1.286   12.000    0.571 
#    0.000    2.143    0.000    0.000    0.000    0.000 
#    0.000    0.000    0.000    0.000    0.000    0.000 
#
# Total GULP energy -78022.837611 kJ/mol
# GULP energy per Si atom -5573.059829 kJ/mol
# Density = 2.171839 g / cm^3
# Si number density = 21.767938 Si / 1000 Ang^3
#
#
#
# Elastic Constant Matrix: (Units=GPa)
#
#
# Indices 1 2 3 4 5 6 
#
# 1 176.1989 65.9515 32.4068 -11.6086 43.2061 -9.8942
# 2 65.9515 121.5524 28.8882 -12.1599 11.4669 3.4546
# 3 32.4068 28.8882 45.1142 2.7548 7.5281 2.4737
# 4 -11.6086 -12.1599 2.7548 29.8592 -8.7356 13.8032
# 5 43.2061 11.4669 7.5281 -8.7356 42.6192 -17.8986
# 6 -9.8942 3.4546 2.4737 13.8032 -17.8986 53.7805
#
#
#
# Elastic Compliance Matrix: (Units=1/GPa)
#
#
# Indices 1 2 3 4 5 6 
#
# 1 0.009701 -0.003628 -0.003206 0.000460 -0.008530 -0.000792
# 2 -0.003628 0.011949 -0.005551 0.005390 0.001711 -0.001994
# 3 -0.003206 -0.005551 0.028761 -0.006470 -0.001882 -0.000522
# 4 0.000460 0.005390 -0.006470 0.041958 0.003858 -0.009449
# 5 -0.008530 0.001711 -0.001882 0.003858 0.036838 0.009677
# 6 -0.000792 -0.001994 -0.000522 -0.009449 0.009677 0.024246
#
#
# Mechanical properties :
#
#
# Convention : Reuss Voigt Hill
#
# Bulk Modulus (GPa) = 39.00053 66.37317 52.68685
# Shear Modulus (GPa) = 26.77097 39.62638 33.19868
#
# Velocity S-wave (km/s) = 3.51070 4.27124 3.90951
# Velocity P-wave (km/s) = 5.86420 7.40825 6.68098
#
# Compressibility (1/GPa) = 0.02564068
#
# Stress axis : x y z
#
# Youngs Moduli (GPa) = 103.08645 83.68900 34.76930
#
# Poissons Ratio (x) = 0.30363 0.11148
# Poissons Ratio (y) = 0.37401 0.19299
# Poissons Ratio (z) = 0.33053 0.46452
#
# Static dielectric constant tensor:
#      x y z
#    x 1.860590 -0.042720 0.015710 
#    y -0.042720 1.829680 -0.001500 
#    z 0.015710 -0.001500 1.922050 
# 
# From -- ./inp_files/234112.got.cif
#   From: 2010.05.17/outbox.cif.g08.bks.cpg/sg2_118_cif.got.tgz:234112.got - 2010.06.03 11:33:40.
