data_PCOD9029145
_publ_section_title
;
Structure prediction by ZEFSAII (Michael W. Deem and Ramdas Pophale) SiO2 
 PCOD9029145
Probable space group: P -1
;
_chemical_formula_sum "Si O2"
_cell_formula_units_Z 16
_cell_length_a 6.897797
_cell_length_b 18.144055
_cell_length_c 13.928710
_cell_angle_alpha 30.632296
_cell_angle_beta 92.508681
_cell_angle_gamma 104.793286
_cell_volume 802.152385
_symmetry_space_group_name_H-M "P -1"
_symmetry_group_IT_number 2
_symmetry_cell_setting 'triclinic'
loop_
_space_group_symop_operation_xyz
x,y,z
-x,-y,-z
loop_
_atom_site_type_symbol
_atom_site_label
_atom_site_fract_x
_atom_site_fract_y
_atom_site_fract_z
Si Si1 0.198854 0.271498 0.204457
Si Si2 0.710080 0.168599 0.559567
Si Si3 0.699839 0.671629 0.298358
Si Si4 0.153145 0.376591 0.439646
Si Si5 0.484187 0.909939 0.001961
Si Si6 0.736919 0.042755 0.495301
Si Si7 0.954044 0.381356 0.722987
Si Si8 0.514242 0.594845 0.748487
O O1 0.309367 0.331718 0.244088
O O2 0.938733 0.200458 0.281209
O O3 0.230499 0.115822 0.347789
O O4 0.332451 0.421954 0.970577
O O5 0.736324 0.081759 0.562970
O O6 0.604072 0.289640 0.397955
O O7 0.940343 0.259398 0.512249
O O8 0.558891 0.037467 0.776743
O O9 0.500000 0.500000 0.500000
O O10 0.820686 0.697618 0.374558
O O11 0.837220 0.652569 0.233992
O O12 0.624289 0.808905 0.123796
O O13 0.357410 0.413123 0.335138
O O14 0.112070 0.532197 0.290464
O O15 0.243731 0.782282 0.122211
O O16 0.500000 0.000000 0.000000
O O17 0.500000 0.000000 0.500000
O O18 0.000000 0.500000 0.500000
#
# Coordination Sequence:
#
# PCOD9029145 Si02
#       8
#     2   2   2   2   2   2   2   2
#     4  10  24  45  73  98 135 180 229 280 354 412
#     4  12  27  42  67 104 140 178 230 286 347 408
#     4  11  23  43  71  92 135 185 222 277 341 401
#     4  11  24  42  68  99 138 174 236 284 328 421
#     4  12  25  43  68 102 139 177 229 283 344 400
#     4  11  23  47  70 101 143 177 223 293 350 411
#     4  10  22  42  66  94 127 178 226 276 335 397
#     4  11  24  45  71 102 132 182 231 285 341 415
#
# _framework density 19.946334
#
# number of rings (size 3 to 8) (size 9 to 14) (size 15 to 20)
#    0.000    1.000    5.000    2.250    3.500    4.500 
#    0.000    0.000    0.000    0.000    0.000    0.000 
#    0.000    0.000    0.000    0.000    0.000    0.000 
#
# Total GULP energy -89390.698989 kJ/mol
# GULP energy per Si atom -5586.918687 kJ/mol
# Density = 1.990094 g / cm^3
# Si number density = 19.946334 Si / 1000 Ang^3
#
#
#
# Elastic Constant Matrix: (Units=GPa)
#
#
# Indices 1 2 3 4 5 6 
#
# 1 93.9936 11.3860 32.3061 -4.8969 -16.7634 2.3612
# 2 11.3860 82.4342 16.1588 -16.7028 -22.4769 -3.3482
# 3 32.3061 16.1588 119.3603 -10.3171 -23.5760 1.0624
# 4 -4.8969 -16.7028 -10.3171 28.5462 0.6840 -4.1524
# 5 -16.7634 -22.4769 -23.5760 0.6840 41.0668 -7.0803
# 6 2.3612 -3.3482 1.0624 -4.1524 -7.0803 48.3777
#
#
#
# Elastic Compliance Matrix: (Units=1/GPa)
#
#
# Indices 1 2 3 4 5 6 
#
# 1 0.012186 -0.000002 -0.002506 0.001109 0.003528 0.000072
# 2 -0.000002 0.017027 0.000556 0.010436 0.010074 0.003536
# 3 -0.002506 0.000556 0.010341 0.003655 0.005335 0.001028
# 4 0.001109 0.010436 0.003655 0.043251 0.008499 0.005544
# 5 0.003528 0.010074 0.005335 0.008499 0.035312 0.006305
# 6 0.000072 0.003536 0.001028 0.005544 0.006305 0.022288
#
#
# Mechanical properties :
#
#
# Convention : Reuss Voigt Hill
#
# Bulk Modulus (GPa) = 28.05037 46.16554 37.10795
# Shear Modulus (GPa) = 32.01150 39.32730 35.66940
#
# Velocity S-wave (km/s) = 4.01044 4.44515 4.23338
# Velocity P-wave (km/s) = 5.96140 7.03853 6.52224
#
# Compressibility (1/GPa) = 0.03565016
#
# Stress axis : x y z
#
# Youngs Moduli (GPa) = 82.06277 58.72955 96.69873
#
# Poissons Ratio (x) = 0.00013 0.24230
# Poissons Ratio (y) = 0.00018 -0.05375
# Poissons Ratio (z) = 0.20563 -0.03264
#
# Static dielectric constant tensor:
#      x y z
#    x 1.727060 0.013410 0.013170 
#    y 0.013410 1.693830 -0.007230 
#    z 0.013170 -0.007230 1.644940 
# 
# From -- ./inp_files/485147.got.cif
#   From: 2010.05.17/outbox.cif.g08.bks.cpg/sg2_243_cif.got.tgz:485147.got - 2010.06.03 11:33:40.
