data_PCOD9029789
_publ_section_title
;
Structure prediction by ZEFSAII (Michael W. Deem and Ramdas Pophale) SiO2 
 PCOD9029789
Probable space group: P -1
;
_chemical_formula_sum "Si O2"
_cell_formula_units_Z 15
_cell_length_a 10.897701
_cell_length_b 5.074119
_cell_length_c 19.751174
_cell_angle_alpha 55.336545
_cell_angle_beta 52.107168
_cell_angle_gamma 76.557323
_cell_volume 697.332545
_symmetry_space_group_name_H-M "P -1"
_symmetry_group_IT_number 2
_symmetry_cell_setting 'triclinic'
loop_
_space_group_symop_operation_xyz
x,y,z
-x,-y,-z
loop_
_atom_site_type_symbol
_atom_site_label
_atom_site_fract_x
_atom_site_fract_y
_atom_site_fract_z
Si Si1 0.623174 0.698083 0.307098
Si Si2 0.352448 0.562239 0.810202
Si Si3 0.831570 0.389962 0.932523
Si Si4 0.301862 0.285787 0.500767
Si Si5 0.625128 0.798561 0.015888
Si Si6 0.000000 0.500000 0.000000
Si Si7 0.106052 0.657196 0.702751
Si Si8 0.876996 0.159563 0.476068
O O1 0.620944 0.638492 0.235914
O O2 0.483706 0.437626 0.425745
O O3 0.792221 0.627741 0.283892
O O4 0.594626 0.057452 0.277717
O O5 0.434566 0.434120 0.866561
O O6 0.167240 0.523912 0.897347
O O7 0.967563 0.605282 0.810892
O O8 0.691263 0.586683 0.967108
O O9 0.899917 0.336160 0.990950
O O10 0.770184 0.059510 0.960585
O O11 0.198779 0.568678 0.500228
O O12 0.230699 0.996259 0.618727
O O13 0.263182 0.114171 0.466313
O O14 0.500000 0.000000 0.000000
O O15 0.044886 0.680362 0.643568
O O16 0.000000 0.000000 0.500000
#
# Coordination Sequence:
#
# PCOD9029789 Si02
#       8
#     2   2   2   2   2   1   2   2
#     4  12  24  42  66 103 133 173 223 276 348 406
#     4  11  25  40  69  96 134 171 226 277 344 397
#     4  11  24  42  75 102 132 185 224 286 343 411
#     4  10  24  43  66  95 141 174 219 278 338 391
#     4  11  26  50  66  99 141 181 231 283 345 407
#     4  10  22  42  68  94 140 162 228 286 344 394
#     4  10  26  40  72  99 138 173 230 273 345 406
#     4  10  23  44  66  92 135 178 225 276 326 396
#
# _framework density 21.510539999999999
#
# number of rings (size 3 to 8) (size 9 to 14) (size 15 to 20)
#    0.800    0.533    1.333    3.600    7.467    3.200 
#    7.200    0.000    0.000    0.000    0.000    0.000 
#    0.000    0.000    0.000    0.000    0.000    0.000 
#
# Total GULP energy -83571.828709 kJ/mol
# GULP energy per Si atom -5571.455247 kJ/mol
# Density = 2.146158 g / cm^3
# Si number density = 21.510540 Si / 1000 Ang^3
#
#
#
# Elastic Constant Matrix: (Units=GPa)
#
#
# Indices 1 2 3 4 5 6 
#
# 1 66.7892 8.8441 12.8168 -8.9147 21.6466 -7.1324
# 2 8.8441 87.7332 8.5830 -7.8353 8.6468 -5.9294
# 3 12.8168 8.5830 68.5249 1.9154 5.5218 0.7903
# 4 -8.9147 -7.8353 1.9154 26.8659 3.2433 3.2088
# 5 21.6466 8.6468 5.5218 3.2433 24.4345 -11.4379
# 6 -7.1324 -5.9294 0.7903 3.2088 -11.4379 21.2685
#
#
#
# Elastic Compliance Matrix: (Units=1/GPa)
#
#
# Indices 1 2 3 4 5 6 
#
# 1 0.025219 0.001096 -0.002913 0.013164 -0.027524 -0.007917
# 2 0.001096 0.012415 -0.001444 0.004744 -0.005593 0.000159
# 3 -0.002913 -0.001444 0.015501 -0.002073 -0.001210 -0.002293
# 4 0.013164 0.004744 -0.002073 0.048229 -0.026673 -0.015807
# 5 -0.027524 -0.005593 -0.001210 -0.026673 0.090820 0.042121
# 6 -0.007917 0.000159 -0.002293 -0.015807 0.042121 0.069529
#
#
# Mechanical properties :
#
#
# Convention : Reuss Voigt Hill
#
# Bulk Modulus (GPa) = 21.45327 31.50389 26.47858
# Shear Modulus (GPa) = 17.61986 27.36734 22.49360
#
# Velocity S-wave (km/s) = 2.86514 3.57077 3.23724
# Velocity P-wave (km/s) = 4.57607 5.62833 5.12926
#
# Compressibility (1/GPa) = 0.04661294
#
# Stress axis : x y z
#
# Youngs Moduli (GPa) = 39.65333 80.55050 64.51298
#
# Poissons Ratio (x) = -0.08829 0.18792
# Poissons Ratio (y) = -0.04346 0.09314
# Poissons Ratio (z) = 0.11550 0.11629
#
# Static dielectric constant tensor:
#      x y z
#    x 1.761340 0.006870 0.004190 
#    y 0.006870 1.771770 -0.037570 
#    z 0.004190 -0.037570 1.791510 
# 
# From -- ./inp_files/608956.got.cif
#   From: 2010.05.17/outbox.cif.g08.bks.cpg/sg2_305_cif.got.tgz:608956.got - 2010.06.03 11:33:40.
