data_PCOD9029068
_publ_section_title
;
Structure prediction by ZEFSAII (Michael W. Deem and Ramdas Pophale) SiO2 
 PCOD9029068
Probable space group: P -1
;
_chemical_formula_sum "Si O2"
_cell_formula_units_Z 15
_cell_length_a 5.379388
_cell_length_b 20.241704
_cell_length_c 9.124151
_cell_angle_alpha 46.234510
_cell_angle_beta 106.044098
_cell_angle_gamma 121.128594
_cell_volume 608.855850
_symmetry_space_group_name_H-M "P -1"
_symmetry_group_IT_number 2
_symmetry_cell_setting 'triclinic'
loop_
_space_group_symop_operation_xyz
x,y,z
-x,-y,-z
loop_
_atom_site_type_symbol
_atom_site_label
_atom_site_fract_x
_atom_site_fract_y
_atom_site_fract_z
Si Si1 0.940262 0.574204 0.229503
Si Si2 0.457385 0.915685 0.828370
Si Si3 0.000000 0.000000 0.000000
Si Si4 0.325335 0.198889 0.556898
Si Si5 0.093100 0.341973 0.222731
Si Si6 0.738702 0.553845 0.621090
Si Si7 0.125717 0.743680 0.234032
Si Si8 0.503129 0.866716 0.585910
O O1 0.608495 0.514167 0.327367
O O2 0.094633 0.502699 0.341227
O O3 0.138320 0.669373 0.222163
O O4 0.902038 0.616441 0.001169
O O5 0.504606 0.867278 0.760860
O O6 0.457405 0.021806 0.624772
O O7 0.174625 0.843467 0.994043
O O8 0.724139 0.939762 0.941264
O O9 0.081120 0.112139 0.752778
O O10 0.337841 0.308296 0.358409
O O11 0.625255 0.221469 0.654542
O O12 0.274233 0.148434 0.462459
O O13 0.132269 0.423640 0.228005
O O14 0.799489 0.232901 0.352683
O O15 0.832173 0.665927 0.390172
#
# Coordination Sequence:
#
# PCOD9029068 Si02
#       8
#     2   2   1   2   2   2   2   2
#     4  12  28  49  76 109 147 196 255 313 366 435
#     4  10  23  45  72 107 145 189 238 303 362 455
#     4  10  22  42  66 106 142 186 236 288 366 432
#     4  11  25  44  71 105 147 196 240 301 366 445
#     4  12  25  47  73 106 142 194 247 303 369 444
#     4  12  27  48  75 109 147 196 252 313 371 433
#     4  11  24  46  74 106 149 190 245 307 377 437
#     4  11  23  46  72 102 149 183 247 291 372 443
#
# _framework density 24.636371
#
# number of rings (size 3 to 8) (size 9 to 14) (size 15 to 20)
#    0.000    0.800    4.000    2.400    1.867    4.800 
#    0.000    4.000    0.000    0.000    0.000    0.000 
#    0.000    0.000    0.000    0.000    0.000    0.000 
#
# Total GULP energy -83620.422392 kJ/mol
# GULP energy per Si atom -5574.694826 kJ/mol
# Density = 2.458030 g / cm^3
# Si number density = 24.636371 Si / 1000 Ang^3
#
#
#
# Elastic Constant Matrix: (Units=GPa)
#
#
# Indices 1 2 3 4 5 6 
#
# 1 67.4298 21.5727 37.5546 -6.1564 -6.2407 -4.0999
# 2 21.5727 69.6796 3.5260 -2.4430 -16.1152 6.3671
# 3 37.5546 3.5260 181.8744 -2.9065 -17.8195 17.1259
# 4 -6.1564 -2.4430 -2.9065 27.8000 -1.8948 -11.5929
# 5 -6.2407 -16.1152 -17.8195 -1.8948 16.6292 -2.5413
# 6 -4.0999 6.3671 17.1259 -11.5929 -2.5413 20.3428
#
#
#
# Elastic Compliance Matrix: (Units=1/GPa)
#
#
# Indices 1 2 3 4 5 6 
#
# 1 0.023244 -0.008798 -0.006496 0.011509 -0.002526 0.019150
# 2 -0.008798 0.022793 0.004538 -0.002871 0.021539 -0.011673
# 3 -0.006496 0.004538 0.008628 -0.004227 0.009001 -0.011278
# 4 0.011509 -0.002871 -0.004227 0.054780 0.009232 0.039148
# 5 -0.002526 0.021539 0.009001 0.009232 0.091034 0.001806
# 6 0.019150 -0.011673 -0.011278 0.039148 0.001806 0.088700
#
#
# Mechanical properties :
#
#
# Convention : Reuss Voigt Hill
#
# Bulk Modulus (GPa) = 30.16225 49.36562 39.76394
# Shear Modulus (GPa) = 15.54045 30.04309 22.79177
#
# Velocity S-wave (km/s) = 2.51428 3.49587 3.04489
# Velocity P-wave (km/s) = 4.54955 6.03125 5.34202
#
# Compressibility (1/GPa) = 0.03315402
#
# Stress axis : x y z
#
# Youngs Moduli (GPa) = 43.02147 43.87293 115.90371
#
# Poissons Ratio (x) = 0.38600 0.75289
# Poissons Ratio (y) = 0.37851 -0.52602
# Poissons Ratio (z) = 0.27946 -0.19911
#
# Static dielectric constant tensor:
#      x y z
#    x 2.035010 -0.056140 -0.047480 
#    y -0.056140 1.947920 -0.008430 
#    z -0.047480 -0.008430 1.948280 
# 
# From -- ./inp_files/141151.got.cif
#   From: 2010.05.17/outbox.cif.g08.bks.cpg/sg2_71_cif.got.tgz:141151.got - 2010.06.03 11:33:40.
