data_PCOD9029899
_publ_section_title
;
Structure prediction by ZEFSAII (Michael W. Deem and Ramdas Pophale) SiO2 
 PCOD9029899
Probable space group: P -1
;
_chemical_formula_sum "Si O2"
_cell_formula_units_Z 14
_cell_length_a 22.081482
_cell_length_b 12.839897
_cell_length_c 5.119391
_cell_angle_alpha 80.950256
_cell_angle_beta 71.503675
_cell_angle_gamma 24.249146
_cell_volume 531.897269
_symmetry_space_group_name_H-M "P -1"
_symmetry_group_IT_number 2
_symmetry_cell_setting 'triclinic'
loop_
_space_group_symop_operation_xyz
x,y,z
-x,-y,-z
loop_
_atom_site_type_symbol
_atom_site_label
_atom_site_fract_x
_atom_site_fract_y
_atom_site_fract_z
Si Si1 0.548546 0.774167 0.954166
Si Si2 0.675939 0.647533 0.329956
Si Si3 0.673962 0.012743 0.442332
Si Si4 0.177766 0.765424 0.458844
Si Si5 0.068610 0.275820 0.487640
Si Si6 0.098523 0.510541 0.864143
Si Si7 0.563312 0.468735 0.676489
O O1 0.625330 0.740052 0.066367
O O2 0.402013 0.947811 0.248899
O O3 0.687755 0.473092 0.847339
O O4 0.530192 0.846416 0.658148
O O5 0.784221 0.376695 0.308313
O O6 0.781697 0.578178 0.336274
O O7 0.500000 0.500000 0.500000
O O8 0.758422 0.975700 0.513177
O O9 0.542478 0.262708 0.330469
O O10 0.248909 0.772089 0.450847
O O11 0.000000 0.000000 0.500000
O O12 0.050465 0.262845 0.225803
O O13 0.000000 0.500000 0.500000
O O14 0.192274 0.257602 0.793632
O O15 0.955797 0.388639 0.806335
O O16 0.500000 0.500000 0.000000
#
# Coordination Sequence:
#
# PCOD9029899 Si02
#       7
#     2   2   2   2   2   2   2
#     4  10  22  42  68  98 136 178 233 276 362 413
#     4  10  23  42  67 103 139 168 243 276 350 432
#     4  11  23  46  71  96 148 186 228 298 361 422
#     4  10  25  48  74  98 145 187 239 304 363 418
#     4  10  23  40  66 101 141 188 235 276 351 429
#     4  11  24  42  69 108 141 187 232 287 356 439
#     4  12  28  48  70 107 137 188 252 299 358 431
#
# _framework density 26.320872999999999
#
# number of rings (size 3 to 8) (size 9 to 14) (size 15 to 20)
#    0.857    0.571    1.429    3.429    0.000   14.286 
#    0.000    0.000    0.000    0.000    0.000    0.000 
#    0.000    0.000    0.000    0.000    0.000    0.000 
#
# Total GULP energy -78263.534934 kJ/mol
# GULP energy per Si atom -5590.252495 kJ/mol
# Density = 2.626097 g / cm^3
# Si number density = 26.320873 Si / 1000 Ang^3
#
#
#
# Elastic Constant Matrix: (Units=GPa)
#
#
# Indices 1 2 3 4 5 6 
#
# 1 189.9208 28.1972 41.3746 -5.1093 -4.8377 -23.4411
# 2 28.1972 73.7985 11.3417 -9.6820 2.0200 -26.4687
# 3 41.3746 11.3417 145.4808 -15.0091 8.3446 -13.8617
# 4 -5.1093 -9.6820 -15.0091 37.4618 -6.3619 5.8713
# 5 -4.8377 2.0200 8.3446 -6.3619 49.2656 3.0676
# 6 -23.4411 -26.4687 -13.8617 5.8713 3.0676 43.1308
#
#
#
# Elastic Compliance Matrix: (Units=1/GPa)
#
#
# Indices 1 2 3 4 5 6 
#
# 1 0.006055 -0.001464 -0.001503 -0.000326 0.000749 0.001900
# 2 -0.001464 0.018089 0.000330 0.002817 -0.001207 0.010114
# 3 -0.001503 0.000330 0.007763 0.002523 -0.001251 0.001626
# 4 -0.000326 0.002817 0.002523 0.029242 0.003317 -0.001854
# 5 0.000749 -0.001207 -0.001251 0.003317 0.021229 -0.002697
# 6 0.001900 0.010114 0.001626 -0.001854 -0.002697 0.031391
#
#
# Mechanical properties :
#
#
# Convention : Reuss Voigt Hill
#
# Bulk Modulus (GPa) = 37.54987 63.44743 50.49865
# Shear Modulus (GPa) = 39.08614 47.85742 43.47178
#
# Velocity S-wave (km/s) = 3.85773 4.26870 4.06841
# Velocity P-wave (km/s) = 5.84294 6.96085 6.42625
#
# Compressibility (1/GPa) = 0.02663125
#
# Stress axis : x y z
#
# Youngs Moduli (GPa) = 165.14975 55.28148 128.82303
#
# Poissons Ratio (x) = 0.08094 0.19367
# Poissons Ratio (y) = 0.24181 -0.04248
# Poissons Ratio (z) = 0.24829 -0.01823
#
# Static dielectric constant tensor:
#      x y z
#    x 2.123550 0.033860 -0.038550 
#    y 0.033860 2.289880 -0.011660 
#    z -0.038550 -0.011660 1.981130 
# 
# From -- ./inp_files/117786.got.cif
#   From: 2010.05.17/outbox.cif.g08.bks.cpg/sg2_59_cif.got.tgz:117786.got - 2010.06.03 11:33:40.
