data_PCOD9029638
_publ_section_title
;
Structure prediction by ZEFSAII (Michael W. Deem and Ramdas Pophale) SiO2 
 PCOD9029638
Probable space group: P -1
;
_chemical_formula_sum "Si O2"
_cell_formula_units_Z 15
_cell_length_a 20.468558
_cell_length_b 5.659735
_cell_length_c 6.640549
_cell_angle_alpha 100.887024
_cell_angle_beta 74.210984
_cell_angle_gamma 127.829808
_cell_volume 584.439312
_symmetry_space_group_name_H-M "P -1"
_symmetry_group_IT_number 2
_symmetry_cell_setting 'triclinic'
loop_
_space_group_symop_operation_xyz
x,y,z
-x,-y,-z
loop_
_atom_site_type_symbol
_atom_site_label
_atom_site_fract_x
_atom_site_fract_y
_atom_site_fract_z
Si Si1 0.899894 0.091581 0.380902
Si Si2 0.082145 0.081851 0.059710
Si Si3 0.317884 0.053996 0.861719
Si Si4 0.388444 0.526724 0.520924
Si Si5 0.199768 0.748854 0.235829
Si Si6 0.527740 0.908208 0.159943
Si Si7 0.242931 0.546284 0.522979
Si Si8 0.000000 0.000000 0.500000
O O1 0.855010 0.741993 0.436904
O O2 0.993822 0.217361 0.383391
O O3 0.854096 0.205534 0.555243
O O4 0.884275 0.050765 0.147272
O O5 0.149824 0.431888 0.109369
O O6 0.044342 0.919494 0.276141
O O7 0.000000 0.000000 0.000000
O O8 0.360998 0.284490 0.677762
O O9 0.394577 0.108461 0.937189
O O10 0.265424 0.745423 0.731829
O O11 0.251211 0.015209 0.073110
O O12 0.452989 0.615435 0.298024
O O13 0.303185 0.444889 0.477751
O O14 0.433335 0.824561 0.667136
O O15 0.259984 0.727696 0.335372
O O16 0.500000 0.000000 0.000000
#
# Coordination Sequence:
#
# PCOD9029638 Si02
#       8
#     2   2   2   2   2   2   2   1
#     4  11  24  44  70 102 142 186 236 300 355 434
#     4  10  23  46  68 102 142 182 242 298 352 438
#     4  11  24  42  70 105 142 188 245 292 360 432
#     4  10  23  41  67 103 140 189 240 299 354 422
#     4  12  25  43  75 104 140 198 238 291 377 424
#     4  10  22  42  68 100 147 189 234 300 355 422
#     4  11  23  44  65 101 145 182 240 299 351 429
#     4  10  22  44  72  96 140 186 230 298 356 422
#
# _framework density 25.665624000000001
#
# number of rings (size 3 to 8) (size 9 to 14) (size 15 to 20)
#    0.000    1.333    2.667    2.000    0.000    9.067 
#    0.000    2.000    0.000    0.000    0.000    0.000 
#    0.000    0.000    0.000    0.000    0.000    0.000 
#
# Total GULP energy -83530.349161 kJ/mol
# GULP energy per Si atom -5568.689944 kJ/mol
# Density = 2.560721 g / cm^3
# Si number density = 25.665624 Si / 1000 Ang^3
#
#
#
# Elastic Constant Matrix: (Units=GPa)
#
#
# Indices 1 2 3 4 5 6 
#
# 1 94.3563 13.2438 52.8124 -2.2968 23.7050 -14.4684
# 2 13.2438 70.8241 55.9621 2.6612 -5.7096 8.7852
# 3 52.8124 55.9621 222.7689 -10.8036 -6.4474 9.3190
# 4 -2.2968 2.6612 -10.8036 51.3001 -3.3466 2.6472
# 5 23.7050 -5.7096 -6.4474 -3.3466 42.3291 -6.6085
# 6 -14.4684 8.7852 9.3190 2.6472 -6.6085 19.7829
#
#
#
# Elastic Compliance Matrix: (Units=1/GPa)
#
#
# Indices 1 2 3 4 5 6 
#
# 1 0.017645 -0.002000 -0.004552 -0.001324 -0.008898 0.013143
# 2 -0.002000 0.018687 -0.003938 -0.001403 0.001820 -0.007111
# 3 -0.004552 -0.003938 0.006897 0.001838 0.002555 -0.004222
# 4 -0.001324 -0.001403 0.001838 0.020188 0.001917 -0.003272
# 5 -0.008898 0.001820 0.002555 0.001917 0.029565 0.001101
# 6 0.013143 -0.007111 -0.004222 -0.003272 0.001101 0.066113
#
#
# Mechanical properties :
#
#
# Convention : Reuss Voigt Hill
#
# Bulk Modulus (GPa) = 44.94829 70.22064 57.58446
# Shear Modulus (GPa) = 26.66790 40.41116 33.53953
#
# Velocity S-wave (km/s) = 3.22693 3.97233 3.61887
# Velocity P-wave (km/s) = 5.60671 6.96121 6.32035
#
# Compressibility (1/GPa) = 0.02224779
#
# Stress axis : x y z
#
# Youngs Moduli (GPa) = 56.67272 53.51426 144.98939
#
# Poissons Ratio (x) = 0.10705 0.66001
# Poissons Ratio (y) = 0.11337 0.57096
# Poissons Ratio (z) = 0.25798 0.21073
#
# Static dielectric constant tensor:
#      x y z
#    x 2.231340 0.052640 0.078230 
#    y 0.052640 2.114150 0.145300 
#    z 0.078230 0.145300 2.102680 
# 
# From -- ./inp_files/121743.got.cif
#   From: 2010.05.17/outbox.cif.g08.bks.cpg/sg2_61_cif.got.tgz:121743.got - 2010.06.03 11:33:40.
