data_PCOD9029378
_publ_section_title
;
Structure prediction by ZEFSAII (Michael W. Deem and Ramdas Pophale) SiO2 
 PCOD9029378
Probable space group: P -1
;
_chemical_formula_sum "Si O2"
_cell_formula_units_Z 14
_cell_length_a 11.091599
_cell_length_b 15.644904
_cell_length_c 20.277722
_cell_angle_alpha 18.896361
_cell_angle_beta 34.494961
_cell_angle_gamma 44.517012
_cell_volume 601.165519
_symmetry_space_group_name_H-M "P -1"
_symmetry_group_IT_number 2
_symmetry_cell_setting 'triclinic'
loop_
_space_group_symop_operation_xyz
x,y,z
-x,-y,-z
loop_
_atom_site_type_symbol
_atom_site_label
_atom_site_fract_x
_atom_site_fract_y
_atom_site_fract_z
Si Si1 0.222096 0.515582 0.305836
Si Si2 0.945160 0.867553 0.212889
Si Si3 0.282403 0.418404 0.942572
Si Si4 0.262315 0.502873 0.631416
Si Si5 0.047966 0.194766 0.490052
Si Si6 0.435662 0.804390 0.467906
Si Si7 0.234233 0.263185 0.217466
O O1 0.092821 0.300430 0.578693
O O2 0.485169 0.652880 0.109493
O O3 0.097528 0.741326 0.191522
O O4 0.193200 0.322986 0.395090
O O5 0.693101 0.815460 0.338204
O O6 0.078445 0.192123 0.931962
O O7 0.333898 0.668069 0.684020
O O8 0.257977 0.471418 0.993045
O O9 0.064384 0.145499 0.218267
O O10 0.500000 0.500000 0.500000
O O11 0.169977 0.709949 0.481340
O O12 0.293171 0.609961 0.614745
O O13 0.196203 0.339713 0.252934
O O14 0.420372 0.112730 0.242810
O O15 0.000000 0.000000 0.500000
#
# Coordination Sequence:
#
# PCOD9029378 Si02
#       7
#     2   2   2   2   2   2   2
#     4  10  22  43  63  92 131 166 213 263 319 371
#     4  10  24  41  64  96 127 169 215 262 314 385
#     4  10  22  42  67  91 130 169 208 264 313 376
#     4  12  24  39  66  98 127 166 213 260 321 381
#     4  11  23  40  63  95 126 169 209 263 319 371
#     4  11  23  44  66  95 128 170 213 261 318 374
#     4  10  22  43  63  96 129 166 216 259 317 377
#
# _framework density 23.288094999999998
#
# number of rings (size 3 to 8) (size 9 to 14) (size 15 to 20)
#    0.000    1.429    2.857    2.571    2.000    4.000 
#    2.571    7.143    0.000    0.000    0.000    0.000 
#    0.000    0.000    0.000    0.000    0.000    0.000 
#
# Total GULP energy -78327.209027 kJ/mol
# GULP energy per Si atom -5594.800645 kJ/mol
# Density = 2.323509 g / cm^3
# Si number density = 23.288095 Si / 1000 Ang^3
#
#
#
# Elastic Constant Matrix: (Units=GPa)
#
#
# Indices 1 2 3 4 5 6 
#
# 1 100.7354 16.2874 32.4520 -4.8770 -2.2946 17.2927
# 2 16.2874 67.7080 -5.4859 4.6001 -7.4228 3.9420
# 3 32.4520 -5.4859 95.2861 0.4429 -1.7377 15.7506
# 4 -4.8770 4.6001 0.4429 22.3209 9.7645 1.0854
# 5 -2.2946 -7.4228 -1.7377 9.7645 46.4960 7.6373
# 6 17.2927 3.9420 15.7506 1.0854 7.6373 54.8118
#
#
#
# Elastic Compliance Matrix: (Units=1/GPa)
#
#
# Indices 1 2 3 4 5 6 
#
# 1 0.012394 -0.003477 -0.004033 0.003840 -0.000488 -0.002509
# 2 -0.003477 0.016727 0.002457 -0.005966 0.004050 -0.001258
# 3 -0.004033 0.002457 0.012489 -0.002187 0.001557 -0.002667
# 4 0.003840 -0.005966 -0.002187 0.052078 -0.011858 0.000467
# 5 -0.000488 0.004050 0.001557 -0.011858 0.025315 -0.003877
# 6 -0.002509 -0.001258 -0.002667 0.000467 -0.003877 0.020424
#
#
# Mechanical properties :
#
#
# Convention : Reuss Voigt Hill
#
# Bulk Modulus (GPa) = 31.74181 38.91514 35.32848
# Shear Modulus (GPa) = 31.24324 39.42413 35.33369
#
# Velocity S-wave (km/s) = 3.66676 4.11894 3.89941
# Velocity P-wave (km/s) = 5.62018 6.27435 5.95625
#
# Compressibility (1/GPa) = 0.03150419
#
# Stress axis : x y z
#
# Youngs Moduli (GPa) = 80.68464 59.78247 80.06967
#
# Poissons Ratio (x) = 0.20784 0.32294
# Poissons Ratio (y) = 0.28050 -0.19670
# Poissons Ratio (z) = 0.32542 -0.14687
#
# Static dielectric constant tensor:
#      x y z
#    x 1.862730 -0.005960 0.018700 
#    y -0.005960 1.923550 0.036100 
#    z 0.018700 0.036100 1.851610 
# 
# From -- ./inp_files/454160.got.cif
#   From: 2010.05.17/outbox.cif.g08.bks.cpg/sg2_228_cif.got.tgz:454160.got - 2010.06.03 11:33:40.
