data_PCOD9029253
_publ_section_title
;
Structure prediction by ZEFSAII (Michael W. Deem and Ramdas Pophale) SiO2 
 PCOD9029253
Probable space group: P -1
;
_chemical_formula_sum "Si O2"
_cell_formula_units_Z 16
_cell_length_a 5.384885
_cell_length_b 21.016494
_cell_length_c 8.057471
_cell_angle_alpha 126.356460
_cell_angle_beta 60.166443
_cell_angle_gamma 100.995294
_cell_volume 629.926849
_symmetry_space_group_name_H-M "P -1"
_symmetry_group_IT_number 2
_symmetry_cell_setting 'triclinic'
loop_
_space_group_symop_operation_xyz
x,y,z
-x,-y,-z
loop_
_atom_site_type_symbol
_atom_site_label
_atom_site_fract_x
_atom_site_fract_y
_atom_site_fract_z
Si Si1 0.929991 0.335386 0.212572
Si Si2 0.546102 0.091505 0.641637
Si Si3 0.990780 0.172615 0.796052
Si Si4 0.916202 0.094697 0.194699
Si Si5 0.408670 0.453723 0.701510
Si Si6 0.631212 0.821180 0.656274
Si Si7 0.933043 0.671606 0.466121
Si Si8 0.496309 0.386030 0.942247
O O1 0.025637 0.310011 0.328546
O O2 0.678946 0.410228 0.438095
O O3 0.840398 0.261329 0.027421
O O4 0.210704 0.357455 0.060576
O O5 0.229450 0.142193 0.808589
O O6 0.727625 0.107782 0.444439
O O7 0.752835 0.114822 0.754214
O O8 0.500000 0.000000 0.500000
O O9 0.186721 0.175052 0.568710
O O10 0.694764 0.137401 0.198650
O O11 0.202208 0.133202 0.192758
O O12 0.000000 0.000000 0.000000
O O13 0.130084 0.419622 0.669533
O O14 0.439031 0.422471 0.833243
O O15 0.413605 0.547260 0.860087
O O16 0.672921 0.729364 0.556681
O O17 0.224174 0.680323 0.282077
#
# Coordination Sequence:
#
# PCOD9029253 Si02
#       8
#     2   2   2   2   2   2   2   2
#     4  11  25  40  68 104 140 186 246 297 359 429
#     4  10  22  42  66  98 132 178 226 282 353 427
#     4  10  23  41  68  95 137 184 227 285 360 417
#     4  10  22  42  67  98 130 180 226 282 353 424
#     4  10  23  44  66 102 138 188 247 295 363 432
#     4  10  23  41  69  94 138 182 229 286 356 423
#     4  11  25  40  68 103 138 187 246 296 361 429
#     4  10  23  44  70  94 145 192 234 305 363 425
#
# _framework density 25.399771999999999
#
# number of rings (size 3 to 8) (size 9 to 14) (size 15 to 20)
#    0.000    1.750    0.000    2.250   10.500    2.500 
#    0.000    0.000    0.000    0.000    0.000    0.000 
#    0.000    0.000    0.000    0.000    0.000    0.000 
#
# Total GULP energy -89711.271985 kJ/mol
# GULP energy per Si atom -5606.954499 kJ/mol
# Density = 2.534196 g / cm^3
# Si number density = 25.399772 Si / 1000 Ang^3
#
#
#
# Elastic Constant Matrix: (Units=GPa)
#
#
# Indices 1 2 3 4 5 6 
#
# 1 116.6782 16.5922 58.3111 -7.8886 1.8032 12.4140
# 2 16.5922 52.5475 35.6030 -1.5277 -4.3390 17.2111
# 3 58.3111 35.6030 138.7165 -10.3067 -10.7890 14.3127
# 4 -7.8886 -1.5277 -10.3067 40.2257 18.0603 1.6108
# 5 1.8032 -4.3390 -10.7890 18.0603 54.2248 4.3067
# 6 12.4140 17.2111 14.3127 1.6108 4.3067 49.1107
#
#
#
# Elastic Compliance Matrix: (Units=1/GPa)
#
#
# Indices 1 2 3 4 5 6 
#
# 1 0.011143 -0.000104 -0.004516 0.001886 -0.001797 -0.001368
# 2 -0.000104 0.025430 -0.005657 -0.001037 0.001843 -0.007365
# 3 -0.004516 -0.005657 0.010769 0.000980 0.001528 -0.000181
# 4 0.001886 -0.001037 0.000980 0.029891 -0.009865 -0.000514
# 5 -0.001797 0.001843 0.001528 -0.009865 0.022420 -0.002280
# 6 -0.001368 -0.007365 -0.000181 -0.000514 -0.002280 0.023559
#
#
# Mechanical properties :
#
#
# Convention : Reuss Voigt Hill
#
# Bulk Modulus (GPa) = 37.32874 58.77275 48.05075
# Shear Modulus (GPa) = 32.74477 41.87464 37.30971
#
# Velocity S-wave (km/s) = 3.59440 4.06473 3.83678
# Velocity P-wave (km/s) = 5.65285 6.72448 6.21182
#
# Compressibility (1/GPa) = 0.02678901
#
# Stress axis : x y z
#
# Youngs Moduli (GPa) = 89.74177 39.32308 92.85501
#
# Poissons Ratio (x) = 0.00410 0.41932
# Poissons Ratio (y) = 0.00935 0.52528
# Poissons Ratio (z) = 0.40526 0.22245
#
# Static dielectric constant tensor:
#      x y z
#    x 2.030070 0.034890 0.002830 
#    y 0.034890 2.060870 0.009930 
#    z 0.002830 0.009930 1.974270 
# 
# From -- ./inp_files/142644.got.cif
#   From: 2010.05.17/outbox.cif.g08.bks.cpg/sg2_72_cif.got.tgz:142644.got - 2010.06.03 11:33:40.
