data_PCOD9029372
_publ_section_title
;
Structure prediction by ZEFSAII (Michael W. Deem and Ramdas Pophale) SiO2 
 PCOD9029372
Probable space group: P -1
;
_chemical_formula_sum "Si O2"
_cell_formula_units_Z 16
_cell_length_a 10.997192
_cell_length_b 13.458235
_cell_length_c 8.960078
_cell_angle_alpha 124.457691
_cell_angle_beta 95.466518
_cell_angle_gamma 52.379247
_cell_volume 800.051048
_symmetry_space_group_name_H-M "P -1"
_symmetry_group_IT_number 2
_symmetry_cell_setting 'triclinic'
loop_
_space_group_symop_operation_xyz
x,y,z
-x,-y,-z
loop_
_atom_site_type_symbol
_atom_site_label
_atom_site_fract_x
_atom_site_fract_y
_atom_site_fract_z
Si Si1 0.725845 0.779069 0.790279
Si Si2 0.962504 0.723293 0.259121
Si Si3 0.579464 0.130000 0.027345
Si Si4 0.594732 0.320976 0.422932
Si Si5 0.629378 0.705940 0.428758
Si Si6 0.829868 0.188159 0.612914
Si Si7 0.344067 0.910913 0.346447
Si Si8 0.008253 0.554895 0.832320
O O1 0.683301 0.770525 0.609658
O O2 0.915200 0.637714 0.737432
O O3 0.670767 0.952581 0.955410
O O4 0.614198 0.767646 0.873385
O O5 0.117944 0.710730 0.257943
O O6 0.003320 0.577004 0.234240
O O7 0.808166 0.900579 0.461499
O O8 0.924605 0.695339 0.067151
O O9 0.618064 0.109441 0.840545
O O10 0.636539 0.208297 0.191680
O O11 0.500000 0.500000 0.500000
O O12 0.467048 0.330058 0.517910
O O13 0.752339 0.238835 0.479859
O O14 0.504142 0.837558 0.401275
O O15 0.797668 0.545133 0.239551
O O16 0.702684 0.196039 0.705381
O O17 0.000000 0.000000 0.500000
#
# Coordination Sequence:
#
# PCOD9029372 Si02
#       8
#     2   2   2   2   2   2   2   2
#     4  10  23  39  61  91 132 162 205 261 312 378
#     4  10  24  39  63  94 126 166 205 262 315 367
#     4  10  23  39  65  93 122 169 207 257 316 374
#     4  10  23  42  66  94 127 166 210 264 315 372
#     4  10  23  41  64  93 126 165 209 258 314 371
#     4   9  21  42  64  87 124 167 209 259 306 372
#     4  10  22  42  67  91 124 166 217 250 308 386
#     4  11  24  38  62  95 129 161 206 264 314 368
#
# _framework density 19.998722000000001
#
# number of rings (size 3 to 8) (size 9 to 14) (size 15 to 20)
#    0.000    2.000    0.000    1.125   15.750    2.000 
#    2.250    5.000    0.000    0.000    0.000    0.000 
#    0.000    0.000    0.000    0.000    0.000    0.000 
#
# Total GULP energy -89308.996077 kJ/mol
# GULP energy per Si atom -5581.812255 kJ/mol
# Density = 1.995320 g / cm^3
# Si number density = 19.998722 Si / 1000 Ang^3
#
#
#
# Elastic Constant Matrix: (Units=GPa)
#
#
# Indices 1 2 3 4 5 6 
#
# 1 68.1218 46.1182 40.2268 -6.4644 19.8285 -11.4961
# 2 46.1182 109.9779 46.7837 -9.8393 17.9104 -19.8795
# 3 40.2268 46.7837 100.1009 -13.9087 8.0349 3.5779
# 4 -6.4644 -9.8393 -13.9087 16.0804 4.0276 -3.9482
# 5 19.8285 17.9104 8.0349 4.0276 31.5143 -1.7055
# 6 -11.4961 -19.8795 3.5779 -3.9482 -1.7055 21.3221
#
#
#
# Elastic Compliance Matrix: (Units=1/GPa)
#
#
# Indices 1 2 3 4 5 6 
#
# 1 0.029647 -0.002354 -0.008620 0.010867 -0.015641 0.015998
# 2 -0.002354 0.018228 -0.006006 0.011447 -0.007823 0.018227
# 3 -0.008620 -0.006006 0.016933 0.003676 0.003393 -0.012137
# 4 0.010867 0.011447 0.003676 0.090332 -0.024163 0.030709
# 5 -0.015641 -0.007823 0.003393 -0.024163 0.047323 -0.016985
# 6 0.015998 0.018227 -0.012137 0.030709 -0.016985 0.078883
#
#
# Mechanical properties :
#
#
# Convention : Reuss Voigt Hill
#
# Bulk Modulus (GPa) = 32.41755 60.49534 46.45645
# Shear Modulus (GPa) = 15.35680 23.45482 19.40581
#
# Velocity S-wave (km/s) = 2.77409 3.42836 3.11843
# Velocity P-wave (km/s) = 5.14837 6.78135 6.02049
#
# Compressibility (1/GPa) = 0.03084749
#
# Stress axis : x y z
#
# Youngs Moduli (GPa) = 33.72980 54.86185 59.05527
#
# Poissons Ratio (x) = 0.12916 0.50907
# Poissons Ratio (y) = 0.07941 0.35468
# Poissons Ratio (z) = 0.29076 0.32950
#
# Static dielectric constant tensor:
#      x y z
#    x 1.732480 -0.005170 -0.007540 
#    y -0.005170 1.699200 0.008880 
#    z -0.007540 0.008880 1.709320 
# 
# From -- ./inp_files/263050.got.cif
#   From: 2010.05.17/outbox.cif.g08.bks.cpg/sg2_132_cif.got.tgz:263050.got - 2010.06.03 11:33:40.
