data_PCOD9029490
_publ_section_title
;
Structure prediction by ZEFSAII (Michael W. Deem and Ramdas Pophale) SiO2 
 PCOD9029490
Probable space group: P -1
;
_chemical_formula_sum "Si O2"
_cell_formula_units_Z 12
_cell_length_a 8.213848
_cell_length_b 14.848026
_cell_length_c 12.321983
_cell_angle_alpha 18.215880
_cell_angle_beta 89.650418
_cell_angle_gamma 90.006431
_cell_volume 469.674302
_symmetry_space_group_name_H-M "P -1"
_symmetry_group_IT_number 2
_symmetry_cell_setting 'triclinic'
loop_
_space_group_symop_operation_xyz
x,y,z
-x,-y,-z
loop_
_atom_site_type_symbol
_atom_site_label
_atom_site_fract_x
_atom_site_fract_y
_atom_site_fract_z
Si Si1 0.327870 0.030737 0.748051
Si Si2 0.173190 0.830872 0.315660
Si Si3 0.617963 0.652285 0.239265
Si Si4 0.925017 0.513105 0.104285
Si Si5 0.137422 0.497499 0.323069
Si Si6 0.619011 0.768100 0.718299
O O1 0.289634 0.301541 0.513390
O O2 0.302844 0.130889 0.510932
O O3 0.504684 0.892297 0.910295
O O4 0.200557 0.772529 0.073430
O O5 0.306259 0.595935 0.549935
O O6 0.132532 0.786462 0.495103
O O7 0.008842 0.708989 0.399500
O O8 0.239329 0.151768 0.931646
O O9 0.500000 0.500000 0.500000
O O10 0.057836 0.615947 0.074698
O O11 0.763450 0.696655 0.881722
O O12 0.000000 0.500000 0.000000
O O13 0.500000 0.000000 0.500000
O O14 0.500000 0.500000 0.000000
#
# Coordination Sequence:
#
# PCOD9029490 Si02
#       6
#     2   2   2   2   2   2
#     4  12  23  43  62  96 130 168 223 268 321 388
#     4  10  23  44  67  99 130 169 219 265 326 395
#     4  12  25  46  70  93 128 177 220 280 333 374
#     4  10  22  42  67  95 139 172 210 252 333 388
#     4  10  24  41  67  92 136 169 207 267 322 381
#     4  12  24  37  60  94 128 171 213 259 312 385
#
# _framework density 25.549621999999999
#
# number of rings (size 3 to 8) (size 9 to 14) (size 15 to 20)
#    1.000    0.000    1.667    5.500    0.000    2.000 
#    0.000    5.000    0.000    0.000    0.000    0.000 
#    0.000    0.000    0.000    0.000    0.000    0.000 
#
# Total GULP energy -67179.750798 kJ/mol
# GULP energy per Si atom -5598.312567 kJ/mol
# Density = 2.549147 g / cm^3
# Si number density = 25.549622 Si / 1000 Ang^3
#
#
#
# Elastic Constant Matrix: (Units=GPa)
#
#
# Indices 1 2 3 4 5 6 
#
# 1 87.8544 29.0259 40.9922 -13.1815 -14.8272 -6.5093
# 2 29.0259 75.9234 37.2322 4.7751 0.7342 -9.5377
# 3 40.9922 37.2322 123.1902 -21.4471 -18.1888 -6.8685
# 4 -13.1815 4.7751 -21.4471 47.2613 -12.3710 1.0049
# 5 -14.8272 0.7342 -18.1888 -12.3710 54.0656 1.9231
# 6 -6.5093 -9.5377 -6.8685 1.0049 1.9231 48.3521
#
#
#
# Elastic Compliance Matrix: (Units=1/GPa)
#
#
# Indices 1 2 3 4 5 6 
#
# 1 0.015734 -0.005402 -0.001914 0.005352 0.004952 0.000473
# 2 -0.005402 0.019018 -0.005965 -0.007652 -0.005588 0.002558
# 3 -0.001914 -0.005965 0.012620 0.007224 0.005455 -0.000009
# 4 0.005352 -0.007652 0.007224 0.029545 0.010791 -0.000806
# 5 0.004952 -0.005588 0.005455 0.010791 0.024265 -0.000850
# 6 0.000473 0.002558 -0.000009 -0.000806 -0.000850 0.021299
#
#
# Mechanical properties :
#
#
# Convention : Reuss Voigt Hill
#
# Bulk Modulus (GPa) = 48.05246 55.71872 51.88559
# Shear Modulus (GPa) = 32.05568 41.91698 36.98633
#
# Velocity S-wave (km/s) = 3.54594 4.05484 3.80890
# Velocity P-wave (km/s) = 5.96768 6.61647 6.30043
#
# Compressibility (1/GPa) = 0.02081059
#
# Stress axis : x y z
#
# Youngs Moduli (GPa) = 63.55727 52.58088 79.24066
#
# Poissons Ratio (x) = 0.28403 0.15163
# Poissons Ratio (y) = 0.34333 0.47269
# Poissons Ratio (z) = 0.12162 0.31366
#
# Static dielectric constant tensor:
#      x y z
#    x 2.054680 0.027260 0.029300 
#    y 0.027260 1.980060 0.053640 
#    z 0.029300 0.053640 2.017850 
# 
# From -- ./inp_files/1001.got.cif
#   From: 2010.05.17/outbox.cif.g08.bks.cpg/sg2_1_cif.got.tgz:1001.got - 2010.06.03 11:33:40.
