data_PCOD9029600
_publ_section_title
;
Structure prediction by ZEFSAII (Michael W. Deem and Ramdas Pophale) SiO2 
 PCOD9029600
Probable space group: P -1
;
_chemical_formula_sum "Si O2"
_cell_formula_units_Z 16
_cell_length_a 14.765616
_cell_length_b 12.008507
_cell_length_c 15.206061
_cell_angle_alpha 123.149800
_cell_angle_beta 28.509084
_cell_angle_gamma 138.700945
_cell_volume 792.457791
_symmetry_space_group_name_H-M "P -1"
_symmetry_group_IT_number 2
_symmetry_cell_setting 'triclinic'
loop_
_space_group_symop_operation_xyz
x,y,z
-x,-y,-z
loop_
_atom_site_type_symbol
_atom_site_label
_atom_site_fract_x
_atom_site_fract_y
_atom_site_fract_z
Si Si1 0.257897 0.022056 0.037967
Si Si2 0.609900 0.558938 0.550804
Si Si3 0.144995 0.142362 0.017417
Si Si4 0.253417 0.824579 0.583350
Si Si5 0.790426 0.194451 0.595167
Si Si6 0.906685 0.601750 0.153038
Si Si7 0.074463 0.029513 0.550435
Si Si8 0.287940 0.542790 0.405245
O O1 0.142455 0.047873 0.064852
O O2 0.562992 0.161723 0.825510
O O3 0.143175 0.817871 0.050201
O O4 0.167044 0.051703 0.216352
O O5 0.748273 0.527120 0.348495
O O6 0.303356 0.428266 0.745061
O O7 0.721518 0.756164 0.516207
O O8 0.686306 0.552060 0.580054
O O9 0.992188 0.204862 0.194040
O O10 0.438617 0.310426 0.812514
O O11 0.000000 0.000000 0.000000
O O12 0.283678 0.848781 0.462522
O O13 0.225639 0.655094 0.551241
O O14 0.500000 0.000000 0.500000
O O15 0.062996 0.394854 0.466530
O O16 0.814265 0.058477 0.554745
O O17 0.000000 0.500000 0.000000
O O18 0.000000 0.000000 0.500000
#
# Coordination Sequence:
#
# PCOD9029600 Si02
#       8
#     2   2   2   2   2   2   2   2
#     4  11  24  42  71  98 136 183 230 281 344 414
#     4  10  23  41  67 100 136 177 228 286 342 413
#     4  12  24  44  69 101 136 185 232 278 348 413
#     4  12  26  44  72 100 137 186 228 285 346 413
#     4  12  25  46  71 103 142 179 236 288 345 417
#     4  10  22  42  67  99 134 177 232 289 344 405
#     4  11  23  46  69  98 137 183 225 283 349 402
#     4  12  26  44  68 104 145 177 233 287 346 417
#
# _framework density 20.190349000000001
#
# number of rings (size 3 to 8) (size 9 to 14) (size 15 to 20)
#    0.000    0.750    5.000    1.875    0.000    6.000 
#    2.250    0.000    0.000    0.000    0.000    0.000 
#    0.000    0.000    0.000    0.000    0.000    0.000 
#
# Total GULP energy -89470.764649 kJ/mol
# GULP energy per Si atom -5591.922791 kJ/mol
# Density = 2.014440 g / cm^3
# Si number density = 20.190349 Si / 1000 Ang^3
#
#
#
# Elastic Constant Matrix: (Units=GPa)
#
#
# Indices 1 2 3 4 5 6 
#
# 1 116.3189 36.0580 44.7319 -5.0975 4.4368 13.9723
# 2 36.0580 78.8693 38.2410 6.6891 -6.8133 -3.2158
# 3 44.7319 38.2410 135.6162 8.3709 -10.6987 6.9502
# 4 -5.0975 6.6891 8.3709 32.1018 0.5769 -6.3754
# 5 4.4368 -6.8133 -10.6987 0.5769 28.8324 3.6138
# 6 13.9723 -3.2158 6.9502 -6.3754 3.6138 37.2524
#
#
#
# Elastic Compliance Matrix: (Units=1/GPa)
#
#
# Indices 1 2 3 4 5 6 
#
# 1 0.011854 -0.004737 -0.002869 0.002997 -0.003635 -0.003454
# 2 -0.004737 0.016919 -0.002911 -0.002994 0.003338 0.002944
# 3 -0.002869 -0.002911 0.009694 -0.002803 0.003634 -0.001816
# 4 0.002997 -0.002994 -0.002803 0.034102 -0.003558 0.005322
# 5 -0.003635 0.003338 0.003634 -0.003558 0.037866 -0.003309
# 6 -0.003454 0.002944 -0.001816 0.005322 -0.003309 0.029964
#
#
# Mechanical properties :
#
#
# Convention : Reuss Voigt Hill
#
# Bulk Modulus (GPa) = 57.36603 63.20734 60.28669
# Shear Modulus (GPa) = 29.89656 33.75556 31.82606
#
# Velocity S-wave (km/s) = 3.85221 4.09328 3.97457
# Velocity P-wave (km/s) = 6.94696 7.32896 7.14051
#
# Compressibility (1/GPa) = 0.01743192
#
# Stress axis : x y z
#
# Youngs Moduli (GPa) = 84.36154 59.10570 103.16127
#
# Poissons Ratio (x) = 0.28001 0.29594
# Poissons Ratio (y) = 0.39966 0.30030
# Poissons Ratio (z) = 0.24201 0.17205
#
# Static dielectric constant tensor:
#      x y z
#    x 1.704010 0.006510 0.001930 
#    y 0.006510 1.718800 0.000680 
#    z 0.001930 0.000680 1.717590 
# 
# From -- ./inp_files/308917.got.cif
#   From: 2010.05.17/outbox.cif.g08.bks.cpg/sg2_155_cif.got.tgz:308917.got - 2010.06.03 11:33:40.
