data_PCOD9029793
_publ_section_title
;
Structure prediction by ZEFSAII (Michael W. Deem and Ramdas Pophale) SiO2 
 PCOD9029793
Probable space group: P -1
;
_chemical_formula_sum "Si O2"
_cell_formula_units_Z 12
_cell_length_a 8.398773
_cell_length_b 11.656308
_cell_length_c 8.074885
_cell_angle_alpha 37.121180
_cell_angle_beta 110.119223
_cell_angle_gamma 94.147381
_cell_volume 418.556905
_symmetry_space_group_name_H-M "P -1"
_symmetry_group_IT_number 2
_symmetry_cell_setting 'triclinic'
loop_
_space_group_symop_operation_xyz
x,y,z
-x,-y,-z
loop_
_atom_site_type_symbol
_atom_site_label
_atom_site_fract_x
_atom_site_fract_y
_atom_site_fract_z
Si Si1 0.705709 0.421704 0.007012
Si Si2 0.784702 0.706796 0.210555
Si Si3 0.396330 0.947237 0.733586
Si Si4 0.848569 0.995319 0.131044
Si Si5 0.320566 0.632661 0.561318
Si Si6 0.953508 0.768434 0.879330
O O1 0.634986 0.233434 0.172170
O O2 0.724296 0.430420 0.200338
O O3 0.886466 0.368736 0.024267
O O4 0.531039 0.610178 0.666564
O O5 0.706267 0.526194 0.397668
O O6 0.608942 0.902108 0.861686
O O7 0.925001 0.666798 0.155994
O O8 0.862733 0.778044 0.317574
O O9 0.238381 0.149008 0.379386
O O10 0.338683 0.924200 0.926255
O O11 0.816110 0.147094 0.790071
O O12 0.987680 0.042563 0.252279
#
# Coordination Sequence:
#
# PCOD9029793 Si02
#       6
#     2   2   2   2   2   2
#     4   9  20  40  64  93 131 169 212 264 317 383
#     4  11  24  42  67  97 128 168 215 267 320 379
#     4  10  22  42  68  95 128 174 217 258 320 385
#     4  11  23  43  69  93 130 171 211 269 319 377
#     4  10  23  43  66  96 129 170 216 260 324 383
#     4  11  23  40  67  97 129 172 215 262 321 380
#
# _framework density 28.669936
#
# number of rings (size 3 to 8) (size 9 to 14) (size 15 to 20)
#    0.000    1.667    0.000    4.500    0.000   11.333 
#    0.000    3.333    0.000    1.000    0.000    0.000 
#    0.000    0.000    0.000    0.000    0.000    0.000 
#
# Total GULP energy -67344.280421 kJ/mol
# GULP energy per Si atom -5612.023368 kJ/mol
# Density = 2.860468 g / cm^3
# Si number density = 28.669936 Si / 1000 Ang^3
#
#
#
# Elastic Constant Matrix: (Units=GPa)
#
#
# Indices 1 2 3 4 5 6 
#
# 1 123.7672 49.7661 20.5293 6.0740 34.6578 2.2885
# 2 49.7661 171.3146 17.8301 -9.8778 8.4896 21.4191
# 3 20.5293 17.8301 122.9111 7.3746 38.3373 10.5740
# 4 6.0740 -9.8778 7.3746 41.3443 2.3025 1.0741
# 5 34.6578 8.4896 38.3373 2.3025 56.8240 1.9388
# 6 2.2885 21.4191 10.5740 1.0741 1.9388 55.8186
#
#
#
# Elastic Compliance Matrix: (Units=1/GPa)
#
#
# Indices 1 2 3 4 5 6 
#
# 1 0.011273 -0.003259 0.000783 -0.002216 -0.006858 0.000921
# 2 -0.003259 0.007261 -0.000896 0.002357 0.001500 -0.002580
# 3 0.000783 -0.000896 0.010682 -0.001784 -0.007429 -0.001419
# 4 -0.002216 0.002357 -0.001784 0.025353 0.001210 -0.001006
# 5 -0.006858 0.001500 -0.007429 0.001210 0.026515 0.000169
# 6 0.000921 -0.002580 -0.001419 -0.001006 0.000169 0.019150
#
#
# Mechanical properties :
#
#
# Convention : Reuss Voigt Hill
#
# Bulk Modulus (GPa) = 44.50322 66.02710 55.26516
# Shear Modulus (GPa) = 43.68013 52.78854 48.23434
#
# Velocity S-wave (km/s) = 3.90750 4.29563 4.10616
# Velocity P-wave (km/s) = 5.99287 6.90532 6.46521
#
# Compressibility (1/GPa) = 0.02247028
#
# Stress axis : x y z
#
# Youngs Moduli (GPa) = 88.71135 137.71309 93.61810
#
# Poissons Ratio (x) = 0.44883 -0.07329
# Poissons Ratio (y) = 0.28913 0.08392
# Poissons Ratio (z) = -0.06945 0.12344
#
# Static dielectric constant tensor:
#      x y z
#    x 2.173840 0.016200 0.030020 
#    y 0.016200 2.124300 -0.011340 
#    z 0.030020 -0.011340 2.251340 
# 
# From -- ./inp_files/156370.got.cif
#   From: 2010.05.17/outbox.cif.g08.bks.cpg/sg2_79_cif.got.tgz:156370.got - 2010.06.03 11:33:40.
