data_PCOD9029138
_publ_section_title
;
Structure prediction by ZEFSAII (Michael W. Deem and Ramdas Pophale) SiO2 
 PCOD9029138
Probable space group: P -1
;
_chemical_formula_sum "Si O2"
_cell_formula_units_Z 16
_cell_length_a 8.872345
_cell_length_b 17.632680
_cell_length_c 11.241820
_cell_angle_alpha 51.174511
_cell_angle_beta 30.136725
_cell_angle_gamma 46.369857
_cell_volume 636.899315
_symmetry_space_group_name_H-M "P -1"
_symmetry_group_IT_number 2
_symmetry_cell_setting 'triclinic'
loop_
_space_group_symop_operation_xyz
x,y,z
-x,-y,-z
loop_
_atom_site_type_symbol
_atom_site_label
_atom_site_fract_x
_atom_site_fract_y
_atom_site_fract_z
Si Si1 0.327876 0.127204 0.236953
Si Si2 0.567782 0.260671 0.587377
Si Si3 0.909887 0.532111 0.895322
Si Si4 0.341903 0.069692 0.922336
Si Si5 0.001678 0.383050 0.476408
Si Si6 0.486435 0.414199 0.267198
Si Si7 0.265546 0.943872 0.767986
Si Si8 0.419376 0.722931 0.174077
O O1 0.466173 0.145882 0.249959
O O2 0.952358 0.189721 0.407115
O O3 0.430732 0.003906 0.264336
O O4 0.540179 0.167235 0.963188
O O5 0.377140 0.181911 0.784701
O O6 0.520830 0.337794 0.431337
O O7 0.490252 0.317180 0.713376
O O8 0.110795 0.558635 0.629790
O O9 0.797519 0.442638 0.005801
O O10 0.650158 0.648506 0.990327
O O11 0.000000 0.500000 0.000000
O O12 0.969398 0.080963 0.142062
O O13 0.500000 0.000000 0.000000
O O14 0.357449 0.370583 0.285586
O O15 0.768875 0.468365 0.643047
O O16 0.921527 0.280030 0.628226
O O17 0.500000 0.000000 0.500000
O O18 0.000000 0.000000 0.000000
#
# Coordination Sequence:
#
# PCOD9029138 Si02
#       8
#     2   2   2   2   2   2   2   2
#     4  11  24  43  68  98 141 183 237 294 362 431
#     4  12  24  42  69 102 139 182 242 294 358 433
#     4  11  21  40  65  93 130 181 229 283 360 420
#     4  11  23  46  70 100 139 183 235 299 360 423
#     4  10  22  42  66  93 143 178 227 298 357 431
#     4  10  23  40  66  99 134 177 234 296 357 427
#     4  10  24  45  73 100 137 191 241 294 370 436
#     4  11  23  39  64  97 131 181 229 285 350 429
#
# _framework density 25.121711000000001
#
# number of rings (size 3 to 8) (size 9 to 14) (size 15 to 20)
#    0.000    1.250    1.250    4.500    3.500    3.000 
#    0.000    2.500    0.000    0.000    0.000    0.000 
#    0.000    0.000    0.000    0.000    0.000    0.000 
#
# Total GULP energy -89262.882569 kJ/mol
# GULP energy per Si atom -5578.930161 kJ/mol
# Density = 2.506453 g / cm^3
# Si number density = 25.121711 Si / 1000 Ang^3
#
#
#
# Elastic Constant Matrix: (Units=GPa)
#
#
# Indices 1 2 3 4 5 6 
#
# 1 122.5732 20.4358 38.8132 -19.9895 -27.5894 -0.0656
# 2 20.4358 65.9963 27.6292 -10.7282 -18.5660 11.1943
# 3 38.8132 27.6292 109.0678 -33.4363 -28.5937 17.0267
# 4 -19.9895 -10.7282 -33.4363 46.2357 5.8722 1.6625
# 5 -27.5894 -18.5660 -28.5937 5.8722 49.8335 -8.1526
# 6 -0.0656 11.1943 17.0267 1.6625 -8.1526 35.9144
#
#
#
# Elastic Compliance Matrix: (Units=1/GPa)
#
#
# Indices 1 2 3 4 5 6 
#
# 1 0.010273 -0.001202 -0.001915 0.002161 0.004240 0.002164
# 2 -0.001202 0.018524 -0.001915 0.001998 0.004248 -0.003996
# 3 -0.001915 -0.001915 0.015519 0.009532 0.005016 -0.006067
# 4 0.002161 0.001998 0.009532 0.029756 0.002948 -0.005846
# 5 0.004240 0.004248 0.005016 0.002948 0.026900 0.002276
# 6 0.002164 -0.003996 -0.006067 -0.005846 0.002276 0.032757
#
#
# Mechanical properties :
#
#
# Convention : Reuss Voigt Hill
#
# Bulk Modulus (GPa) = 29.19454 52.37709 40.78581
# Shear Modulus (GPa) = 32.21443 40.44730 36.33086
#
# Velocity S-wave (km/s) = 3.58485 4.01690 3.80701
# Velocity P-wave (km/s) = 5.36483 6.51219 5.96615
#
# Compressibility (1/GPa) = 0.03425298
#
# Stress axis : x y z
#
# Youngs Moduli (GPa) = 97.34015 53.98438 64.43609
#
# Poissons Ratio (x) = 0.06490 0.12338
# Poissons Ratio (y) = 0.11703 0.12337
# Poissons Ratio (z) = 0.18639 0.10336
#
# Static dielectric constant tensor:
#      x y z
#    x 2.129460 -0.074430 0.070130 
#    y -0.074430 2.080680 -0.101570 
#    z 0.070130 -0.101570 2.457450 
# 
# From -- ./inp_files/85125.got.cif
#   From: 2010.05.17/outbox.cif.g08.bks.cpg/sg2_43_cif.got.tgz:85125.got - 2010.06.03 11:33:40.
