data_PCOD9029862
_publ_section_title
;
Structure prediction by ZEFSAII (Michael W. Deem and Ramdas Pophale) SiO2 
 PCOD9029862
Probable space group: P -1
;
_chemical_formula_sum "Si O2"
_cell_formula_units_Z 16
_cell_length_a 9.121604
_cell_length_b 23.576099
_cell_length_c 9.500844
_cell_angle_alpha 141.348619
_cell_angle_beta 40.550333
_cell_angle_gamma 140.073080
_cell_volume 750.117536
_symmetry_space_group_name_H-M "P -1"
_symmetry_group_IT_number 2
_symmetry_cell_setting 'triclinic'
loop_
_space_group_symop_operation_xyz
x,y,z
-x,-y,-z
loop_
_atom_site_type_symbol
_atom_site_label
_atom_site_fract_x
_atom_site_fract_y
_atom_site_fract_z
Si Si1 0.846703 0.536912 0.075183
Si Si2 0.422148 0.389589 0.413346
Si Si3 0.814557 0.026594 0.592996
Si Si4 0.914103 0.220928 0.060076
Si Si5 0.127226 0.594527 0.693546
Si Si6 0.459240 0.317719 0.949897
Si Si7 0.182654 0.957209 0.694236
Si Si8 0.703471 0.170628 0.427611
O O1 0.598204 0.434571 0.032860
O O2 0.958530 0.576007 0.918926
O O3 0.817455 0.624729 0.351672
O O4 0.000000 0.500000 0.000000
O O5 0.500000 0.500000 0.500000
O O6 0.619461 0.395249 0.398094
O O7 0.398499 0.318527 0.162133
O O8 0.915448 0.051368 0.408588
O O9 0.553185 0.929469 0.598200
O O10 0.796217 0.122938 0.860121
O O11 0.000000 0.000000 0.500000
O O12 0.842865 0.307095 0.220969
O O13 0.833390 0.195291 0.230081
O O14 0.213716 0.264061 0.931730
O O15 0.000000 0.500000 0.500000
O O16 0.632586 0.260517 0.695001
O O17 0.150946 0.861245 0.622355
O O18 0.500000 0.000000 0.500000
O O19 0.000000 0.000000 0.000000
#
# Coordination Sequence:
#
# PCOD9029862 Si02
#       8
#     2   2   2   2   2   2   2   2
#     4  11  23  43  73  94 138 190 232 290 361 432
#     4  10  22  42  68  97 135 182 233 290 347 437
#     4  11  23  49  73 106 146 184 242 303 368 423
#     4  12  27  43  70 107 143 185 239 302 366 432
#     4  12  25  43  69 103 142 178 236 300 359 427
#     4  11  24  42  70 105 136 187 245 281 369 436
#     4  10  24  45  76 106 138 197 249 297 368 445
#     4  11  25  46  76  97 147 194 236 300 363 447
#
# _framework density 21.329992000000001
#
# number of rings (size 3 to 8) (size 9 to 14) (size 15 to 20)
#    0.000    1.000    3.750    3.375    5.250    4.000 
#    0.000    0.000    0.000    0.000    0.000    0.000 
#    0.000    0.000    0.000    0.000    0.000    0.000 
#
# Total GULP energy -89186.824881 kJ/mol
# GULP energy per Si atom -5574.176555 kJ/mol
# Density = 2.128144 g / cm^3
# Si number density = 21.329992 Si / 1000 Ang^3
#
#
#
# Elastic Constant Matrix: (Units=GPa)
#
#
# Indices 1 2 3 4 5 6 
#
# 1 126.8570 25.3704 18.3092 -2.9202 0.0947 -30.6199
# 2 25.3704 79.7008 22.4802 1.1641 2.7198 -17.7027
# 3 18.3092 22.4802 123.6501 -0.9856 10.8548 -13.7542
# 4 -2.9202 1.1641 -0.9856 36.5176 -8.9643 5.8438
# 5 0.0947 2.7198 10.8548 -8.9643 38.3972 -3.5919
# 6 -30.6199 -17.7027 -13.7542 5.8438 -3.5919 46.7088
#
#
#
# Elastic Compliance Matrix: (Units=1/GPa)
#
#
# Indices 1 2 3 4 5 6 
#
# 1 0.009650 -0.001706 -0.000570 0.000119 0.000806 0.005559
# 2 -0.001706 0.014550 -0.001924 -0.001395 -0.000437 0.003971
# 3 -0.000570 -0.001924 0.008881 -0.000550 -0.002371 0.001399
# 4 0.000119 -0.001395 -0.000550 0.029710 0.006834 -0.003804
# 5 0.000806 -0.000437 -0.002371 0.006834 0.028431 0.000996
# 6 0.005559 0.003971 0.001399 -0.003804 0.000996 0.027523
#
#
# Mechanical properties :
#
#
# Convention : Reuss Voigt Hill
#
# Bulk Modulus (GPa) = 40.51611 51.39195 45.95403
# Shear Modulus (GPa) = 36.93557 41.92792 39.43174
#
# Velocity S-wave (km/s) = 4.16580 4.43841 4.30426
# Velocity P-wave (km/s) = 6.49420 7.10014 6.80392
#
# Compressibility (1/GPa) = 0.02468154
#
# Stress axis : x y z
#
# Youngs Moduli (GPa) = 103.62465 68.73003 112.60205
#
# Poissons Ratio (x) = 0.11722 0.06422
# Poissons Ratio (y) = 0.17673 0.21662
# Poissons Ratio (z) = 0.05910 0.13222
#
# Static dielectric constant tensor:
#      x y z
#    x 1.483190 -0.099200 0.228720 
#    y -0.099200 1.721240 0.107750 
#    z 0.228720 0.107750 1.629490 
# 
# From -- ./inp_files/226593.got.cif
#   From: 2010.05.17/outbox.cif.g08.bks.cpg/sg2_114_cif.got.tgz:226593.got - 2010.06.03 11:33:40.
