data_PCOD9029429
_publ_section_title
;
Structure prediction by ZEFSAII (Michael W. Deem and Ramdas Pophale) SiO2 
 PCOD9029429
Probable space group: P -1
;
_chemical_formula_sum "Si O2"
_cell_formula_units_Z 16
_cell_length_a 13.680402
_cell_length_b 10.710784
_cell_length_c 7.723880
_cell_angle_alpha 96.812275
_cell_angle_beta 111.758377
_cell_angle_gamma 42.224123
_cell_volume 684.006810
_symmetry_space_group_name_H-M "P -1"
_symmetry_group_IT_number 2
_symmetry_cell_setting 'triclinic'
loop_
_space_group_symop_operation_xyz
x,y,z
-x,-y,-z
loop_
_atom_site_type_symbol
_atom_site_label
_atom_site_fract_x
_atom_site_fract_y
_atom_site_fract_z
Si Si1 0.458090 0.666113 0.892926
Si Si2 0.162364 0.218218 0.144390
Si Si3 0.937380 0.610190 0.253818
Si Si4 0.462592 0.783274 0.272812
Si Si5 0.305507 0.660961 0.237999
Si Si6 0.163430 0.883568 0.494212
Si Si7 0.184386 0.497429 0.607171
Si Si8 0.946030 0.210896 0.143821
O O1 0.587713 0.548207 0.803527
O O2 0.289557 0.812413 0.707701
O O3 0.500000 0.500000 0.000000
O O4 0.455772 0.772521 0.056670
O O5 0.089578 0.390968 0.248333
O O6 0.020091 0.242242 0.062312
O O7 0.331154 0.005639 0.273523
O O8 0.167131 0.262683 0.959449
O O9 0.023529 0.648836 0.410305
O O10 0.839448 0.612166 0.322828
O O11 0.407393 0.698110 0.299493
O O12 0.647735 0.647794 0.404690
O O13 0.244448 0.702156 0.399949
O O14 0.156621 0.799283 0.028044
O O15 0.000000 0.000000 0.500000
O O16 0.100790 0.031096 0.325890
O O17 0.170581 0.617388 0.764612
#
# Coordination Sequence:
#
# PCOD9029429 Si02
#       8
#     2   2   2   2   2   2   2   2
#     4  10  23  42  58  89 137 173 208 261 307 377
#     4  10  22  42  67  94 130 166 218 271 330 377
#     4   9  22  45  67  94 124 166 220 283 319 385
#     4  11  22  40  66  96 132 175 205 264 321 395
#     4  11  23  44  59  94 143 171 211 263 310 395
#     4  12  25  37  63  91 126 183 221 256 311 375
#     4  10  22  42  69  93 127 170 215 269 334 379
#     4  11  23  42  64  96 130 176 215 265 319 389
#
# _framework density 23.391580000000001
#
# number of rings (size 3 to 8) (size 9 to 14) (size 15 to 20)
#    0.000    1.500    2.500    2.250    5.250    1.000 
#    2.250    0.000    0.000    0.000    0.000    0.000 
#    0.000    0.000    0.000    0.000    0.000    0.000 
#
# Total GULP energy -89410.855257 kJ/mol
# GULP energy per Si atom -5588.178454 kJ/mol
# Density = 2.333834 g / cm^3
# Si number density = 23.391580 Si / 1000 Ang^3
#
#
#
# Elastic Constant Matrix: (Units=GPa)
#
#
# Indices 1 2 3 4 5 6 
#
# 1 70.2360 18.5186 20.0304 -1.2140 5.1849 -19.2542
# 2 18.5186 76.8160 -4.7130 -11.2221 5.5525 -19.8342
# 3 20.0304 -4.7130 87.6492 -7.9184 10.4388 2.4738
# 4 -1.2140 -11.2221 -7.9184 38.1493 -8.1088 -0.1448
# 5 5.1849 5.5525 10.4388 -8.1088 32.6418 -0.9179
# 6 -19.2542 -19.8342 2.4738 -0.1448 -0.9179 35.1829
#
#
#
# Elastic Compliance Matrix: (Units=1/GPa)
#
#
# Indices 1 2 3 4 5 6 
#
# 1 0.018819 -0.002578 -0.004684 -0.001337 -0.001128 0.009140
# 2 -0.002578 0.016596 0.001892 0.004885 -0.001586 0.007791
# 3 -0.004684 0.001892 0.013264 0.002454 -0.003281 -0.002505
# 4 -0.001337 0.004885 0.002454 0.029391 0.005958 0.002126
# 5 -0.001128 -0.001586 -0.003281 0.005958 0.033603 -0.000379
# 6 0.009140 0.007791 -0.002505 0.002126 -0.000379 0.037992
#
#
# Mechanical properties :
#
#
# Convention : Reuss Voigt Hill
#
# Bulk Modulus (GPa) = 26.35808 33.59703 29.97756
# Shear Modulus (GPa) = 28.89335 34.58580 31.73958
#
# Velocity S-wave (km/s) = 3.51836 3.84937 3.68758
# Velocity P-wave (km/s) = 5.27236 5.84388 5.56546
#
# Compressibility (1/GPa) = 0.03793903
#
# Stress axis : x y z
#
# Youngs Moduli (GPa) = 53.13817 60.25726 75.39042
#
# Poissons Ratio (x) = 0.15534 0.35310
# Poissons Ratio (y) = 0.13699 -0.14262
# Poissons Ratio (z) = 0.24888 -0.11400
#
# Static dielectric constant tensor:
#      x y z
#    x 1.907410 0.002390 -0.037710 
#    y 0.002390 1.962860 -0.016460 
#    z -0.037710 -0.016460 1.927490 
# 
# From -- ./inp_files/305400.got.cif
#   From: 2010.05.17/outbox.cif.g08.bks.cpg/sg2_153_cif.got.tgz:305400.got - 2010.06.03 11:33:40.
