data_PCOD9029157
_publ_section_title
;
Structure prediction by ZEFSAII (Michael W. Deem and Ramdas Pophale) SiO2 
 PCOD9029157
Probable space group: P -1
;
_chemical_formula_sum "Si O2"
_cell_formula_units_Z 11
_cell_length_a 6.823555
_cell_length_b 18.739645
_cell_length_c 7.313065
_cell_angle_alpha 32.602537
_cell_angle_beta 118.803125
_cell_angle_gamma 117.532815
_cell_volume 438.359890
_symmetry_space_group_name_H-M "P -1"
_symmetry_group_IT_number 2
_symmetry_cell_setting 'triclinic'
loop_
_space_group_symop_operation_xyz
x,y,z
-x,-y,-z
loop_
_atom_site_type_symbol
_atom_site_label
_atom_site_fract_x
_atom_site_fract_y
_atom_site_fract_z
Si Si1 0.122019 0.210023 0.569100
Si Si2 0.465554 0.013532 0.169424
Si Si3 0.500000 0.500000 0.500000
Si Si4 0.697281 0.201773 0.162979
Si Si5 0.005600 0.603784 0.612510
Si Si6 0.442214 0.593219 0.592105
O O1 0.989976 0.253508 0.593577
O O2 0.345740 0.317494 0.420345
O O3 0.954080 0.215143 0.313228
O O4 0.229486 0.075378 0.946378
O O5 0.645842 0.117033 0.136790
O O6 0.443582 0.878476 0.567631
O O7 0.500000 0.000000 0.000000
O O8 0.770748 0.572803 0.471703
O O9 0.512578 0.461742 0.819153
O O10 0.603506 0.342616 0.772747
O O11 0.215760 0.592512 0.600468
O O12 0.000000 0.500000 0.000000
#
# Coordination Sequence:
#
# PCOD9029157 Si02
#       6
#     2   2   1   2   2   2
#     4  10  23  41  65  97 128 172 220 261 331 386
#     4  10  23  44  66  97 132 170 220 269 321 393
#     4  10  22  42  66  94 130 172 220 260 336 380
#     4  10  22  43  65  95 133 168 217 269 323 386
#     4  11  24  42  66  94 135 170 217 273 321 389
#     4  10  23  43  63 100 132 170 221 271 317 396
#
# _framework density 25.093536
#
# number of rings (size 3 to 8) (size 9 to 14) (size 15 to 20)
#    0.000    1.818    0.000    2.182    5.091    5.091 
#   16.364    0.000    0.000    0.000    0.000    0.000 
#    0.000    0.000    0.000    0.000    0.000    0.000 
#
# Total GULP energy -61376.491799 kJ/mol
# GULP energy per Si atom -5579.681073 kJ/mol
# Density = 2.503642 g / cm^3
# Si number density = 25.093536 Si / 1000 Ang^3
#
#
#
# Elastic Constant Matrix: (Units=GPa)
#
#
# Indices 1 2 3 4 5 6 
#
# 1 199.4146 67.5448 36.9284 34.3919 -14.3484 -2.7658
# 2 67.5448 156.1282 51.3428 42.2771 2.7937 13.0947
# 3 36.9284 51.3428 138.1591 17.0144 4.9474 -0.1585
# 4 34.3919 42.2771 17.0144 43.2123 3.5687 21.7232
# 5 -14.3484 2.7937 4.9474 3.5687 45.4908 21.7110
# 6 -2.7658 13.0947 -0.1585 21.7232 21.7110 58.2393
#
#
#
# Elastic Compliance Matrix: (Units=1/GPa)
#
#
# Indices 1 2 3 4 5 6 
#
# 1 0.006595 -0.001613 -0.000689 -0.004366 0.001822 0.001623
# 2 -0.001613 0.009932 -0.002256 -0.007940 -0.000680 0.000899
# 3 -0.000689 -0.002256 0.008474 -0.001236 -0.001656 0.001576
# 4 -0.004366 -0.007940 -0.001236 0.042371 0.003299 -0.015460
# 5 0.001822 -0.000680 -0.001656 0.003299 0.027972 -0.011423
# 6 0.001623 0.000899 0.001576 -0.015460 -0.011423 0.027075
#
#
# Mechanical properties :
#
#
# Convention : Reuss Voigt Hill
#
# Bulk Modulus (GPa) = 62.95722 89.48156 76.21939
# Shear Modulus (GPa) = 36.54150 51.91422 44.22786
#
# Velocity S-wave (km/s) = 3.82017 4.55337 4.20279
# Velocity P-wave (km/s) = 6.67846 7.96121 7.34788
#
# Compressibility (1/GPa) = 0.01588380
#
# Stress axis : x y z
#
# Youngs Moduli (GPa) = 151.62345 100.68647 118.00715
#
# Poissons Ratio (x) = 0.16243 0.08131
# Poissons Ratio (y) = 0.24460 0.26628
# Poissons Ratio (z) = 0.10448 0.22719
#
# Static dielectric constant tensor:
#      x y z
#    x 2.088180 -0.223690 0.007710 
#    y -0.223690 2.348410 -0.091280 
#    z 0.007710 -0.091280 2.137470 
# 
# From -- ./inp_files/4051.got.cif
#   From: 2010.05.17/outbox.cif.g08.bks.cpg/sg2_3_cif.got.tgz:4051.got - 2010.06.03 11:33:40.
