data_PCOD9029908
_publ_section_title
;
Structure prediction by ZEFSAII (Michael W. Deem and Ramdas Pophale) SiO2 
 PCOD9029908
Probable space group: P -1
;
_chemical_formula_sum "Si O2"
_cell_formula_units_Z 13
_cell_length_a 5.320643
_cell_length_b 9.861530
_cell_length_c 13.173384
_cell_angle_alpha 111.778981
_cell_angle_beta 89.523515
_cell_angle_gamma 56.148686
_cell_volume 511.928766
_symmetry_space_group_name_H-M "P -1"
_symmetry_group_IT_number 2
_symmetry_cell_setting 'triclinic'
loop_
_space_group_symop_operation_xyz
x,y,z
-x,-y,-z
loop_
_atom_site_type_symbol
_atom_site_label
_atom_site_fract_x
_atom_site_fract_y
_atom_site_fract_z
Si Si1 0.091566 0.712558 0.755155
Si Si2 0.438610 0.076066 0.635849
Si Si3 0.103559 0.919909 0.591889
Si Si4 0.353648 0.927742 0.869216
Si Si5 0.238922 0.430903 0.828637
Si Si6 0.375515 0.249589 0.976285
Si Si7 0.500000 0.500000 0.500000
O O1 0.178808 0.852811 0.798310
O O2 0.280385 0.567085 0.807034
O O3 0.238687 0.593796 0.620081
O O4 0.723534 0.803992 0.798348
O O5 0.270759 0.289145 0.708156
O O6 0.500000 0.000000 0.500000
O O7 0.230469 0.022505 0.669722
O O8 0.782574 0.970061 0.653025
O O9 0.373337 0.706395 0.524704
O O10 0.000000 0.000000 0.500000
O O11 0.366531 0.881047 0.976619
O O12 0.240003 0.135189 0.917372
O O13 0.891423 0.563253 0.914170
O O14 0.454596 0.308783 0.889707
#
# Coordination Sequence:
#
# PCOD9029908 Si02
#       7
#     2   2   2   2   2   2   1
#     4  11  26  44  70 104 145 183 240 293 361 432
#     4  10  22  42  68  98 140 182 229 290 355 423
#     4  10  24  43  65  97 138 183 235 288 344 427
#     4  10  24  47  68 102 141 185 234 302 356 426
#     4  10  22  43  71 105 139 185 238 298 353 432
#     4   9  22  43  73 102 140 185 242 292 360 423
#     4  12  28  46  74 110 146 200 240 298 366 444
#
# _framework density 25.394158000000001
#
# number of rings (size 3 to 8) (size 9 to 14) (size 15 to 20)
#    0.000    1.846    0.000    1.846    4.308   16.000 
#    0.000    6.154    0.000    0.000    0.000    0.000 
#    0.000    0.000    0.000    0.000    0.000    0.000 
#
# Total GULP energy -72451.674403 kJ/mol
# GULP energy per Si atom -5573.205723 kJ/mol
# Density = 2.533636 g / cm^3
# Si number density = 25.394158 Si / 1000 Ang^3
#
#
#
# Elastic Constant Matrix: (Units=GPa)
#
#
# Indices 1 2 3 4 5 6 
#
# 1 153.7695 21.4461 38.3040 12.1523 18.7349 6.7345
# 2 21.4461 115.8396 30.4956 3.5611 2.3866 23.1184
# 3 38.3040 30.4956 149.3069 27.2779 -16.5666 -6.5703
# 4 12.1523 3.5611 27.2779 63.8676 10.6376 -9.1317
# 5 18.7349 2.3866 -16.5666 10.6376 34.6078 0.7050
# 6 6.7345 23.1184 -6.5703 -9.1317 0.7050 28.4508
#
#
#
# Elastic Compliance Matrix: (Units=1/GPa)
#
#
# Indices 1 2 3 4 5 6 
#
# 1 0.007991 -0.000215 -0.002793 0.000333 -0.005707 -0.002114
# 2 -0.000215 0.011471 -0.002810 -0.000564 -0.001642 -0.010059
# 3 -0.002793 -0.002810 0.009765 -0.004227 0.007605 0.003654
# 4 0.000333 -0.000564 -0.004227 0.019665 -0.008330 0.005921
# 5 -0.005707 -0.001642 0.007605 -0.008330 0.038282 0.000819
# 6 -0.002114 -0.010059 0.003654 0.005921 0.000819 0.046546
#
#
# Mechanical properties :
#
#
# Convention : Reuss Voigt Hill
#
# Bulk Modulus (GPa) = 56.84739 66.60080 61.72409
# Shear Modulus (GPa) = 33.06482 47.29659 40.18070
#
# Velocity S-wave (km/s) = 3.61233 4.32035 3.98211
# Velocity P-wave (km/s) = 6.31135 7.15339 6.74552
#
# Compressibility (1/GPa) = 0.01759096
#
# Stress axis : x y z
#
# Youngs Moduli (GPa) = 125.14706 87.17889 102.40805
#
# Poissons Ratio (x) = 0.01873 0.28604
# Poissons Ratio (y) = 0.02689 0.28772
# Poissons Ratio (z) = 0.34956 0.24493
#
# Static dielectric constant tensor:
#      x y z
#    x 2.055940 0.081060 -0.152360 
#    y 0.081060 3.500070 -2.332710 
#    z -0.152360 -2.332710 5.527290 
# 
# From -- ./inp_files/480069.got.cif
#   From: 2010.05.17/outbox.cif.g08.bks.cpg/sg2_241_cif.got.tgz:480069.got - 2010.06.03 11:33:40.
