data_PCOD9029642
_publ_section_title
;
Structure prediction by ZEFSAII (Michael W. Deem and Ramdas Pophale) SiO2 
 PCOD9029642
Probable space group: P -1
;
_chemical_formula_sum "Si O2"
_cell_formula_units_Z 14
_cell_length_a 8.658757
_cell_length_b 5.261412
_cell_length_c 21.104310
_cell_angle_alpha 93.626992
_cell_angle_beta 141.784508
_cell_angle_gamma 84.386825
_cell_volume 591.779998
_symmetry_space_group_name_H-M "P -1"
_symmetry_group_IT_number 2
_symmetry_cell_setting 'triclinic'
loop_
_space_group_symop_operation_xyz
x,y,z
-x,-y,-z
loop_
_atom_site_type_symbol
_atom_site_label
_atom_site_fract_x
_atom_site_fract_y
_atom_site_fract_z
Si Si1 0.087684 0.390365 0.095790
Si Si2 0.981379 0.261869 0.535602
Si Si3 0.643114 0.099044 0.947907
Si Si4 0.562732 0.568197 0.592404
Si Si5 0.221500 0.950002 0.276593
Si Si6 0.507095 0.231969 0.764916
Si Si7 0.740650 0.723435 0.078972
O O1 0.362780 0.496174 0.191083
O O2 0.944294 0.514821 0.112997
O O3 0.000000 0.500000 0.000000
O O4 0.940715 0.133501 0.044261
O O5 0.211647 0.263591 0.658353
O O6 0.000000 0.500000 0.500000
O O7 0.702750 0.299945 0.470559
O O8 0.000000 0.000000 0.500000
O O9 0.558474 0.106095 0.848281
O O10 0.469676 0.310096 0.936102
O O11 0.615516 0.851021 0.977498
O O12 0.500000 0.500000 0.500000
O O13 0.653944 0.303129 0.652048
O O14 0.744577 0.789402 0.670651
O O15 0.363333 0.938079 0.253476
O O16 0.928139 0.917127 0.173144
#
# Coordination Sequence:
#
# PCOD9029642 Si02
#       7
#     2   2   2   2   2   2   2
#     4   9  20  39  63  92 129 173 223 277 340 410
#     4  12  24  47  72 103 140 183 236 296 349 419
#     4  10  22  43  65  97 139 180 231 289 353 421
#     4  12  26  48  73 104 145 185 239 296 364 420
#     4  11  25  45  72 104 140 190 234 296 354 427
#     4  10  22  42  68 101 132 185 237 285 354 418
#     4  10  23  40  65  99 139 179 231 287 354 422
#
# _framework density 23.657440999999999
#
# number of rings (size 3 to 8) (size 9 to 14) (size 15 to 20)
#    0.000    1.429    2.857    0.857    6.000    5.143 
#    7.714    0.000    0.000    0.000    0.000    0.000 
#    0.000    0.000    0.000    0.000    0.000    0.000 
#
# Total GULP energy -78160.864253 kJ/mol
# GULP energy per Si atom -5582.918875 kJ/mol
# Density = 2.360360 g / cm^3
# Si number density = 23.657441 Si / 1000 Ang^3
#
#
#
# Elastic Constant Matrix: (Units=GPa)
#
#
# Indices 1 2 3 4 5 6 
#
# 1 88.8996 37.5729 27.6544 -1.1859 -16.2864 2.4362
# 2 37.5729 119.7577 50.5885 13.4306 -19.9600 0.5045
# 3 27.6544 50.5885 161.1566 -5.7631 -10.2182 21.9959
# 4 -1.1859 13.4306 -5.7631 39.1598 4.1898 3.2716
# 5 -16.2864 -19.9600 -10.2182 4.1898 53.4233 6.4128
# 6 2.4362 0.5045 21.9959 3.2716 6.4128 30.3082
#
#
#
# Elastic Compliance Matrix: (Units=1/GPa)
#
#
# Indices 1 2 3 4 5 6 
#
# 1 0.013567 -0.003611 -0.000822 0.001339 0.002662 -0.001141
# 2 -0.003611 0.012020 -0.003521 -0.005270 0.002815 0.002618
# 3 -0.000822 -0.003521 0.008476 0.002906 0.000604 -0.006468
# 4 0.001339 -0.005270 0.002906 0.028486 -0.002682 -0.004636
# 5 0.002662 0.002815 0.000604 -0.002682 0.021503 -0.004959
# 6 -0.001141 0.002618 -0.006468 -0.004636 -0.004959 0.039287
#
#
# Mechanical properties :
#
#
# Convention : Reuss Voigt Hill
#
# Bulk Modulus (GPa) = 55.07966 66.82727 60.95347
# Shear Modulus (GPa) = 34.41177 41.51147 37.96162
#
# Velocity S-wave (km/s) = 3.81804 4.19345 4.01014
# Velocity P-wave (km/s) = 6.53982 7.19415 6.87478
#
# Compressibility (1/GPa) = 0.01815552
#
# Stress axis : x y z
#
# Youngs Moduli (GPa) = 73.70635 83.19745 117.97345
#
# Poissons Ratio (x) = 0.30043 0.09699
# Poissons Ratio (y) = 0.26616 0.41535
# Poissons Ratio (z) = 0.06060 0.29292
#
# Static dielectric constant tensor:
#      x y z
#    x 1.864370 -0.044140 -0.096150 
#    y -0.044140 2.094590 -0.097920 
#    z -0.096150 -0.097920 1.249880 
# 
# From -- ./inp_files/44985.got.cif
#   From: 2010.05.17/outbox.cif.g08.bks.cpg/sg2_23_cif.got.tgz:44985.got - 2010.06.03 11:33:40.
