data_PCOD9029973
_publ_section_title
;
Structure prediction by ZEFSAII (Michael W. Deem and Ramdas Pophale) SiO2 
 PCOD9029973
Probable space group: P -1
;
_chemical_formula_sum "Si O2"
_cell_formula_units_Z 13
_cell_length_a 8.866898
_cell_length_b 9.824750
_cell_length_c 7.570565
_cell_angle_alpha 99.293033
_cell_angle_beta 113.815329
_cell_angle_gamma 111.905192
_cell_volume 520.570919
_symmetry_space_group_name_H-M "P -1"
_symmetry_group_IT_number 2
_symmetry_cell_setting 'triclinic'
loop_
_space_group_symop_operation_xyz
x,y,z
-x,-y,-z
loop_
_atom_site_type_symbol
_atom_site_label
_atom_site_fract_x
_atom_site_fract_y
_atom_site_fract_z
Si Si1 0.435722 0.103377 0.878384
Si Si2 0.610118 0.441011 0.163482
Si Si3 0.756839 0.122585 0.532925
Si Si4 0.013718 0.991525 0.794785
Si Si5 0.500000 0.500000 0.500000
Si Si6 0.834200 0.444370 0.765945
Si Si7 0.961148 0.677412 0.560520
O O1 0.413114 0.039292 0.653809
O O2 0.229315 0.072936 0.843351
O O3 0.582291 0.283931 0.023797
O O4 0.500000 0.000000 0.000000
O O5 0.541677 0.414306 0.330414
O O6 0.817448 0.587807 0.316723
O O7 0.500000 0.500000 0.000000
O O8 0.750824 0.257229 0.671001
O O9 0.838575 0.217924 0.408302
O O10 0.904808 0.074239 0.673008
O O11 0.912214 0.805667 0.653327
O O12 0.000000 0.000000 0.000000
O O13 0.656637 0.477071 0.692549
O O14 0.941801 0.550854 0.667236
O O15 0.000000 0.500000 0.000000
#
# Coordination Sequence:
#
# PCOD9029973 Si02
#       7
#     2   2   2   2   1   2   2
#     4  11  24  44  68  98 136 181 226 289 355 422
#     4  11  23  42  72  99 137 187 230 291 362 410
#     4  11  23  46  69 102 134 182 239 283 351 442
#     4  11  24  43  69  98 141 182 230 289 359 425
#     4  10  26  44  62 106 146 172 238 300 342 428
#     4  11  24  42  72 102 141 183 236 292 363 417
#     4  10  22  42  69 102 134 182 239 287 345 444
#
# _framework density 24.972581000000002
#
# number of rings (size 3 to 8) (size 9 to 14) (size 15 to 20)
#    0.000    1.231    0.000    6.923    8.615    1.231 
#    2.769    0.769    0.000    0.000    0.000    0.000 
#    0.000    0.000    0.000    0.000    0.000    0.000 
#
# Total GULP energy -72465.341401 kJ/mol
# GULP energy per Si atom -5574.257031 kJ/mol
# Density = 2.491574 g / cm^3
# Si number density = 24.972581 Si / 1000 Ang^3
#
#
#
# Elastic Constant Matrix: (Units=GPa)
#
#
# Indices 1 2 3 4 5 6 
#
# 1 63.4299 53.8617 45.5506 6.6888 12.4445 -13.4907
# 2 53.8617 161.6840 80.7850 15.6054 15.4885 -21.8721
# 3 45.5506 80.7850 191.7722 8.1760 21.2170 -6.4823
# 4 6.6888 15.6054 8.1760 65.8322 -16.1547 0.4213
# 5 12.4445 15.4885 21.2170 -16.1547 39.6290 -12.8553
# 6 -13.4907 -21.8721 -6.4823 0.4213 -12.8553 45.1780
#
#
#
# Elastic Compliance Matrix: (Units=1/GPa)
#
#
# Indices 1 2 3 4 5 6 
#
# 1 0.024142 -0.005765 -0.002741 -0.001635 -0.003543 0.003032
# 2 -0.005765 0.009966 -0.002620 -0.001587 -0.000484 0.002605
# 3 -0.002741 -0.002620 0.007256 -0.000698 -0.002888 -0.001861
# 4 -0.001635 -0.001587 -0.000698 0.018078 0.009235 0.001103
# 5 -0.003543 -0.000484 -0.002888 0.009235 0.034444 0.008008
# 6 0.003032 0.002605 -0.001861 0.001103 0.008008 0.026302
#
#
# Mechanical properties :
#
#
# Convention : Reuss Voigt Hill
#
# Bulk Modulus (GPa) = 52.32593 86.36451 69.34522
# Shear Modulus (GPa) = 33.59933 45.90710 39.75321
#
# Velocity S-wave (km/s) = 3.67202 4.29219 3.99416
# Velocity P-wave (km/s) = 6.24316 7.69563 7.00713
#
# Compressibility (1/GPa) = 0.01911099
#
# Stress axis : x y z
#
# Youngs Moduli (GPa) = 41.42134 100.33799 137.82333
#
# Poissons Ratio (x) = 0.57849 0.37784
# Poissons Ratio (y) = 0.23881 0.36105
# Poissons Ratio (z) = 0.11356 0.26285
#
# Static dielectric constant tensor:
#      x y z
#    x 2.027470 -0.002720 -0.208040 
#    y -0.002720 2.000810 0.010410 
#    z -0.208040 0.010410 1.692670 
# 
# From -- ./inp_files/235441.got.cif
#   From: 2010.05.17/outbox.cif.g08.bks.cpg/sg2_118_cif.got.tgz:235441.got - 2010.06.03 11:33:40.
