data_PCOD9029410
_publ_section_title
;
Structure prediction by ZEFSAII (Michael W. Deem and Ramdas Pophale) SiO2 
 PCOD9029410
Probable space group: P -1
;
_chemical_formula_sum "Si O2"
_cell_formula_units_Z 14
_cell_length_a 4.915240
_cell_length_b 25.506126
_cell_length_c 7.848574
_cell_angle_alpha 34.423809
_cell_angle_beta 93.019119
_cell_angle_gamma 86.984716
_cell_volume 547.374643
_symmetry_space_group_name_H-M "P -1"
_symmetry_group_IT_number 2
_symmetry_cell_setting 'triclinic'
loop_
_space_group_symop_operation_xyz
x,y,z
-x,-y,-z
loop_
_atom_site_type_symbol
_atom_site_label
_atom_site_fract_x
_atom_site_fract_y
_atom_site_fract_z
Si Si1 0.105135 0.183646 0.379012
Si Si2 0.751591 0.652415 0.248851
Si Si3 0.476565 0.692141 0.493673
Si Si4 0.243371 0.620125 0.136403
Si Si5 0.987380 0.411317 0.120314
Si Si6 0.068809 0.992558 0.320739
Si Si7 0.490382 0.893451 0.093545
O O1 0.254536 0.238093 0.096012
O O2 0.882915 0.270667 0.213723
O O3 0.946426 0.109912 0.478641
O O4 0.330759 0.138663 0.645575
O O5 0.614146 0.654980 0.420257
O O6 0.064693 0.607652 0.332386
O O7 0.556031 0.611682 0.219163
O O8 0.703232 0.639414 0.774376
O O9 0.477227 0.801683 0.225214
O O10 0.183798 0.660356 0.598092
O O11 0.176677 0.561209 0.131901
O O12 0.000000 0.500000 0.000000
O O13 0.351321 0.030747 0.194301
O O14 0.000000 0.000000 0.500000
O O15 0.827490 0.058791 0.027438
#
# Coordination Sequence:
#
# PCOD9029410 Si02
#       7
#     2   2   2   2   2   2   2
#     4  10  24  41  67  90 139 172 231 259 331 379
#     4  10  23  39  70  94 134 176 217 265 331 390
#     4  12  24  45  69 102 131 174 220 271 339 393
#     4  10  22  42  67  93 131 175 214 262 337 389
#     4  12  25  46  72 100 131 169 221 275 328 405
#     4  12  27  40  61  99 135 173 225 281 315 371
#     4  12  25  41  67  92 133 177 225 266 327 388
#
# _framework density 25.576632
#
# number of rings (size 3 to 8) (size 9 to 14) (size 15 to 20)
#    0.857    0.000    1.429    6.000    6.000    0.000 
#    0.000    4.286    0.000    0.000    0.000    0.000 
#    0.000    0.000    0.000    0.000    0.000    0.000 
#
# Total GULP energy -78463.274645 kJ/mol
# GULP energy per Si atom -5604.519618 kJ/mol
# Density = 2.551842 g / cm^3
# Si number density = 25.576632 Si / 1000 Ang^3
#
#
#
# Elastic Constant Matrix: (Units=GPa)
#
#
# Indices 1 2 3 4 5 6 
#
# 1 111.5911 17.0169 9.0709 -11.5870 -8.8335 16.4585
# 2 17.0169 150.0627 35.7580 -16.4531 -23.0539 16.5618
# 3 9.0709 35.7580 74.8365 -7.8690 -7.6485 12.0237
# 4 -11.5870 -16.4531 -7.8690 50.5273 2.3526 -12.3317
# 5 -8.8335 -23.0539 -7.6485 2.3526 43.6092 -3.8984
# 6 16.4585 16.5618 12.0237 -12.3317 -3.8984 37.7683
#
#
#
# Elastic Compliance Matrix: (Units=1/GPa)
#
#
# Indices 1 2 3 4 5 6 
#
# 1 0.009780 -0.000330 -0.000195 0.001180 0.001394 -0.003526
# 2 -0.000330 0.008356 -0.003160 0.001590 0.003565 -0.001627
# 3 -0.000195 -0.003160 0.015542 0.000525 0.000699 -0.003234
# 4 0.001180 0.001590 0.000525 0.022073 0.000507 0.005881
# 5 0.001394 0.003565 0.000699 0.000507 0.025227 0.000376
# 6 -0.003526 -0.001627 -0.003234 0.005881 0.000376 0.031716
#
#
# Mechanical properties :
#
#
# Convention : Reuss Voigt Hill
#
# Bulk Modulus (GPa) = 38.00921 51.13132 44.57027
# Shear Modulus (GPa) = 38.81012 44.69060 41.75036
#
# Velocity S-wave (km/s) = 3.89962 4.18463 4.04463
# Velocity P-wave (km/s) = 5.93036 6.58658 6.26706
#
# Compressibility (1/GPa) = 0.02630941
#
# Stress axis : x y z
#
# Youngs Moduli (GPa) = 102.24594 119.67735 64.34196
#
# Poissons Ratio (x) = 0.03950 0.01253
# Poissons Ratio (y) = 0.03375 0.20329
# Poissons Ratio (z) = 0.01991 0.37812
#
# Static dielectric constant tensor:
#      x y z
#    x 1.934150 0.018220 0.037120 
#    y 0.018220 1.995460 0.036100 
#    z 0.037120 0.036100 2.111360 
# 
# From -- ./inp_files/142913.got.cif
#   From: 2010.05.17/outbox.cif.g08.bks.cpg/sg2_72_cif.got.tgz:142913.got - 2010.06.03 11:33:40.
