data_PCOD9029859
_publ_section_title
;
Structure prediction by ZEFSAII (Michael W. Deem and Ramdas Pophale) SiO2 
 PCOD9029859
Probable space group: P -1
;
_chemical_formula_sum "Si O2"
_cell_formula_units_Z 12
_cell_length_a 12.206709
_cell_length_b 8.603630
_cell_length_c 10.816904
_cell_angle_alpha 52.610151
_cell_angle_beta 49.430779
_cell_angle_gamma 34.794992
_cell_volume 485.365830
_symmetry_space_group_name_H-M "P -1"
_symmetry_group_IT_number 2
_symmetry_cell_setting 'triclinic'
loop_
_space_group_symop_operation_xyz
x,y,z
-x,-y,-z
loop_
_atom_site_type_symbol
_atom_site_label
_atom_site_fract_x
_atom_site_fract_y
_atom_site_fract_z
Si Si1 0.775128 0.671352 0.963597
Si Si2 0.639355 0.418054 0.321856
Si Si3 0.212233 0.065161 0.962981
Si Si4 0.965443 0.164228 0.751653
Si Si5 0.357847 0.948955 0.612998
Si Si6 0.649801 0.775880 0.719873
O O1 0.662689 0.615824 0.159392
O O2 0.745460 0.907697 0.938759
O O3 0.701166 0.727824 0.850267
O O4 0.013093 0.385506 0.927176
O O5 0.500000 0.500000 0.500000
O O6 0.553185 0.354605 0.309040
O O7 0.875911 0.118361 0.308880
O O8 0.416107 0.925507 0.806082
O O9 0.165876 0.881797 0.068534
O O10 0.804331 0.481578 0.677488
O O11 0.125629 0.130849 0.736273
O O12 0.316049 0.045495 0.449629
O O13 0.500000 0.000000 0.500000
#
# Coordination Sequence:
#
# PCOD9029859 Si02
#       6
#     2   2   2   2   2   2
#     4  10  23  42  69  99 130 170 224 266 323 393
#     4   9  20  42  66  91 132 172 214 266 322 390
#     4  10  22  42  68  97 132 171 213 270 335 377
#     4   9  23  42  63  98 133 169 223 265 326 394
#     4  10  24  43  65  95 135 176 216 265 333 386
#     4  12  23  41  70  98 133 170 220 275 320 389
#
# _framework density 24.723617999999998
#
# number of rings (size 3 to 8) (size 9 to 14) (size 15 to 20)
#    1.000    1.000    0.000    2.500    2.333    5.333 
#    0.000    0.833    0.000    0.000    0.000    0.000 
#    0.000    0.000    0.000    0.000    0.000    0.000 
#
# Total GULP energy -66809.161502 kJ/mol
# GULP energy per Si atom -5567.430125 kJ/mol
# Density = 2.466735 g / cm^3
# Si number density = 24.723618 Si / 1000 Ang^3
#
#
#
# Elastic Constant Matrix: (Units=GPa)
#
#
# Indices 1 2 3 4 5 6 
#
# 1 61.6091 -1.8246 -0.7638 -10.0098 -61.9748 17.4056
# 2 -1.8246 87.5173 -11.1776 6.0193 -20.1965 2.0961
# 3 -0.7638 -11.1776 98.8987 -1.5189 -35.8024 24.1283
# 4 -10.0098 6.0193 -1.5189 33.5115 8.6446 1.1310
# 5 -61.9748 -20.1965 -35.8024 8.6446 27.9866 6.1045
# 6 17.4056 2.0961 24.1283 1.1310 6.1045 30.2970
#
#
#
# Elastic Compliance Matrix: (Units=1/GPa)
#
#
# Indices 1 2 3 4 5 6 
#
# 1 0.000944 -0.004447 -0.007234 0.003923 -0.013344 0.008069
# 2 -0.004447 0.010529 -0.000919 -0.002502 -0.003379 0.003333
# 3 -0.007234 -0.000919 0.007337 0.000234 -0.007336 -0.000154
# 4 0.003923 -0.002502 0.000234 0.032110 -0.002072 -0.003048
# 5 -0.013344 -0.003379 -0.007336 -0.002072 -0.008385 0.015509
# 6 0.008069 0.003333 -0.000154 -0.003048 0.015509 0.025252
#
#
# Mechanical properties :
#
#
# Convention : Reuss Voigt Hill
#
# Bulk Modulus (GPa) = -156.47987 24.49922 -65.99033
# Shear Modulus (GPa) = 55.03163 35.81174 45.42168
#
# Velocity S-wave (km/s) = 4.72303 3.81002 4.29088
# Velocity P-wave (km/s) = 5.80399 5.41163 1.48333
#
# Compressibility (1/GPa) = -0.00639060
#
# Stress axis : x y z
#
# Youngs Moduli (GPa) = 1058.94685 94.97896 136.29533
#
# Poissons Ratio (x) = 0.42235 0.98601
# Poissons Ratio (y) = 4.70892 0.12528
# Poissons Ratio (z) = 7.66078 0.08730
#
# Static dielectric constant tensor:
#      x y z
#    x 2.630970 -0.040910 0.301780 
#    y -0.040910 1.982580 0.027100 
#    z 0.301780 0.027100 1.995760 
# 
# From -- ./inp_files/419070.got.cif
#   From: 2010.05.17/outbox.cif.g08.bks.cpg/sg2_210_cif.got.tgz:419070.got - 2010.06.03 11:33:40.
