data_PCOD9029303
_publ_section_title
;
Structure prediction by ZEFSAII (Michael W. Deem and Ramdas Pophale) SiO2 
 PCOD9029303
Probable space group: P -1
;
_chemical_formula_sum "Si O2"
_cell_formula_units_Z 14
_cell_length_a 13.974701
_cell_length_b 14.517352
_cell_length_c 8.966019
_cell_angle_alpha 131.880401
_cell_angle_beta 69.323476
_cell_angle_gamma 149.141987
_cell_volume 567.809209
_symmetry_space_group_name_H-M "P -1"
_symmetry_group_IT_number 2
_symmetry_cell_setting 'triclinic'
loop_
_space_group_symop_operation_xyz
x,y,z
-x,-y,-z
loop_
_atom_site_type_symbol
_atom_site_label
_atom_site_fract_x
_atom_site_fract_y
_atom_site_fract_z
Si Si1 0.931586 0.145055 0.826491
Si Si2 0.616258 0.448770 0.841374
Si Si3 0.065011 0.443899 0.487905
Si Si4 0.654806 0.908759 0.986544
Si Si5 0.843720 0.200105 0.656552
Si Si6 0.532887 0.029335 0.835318
Si Si7 0.420632 0.421983 0.707693
O O1 0.967531 0.246623 0.757797
O O2 0.801065 0.876877 0.569823
O O3 0.155261 0.378006 0.055519
O O4 0.747197 0.024075 0.892433
O O5 0.590576 0.496066 0.750351
O O6 0.381154 0.116433 0.621863
O O7 0.628749 0.561211 0.092118
O O8 0.013300 0.410157 0.654189
O O9 0.000000 0.500000 0.500000
O O10 0.322542 0.705354 0.574982
O O11 0.882604 0.145390 0.216670
O O12 0.523603 0.889725 0.090689
O O13 0.521261 0.637224 0.780482
O O14 0.738943 0.200972 0.808569
O O15 0.500000 0.000000 0.000000
#
# Coordination Sequence:
#
# PCOD9029303 Si02
#       7
#     2   2   2   2   2   2   2
#     4  11  23  41  72 104 133 184 233 280 350 414
#     4  10  22  43  70 101 136 177 232 286 346 418
#     4  10  24  44  68  99 138 184 234 279 346 416
#     4  11  22  44  64  99 140 178 231 286 340 417
#     4  11  23  47  74 100 143 187 225 289 354 407
#     4  11  24  45  67 104 142 176 235 290 339 418
#     4  10  22  42  67 100 140 176 229 289 346 411
#
# _framework density 24.656169999999999
#
# number of rings (size 3 to 8) (size 9 to 14) (size 15 to 20)
#    0.000    1.429    2.857    1.714    0.000    4.571 
#    7.714    0.000    0.000    0.000    0.000    0.000 
#    0.000    0.000    0.000    0.000    0.000    0.000 
#
# Total GULP energy -78222.405339 kJ/mol
# GULP energy per Si atom -5587.314667 kJ/mol
# Density = 2.460005 g / cm^3
# Si number density = 24.656170 Si / 1000 Ang^3
#
#
#
# Elastic Constant Matrix: (Units=GPa)
#
#
# Indices 1 2 3 4 5 6 
#
# 1 92.9261 47.0180 17.9188 15.8941 7.3220 -9.2595
# 2 47.0180 140.9703 22.3990 3.3518 1.6624 -11.9708
# 3 17.9188 22.3990 144.3891 18.2767 0.8602 -3.4755
# 4 15.8941 3.3518 18.2767 46.0728 -3.1296 -0.2634
# 5 7.3220 1.6624 0.8602 -3.1296 37.4151 -1.4003
# 6 -9.2595 -11.9708 -3.4755 -0.2634 -1.4003 43.2838
#
#
#
# Elastic Compliance Matrix: (Units=1/GPa)
#
#
# Indices 1 2 3 4 5 6 
#
# 1 0.014257 -0.004398 -0.000446 -0.004609 -0.002907 0.001676
# 2 -0.004398 0.008796 -0.000953 0.001308 0.000655 0.001444
# 3 -0.000446 -0.000953 0.007486 -0.002763 -0.000265 0.000217
# 4 -0.004609 0.001308 -0.002763 0.024492 0.002934 -0.000602
# 5 -0.002907 0.000655 -0.000265 0.002934 0.027535 0.000447
# 6 0.001676 0.001444 0.000217 -0.000602 0.000447 0.023889
#
#
# Mechanical properties :
#
#
# Convention : Reuss Voigt Hill
#
# Bulk Modulus (GPa) = 52.78871 61.43968 57.11419
# Shear Modulus (GPa) = 40.20452 44.75099 42.47776
#
# Velocity S-wave (km/s) = 4.04246 4.26491 4.15517
# Velocity P-wave (km/s) = 6.57610 7.01607 6.79964
#
# Compressibility (1/GPa) = 0.01894345
#
# Stress axis : x y z
#
# Youngs Moduli (GPa) = 70.14107 113.68916 133.59136
#
# Poissons Ratio (x) = 0.50002 0.05957
# Poissons Ratio (y) = 0.30849 0.12737
# Poissons Ratio (z) = 0.03128 0.10840
#
# Static dielectric constant tensor:
#      x y z
#    x 2.019280 0.039920 0.007270 
#    y 0.039920 1.969000 -0.003000 
#    z 0.007270 -0.003000 2.053140 
# 
# From -- ./inp_files/315857.got.cif
#   From: 2010.05.17/outbox.cif.g08.bks.cpg/sg2_158_cif.got.tgz:315857.got - 2010.06.03 11:33:40.
