data_PCOD9029013
_publ_section_title
;
Structure prediction by ZEFSAII (Michael W. Deem and Ramdas Pophale) SiO2 
 PCOD9029013
Probable space group: P -1
;
_chemical_formula_sum "Si O2"
_cell_formula_units_Z 15
_cell_length_a 9.529067
_cell_length_b 9.243868
_cell_length_c 9.188571
_cell_angle_alpha 96.648447
_cell_angle_beta 50.580253
_cell_angle_gamma 81.500995
_cell_volume 594.660500
_symmetry_space_group_name_H-M "P -1"
_symmetry_group_IT_number 2
_symmetry_cell_setting 'triclinic'
loop_
_space_group_symop_operation_xyz
x,y,z
-x,-y,-z
loop_
_atom_site_type_symbol
_atom_site_label
_atom_site_fract_x
_atom_site_fract_y
_atom_site_fract_z
Si Si1 0.475097 0.532600 0.346232
Si Si2 0.263541 0.064931 0.182031
Si Si3 0.000000 0.000000 0.500000
Si Si4 0.144433 0.475983 0.036179
Si Si5 0.798530 0.968191 0.117132
Si Si6 0.541335 0.784055 0.712429
Si Si7 0.901714 0.789971 0.304466
Si Si8 0.036624 0.636965 0.588909
O O1 0.500000 0.500000 0.500000
O O2 0.506152 0.367483 0.234229
O O3 0.255929 0.618360 0.470485
O O4 0.642388 0.587530 0.170694
O O5 0.422124 0.130137 0.155278
O O6 0.057230 0.189021 0.386952
O O7 0.228677 0.931862 0.284877
O O8 0.239819 0.064290 0.027741
O O9 0.931918 0.937259 0.378787
O O10 0.090101 0.648566 0.156469
O O11 0.076015 0.378885 0.192117
O O12 0.000000 0.500000 0.000000
O O13 0.815869 0.838504 0.207528
O O14 0.619367 0.115250 0.275741
O O15 0.000000 0.000000 0.000000
O O16 0.740345 0.739633 0.491918
O O17 0.000000 0.500000 0.500000
#
# Coordination Sequence:
#
# PCOD9029013 Si02
#       8
#     2   2   1   2   2   2   2   2
#     4  12  25  43  75 105 140 192 236 297 361 421
#     4  11  24  45  69  97 146 185 232 300 345 429
#     4  10  22  42  66 100 134 190 222 282 362 402
#     4  12  24  46  74 105 145 186 240 296 361 426
#     4  12  24  40  68 104 132 180 243 286 347 420
#     4  11  24  46  66  99 144 185 233 291 362 420
#     4  11  22  44  69 103 144 184 234 291 353 427
#     4  12  24  48  70 107 145 184 242 293 356 427
#
# _framework density 25.224478999999999
#
# number of rings (size 3 to 8) (size 9 to 14) (size 15 to 20)
#    0.000    0.533    5.333    3.200    1.867    0.533 
#    0.000    2.667    0.000    0.000    0.000    0.000 
#    0.000    0.000    0.000    0.000    0.000    0.000 
#
# Total GULP energy -83698.945845 kJ/mol
# GULP energy per Si atom -5579.929723 kJ/mol
# Density = 2.516707 g / cm^3
# Si number density = 25.224479 Si / 1000 Ang^3
#
#
#
# Elastic Constant Matrix: (Units=GPa)
#
#
# Indices 1 2 3 4 5 6 
#
# 1 153.0836 25.6243 56.3484 -0.7001 -16.3460 3.2088
# 2 25.6243 54.1236 7.9874 -0.2135 -6.2381 1.8872
# 3 56.3484 7.9874 140.6424 -25.9816 -8.2909 0.3693
# 4 -0.7001 -0.2135 -25.9816 35.3196 -3.7284 -2.9026
# 5 -16.3460 -6.2381 -8.2909 -3.7284 59.9363 8.5894
# 6 3.2088 1.8872 0.3693 -2.9026 8.5894 50.4043
#
#
#
# Elastic Compliance Matrix: (Units=1/GPa)
#
#
# Indices 1 2 3 4 5 6 
#
# 1 0.008580 -0.003345 -0.003606 -0.002413 0.001455 -0.000781
# 2 -0.003345 0.020194 0.000349 0.000395 0.001371 -0.000757
# 3 -0.003606 0.000349 0.009944 0.007368 0.000826 0.000427
# 4 -0.002413 0.000395 0.007368 0.034064 0.002284 0.001657
# 5 0.001455 0.001371 0.000826 0.002284 0.017920 -0.003072
# 6 -0.000781 -0.000757 0.000427 0.001657 -0.003072 0.020534
#
#
# Mechanical properties :
#
#
# Convention : Reuss Voigt Hill
#
# Bulk Modulus (GPa) = 39.19231 58.64107 48.91669
# Shear Modulus (GPa) = 37.60980 46.32468 41.96724
#
# Velocity S-wave (km/s) = 3.86554 4.29009 4.08333
# Velocity P-wave (km/s) = 5.95771 6.91650 6.45493
#
# Compressibility (1/GPa) = 0.02551521
#
# Stress axis : x y z
#
# Youngs Moduli (GPa) = 116.54821 49.51922 100.56706
#
# Poissons Ratio (x) = 0.16562 0.36261
# Poissons Ratio (y) = 0.38981 -0.03509
# Poissons Ratio (z) = 0.42023 -0.01728
#
# Static dielectric constant tensor:
#      x y z
#    x 2.011820 0.032490 0.023060 
#    y 0.032490 2.037000 0.260490 
#    z 0.023060 0.260490 1.999790 
# 
# From -- ./inp_files/188171.got.cif
#   From: 2010.05.17/outbox.cif.g08.bks.cpg/sg2_95_cif.got.tgz:188171.got - 2010.06.03 11:33:40.
