data_PCOD9029774
_publ_section_title
;
Structure prediction by ZEFSAII (Michael W. Deem and Ramdas Pophale) SiO2 
 PCOD9029774
Probable space group: P -1
;
_chemical_formula_sum "Si O2"
_cell_formula_units_Z 14
_cell_length_a 8.476565
_cell_length_b 23.507144
_cell_length_c 14.430317
_cell_angle_alpha 159.725424
_cell_angle_beta 38.106688
_cell_angle_gamma 137.936549
_cell_volume 614.767371
_symmetry_space_group_name_H-M "P -1"
_symmetry_group_IT_number 2
_symmetry_cell_setting 'triclinic'
loop_
_space_group_symop_operation_xyz
x,y,z
-x,-y,-z
loop_
_atom_site_type_symbol
_atom_site_label
_atom_site_fract_x
_atom_site_fract_y
_atom_site_fract_z
Si Si1 0.651519 0.957350 0.267476
Si Si2 0.452003 0.432884 0.020598
Si Si3 0.390346 0.312655 0.271814
Si Si4 0.016709 0.742997 0.460481
Si Si5 0.830339 0.885426 0.336318
Si Si6 0.304742 0.920803 0.092271
Si Si7 0.576858 0.751206 0.538910
O O1 0.500000 0.000000 0.500000
O O2 0.446673 0.042982 0.426234
O O3 0.662873 0.774321 0.937413
O O4 0.909205 0.063735 0.291633
O O5 0.215796 0.307167 0.928595
O O6 0.713671 0.348100 0.803374
O O7 0.500000 0.500000 0.000000
O O8 0.416051 0.591648 0.342023
O O9 0.500000 0.500000 0.500000
O O10 0.144916 0.295984 0.430223
O O11 0.599694 0.201955 0.059517
O O12 0.842896 0.699837 0.385436
O O13 0.000000 0.000000 0.500000
O O14 0.999975 0.907322 0.199431
O O15 0.434408 0.847009 0.830429
O O16 0.376679 0.115143 0.359816
#
# Coordination Sequence:
#
# PCOD9029774 Si02
#       7
#     2   2   2   2   2   2   2
#     4  11  24  43  69 102 134 181 229 276 346 406
#     4  11  25  39  66 102 131 177 220 278 334 403
#     4  11  25  43  69 101 139 181 228 284 346 409
#     4  10  24  45  69  99 137 181 225 282 338 409
#     4  11  22  41  66  91 134 174 220 268 332 401
#     4  10  22  42  68  94 131 182 218 280 338 403
#     4  10  22  44  69  95 133 175 229 275 339 402
#
# _framework density 22.772839999999999
#
# number of rings (size 3 to 8) (size 9 to 14) (size 15 to 20)
#    0.000    1.429    1.429    2.571    4.000    7.429 
#    5.143    0.000    0.000    0.000    0.000    0.000 
#    0.000    0.000    0.000    0.000    0.000    0.000 
#
# Total GULP energy -77985.161005 kJ/mol
# GULP energy per Si atom -5570.368643 kJ/mol
# Density = 2.272101 g / cm^3
# Si number density = 22.772840 Si / 1000 Ang^3
#
#
#
# Elastic Constant Matrix: (Units=GPa)
#
#
# Indices 1 2 3 4 5 6 
#
# 1 62.1889 26.0784 29.6206 17.6991 19.1205 -4.8202
# 2 26.0784 134.3459 50.5209 38.3024 18.8902 1.9056
# 3 29.6206 50.5209 122.8379 43.7524 30.4372 -3.8163
# 4 17.6991 38.3024 43.7524 36.3888 18.8544 4.1714
# 5 19.1205 18.8902 30.4372 18.8544 42.2148 1.9942
# 6 -4.8202 1.9056 -3.8163 4.1714 1.9942 35.5399
#
#
#
# Elastic Compliance Matrix: (Units=1/GPa)
#
#
# Indices 1 2 3 4 5 6 
#
# 1 0.020655 -0.001545 -0.001233 -0.004207 -0.006066 0.003586
# 2 -0.001545 0.010802 -0.000566 -0.010458 0.000929 0.000326
# 3 -0.001233 -0.000566 0.015227 -0.015827 -0.003266 0.003539
# 4 -0.004207 -0.010458 -0.015827 0.066408 -0.011244 -0.008873
# 5 -0.006066 0.000929 -0.003266 -0.011244 0.033481 -0.001782
# 6 0.003586 0.000326 0.003539 -0.008873 -0.001782 0.030128
#
#
# Mechanical properties :
#
#
# Convention : Reuss Voigt Hill
#
# Bulk Modulus (GPa) = 25.00053 59.09029 42.04541
# Shear Modulus (GPa) = 25.41686 37.03888 31.22787
#
# Velocity S-wave (km/s) = 3.34444 4.03730 3.70709
# Velocity P-wave (km/s) = 5.09075 6.90920 6.06848
#
# Compressibility (1/GPa) = 0.03999915
#
# Stress axis : x y z
#
# Youngs Moduli (GPa) = 48.41427 92.57318 65.67214
#
# Poissons Ratio (x) = 0.14298 0.08095
# Poissons Ratio (y) = 0.07478 0.03714
# Poissons Ratio (z) = 0.05968 0.05235
#
# Static dielectric constant tensor:
#      x y z
#    x 2.014380 -0.013640 0.024040 
#    y -0.013640 1.975270 -0.036990 
#    z 0.024040 -0.036990 1.930420 
# 
# From -- ./inp_files/497372.got.cif
#   From: 2010.05.17/outbox.cif.g08.bks.cpg/sg2_249_cif.got.tgz:497372.got - 2010.06.03 11:33:40.
