data_PCOD9029129
_publ_section_title
;
Structure prediction by ZEFSAII (Michael W. Deem and Ramdas Pophale) SiO2 
 PCOD9029129
Probable space group: P -1
;
_chemical_formula_sum "Si O2"
_cell_formula_units_Z 16
_cell_length_a 17.912219
_cell_length_b 9.236303
_cell_length_c 15.887655
_cell_angle_alpha 29.356258
_cell_angle_beta 36.382513
_cell_angle_gamma 37.843519
_cell_volume 728.521869
_symmetry_space_group_name_H-M "P -1"
_symmetry_group_IT_number 2
_symmetry_cell_setting 'triclinic'
loop_
_space_group_symop_operation_xyz
x,y,z
-x,-y,-z
loop_
_atom_site_type_symbol
_atom_site_label
_atom_site_fract_x
_atom_site_fract_y
_atom_site_fract_z
Si Si1 0.151297 0.777348 0.710752
Si Si2 0.643396 0.304019 0.577586
Si Si3 0.433252 0.755021 0.644726
Si Si4 0.430637 0.328948 0.021859
Si Si5 0.306913 0.703713 0.099262
Si Si6 0.187803 0.260821 0.538846
Si Si7 0.126086 0.215868 0.096617
Si Si8 0.132962 0.781845 0.450291
O O1 0.285011 0.714151 0.568251
O O2 0.029975 0.736465 0.786760
O O3 0.109334 0.117709 0.616400
O O4 0.162501 0.528015 0.900153
O O5 0.513934 0.583592 0.576607
O O6 0.753759 0.347758 0.519572
O O7 0.615681 0.977167 0.785179
O O8 0.500000 0.000000 0.500000
O O9 0.288995 0.968815 0.641034
O O10 0.440031 0.489133 0.842885
O O11 0.335331 0.590081 0.036164
O O12 0.567015 0.244233 0.994416
O O13 0.271455 0.435397 0.319865
O O14 0.187947 0.016842 0.059194
O O15 0.110307 0.510562 0.550662
O O16 0.185237 0.001472 0.229801
O O17 0.000000 0.000000 0.500000
#
# Coordination Sequence:
#
# PCOD9029129 Si02
#       8
#     2   2   2   2   2   2   2   2
#     4  11  25  44  66  98 129 171 229 270 326 381
#     4  12  25  42  69  99 131 179 219 265 335 391
#     4  12  24  41  64  97 141 167 213 275 326 390
#     4  11  24  41  64 101 132 174 218 266 335 391
#     4  10  22  42  66  93 132 173 218 266 329 393
#     4  11  24  43  65  99 129 173 217 269 329 387
#     4  10  24  43  67  92 133 172 217 278 323 388
#     4  11  23  44  69  93 131 173 218 267 331 391
#
# _framework density 21.962278999999999
#
# number of rings (size 3 to 8) (size 9 to 14) (size 15 to 20)
#    0.000    1.000    5.000    1.125    5.250    3.500 
#    0.000    0.625    0.000    0.000    0.000    0.000 
#    0.000    0.000    0.000    0.000    0.000    0.000 
#
# Total GULP energy -89423.075788 kJ/mol
# GULP energy per Si atom -5588.942237 kJ/mol
# Density = 2.191229 g / cm^3
# Si number density = 21.962279 Si / 1000 Ang^3
#
#
#
# Elastic Constant Matrix: (Units=GPa)
#
#
# Indices 1 2 3 4 5 6 
#
# 1 42.6443 14.1714 26.5408 -2.9224 -3.7338 16.6456
# 2 14.1714 145.5167 34.2063 9.2027 -6.3533 18.6459
# 3 26.5408 34.2063 94.9756 -6.3467 -24.0135 15.0488
# 4 -2.9224 9.2027 -6.3467 24.4866 1.6522 1.5587
# 5 -3.7338 -6.3533 -24.0135 1.6522 23.6646 -9.9194
# 6 16.6456 18.6459 15.0488 1.5587 -9.9194 28.9145
#
#
#
# Elastic Compliance Matrix: (Units=1/GPa)
#
#
# Indices 1 2 3 4 5 6 
#
# 1 0.037100 0.000748 -0.010500 0.003712 -0.013790 -0.021307
# 2 0.000748 0.008304 -0.003391 -0.003409 -0.002878 -0.004825
# 3 -0.010500 -0.003391 0.018785 0.003380 0.018144 0.004497
# 4 0.003712 -0.003409 0.003380 0.043871 -0.001946 -0.004730
# 5 -0.013790 -0.002878 0.018144 -0.001946 0.067796 0.023715
# 6 -0.021307 -0.004825 0.004497 -0.004730 0.023715 0.056012
#
#
# Mechanical properties :
#
#
# Convention : Reuss Voigt Hill
#
# Bulk Modulus (GPa) = 26.38178 48.10817 37.24498
# Shear Modulus (GPa) = 18.46458 29.29435 23.87946
#
# Velocity S-wave (km/s) = 2.90270 3.65615 3.30099
# Velocity P-wave (km/s) = 4.82417 6.30680 5.61464
#
# Compressibility (1/GPa) = 0.03790495
#
# Stress axis : x y z
#
# Youngs Moduli (GPa) = 26.95451 120.41677 53.23303
#
# Poissons Ratio (x) = -0.09013 0.55893
# Poissons Ratio (y) = -0.02017 0.18052
# Poissons Ratio (z) = 0.28301 0.40834
#
# Static dielectric constant tensor:
#      x y z
#    x 1.842080 0.000050 0.009580 
#    y 0.000050 1.830570 0.018930 
#    z 0.009580 0.018930 1.801080 
# 
# From -- ./inp_files/188781.got.cif
#   From: 2010.05.17/outbox.cif.g08.bks.cpg/sg2_95_cif.got.tgz:188781.got - 2010.06.03 11:33:40.
