data_PCOD9029135
_publ_section_title
;
Structure prediction by ZEFSAII (Michael W. Deem and Ramdas Pophale) SiO2 
 PCOD9029135
Probable space group: P -1
;
_chemical_formula_sum "Si O2"
_cell_formula_units_Z 13
_cell_length_a 8.444691
_cell_length_b 10.129673
_cell_length_c 12.126348
_cell_angle_alpha 110.156846
_cell_angle_beta 31.971932
_cell_angle_gamma 100.145644
_cell_volume 501.340970
_symmetry_space_group_name_H-M "P -1"
_symmetry_group_IT_number 2
_symmetry_cell_setting 'triclinic'
loop_
_space_group_symop_operation_xyz
x,y,z
-x,-y,-z
loop_
_atom_site_type_symbol
_atom_site_label
_atom_site_fract_x
_atom_site_fract_y
_atom_site_fract_z
Si Si1 0.445984 0.052981 0.195189
Si Si2 0.007599 0.120638 0.664489
Si Si3 0.407636 0.544318 0.440398
Si Si4 0.024072 0.206864 0.131221
Si Si5 0.577384 0.360695 0.838263
Si Si6 0.800569 0.267176 0.042602
Si Si7 0.000000 0.500000 0.500000
O O1 0.192169 0.001299 0.256460
O O2 0.499959 0.206926 0.167261
O O3 0.765441 0.934129 0.978224
O O4 0.319887 0.062834 0.397769
O O5 0.804709 0.236783 0.735519
O O6 0.027841 0.202479 0.790690
O O7 0.500000 0.500000 0.500000
O O8 0.697078 0.438418 0.173791
O O9 0.118792 0.481685 0.551765
O O10 0.252258 0.714457 0.602777
O O11 0.896917 0.190935 0.080063
O O12 0.266468 0.306509 0.991188
O O13 0.742730 0.402671 0.644390
O O14 0.500000 0.500000 0.000000
#
# Coordination Sequence:
#
# PCOD9029135 Si02
#       7
#     2   2   2   2   2   2   1
#     4  10  22  42  66  93 136 172 226 276 326 413
#     4  10  23  42  65  98 130 171 229 280 326 403
#     4  10  23  42  66 102 133 170 227 277 334 399
#     4  10  23  44  62 100 139 169 222 285 329 402
#     4  11  22  41  64  94 130 168 226 272 329 407
#     4  11  22  43  69  95 133 182 217 274 346 391
#     4  12  22  42  70  90 130 188 206 272 354 380
#
# _framework density 25.930458000000002
#
# number of rings (size 3 to 8) (size 9 to 14) (size 15 to 20)
#    0.000    1.538    1.538    2.769    2.154    0.615 
#   16.615    2.308    0.000    0.000    0.000    0.000 
#    0.000    0.000    0.000    0.000    0.000    0.000 
#
# Total GULP energy -72386.812182 kJ/mol
# GULP energy per Si atom -5568.216322 kJ/mol
# Density = 2.587144 g / cm^3
# Si number density = 25.930458 Si / 1000 Ang^3
#
#
#
# Elastic Constant Matrix: (Units=GPa)
#
#
# Indices 1 2 3 4 5 6 
#
# 1 100.3405 6.8604 47.5732 8.7617 18.0008 10.8481
# 2 6.8604 86.9084 55.4995 -5.2593 3.3106 13.9792
# 3 47.5732 55.4995 147.6607 34.8291 37.2468 3.2400
# 4 8.7617 -5.2593 34.8291 51.4953 12.3091 -2.7379
# 5 18.0008 3.3106 37.2468 12.3091 44.7185 4.6632
# 6 10.8481 13.9792 3.2400 -2.7379 4.6632 30.3636
#
#
#
# Elastic Compliance Matrix: (Units=1/GPa)
#
#
# Indices 1 2 3 4 5 6 
#
# 1 0.012961 0.003619 -0.005685 0.001891 -0.000706 -0.005411
# 2 0.003619 0.020742 -0.012072 0.007724 0.005955 -0.009773
# 3 -0.005685 -0.012072 0.017679 -0.009603 -0.009557 0.006304
# 4 0.001891 0.007724 -0.009603 0.026472 -0.000544 -0.000736
# 5 -0.000706 0.005955 -0.009557 -0.000544 0.030970 -0.006275
# 6 -0.005411 -0.009773 0.006304 -0.000736 -0.006275 0.039591
#
#
# Mechanical properties :
#
#
# Convention : Reuss Voigt Hill
#
# Bulk Modulus (GPa) = 43.27928 61.64174 52.46051
# Shear Modulus (GPa) = 27.11610 40.31392 33.71501
#
# Velocity S-wave (km/s) = 3.23727 3.94724 3.60975
# Velocity P-wave (km/s) = 5.54076 6.67816 6.13587
#
# Compressibility (1/GPa) = 0.02310575
#
# Stress axis : x y z
#
# Youngs Moduli (GPa) = 77.15719 48.21073 56.56560
#
# Poissons Ratio (x) = -0.17447 0.32157
# Poissons Ratio (y) = -0.27923 0.68285
# Poissons Ratio (z) = 0.43863 0.58199
#
# Static dielectric constant tensor:
#      x y z
#    x 2.435730 -0.074230 0.216650 
#    y -0.074230 2.015310 -0.044890 
#    z 0.216650 -0.044890 2.170310 
# 
# From -- ./inp_files/390580.got.cif
#   From: 2010.05.17/outbox.cif.g08.bks.cpg/sg2_196_cif.got.tgz:390580.got - 2010.06.03 11:33:40.
