data_PCOD9029675
_publ_section_title
;
Structure prediction by ZEFSAII (Michael W. Deem and Ramdas Pophale) SiO2 
 PCOD9029675
Probable space group: P -1
;
_chemical_formula_sum "Si O2"
_cell_formula_units_Z 12
_cell_length_a 9.120238
_cell_length_b 9.630180
_cell_length_c 12.044828
_cell_angle_alpha 74.509762
_cell_angle_beta 130.176728
_cell_angle_gamma 134.687877
_cell_volume 539.674865
_symmetry_space_group_name_H-M "P -1"
_symmetry_group_IT_number 2
_symmetry_cell_setting 'triclinic'
loop_
_space_group_symop_operation_xyz
x,y,z
-x,-y,-z
loop_
_atom_site_type_symbol
_atom_site_label
_atom_site_fract_x
_atom_site_fract_y
_atom_site_fract_z
Si Si1 0.723402 0.284873 0.855107
Si Si2 0.855723 0.074633 0.238633
Si Si3 0.306877 0.769111 0.498737
Si Si4 0.426566 0.293638 0.509439
Si Si5 0.182279 0.989288 0.021539
Si Si6 0.205874 0.660877 0.727679
O O1 0.596632 0.303275 0.685653
O O2 0.461414 0.137118 0.843306
O O3 0.787980 0.154425 0.881011
O O4 0.000000 0.500000 0.000000
O O5 0.912714 0.093722 0.132047
O O6 0.883973 0.253797 0.258168
O O7 0.095323 0.106488 0.402982
O O8 0.479226 0.720724 0.559356
O O9 0.237971 0.739102 0.601032
O O10 0.014939 0.586429 0.333310
O O11 0.500000 0.000000 0.500000
O O12 0.500000 0.500000 0.500000
O O13 0.490237 0.221143 0.114033
O O14 0.000000 0.000000 0.000000
#
# Coordination Sequence:
#
# PCOD9029675 Si02
#       6
#     2   2   2   2   2   2
#     4  11  25  43  70 108 141 187 240 288 357 434
#     4  11  23  45  73 103 144 187 234 294 364 429
#     4  11  23  41  68 102 142 182 240 292 355 418
#     4  12  24  43  71 101 144 186 237 292 357 424
#     4  11  24  47  74 101 145 187 236 298 366 422
#     4  10  22  42  68 103 142 187 234 293 361 425
#
# _framework density 22.235610000000001
#
# number of rings (size 3 to 8) (size 9 to 14) (size 15 to 20)
#    0.000    1.000    1.667    6.500    2.333    0.000 
#    3.000    0.833    0.000    0.000    0.000    0.000 
#    0.000    0.000    0.000    0.000    0.000    0.000 
#
# Total GULP energy -67101.619128 kJ/mol
# GULP energy per Si atom -5591.801594 kJ/mol
# Density = 2.218500 g / cm^3
# Si number density = 22.235610 Si / 1000 Ang^3
#
#
#
# Elastic Constant Matrix: (Units=GPa)
#
#
# Indices 1 2 3 4 5 6 
#
# 1 188.6948 49.1081 72.0369 2.2781 0.0925 -15.2467
# 2 49.1081 129.6688 57.5959 16.8288 0.5009 0.5587
# 3 72.0369 57.5959 149.5915 11.0918 11.8280 -3.4447
# 4 2.2781 16.8288 11.0918 49.9889 6.3813 3.3169
# 5 0.0925 0.5009 11.8280 6.3813 48.6995 3.1530
# 6 -15.2467 0.5587 -3.4447 3.3169 3.1530 29.9842
#
#
#
# Elastic Compliance Matrix: (Units=1/GPa)
#
#
# Indices 1 2 3 4 5 6 
#
# 1 0.007006 -0.001497 -0.002797 0.000543 0.000405 0.003166
# 2 -0.001497 0.009973 -0.003030 -0.002678 0.001059 -0.001110
# 3 -0.002797 -0.003030 0.009419 -0.000667 -0.002165 0.000018
# 4 0.000543 -0.002678 -0.000667 0.021473 -0.002504 -0.001862
# 5 0.000405 0.001059 -0.002165 -0.002504 0.021509 -0.002047
# 6 0.003166 -0.001110 0.000018 -0.001862 -0.002047 0.035405
#
#
# Mechanical properties :
#
#
# Convention : Reuss Voigt Hill
#
# Bulk Modulus (GPa) = 85.09574 91.71518 88.40546
# Shear Modulus (GPa) = 40.53556 45.01547 42.77551
#
# Velocity S-wave (km/s) = 4.27429 4.50430 4.39080
# Velocity P-wave (km/s) = 7.91913 8.26971 8.09632
#
# Compressibility (1/GPa) = 0.01175147
#
# Stress axis : x y z
#
# Youngs Moduli (GPa) = 142.73650 100.27271 106.16477
#
# Poissons Ratio (x) = 0.15008 0.29693
# Poissons Ratio (y) = 0.21363 0.32165
# Poissons Ratio (z) = 0.39922 0.30380
#
# Static dielectric constant tensor:
#      x y z
#    x 1.808070 0.063170 -0.004690 
#    y 0.063170 1.777030 0.015710 
#    z -0.004690 0.015710 1.884310 
# 
# From -- ./inp_files/186277.got.cif
#   From: 2010.05.17/outbox.cif.g08.bks.cpg/sg2_94_cif.got.tgz:186277.got - 2010.06.03 11:33:40.
