data_PCOD9029152
_publ_section_title
;
Structure prediction by ZEFSAII (Michael W. Deem and Ramdas Pophale) SiO2 
 PCOD9029152
Probable space group: P -1
;
_chemical_formula_sum "Si O2"
_cell_formula_units_Z 16
_cell_length_a 7.930144
_cell_length_b 12.274779
_cell_length_c 9.118843
_cell_angle_alpha 97.921884
_cell_angle_beta 87.345034
_cell_angle_gamma 126.467162
_cell_volume 706.315569
_symmetry_space_group_name_H-M "P -1"
_symmetry_group_IT_number 2
_symmetry_cell_setting 'triclinic'
loop_
_space_group_symop_operation_xyz
x,y,z
-x,-y,-z
loop_
_atom_site_type_symbol
_atom_site_label
_atom_site_fract_x
_atom_site_fract_y
_atom_site_fract_z
Si Si1 0.117387 0.642812 0.602095
Si Si2 0.028564 0.982807 0.167627
Si Si3 0.333404 0.906596 0.110047
Si Si4 0.820503 0.362883 0.063043
Si Si5 0.188554 0.266873 0.348877
Si Si6 0.550944 0.446411 0.128584
Si Si7 0.661280 0.144978 0.594496
Si Si8 0.852742 0.733493 0.323991
O O1 0.171372 0.630800 0.761339
O O2 0.307243 0.747894 0.505795
O O3 0.000000 0.500000 0.500000
O O4 0.967464 0.689919 0.637490
O O5 0.233707 0.984478 0.170040
O O6 0.860098 0.838676 0.229889
O O7 0.066018 0.109743 0.276415
O O8 0.000000 0.000000 0.000000
O O9 0.421824 0.875322 0.240754
O O10 0.172407 0.758957 0.015532
O O11 0.500000 0.000000 0.000000
O O12 0.609706 0.350020 0.042344
O O13 0.000000 0.500000 0.000000
O O14 0.370081 0.360810 0.240985
O O15 0.257264 0.282066 0.519109
O O16 0.741907 0.585212 0.227751
O O17 0.500000 0.500000 0.000000
O O18 0.903184 0.199742 0.629965
O O19 0.500000 0.000000 0.500000
#
# Coordination Sequence:
#
# PCOD9029152 Si02
#       8
#     2   2   2   2   2   2   2   2
#     4  11  23  43  68  99 132 172 222 279 334 395
#     4  11  22  41  64  93 132 175 218 268 323 387
#     4  11  23  40  61  94 128 167 215 268 321 386
#     4  12  23  41  66  95 132 174 218 273 327 388
#     4  11  23  42  66  97 132 177 221 273 334 396
#     4  12  25  44  68 100 135 177 221 270 332 399
#     4  10  22  42  66  94 129 171 218 271 330 390
#     4  10  23  43  65  94 131 171 219 274 326 389
#
# _framework density 22.652761999999999
#
# number of rings (size 3 to 8) (size 9 to 14) (size 15 to 20)
#    0.000    1.000    0.000    8.250    0.000    2.000 
#    0.000    6.250    0.000    0.000    0.000    0.000 
#    0.000    0.000    0.000    0.000    0.000    0.000 
#
# Total GULP energy -89372.799727 kJ/mol
# GULP energy per Si atom -5585.799983 kJ/mol
# Density = 2.260120 g / cm^3
# Si number density = 22.652762 Si / 1000 Ang^3
#
#
#
# Elastic Constant Matrix: (Units=GPa)
#
#
# Indices 1 2 3 4 5 6 
#
# 1 51.1037 -0.1382 -5.3377 -2.0052 -11.4652 -20.7283
# 2 -0.1382 140.5258 34.9914 -11.5878 -3.0103 -9.1092
# 3 -5.3377 34.9914 133.2870 -25.8404 6.3897 -7.5438
# 4 -2.0052 -11.5878 -25.8404 74.4229 -1.0269 -9.2648
# 5 -11.4652 -3.0103 6.3897 -1.0269 34.7008 3.3605
# 6 -20.7283 -9.1092 -7.5438 -9.2648 3.3605 35.2305
#
#
#
# Elastic Compliance Matrix: (Units=1/GPa)
#
#
# Indices 1 2 3 4 5 6 
#
# 1 0.029110 0.001137 0.002342 0.004156 0.007637 0.018287
# 2 0.001137 0.007813 -0.001735 0.000967 0.001163 0.002461
# 3 0.002342 -0.001735 0.008988 0.003377 -0.001306 0.003867
# 4 0.004156 0.000967 0.003377 0.015816 0.000575 0.007523
# 5 0.007637 0.001163 -0.001306 0.000575 0.031539 0.001657
# 6 0.018287 0.002461 0.003867 0.007523 0.001657 0.042429
#
#
# Mechanical properties :
#
#
# Convention : Reuss Voigt Hill
#
# Bulk Modulus (GPa) = 20.24286 42.66085 31.45185
# Shear Modulus (GPa) = 33.63090 48.56424 41.09757
#
# Velocity S-wave (km/s) = 3.85727 4.63520 4.26401
# Velocity P-wave (km/s) = 5.36596 6.89349 6.17712
#
# Compressibility (1/GPa) = 0.04940013
#
# Stress axis : x y z
#
# Youngs Moduli (GPa) = 34.35278 127.98507 111.26016
#
# Poissons Ratio (x) = -0.14555 -0.26056
# Poissons Ratio (y) = -0.03907 0.19299
# Poissons Ratio (z) = -0.08045 0.22200
#
# Static dielectric constant tensor:
#      x y z
#    x 1.801690 0.037820 -0.082150 
#    y 0.037820 1.795140 -0.005340 
#    z -0.082150 -0.005340 1.797830 
# 
# From -- ./inp_files/188590.got.cif
#   From: 2010.05.17/outbox.cif.g08.bks.cpg/sg2_95_cif.got.tgz:188590.got - 2010.06.03 11:33:40.
