data_PCOD9029684
_publ_section_title
;
Structure prediction by ZEFSAII (Michael W. Deem and Ramdas Pophale) SiO2 
 PCOD9029684
Probable space group: P -1
;
_chemical_formula_sum "Si O2"
_cell_formula_units_Z 16
_cell_length_a 7.845763
_cell_length_b 11.763536
_cell_length_c 14.814058
_cell_angle_alpha 137.275381
_cell_angle_beta 100.462017
_cell_angle_gamma 53.803412
_cell_volume 664.422397
_symmetry_space_group_name_H-M "P -1"
_symmetry_group_IT_number 2
_symmetry_cell_setting 'triclinic'
loop_
_space_group_symop_operation_xyz
x,y,z
-x,-y,-z
loop_
_atom_site_type_symbol
_atom_site_label
_atom_site_fract_x
_atom_site_fract_y
_atom_site_fract_z
Si Si1 0.807743 0.146235 0.869620
Si Si2 0.431286 0.046163 0.912453
Si Si3 0.014357 0.415194 0.775464
Si Si4 0.192192 0.075850 0.747975
Si Si5 0.504669 0.368975 0.605473
Si Si6 0.542265 0.632985 0.203051
Si Si7 0.949014 0.345429 0.372344
Si Si8 0.747479 0.509524 0.633842
O O1 0.640212 0.230757 0.816557
O O2 0.043501 0.085815 0.820400
O O3 0.674005 0.365057 0.049712
O O4 0.865513 0.926544 0.789471
O O5 0.361096 0.096101 0.825764
O O6 0.623879 0.766119 0.749293
O O7 0.199950 0.317907 0.069849
O O8 0.500000 0.000000 0.000000
O O9 0.021704 0.272744 0.772437
O O10 0.260005 0.353767 0.770619
O O11 0.966486 0.377287 0.647906
O O12 0.351147 0.839570 0.571527
O O13 0.582207 0.278541 0.660837
O O14 0.226390 0.524113 0.652797
O O15 0.554374 0.527223 0.678110
O O16 0.817845 0.371357 0.466963
O O17 0.000000 0.500000 0.500000
#
# Coordination Sequence:
#
# PCOD9029684 Si02
#       8
#     2   2   2   2   2   2   2   2
#     4  11  26  48  72  97 146 184 229 285 356 415
#     4  10  22  42  68 104 138 174 230 289 340 413
#     4  11  25  42  74 102 141 180 236 287 346 415
#     4  12  23  45  77 102 133 190 235 287 344 415
#     4  12  26  45  73 103 138 183 238 289 350 415
#     4  11  27  47  67 106 143 183 228 293 352 411
#     4  12  26  46  71 102 141 184 231 287 352 415
#     4  11  23  46  70 103 137 183 234 288 349 413
#
# _framework density 24.081067999999998
#
# number of rings (size 3 to 8) (size 9 to 14) (size 15 to 20)
#    0.000    0.750    3.750    3.000    3.500    2.000 
#   11.250    0.000    0.000    0.000    0.000    0.000 
#    0.000    0.000    0.000    0.000    0.000    0.000 
#
# Total GULP energy -89076.927410 kJ/mol
# GULP energy per Si atom -5567.307963 kJ/mol
# Density = 2.402626 g / cm^3
# Si number density = 24.081068 Si / 1000 Ang^3
#
#
#
# Elastic Constant Matrix: (Units=GPa)
#
#
# Indices 1 2 3 4 5 6 
#
# 1 49.3091 -14.3377 -24.5702 -1.6989 11.6985 8.4263
# 2 -14.3377 135.8994 30.6492 12.4197 25.8462 -10.4956
# 3 -24.5702 30.6492 84.1444 0.2355 1.4170 -3.8607
# 4 -1.6989 12.4197 0.2355 56.3178 7.9837 -0.0534
# 5 11.6985 25.8462 1.4170 7.9837 32.1851 -3.7465
# 6 8.4263 -10.4956 -3.8607 -0.0534 -3.7465 30.4332
#
#
#
# Elastic Compliance Matrix: (Units=1/GPa)
#
#
# Indices 1 2 3 4 5 6 
#
# 1 0.030240 0.003697 0.007371 0.002298 -0.015798 -0.008104
# 2 0.003697 0.010181 -0.002425 -0.000835 -0.009082 0.001060
# 3 0.007371 -0.002425 0.014892 0.000943 -0.001762 -0.001203
# 4 0.002298 -0.000835 0.000943 0.018715 -0.005010 -0.001388
# 5 -0.015798 -0.009082 -0.001762 -0.005010 0.046206 0.006698
# 6 -0.008104 0.001060 -0.001203 -0.001388 0.006698 0.036138
#
#
# Mechanical properties :
#
#
# Convention : Reuss Voigt Hill
#
# Bulk Modulus (GPa) = 13.77425 28.09286 20.93355
# Shear Modulus (GPa) = 30.62137 42.29466 36.45801
#
# Velocity S-wave (km/s) = 3.56981 4.19542 3.89520
# Velocity P-wave (km/s) = 4.76695 5.92959 5.37977
#
# Compressibility (1/GPa) = 0.07259922
#
# Stress axis : x y z
#
# Youngs Moduli (GPa) = 33.06852 98.22454 67.15058
#
# Poissons Ratio (x) = -0.36310 -0.49500
# Poissons Ratio (y) = -0.12224 0.16284
# Poissons Ratio (z) = -0.24376 0.23819
#
# Static dielectric constant tensor:
#      x y z
#    x 2.260190 -0.007800 -0.017650 
#    y -0.007800 1.876900 0.001540 
#    z -0.017650 0.001540 1.882490 
# 
# From -- ./inp_files/216515.got.cif
#   From: 2010.05.17/outbox.cif.g08.bks.cpg/sg2_109_cif.got.tgz:216515.got - 2010.06.03 11:33:40.
