data_PCOD9029266
_publ_section_title
;
Structure prediction by ZEFSAII (Michael W. Deem and Ramdas Pophale) SiO2 
 PCOD9029266
Probable space group: P -1
;
_chemical_formula_sum "Si O2"
_cell_formula_units_Z 14
_cell_length_a 5.659326
_cell_length_b 18.147674
_cell_length_c 7.946029
_cell_angle_alpha 121.783261
_cell_angle_beta 124.114210
_cell_angle_gamma 80.969239
_cell_volume 563.116933
_symmetry_space_group_name_H-M "P -1"
_symmetry_group_IT_number 2
_symmetry_cell_setting 'triclinic'
loop_
_space_group_symop_operation_xyz
x,y,z
-x,-y,-z
loop_
_atom_site_type_symbol
_atom_site_label
_atom_site_fract_x
_atom_site_fract_y
_atom_site_fract_z
Si Si1 0.528601 0.788169 0.436895
Si Si2 0.432561 0.137833 0.828723
Si Si3 0.356341 0.021105 0.145067
Si Si4 0.607285 0.558110 0.855762
Si Si5 0.940318 0.746498 0.201971
Si Si6 0.924174 0.272451 0.379750
Si Si7 0.972199 0.527439 0.299986
O O1 0.613338 0.831642 0.341556
O O2 0.537112 0.875872 0.654508
O O3 0.746280 0.734064 0.543949
O O4 0.222412 0.725354 0.198042
O O5 0.140465 0.167414 0.817479
O O6 0.495486 0.040667 0.747193
O O7 0.700134 0.200033 0.103412
O O8 0.500000 0.000000 0.000000
O O9 0.000000 0.000000 0.000000
O O10 0.272279 0.516725 0.715706
O O11 0.776005 0.521477 0.725193
O O12 0.676158 0.664313 0.994243
O O13 0.783735 0.538616 0.069877
O O14 0.070463 0.752913 0.451276
O O15 0.888288 0.372158 0.473212
#
# Coordination Sequence:
#
# PCOD9029266 Si02
#       7
#     2   2   2   2   2   2   2
#     4  11  25  43  71 101 138 180 226 282 342 408
#     4  11  25  45  69 102 138 179 227 282 343 408
#     4  12  27  49  76 103 138 179 227 279 344 413
#     4   9  19  36  60  96 133 173 230 277 335 391
#     4  10  24  40  69  98 136 184 227 286 336 409
#     4  10  22  42  66  98 137 181 233 277 341 402
#     4   9  19  34  63  94 129 182 223 280 331 397
#
# _framework density 24.861622000000001
#
# number of rings (size 3 to 8) (size 9 to 14) (size 15 to 20)
#    0.000    1.714    1.429    1.286   16.000    1.714 
#    0.000    1.429    0.000    0.000    0.000    0.000 
#    0.000    0.000    0.000    0.000    0.000    0.000 
#
# Total GULP energy -78155.731025 kJ/mol
# GULP energy per Si atom -5582.552216 kJ/mol
# Density = 2.480504 g / cm^3
# Si number density = 24.861622 Si / 1000 Ang^3
#
#
#
# Elastic Constant Matrix: (Units=GPa)
#
#
# Indices 1 2 3 4 5 6 
#
# 1 103.8475 29.9147 37.2857 11.2577 6.1354 -6.1041
# 2 29.9147 91.4925 17.0720 -1.8013 -4.1686 -12.4739
# 3 37.2857 17.0720 88.3117 13.8380 7.2785 -7.7107
# 4 11.2577 -1.8013 13.8380 38.0326 -5.2901 4.6056
# 5 6.1354 -4.1686 7.2785 -5.2901 45.4748 4.6139
# 6 -6.1041 -12.4739 -7.7107 4.6056 4.6139 33.9243
#
#
#
# Elastic Compliance Matrix: (Units=1/GPa)
#
#
# Indices 1 2 3 4 5 6 
#
# 1 0.012470 -0.003371 -0.003980 -0.002731 -0.001744 0.000708
# 2 -0.003371 0.012827 -0.001197 0.001871 0.001700 0.003353
# 3 -0.003980 -0.001197 0.014518 -0.004936 -0.002795 0.003194
# 4 -0.002731 0.001871 -0.004936 0.030448 0.005461 -0.005802
# 5 -0.001744 0.001700 -0.002795 0.005461 0.023902 -0.004316
# 6 0.000708 0.003353 0.003194 -0.005802 -0.004316 0.032938
#
#
# Mechanical properties :
#
#
# Convention : Reuss Voigt Hill
#
# Bulk Modulus (GPa) = 44.01613 50.24404 47.13009
# Shear Modulus (GPa) = 32.94403 36.77831 34.86117
#
# Velocity S-wave (km/s) = 3.64414 3.85037 3.74867
# Velocity P-wave (km/s) = 5.95392 6.32617 6.14287
#
# Compressibility (1/GPa) = 0.02271894
#
# Stress axis : x y z
#
# Youngs Moduli (GPa) = 80.19031 77.96122 68.88057
#
# Poissons Ratio (x) = 0.26285 0.27413
# Poissons Ratio (y) = 0.27036 0.08243
# Poissons Ratio (z) = 0.31914 0.09330
#
# Static dielectric constant tensor:
#      x y z
#    x 2.730790 -0.290590 -0.163340 
#    y -0.290590 2.098380 0.071010 
#    z -0.163340 0.071010 2.001270 
# 
# From -- ./inp_files/119920.got.cif
#   From: 2010.05.17/outbox.cif.g08.bks.cpg/sg2_60_cif.got.tgz:119920.got - 2010.06.03 11:33:40.
