data_PCOD9029620
_publ_section_title
;
Structure prediction by ZEFSAII (Michael W. Deem and Ramdas Pophale) SiO2 
 PCOD9029620
Probable space group: P -1
;
_chemical_formula_sum "Si O2"
_cell_formula_units_Z 16
_cell_length_a 8.612860
_cell_length_b 13.122418
_cell_length_c 7.324201
_cell_angle_alpha 68.860334
_cell_angle_beta 130.241310
_cell_angle_gamma 119.563062
_cell_volume 548.520662
_symmetry_space_group_name_H-M "P -1"
_symmetry_group_IT_number 2
_symmetry_cell_setting 'triclinic'
loop_
_space_group_symop_operation_xyz
x,y,z
-x,-y,-z
loop_
_atom_site_type_symbol
_atom_site_label
_atom_site_fract_x
_atom_site_fract_y
_atom_site_fract_z
Si Si1 0.257667 0.538277 0.701834
Si Si2 0.548478 0.213510 0.133598
Si Si3 0.624293 0.276303 0.754088
Si Si4 0.550249 0.031537 0.802831
Si Si5 0.115882 0.356751 0.014977
Si Si6 0.742391 0.617124 0.500751
Si Si7 0.063986 0.145946 0.639517
Si Si8 0.052577 0.104758 0.217948
O O1 0.623036 0.327062 0.241252
O O2 0.341667 0.497186 0.610857
O O3 0.000000 0.500000 0.500000
O O4 0.262446 0.452485 0.925832
O O5 0.681698 0.249518 0.022157
O O6 0.298801 0.171205 0.898278
O O7 0.563573 0.093688 0.300710
O O8 0.497597 0.147839 0.649785
O O9 0.454437 0.339700 0.622635
O O10 0.858336 0.330560 0.800884
O O11 0.810587 0.074750 0.969592
O O12 0.500000 0.000000 0.000000
O O13 0.164249 0.235252 0.133870
O O14 0.156386 0.403844 0.221628
O O15 0.921996 0.719238 0.447100
O O16 0.049208 0.121766 0.424678
O O17 0.916514 0.020428 0.695702
#
# Coordination Sequence:
#
# PCOD9029620 Si02
#       8
#     2   2   2   2   2   2   2   2
#     4  12  27  45  65  95 139 187 229 276 337 405
#     4   9  18  34  59  92 130 175 225 273 328 402
#     4   9  18  37  69 101 126 166 224 281 341 404
#     4   8  14  28  58  96 126 163 221 278 333 402
#     4  10  22  44  69  97 134 179 228 280 339 405
#     4  10  22  42  68 100 134 175 226 279 338 403
#     4   8  15  31  60  97 128 166 218 273 337 399
#     4   8  14  30  61  96 130 166 214 275 337 401
#
# _framework density 29.169364999999999
#
# number of rings (size 3 to 8) (size 9 to 14) (size 15 to 20)
#    0.000    2.750    0.000    1.500    0.000    5.000 
#    0.000   13.125    0.000    6.750    0.000   26.250 
#    0.000    9.000    0.000    0.000    0.000    0.000 
#
# Total GULP energy -89570.262030 kJ/mol
# GULP energy per Si atom -5598.141377 kJ/mol
# Density = 2.910297 g / cm^3
# Si number density = 29.169365 Si / 1000 Ang^3
#
#
#
# Elastic Constant Matrix: (Units=GPa)
#
#
# Indices 1 2 3 4 5 6 
#
# 1 100.6736 84.0269 43.9653 -2.3717 -9.6169 3.3180
# 2 84.0269 293.5010 76.3895 -1.3671 -9.3732 -9.3575
# 3 43.9653 76.3895 116.0982 -14.2798 13.3408 -7.3440
# 4 -2.3717 -1.3671 -14.2798 45.9793 -0.3884 2.9757
# 5 -9.6169 -9.3732 13.3408 -0.3884 29.8124 5.0260
# 6 3.3180 -9.3575 -7.3440 2.9757 5.0260 32.9164
#
#
#
# Elastic Compliance Matrix: (Units=1/GPa)
#
#
# Indices 1 2 3 4 5 6 
#
# 1 0.015481 -0.003050 -0.005016 -0.000494 0.007045 -0.004578
# 2 -0.003050 0.004953 -0.002295 -0.000779 0.001412 0.001058
# 3 -0.005016 -0.002295 0.013769 0.003614 -0.009127 0.003992
# 4 -0.000494 -0.000779 0.003614 0.022888 -0.001521 -0.001202
# 5 0.007045 0.001412 -0.009127 -0.001521 0.041771 -0.008586
# 6 -0.004578 0.001058 0.003992 -0.001202 -0.008586 0.033453
#
#
# Mechanical properties :
#
#
# Convention : Reuss Voigt Hill
#
# Bulk Modulus (GPa) = 74.17595 102.11514 88.14554
# Shear Modulus (GPa) = 31.74010 42.13435 36.93722
#
# Velocity S-wave (km/s) = 3.30226 3.80475 3.56237
# Velocity P-wave (km/s) = 6.32649 7.37463 6.87058
#
# Compressibility (1/GPa) = 0.01348146
#
# Stress axis : x y z
#
# Youngs Moduli (GPa) = 64.59365 201.90412 72.62915
#
# Poissons Ratio (x) = 0.61581 0.36429
# Poissons Ratio (y) = 0.19701 0.16668
# Poissons Ratio (z) = 0.32398 0.46336
#
# Static dielectric constant tensor:
#      x y z
#    x 2.300290 0.036620 0.059810 
#    y 0.036620 2.314980 -0.059220 
#    z 0.059810 -0.059220 2.266980 
# 
# From -- ./inp_files/201009.got.cif
#   From: 2010.05.17/outbox.cif.g08.bks.cpg/sg2_101_cif.got.tgz:201009.got - 2010.06.03 11:33:40.
