data_PCOD9029562
_publ_section_title
;
Structure prediction by ZEFSAII (Michael W. Deem and Ramdas Pophale) SiO2 
 PCOD9029562
Probable space group: P -1
;
_chemical_formula_sum "Si O2"
_cell_formula_units_Z 14
_cell_length_a 15.758291
_cell_length_b 11.879338
_cell_length_c 5.253933
_cell_angle_alpha 119.850504
_cell_angle_beta 127.903556
_cell_angle_gamma 44.115852
_cell_volume 537.330646
_symmetry_space_group_name_H-M "P -1"
_symmetry_group_IT_number 2
_symmetry_cell_setting 'triclinic'
loop_
_space_group_symop_operation_xyz
x,y,z
-x,-y,-z
loop_
_atom_site_type_symbol
_atom_site_label
_atom_site_fract_x
_atom_site_fract_y
_atom_site_fract_z
Si Si1 0.107212 0.615484 0.328107
Si Si2 0.627105 0.671940 0.453203
Si Si3 0.687754 0.127115 0.059776
Si Si4 0.969544 0.934679 0.123726
Si Si5 0.643659 0.911431 0.041240
Si Si6 0.903859 0.636427 0.283768
Si Si7 0.412481 0.539816 0.626566
O O1 0.248427 0.507537 0.632888
O O2 0.061244 0.741483 0.150887
O O3 0.979302 0.704893 0.379969
O O4 0.118057 0.461304 0.070749
O O5 0.628368 0.581308 0.609329
O O6 0.644658 0.811105 0.691790
O O7 0.470463 0.775204 0.199534
O O8 0.698123 0.267154 0.338710
O O9 0.808151 0.021136 0.958282
O O10 0.691843 0.016190 0.159677
O O11 0.000000 0.000000 0.500000
O O12 0.000000 0.000000 0.000000
O O13 0.759893 0.775342 0.287142
O O14 0.500000 0.000000 0.000000
O O15 0.000000 0.500000 0.500000
O O16 0.500000 0.500000 0.500000
O O17 0.500000 0.500000 0.000000
#
# Coordination Sequence:
#
# PCOD9029562 Si02
#       7
#     2   2   2   2   2   2   2
#     4  10  23  45  66 101 142 191 249 298 374 451
#     4  10  23  42  68 100 141 190 239 301 373 453
#     4  11  24  45  72 108 149 197 250 322 375 449
#     4  12  29  50  76 110 151 204 258 317 379 450
#     4  11  23  40  67 110 145 188 249 308 386 447
#     4  10  23  42  69  98 142 195 241 302 372 455
#     4  10  22  42  67  97 139 188 236 293 360 433
#
# _framework density 26.054722999999999
#
# number of rings (size 3 to 8) (size 9 to 14) (size 15 to 20)
#    0.000    1.429    1.429    2.143    4.000    6.857 
#    2.571    0.000    0.000    0.000    0.000    0.000 
#    0.000    0.000    0.000    0.000    0.000    0.000 
#
# Total GULP energy -77949.802412 kJ/mol
# GULP energy per Si atom -5567.843029 kJ/mol
# Density = 2.599542 g / cm^3
# Si number density = 26.054723 Si / 1000 Ang^3
#
#
#
# Elastic Constant Matrix: (Units=GPa)
#
#
# Indices 1 2 3 4 5 6 
#
# 1 147.0964 68.7718 30.3338 -29.3640 -11.1943 -17.2791
# 2 68.7718 179.0531 27.6402 -40.1938 8.8847 -22.4339
# 3 30.3338 27.6402 64.4219 -17.0331 -1.0285 -5.9838
# 4 -29.3640 -40.1938 -17.0331 41.1913 -2.7992 18.5006
# 5 -11.1943 8.8847 -1.0285 -2.7992 33.8397 -9.6587
# 6 -17.2791 -22.4339 -5.9838 18.5006 -9.6587 63.2874
#
#
#
# Elastic Compliance Matrix: (Units=1/GPa)
#
#
# Indices 1 2 3 4 5 6 
#
# 1 0.009646 -0.002735 -0.002400 0.002956 0.004437 0.001251
# 2 -0.002735 0.008115 -0.000792 0.005433 -0.002589 0.000072
# 3 -0.002400 -0.000792 0.018371 0.005471 0.000206 -0.000767
# 4 0.002956 0.005433 0.005471 0.037398 0.000646 -0.007584
# 5 0.004437 -0.002589 0.000206 0.000646 0.033242 0.005197
# 6 0.001251 0.000072 -0.000767 -0.007584 0.005197 0.019105
#
#
# Mechanical properties :
#
#
# Convention : Reuss Voigt Hill
#
# Bulk Modulus (GPa) = 41.18930 71.56255 56.37592
# Shear Modulus (GPa) = 34.28781 45.25204 39.76992
#
# Velocity S-wave (km/s) = 3.63160 4.17202 3.91116
# Velocity P-wave (km/s) = 5.78167 7.12275 6.48696
#
# Compressibility (1/GPa) = 0.02427815
#
# Stress axis : x y z
#
# Youngs Moduli (GPa) = 103.66625 123.23516 54.43234
#
# Poissons Ratio (x) = 0.33699 0.13066
# Poissons Ratio (y) = 0.28348 0.04312
# Poissons Ratio (z) = 0.24884 0.09762
#
# Static dielectric constant tensor:
#      x y z
#    x 2.389410 -0.178590 0.294060 
#    y -0.178590 2.219430 -0.049740 
#    z 0.294060 -0.049740 2.197710 
# 
# From -- ./inp_files/93969.got.cif
#   From: 2010.05.17/outbox.cif.g08.bks.cpg/sg2_47_cif.got.tgz:93969.got - 2010.06.03 11:33:40.
