data_PCOD9029809
_publ_section_title
;
Structure prediction by ZEFSAII (Michael W. Deem and Ramdas Pophale) SiO2 
 PCOD9029809
Probable space group: P -1
;
_chemical_formula_sum "Si O2"
_cell_formula_units_Z 16
_cell_length_a 17.744639
_cell_length_b 9.026719
_cell_length_c 10.054618
_cell_angle_alpha 103.383138
_cell_angle_beta 120.190059
_cell_angle_gamma 36.236925
_cell_volume 773.614597
_symmetry_space_group_name_H-M "P -1"
_symmetry_group_IT_number 2
_symmetry_cell_setting 'triclinic'
loop_
_space_group_symop_operation_xyz
x,y,z
-x,-y,-z
loop_
_atom_site_type_symbol
_atom_site_label
_atom_site_fract_x
_atom_site_fract_y
_atom_site_fract_z
Si Si1 0.817667 0.826348 0.821481
Si Si2 0.602592 0.756613 0.795139
Si Si3 0.649175 0.622005 0.344667
Si Si4 0.574628 0.596508 0.995770
Si Si5 0.937401 0.351891 0.685430
Si Si6 0.734759 0.061749 0.072332
Si Si7 0.951155 0.233759 0.956071
Si Si8 0.485460 0.358110 0.529422
O O1 0.889530 0.574937 0.766315
O O2 0.657963 0.072892 0.659517
O O3 0.928454 0.811655 0.901197
O O4 0.781118 0.879775 0.957991
O O5 0.783018 0.526504 0.911282
O O6 0.578794 0.667680 0.639768
O O7 0.492334 0.055118 0.721746
O O8 0.563930 0.730899 0.894879
O O9 0.658627 0.543162 0.188655
O O10 0.803426 0.487264 0.498699
O O11 0.608193 0.545879 0.397792
O O12 0.667323 0.308273 0.987995
O O13 0.404049 0.797946 0.933037
O O14 0.950397 0.219139 0.792898
O O15 0.112157 0.122367 0.746236
O O16 0.000000 0.000000 0.000000
O O17 0.500000 0.500000 0.500000
#
# Coordination Sequence:
#
# PCOD9029809 Si02
#       8
#     2   2   2   2   2   2   2   2
#     4  11  22  41  68 101 129 169 223 281 337 381
#     4  12  24  43  66 101 135 175 229 272 332 399
#     4  12  25  44  66  99 135 179 223 272 336 398
#     4  11  25  43  67  96 139 185 219 263 335 414
#     4  11  23  43  68  98 130 176 222 281 336 382
#     4  10  22  42  68  95 134 177 225 269 332 397
#     4  11  22  37  65 100 133 164 221 288 330 379
#     4  12  23  40  69 100 133 170 225 282 329 391
#
# _framework density 20.682134000000001
#
# number of rings (size 3 to 8) (size 9 to 14) (size 15 to 20)
#    0.000    0.750    3.750    6.000    3.500    0.500 
#    0.000    1.875    0.000    0.000    0.000    0.000 
#    0.000    0.000    0.000    0.000    0.000    0.000 
#
# Total GULP energy -89390.020299 kJ/mol
# GULP energy per Si atom -5586.876269 kJ/mol
# Density = 2.063506 g / cm^3
# Si number density = 20.682134 Si / 1000 Ang^3
#
#
#
# Elastic Constant Matrix: (Units=GPa)
#
#
# Indices 1 2 3 4 5 6 
#
# 1 108.5947 25.8407 55.8880 -18.5619 15.6435 -9.5145
# 2 25.8407 51.2606 31.9085 -18.4681 24.6117 -7.1173
# 3 55.8880 31.9085 110.8933 -14.4897 10.0670 -5.3769
# 4 -18.5619 -18.4681 -14.4897 24.5359 -10.7242 9.7538
# 5 15.6435 24.6117 10.0670 -10.7242 39.3934 -10.4992
# 6 -9.5145 -7.1173 -5.3769 9.7538 -10.4992 32.7446
#
#
#
# Elastic Compliance Matrix: (Units=1/GPa)
#
#
# Indices 1 2 3 4 5 6 
#
# 1 0.013556 -0.000050 -0.005864 0.005560 -0.002177 0.000611
# 2 -0.000050 0.039172 -0.007321 0.018664 -0.018630 -0.004236
# 3 -0.005864 -0.007321 0.013727 -0.000455 0.003313 0.000157
# 4 0.005560 0.018664 -0.000455 0.064151 0.000121 -0.013473
# 5 -0.002177 -0.018630 0.003313 0.000121 0.039323 0.008435
# 6 0.000611 -0.004236 0.000157 -0.013473 0.008435 0.036540
#
#
# Mechanical properties :
#
#
# Convention : Reuss Voigt Hill
#
# Bulk Modulus (GPa) = 25.01009 55.33587 40.17298
# Shear Modulus (GPa) = 20.30312 29.80887 25.05600
#
# Velocity S-wave (km/s) = 3.13657 3.80055 3.48441
# Velocity P-wave (km/s) = 5.02357 6.78766 5.97112
#
# Compressibility (1/GPa) = 0.03998386
#
# Stress axis : x y z
#
# Youngs Moduli (GPa) = 73.76972 25.52848 72.84969
#
# Poissons Ratio (x) = 0.00129 0.42716
# Poissons Ratio (y) = 0.00372 0.53336
# Poissons Ratio (z) = 0.43255 0.18690
#
# Static dielectric constant tensor:
#      x y z
#    x 1.800110 0.022260 -0.013100 
#    y 0.022260 1.773140 -0.020970 
#    z -0.013100 -0.020970 1.748330 
# 
# From -- ./inp_files/329192.got.cif
#   From: 2010.05.17/outbox.cif.g08.bks.cpg/sg2_165_cif.got.tgz:329192.got - 2010.06.03 11:33:40.
