data_PCOD9029107
_publ_section_title
;
Structure prediction by ZEFSAII (Michael W. Deem and Ramdas Pophale) SiO2 
 PCOD9029107
Probable space group: P -1
;
_chemical_formula_sum "Si O2"
_cell_formula_units_Z 16
_cell_length_a 8.593915
_cell_length_b 19.223575
_cell_length_c 5.883577
_cell_angle_alpha 60.364204
_cell_angle_beta 127.959252
_cell_angle_gamma 120.710688
_cell_volume 635.146429
_symmetry_space_group_name_H-M "P -1"
_symmetry_group_IT_number 2
_symmetry_cell_setting 'triclinic'
loop_
_space_group_symop_operation_xyz
x,y,z
-x,-y,-z
loop_
_atom_site_type_symbol
_atom_site_label
_atom_site_fract_x
_atom_site_fract_y
_atom_site_fract_z
Si Si1 0.501040 0.593419 0.275745
Si Si2 0.152578 0.157644 0.347805
Si Si3 0.151157 0.961746 0.063409
Si Si4 0.840195 0.512640 0.145797
Si Si5 0.137064 0.816496 0.605121
Si Si6 0.483570 0.086641 0.938874
Si Si7 0.830600 0.343178 0.927729
Si Si8 0.152358 0.331778 0.867988
O O1 0.500000 0.500000 0.500000
O O2 0.393395 0.641566 0.281481
O O3 0.727476 0.644624 0.304022
O O4 0.327936 0.570128 0.956447
O O5 0.356992 0.130366 0.596457
O O6 0.078262 0.177987 0.496367
O O7 0.183196 0.242684 0.098677
O O8 0.973513 0.079079 0.209281
O O9 0.196091 0.882004 0.348787
O O10 0.343843 0.045256 0.092735
O O11 0.000000 0.000000 0.000000
O O12 0.735070 0.580877 0.039373
O O13 0.000000 0.500000 0.500000
O O14 0.995890 0.568862 0.009387
O O15 0.303681 0.851291 0.895954
O O16 0.147120 0.722584 0.753695
O O17 0.500000 0.000000 0.000000
O O18 0.921979 0.320007 0.802502
#
# Coordination Sequence:
#
# PCOD9029107 Si02
#       8
#     2   2   2   2   2   2   2   2
#     4  12  24  40  70 101 128 173 228 273 326 400
#     4  11  24  47  64  97 141 173 215 283 337 392
#     4  12  24  41  71  96 131 175 222 273 331 398
#     4  10  22  42  66  92 131 173 214 268 333 386
#     4  11  24  46  65  98 136 176 219 277 335 400
#     4  12  24  41  71  96 129 175 222 270 333 397
#     4   9  24  44  65  98 135 176 218 276 335 398
#     4   9  24  44  66  97 135 179 213 279 338 390
#
# _framework density 25.191039
#
# number of rings (size 3 to 8) (size 9 to 14) (size 15 to 20)
#    0.750    0.500    2.500    3.000    0.000    6.000 
#    0.000    0.000    0.000    0.000    0.000    0.000 
#    0.000    0.000    0.000    0.000    0.000    0.000 
#
# Total GULP energy -89142.541914 kJ/mol
# GULP energy per Si atom -5571.408870 kJ/mol
# Density = 2.513370 g / cm^3
# Si number density = 25.191039 Si / 1000 Ang^3
#
#
#
# Elastic Constant Matrix: (Units=GPa)
#
#
# Indices 1 2 3 4 5 6 
#
# 1 155.9477 20.3909 25.0931 -20.3736 15.8598 -1.4980
# 2 20.3909 104.8273 44.5844 -20.3278 8.8517 -6.9054
# 3 25.0931 44.5844 105.8972 -29.5175 25.3328 -4.6221
# 4 -20.3736 -20.3278 -29.5175 59.3875 0.7645 1.1763
# 5 15.8598 8.8517 25.3328 0.7645 27.2146 -13.7572
# 6 -1.4980 -6.9054 -4.6221 1.1763 -13.7572 33.1369
#
#
#
# Elastic Compliance Matrix: (Units=1/GPa)
#
#
# Indices 1 2 3 4 5 6 
#
# 1 0.007339 -0.000846 0.000662 0.002677 -0.005841 -0.002272
# 2 -0.000846 0.012050 -0.005041 0.001238 0.002663 0.002831
# 3 0.000662 -0.005041 0.017786 0.007717 -0.018882 -0.006653
# 4 0.002677 0.001238 0.007717 0.022255 -0.011941 -0.004292
# 5 -0.005841 0.002663 -0.018882 -0.011941 0.071159 0.027624
# 6 -0.002272 0.002831 -0.006653 -0.004292 0.027624 0.041358
#
#
# Mechanical properties :
#
#
# Convention : Reuss Voigt Hill
#
# Bulk Modulus (GPa) = 37.41967 60.75655 49.08811
# Shear Modulus (GPa) = 26.13626 42.38805 34.26216
#
# Velocity S-wave (km/s) = 3.22455 4.10648 3.69194
# Velocity P-wave (km/s) = 5.36193 6.83044 6.14024
#
# Compressibility (1/GPa) = 0.02672392
#
# Stress axis : x y z
#
# Youngs Moduli (GPa) = 136.26665 82.98846 56.22351
#
# Poissons Ratio (x) = 0.07023 -0.03721
# Poissons Ratio (y) = 0.11532 0.28341
# Poissons Ratio (z) = -0.09017 0.41833
#
# Static dielectric constant tensor:
#      x y z
#    x 1.953690 -0.059270 -0.122850 
#    y -0.059270 1.887760 0.048060 
#    z -0.122850 0.048060 2.011660 
# 
# From -- ./inp_files/55321.got.cif
#   From: 2010.05.17/outbox.cif.g08.bks.cpg/sg2_28_cif.got.tgz:55321.got - 2010.06.03 11:33:40.
