data_PCOD9029608
_publ_section_title
;
Structure prediction by ZEFSAII (Michael W. Deem and Ramdas Pophale) SiO2 
 PCOD9029608
Probable space group: P -1
;
_chemical_formula_sum "Si O2"
_cell_formula_units_Z 16
_cell_length_a 15.006469
_cell_length_b 7.668062
_cell_length_c 8.232141
_cell_angle_alpha 128.184904
_cell_angle_beta 81.735709
_cell_angle_gamma 110.157605
_cell_volume 695.882579
_symmetry_space_group_name_H-M "P -1"
_symmetry_group_IT_number 2
_symmetry_cell_setting 'triclinic'
loop_
_space_group_symop_operation_xyz
x,y,z
-x,-y,-z
loop_
_atom_site_type_symbol
_atom_site_label
_atom_site_fract_x
_atom_site_fract_y
_atom_site_fract_z
Si Si1 0.524187 0.139923 0.848032
Si Si2 0.894150 0.345246 0.889116
Si Si3 0.065481 0.741729 0.536544
Si Si4 0.589533 0.406176 0.430764
Si Si5 0.711549 0.289345 0.077519
Si Si6 0.227968 0.073851 0.917887
Si Si7 0.075780 0.072895 0.171234
Si Si8 0.403983 0.431068 0.146069
O O1 0.541295 0.310285 0.786453
O O2 0.456425 0.875224 0.695457
O O3 0.626745 0.153914 0.899032
O O4 0.474404 0.278807 0.060491
O O5 0.896845 0.308840 0.675271
O O6 0.885616 0.112547 0.857542
O O7 0.807526 0.420704 0.027039
O O8 0.000000 0.500000 0.000000
O O9 0.154681 0.905527 0.712031
O O10 0.000000 0.500000 0.500000
O O11 0.983341 0.861383 0.630897
O O12 0.500000 0.500000 0.500000
O O13 0.665654 0.447010 0.289607
O O14 0.640873 0.532544 0.652227
O O15 0.733964 0.103862 0.087505
O O16 0.168405 0.205552 0.116245
O O17 0.322913 0.279065 0.956195
O O18 0.000000 0.000000 0.000000
#
# Coordination Sequence:
#
# PCOD9029608 Si02
#       8
#     2   2   2   2   2   2   2   2
#     4  11  24  45  66 102 145 179 241 303 353 432
#     4  11  24  43  69 101 140 181 232 303 355 425
#     4  11  23  43  70 100 140 188 238 292 365 432
#     4  12  23  43  74  98 136 194 238 294 364 427
#     4  11  23  43  67  99 140 182 242 290 356 435
#     4  10  22  42  67  99 137 184 236 292 358 430
#     4   9  20  40  66  96 134 177 228 285 344 425
#     4  11  24  43  69 100 143 182 233 304 358 426
#
# _framework density 22.992384999999999
#
# number of rings (size 3 to 8) (size 9 to 14) (size 15 to 20)
#    0.000    1.250    2.500    4.125    0.000    6.000 
#    4.500    3.750    0.000    0.000    0.000    0.000 
#    0.000    0.000    0.000    0.000    0.000    0.000 
#
# Total GULP energy -89171.677497 kJ/mol
# GULP energy per Si atom -5573.229844 kJ/mol
# Density = 2.294005 g / cm^3
# Si number density = 22.992385 Si / 1000 Ang^3
#
#
#
# Elastic Constant Matrix: (Units=GPa)
#
#
# Indices 1 2 3 4 5 6 
#
# 1 147.1790 32.8378 66.2918 -6.7233 -10.1974 28.4058
# 2 32.8378 71.3450 39.5609 -7.6036 -9.2382 16.6206
# 3 66.2918 39.5609 118.9714 -20.2700 -8.5178 20.0052
# 4 -6.7233 -7.6036 -20.2700 29.0271 10.1214 -11.1229
# 5 -10.1974 -9.2382 -8.5178 10.1214 45.5329 -0.4170
# 6 28.4058 16.6206 20.0052 -11.1229 -0.4170 41.5290
#
#
#
# Elastic Compliance Matrix: (Units=1/GPa)
#
#
# Indices 1 2 3 4 5 6 
#
# 1 0.010259 -0.000828 -0.005109 -0.004161 0.002050 -0.005318
# 2 -0.000828 0.018476 -0.004941 -0.001707 0.002974 -0.004876
# 3 -0.005109 -0.004941 0.014037 0.008118 -0.001317 0.000871
# 4 -0.004161 -0.001707 0.008118 0.046839 -0.010061 0.012063
# 5 0.002050 0.002974 -0.001317 -0.010061 0.024974 -0.004402
# 6 -0.005318 -0.004876 0.000871 0.012063 -0.004402 0.032436
#
#
# Mechanical properties :
#
#
# Convention : Reuss Voigt Hill
#
# Bulk Modulus (GPa) = 47.57954 68.31960 57.94957
# Shear Modulus (GPa) = 28.44447 36.47147 32.45797
#
# Velocity S-wave (km/s) = 3.52110 3.98709 3.76131
# Velocity P-wave (km/s) = 6.10486 7.13963 6.64243
#
# Compressibility (1/GPa) = 0.02101744
#
# Stress axis : x y z
#
# Youngs Moduli (GPa) = 97.47850 54.12452 71.23899
#
# Poissons Ratio (x) = 0.04481 0.36394
# Poissons Ratio (y) = 0.08070 0.35196
# Poissons Ratio (z) = 0.49800 0.26740
#
# Static dielectric constant tensor:
#      x y z
#    x 2.148430 -0.084760 -0.361990 
#    y -0.084760 1.951620 0.108940 
#    z -0.361990 0.108940 2.397810 
# 
# From -- ./inp_files/299835.got.cif
#   From: 2010.05.17/outbox.cif.g08.bks.cpg/sg2_150_cif.got.tgz:299835.got - 2010.06.03 11:33:40.
