data_PCOD9029671
_publ_section_title
;
Structure prediction by ZEFSAII (Michael W. Deem and Ramdas Pophale) SiO2 
 PCOD9029671
Probable space group: P -1
;
_chemical_formula_sum "Si O2"
_cell_formula_units_Z 14
_cell_length_a 18.810462
_cell_length_b 8.277337
_cell_length_c 12.960997
_cell_angle_alpha 49.626655
_cell_angle_beta 152.928867
_cell_angle_gamma 142.166090
_cell_volume 552.077359
_symmetry_space_group_name_H-M "P -1"
_symmetry_group_IT_number 2
_symmetry_cell_setting 'triclinic'
loop_
_space_group_symop_operation_xyz
x,y,z
-x,-y,-z
loop_
_atom_site_type_symbol
_atom_site_label
_atom_site_fract_x
_atom_site_fract_y
_atom_site_fract_z
Si Si1 0.772290 0.379888 0.257991
Si Si2 0.908413 0.165683 0.915314
Si Si3 0.434650 0.359121 0.363506
Si Si4 0.280636 0.738045 0.184216
Si Si5 0.780589 0.130102 0.174796
Si Si6 0.777238 0.382432 0.482787
Si Si7 0.470059 0.456113 0.813035
O O1 0.706303 0.233261 0.123662
O O2 0.704108 0.229933 0.341967
O O3 0.000000 0.500000 0.500000
O O4 0.689533 0.551735 0.085120
O O5 0.804241 0.164712 0.884943
O O6 0.860705 0.279182 0.711022
O O7 0.801619 0.855858 0.875973
O O8 0.136489 0.409263 0.132330
O O9 0.500000 0.500000 0.500000
O O10 0.513997 0.183789 0.543782
O O11 0.535770 0.548711 0.316442
O O12 0.277066 0.834195 0.026831
O O13 0.021141 0.316026 0.407639
O O14 0.676921 0.829684 0.202437
O O15 0.607501 0.383282 0.314162
#
# Coordination Sequence:
#
# PCOD9029671 Si02
#       7
#     2   2   2   2   2   2   2
#     4  10  23  42  63  95 139 182 222 283 354 412
#     4  10  23  44  71  98 137 191 230 280 355 415
#     4  12  27  43  69 105 144 180 237 291 350 424
#     4  10  22  46  70  95 138 186 231 282 348 421
#     4  10  23  42  69  99 139 181 230 285 357 416
#     4  10  22  42  68 103 135 181 235 291 344 417
#     4  12  24  41  66 106 135 180 237 287 351 414
#
# _framework density 25.358764000000001
#
# number of rings (size 3 to 8) (size 9 to 14) (size 15 to 20)
#    0.000    1.429    1.429    2.571    4.000    1.714 
#    5.143    0.000    0.000    0.000    0.000    0.000 
#    0.000    0.000    0.000    0.000    0.000    0.000 
#
# Total GULP energy -78241.588662 kJ/mol
# GULP energy per Si atom -5588.684904 kJ/mol
# Density = 2.530105 g / cm^3
# Si number density = 25.358764 Si / 1000 Ang^3
#
#
#
# Elastic Constant Matrix: (Units=GPa)
#
#
# Indices 1 2 3 4 5 6 
#
# 1 164.5185 16.6003 48.9949 -3.0802 -28.0762 18.9816
# 2 16.6003 84.7343 10.8902 22.3773 -3.8744 23.7441
# 3 48.9949 10.8902 113.9138 1.8380 -3.8859 17.2579
# 4 -3.0802 22.3773 1.8380 44.9479 7.1627 0.6391
# 5 -28.0762 -3.8744 -3.8859 7.1627 63.0818 -9.7661
# 6 18.9816 23.7441 17.2579 0.6391 -9.7661 33.7295
#
#
#
# Elastic Compliance Matrix: (Units=1/GPa)
#
#
# Indices 1 2 3 4 5 6 
#
# 1 0.007703 -0.000733 -0.002927 0.000570 0.002908 -0.001490
# 2 -0.000733 0.017529 0.000609 -0.008612 -0.000109 -0.012107
# 3 -0.002927 0.000609 0.010641 -0.000676 -0.001241 -0.004572
# 4 0.000570 -0.008612 -0.000676 0.026953 -0.002632 0.004815
# 5 0.002908 -0.000109 -0.001241 -0.002632 0.018035 0.004347
# 6 -0.001490 -0.012107 -0.004572 0.004815 0.004347 0.042516
#
#
# Mechanical properties :
#
#
# Convention : Reuss Voigt Hill
#
# Bulk Modulus (GPa) = 33.59093 57.34859 45.46976
# Shear Modulus (GPa) = 35.86732 47.46393 41.66563
#
# Velocity S-wave (km/s) = 3.76493 4.33101 4.05785
# Velocity P-wave (km/s) = 5.67226 6.90465 6.31857
#
# Compressibility (1/GPa) = 0.02976994
#
# Stress axis : x y z
#
# Youngs Moduli (GPa) = 129.82217 57.04834 93.97932
#
# Poissons Ratio (x) = 0.04181 0.27510
# Poissons Ratio (y) = 0.09516 -0.05723
# Poissons Ratio (z) = 0.38002 -0.03474
#
# Static dielectric constant tensor:
#      x y z
#    x 2.003730 -0.002060 0.022140 
#    y -0.002060 2.139120 0.073510 
#    z 0.022140 0.073510 1.989710 
# 
# From -- ./inp_files/461960.got.cif
#   From: 2010.05.17/outbox.cif.g08.bks.cpg/sg2_231_cif.got.tgz:461960.got - 2010.06.03 11:33:40.
