data_PCOD9029776
_publ_section_title
;
Structure prediction by ZEFSAII (Michael W. Deem and Ramdas Pophale) SiO2 
 PCOD9029776
Probable space group: P -1
;
_chemical_formula_sum "Si O2"
_cell_formula_units_Z 16
_cell_length_a 13.640863
_cell_length_b 9.285168
_cell_length_c 7.587237
_cell_angle_alpha 115.566277
_cell_angle_beta 135.216030
_cell_angle_gamma 69.441566
_cell_volume 609.144128
_symmetry_space_group_name_H-M "P -1"
_symmetry_group_IT_number 2
_symmetry_cell_setting 'triclinic'
loop_
_space_group_symop_operation_xyz
x,y,z
-x,-y,-z
loop_
_atom_site_type_symbol
_atom_site_label
_atom_site_fract_x
_atom_site_fract_y
_atom_site_fract_z
Si Si1 0.701883 0.524325 0.381589
Si Si2 0.770403 0.967869 0.485908
Si Si3 0.301940 0.044141 0.203515
Si Si4 0.409894 0.729972 0.640107
Si Si5 0.723672 0.624747 0.083336
Si Si6 0.004346 0.529570 0.307880
Si Si7 0.008981 0.138734 0.723949
Si Si8 0.451989 0.750074 0.324933
O O1 0.671185 0.375230 0.382882
O O2 0.702331 0.509403 0.162906
O O3 0.567853 0.643513 0.312788
O O4 0.860414 0.577275 0.645803
O O5 0.731476 0.942295 0.624695
O O6 0.646665 0.085887 0.308366
O O7 0.903303 0.077577 0.704169
O O8 0.784210 0.792513 0.320487
O O9 0.339788 0.855178 0.122378
O O10 0.443891 0.125497 0.388259
O O11 0.169347 0.124977 0.980130
O O12 0.384683 0.682536 0.378443
O O13 0.572693 0.683032 0.852987
O O14 0.839841 0.534441 0.059412
O O15 0.035513 0.698870 0.349447
O O16 0.000000 0.500000 0.500000
O O17 0.000000 0.000000 0.500000
#
# Coordination Sequence:
#
# PCOD9029776 Si02
#       8
#     2   2   2   2   2   2   2   2
#     4  11  22  43  65  91 135 174 217 272 332 390
#     4  11  22  41  66  95 134 173 219 269 325 393
#     4  10  23  43  65  98 132 170 220 272 325 390
#     4  11  23  39  66 100 132 167 227 273 323 390
#     4  11  22  41  65  96 130 180 216 270 326 386
#     4  10  23  43  65  92 136 169 212 273 325 388
#     4  12  23  41  70  98 129 172 222 273 321 388
#     4  10  22  42  68  94 132 173 217 273 330 390
#
# _framework density 26.266362000000001
#
# number of rings (size 3 to 8) (size 9 to 14) (size 15 to 20)
#    0.000    1.250    3.750    2.250    0.000    1.000 
#    4.500    2.500    2.750    0.000    0.000    0.000 
#    0.000    0.000    0.000    0.000    0.000    0.000 
#
# Total GULP energy -89408.266653 kJ/mol
# GULP energy per Si atom -5588.016666 kJ/mol
# Density = 2.620658 g / cm^3
# Si number density = 26.266362 Si / 1000 Ang^3
#
#
#
# Elastic Constant Matrix: (Units=GPa)
#
#
# Indices 1 2 3 4 5 6 
#
# 1 137.2091 38.9743 32.6564 -13.5640 20.6089 13.6930
# 2 38.9743 106.0085 28.2905 -23.5453 7.4890 13.0356
# 3 32.6564 28.2905 63.9676 -23.2036 28.3835 -5.7343
# 4 -13.5640 -23.5453 -23.2036 36.3392 -2.6578 3.6232
# 5 20.6089 7.4890 28.3835 -2.6578 49.8835 -14.3260
# 6 13.6930 13.0356 -5.7343 3.6232 -14.3260 55.5795
#
#
#
# Elastic Compliance Matrix: (Units=1/GPa)
#
#
# Indices 1 2 3 4 5 6 
#
# 1 0.009249 -0.002033 -0.002647 0.000523 -0.002795 -0.002830
# 2 -0.002033 0.012613 -0.002518 0.006106 -0.000205 -0.003168
# 3 -0.002647 -0.002518 0.030545 0.015826 -0.015226 -0.000562
# 4 0.000523 0.006106 0.015826 0.041594 -0.009374 -0.005056
# 5 -0.002795 -0.000205 -0.015226 -0.009374 0.031677 0.007942
# 6 -0.002830 -0.003168 -0.000562 -0.005056 0.007942 0.021751
#
#
# Mechanical properties :
#
#
# Convention : Reuss Voigt Hill
#
# Bulk Modulus (GPa) = 26.30790 56.33641 41.32215
# Shear Modulus (GPa) = 28.65400 42.17804 35.41602
#
# Velocity S-wave (km/s) = 3.30646 4.01157 3.67596
# Velocity P-wave (km/s) = 4.96130 6.55375 5.81232
#
# Compressibility (1/GPa) = 0.03801140
#
# Stress axis : x y z
#
# Youngs Moduli (GPa) = 108.11575 79.28331 32.73906
#
# Poissons Ratio (x) = 0.16115 0.08665
# Poissons Ratio (y) = 0.21976 0.08245
# Poissons Ratio (z) = 0.28615 0.19967
#
# Static dielectric constant tensor:
#      x y z
#    x 2.197510 -0.001160 0.120670 
#    y -0.001160 2.123990 0.062300 
#    z 0.120670 0.062300 2.282480 
# 
# From -- ./inp_files/184154.got.cif
#   From: 2010.05.17/outbox.cif.g08.bks.cpg/sg2_93_cif.got.tgz:184154.got - 2010.06.03 11:33:40.
