data_PCOD9029834
_publ_section_title
;
Structure prediction by ZEFSAII (Michael W. Deem and Ramdas Pophale) SiO2 
 PCOD9029834
Probable space group: P -1
;
_chemical_formula_sum "Si O2"
_cell_formula_units_Z 16
_cell_length_a 16.186561
_cell_length_b 8.192435
_cell_length_c 8.451379
_cell_angle_alpha 80.372270
_cell_angle_beta 105.191412
_cell_angle_gamma 45.443836
_cell_volume 662.654760
_symmetry_space_group_name_H-M "P -1"
_symmetry_group_IT_number 2
_symmetry_cell_setting 'triclinic'
loop_
_space_group_symop_operation_xyz
x,y,z
-x,-y,-z
loop_
_atom_site_type_symbol
_atom_site_label
_atom_site_fract_x
_atom_site_fract_y
_atom_site_fract_z
Si Si1 0.887617 0.431453 0.111979
Si Si2 0.906752 0.345751 0.768786
Si Si3 0.603094 0.057788 0.183174
Si Si4 0.845177 0.114416 0.581987
Si Si5 0.669782 0.589518 0.174445
Si Si6 0.353961 0.783642 0.318025
Si Si7 0.817067 0.904551 0.108335
Si Si8 0.616928 0.956861 0.539727
O O1 0.751726 0.534875 0.072500
O O2 0.866817 0.657841 0.090237
O O3 0.930618 0.324991 0.972229
O O4 0.006827 0.188548 0.329943
O O5 0.871139 0.220214 0.705693
O O6 0.045193 0.200240 0.778134
O O7 0.768342 0.661166 0.622671
O O8 0.571113 0.133797 0.337506
O O9 0.636714 0.809789 0.217661
O O10 0.730140 0.975617 0.203009
O O11 0.470800 0.283938 0.969725
O O12 0.763434 0.323868 0.364955
O O13 0.755616 0.111471 0.624648
O O14 0.500000 0.500000 0.500000
O O15 0.369942 0.956832 0.309686
O O16 0.288019 0.844670 0.105267
O O17 0.500000 0.000000 0.500000
#
# Coordination Sequence:
#
# PCOD9029834 Si02
#       8
#     2   2   2   2   2   2   2   2
#     4  11  22  41  68  98 133 176 223 276 329 392
#     4  12  23  43  69 100 137 176 228 272 327 404
#     4  10  23  44  69  96 132 176 225 279 326 400
#     4  12  24  43  65 102 138 175 223 276 335 392
#     4  10  22  42  68  96 133 177 224 272 338 393
#     4  12  26  44  69  99 138 172 222 280 333 399
#     4  11  24  45  68  98 136 181 222 273 337 394
#     4  12  25  45  72 101 130 175 230 273 332 402
#
# _framework density 24.145302000000001
#
# number of rings (size 3 to 8) (size 9 to 14) (size 15 to 20)
#    0.000    0.750    3.750    4.125    3.500    0.500 
#    4.500    1.250    0.000    0.000    0.000    0.000 
#    0.000    0.000    0.000    0.000    0.000    0.000 
#
# Total GULP energy -89606.370830 kJ/mol
# GULP energy per Si atom -5600.398177 kJ/mol
# Density = 2.409035 g / cm^3
# Si number density = 24.145302 Si / 1000 Ang^3
#
#
#
# Elastic Constant Matrix: (Units=GPa)
#
#
# Indices 1 2 3 4 5 6 
#
# 1 109.2718 3.3638 15.6470 6.2018 20.8966 -18.0073
# 2 3.3638 42.3585 21.9464 -15.9309 9.5554 -3.1577
# 3 15.6470 21.9464 114.7816 -22.7519 2.6932 -2.7294
# 4 6.2018 -15.9309 -22.7519 38.9400 -7.0428 -3.0891
# 5 20.8966 9.5554 2.6932 -7.0428 35.4113 -4.6506
# 6 -18.0073 -3.1577 -2.7294 -3.0891 -4.6506 32.5490
#
#
#
# Elastic Compliance Matrix: (Units=1/GPa)
#
#
# Indices 1 2 3 4 5 6 
#
# 1 0.011856 0.000783 -0.002222 -0.003751 -0.007118 0.005076
# 2 0.000783 0.030688 -0.003920 0.009263 -0.006199 0.003075
# 3 -0.002222 -0.003920 0.010810 0.005568 0.002681 0.000209
# 4 -0.003751 0.009263 0.005568 0.034810 0.006680 0.003549
# 5 -0.007118 -0.006199 0.002681 0.006680 0.035419 0.001380
# 6 0.005076 0.003075 0.000209 0.003549 0.001380 0.034381
#
#
# Mechanical properties :
#
#
# Convention : Reuss Voigt Hill
#
# Bulk Modulus (GPa) = 23.45348 38.70293 31.07820
# Shear Modulus (GPa) = 27.33836 36.41037 31.87437
#
# Velocity S-wave (km/s) = 3.36853 3.88747 3.63727
# Velocity P-wave (km/s) = 4.98637 6.01780 5.52620
#
# Compressibility (1/GPa) = 0.04263760
#
# Stress axis : x y z
#
# Youngs Moduli (GPa) = 84.34482 32.58607 92.50498
#
# Poissons Ratio (x) = -0.02552 0.20552
# Poissons Ratio (y) = -0.06604 0.36259
# Poissons Ratio (z) = 0.18739 0.12773
#
# Static dielectric constant tensor:
#      x y z
#    x 1.950980 0.036010 0.013590 
#    y 0.036010 1.946750 -0.017930 
#    z 0.013590 -0.017930 1.989730 
# 
# From -- ./inp_files/205285.got.cif
#   From: 2010.05.17/outbox.cif.g08.bks.cpg/sg2_103_cif.got.tgz:205285.got - 2010.06.03 11:33:40.
