data_PCOD9029026
_publ_section_title
;
Structure prediction by ZEFSAII (Michael W. Deem and Ramdas Pophale) SiO2 
 PCOD9029026
Probable space group: P -1
;
_chemical_formula_sum "Si O2"
_cell_formula_units_Z 15
_cell_length_a 9.415760
_cell_length_b 12.509912
_cell_length_c 17.947363
_cell_angle_alpha 33.176452
_cell_angle_beta 33.511791
_cell_angle_gamma 36.539278
_cell_volume 598.421806
_symmetry_space_group_name_H-M "P -1"
_symmetry_group_IT_number 2
_symmetry_cell_setting 'triclinic'
loop_
_space_group_symop_operation_xyz
x,y,z
-x,-y,-z
loop_
_atom_site_type_symbol
_atom_site_label
_atom_site_fract_x
_atom_site_fract_y
_atom_site_fract_z
Si Si1 0.205455 0.849335 0.056790
Si Si2 0.761220 0.632308 0.852744
Si Si3 0.386993 0.469128 0.285441
Si Si4 0.627644 0.415598 0.605830
Si Si5 0.828796 0.778913 0.047614
Si Si6 0.772989 0.815668 0.578770
Si Si7 0.000000 0.500000 0.000000
Si Si8 0.196529 0.816413 0.572001
O O1 0.487139 0.751333 0.945811
O O2 0.215157 0.991826 0.039814
O O3 0.165331 0.647055 0.227873
O O4 0.000000 0.000000 0.000000
O O5 0.730435 0.715157 0.734405
O O6 0.891028 0.383359 0.942698
O O7 0.000230 0.691430 0.758903
O O8 0.312769 0.522980 0.372392
O O9 0.381519 0.256890 0.375959
O O10 0.687742 0.485250 0.136135
O O11 0.425206 0.283901 0.775223
O O12 0.442399 0.643982 0.522143
O O13 0.904660 0.285888 0.520580
O O14 0.867677 0.719308 0.979205
O O15 0.702542 0.059927 0.482769
O O16 0.000000 0.000000 0.500000
#
# Coordination Sequence:
#
# PCOD9029026 Si02
#       8
#     2   2   2   2   2   2   1   2
#     4  12  26  42  68 105 134 176 230 277 341 401
#     4  10  22  42  66 101 135 174 226 275 344 397
#     4  11  25  44  66  97 139 179 225 277 335 405
#     4  10  23  44  64  99 132 176 225 275 339 397
#     4  10  22  43  70  95 137 178 221 285 324 407
#     4  11  23  41  68  95 138 174 219 288 330 400
#     4  10  22  44  66  92 130 182 224 260 338 392
#     4   9  21  40  67  96 127 174 223 270 333 403
#
# _framework density 25.065933000000001
#
# number of rings (size 3 to 8) (size 9 to 14) (size 15 to 20)
#    0.000    1.600    1.333    2.000    1.867   12.800 
#    7.200    0.000    0.000    0.000    0.000    0.000 
#    0.000    0.000    0.000    0.000    0.000    0.000 
#
# Total GULP energy -83723.350311 kJ/mol
# GULP energy per Si atom -5581.556687 kJ/mol
# Density = 2.500888 g / cm^3
# Si number density = 25.065933 Si / 1000 Ang^3
#
#
#
# Elastic Constant Matrix: (Units=GPa)
#
#
# Indices 1 2 3 4 5 6 
#
# 1 102.2875 8.6438 5.1632 -10.1174 0.5787 9.5318
# 2 8.6438 109.7930 31.9384 8.6776 -4.8398 19.3983
# 3 5.1632 31.9384 27.6877 6.9920 -5.8065 6.5238
# 4 -10.1174 8.6776 6.9920 48.5766 10.5080 -4.0185
# 5 0.5787 -4.8398 -5.8065 10.5080 34.7430 -10.0816
# 6 9.5318 19.3983 6.5238 -4.0185 -10.0816 57.4694
#
#
#
# Elastic Compliance Matrix: (Units=1/GPa)
#
#
# Indices 1 2 3 4 5 6 
#
# 1 0.010348 -0.000108 -0.002562 0.002831 -0.001915 -0.001527
# 2 -0.000108 0.014287 -0.015963 -0.000210 -0.001564 -0.003282
# 3 -0.002562 -0.015963 0.059232 -0.008422 0.010358 0.000317
# 4 0.002831 -0.000210 -0.008422 0.024355 -0.008634 0.000746
# 5 -0.001915 -0.001564 0.010358 -0.008634 0.034420 0.005104
# 6 -0.001527 -0.003282 0.000317 0.000746 0.005104 0.019673
#
#
# Mechanical properties :
#
#
# Convention : Reuss Voigt Hill
#
# Bulk Modulus (GPa) = 21.45792 36.80654 29.13223
# Shear Modulus (GPa) = 23.24337 41.09266 32.16802
#
# Velocity S-wave (km/s) = 3.04845 4.05332 3.58625
# Velocity P-wave (km/s) = 4.57929 6.05158 5.36617
#
# Compressibility (1/GPa) = 0.04660284
#
# Stress axis : x y z
#
# Youngs Moduli (GPa) = 96.63730 69.99140 16.88268
#
# Poissons Ratio (x) = 0.00754 0.04326
# Poissons Ratio (y) = 0.01041 0.26949
# Poissons Ratio (z) = 0.24760 1.11724
#
# Static dielectric constant tensor:
#      x y z
#    x 2.093840 -0.002390 0.066210 
#    y -0.002390 1.907870 0.020340 
#    z 0.066210 0.020340 2.111320 
# 
# From -- ./inp_files/75516.got.cif
#   From: 2010.05.17/outbox.cif.g08.bks.cpg/sg2_38_cif.got.tgz:75516.got - 2010.06.03 11:33:40.
