data_PCOD9029763
_publ_section_title
;
Structure prediction by ZEFSAII (Michael W. Deem and Ramdas Pophale) SiO2 
 PCOD9029763
Probable space group: P -1
;
_chemical_formula_sum "Si O2"
_cell_formula_units_Z 12
_cell_length_a 13.885101
_cell_length_b 5.512308
_cell_length_c 8.985567
_cell_angle_alpha 58.009547
_cell_angle_beta 115.662469
_cell_angle_gamma 82.291616
_cell_volume 462.504942
_symmetry_space_group_name_H-M "P -1"
_symmetry_group_IT_number 2
_symmetry_cell_setting 'triclinic'
loop_
_space_group_symop_operation_xyz
x,y,z
-x,-y,-z
loop_
_atom_site_type_symbol
_atom_site_label
_atom_site_fract_x
_atom_site_fract_y
_atom_site_fract_z
Si Si1 0.760692 0.537198 0.856624
Si Si2 0.573827 0.122925 0.625712
Si Si3 0.638421 0.815976 0.099283
Si Si4 0.643544 0.312413 0.105432
Si Si5 0.893251 0.309232 0.745280
Si Si6 0.021727 0.151354 0.317257
O O1 0.776096 0.415450 0.737802
O O2 0.702238 0.928084 0.690739
O O3 0.676779 0.427658 0.934110
O O4 0.890454 0.375386 0.077447
O O5 0.500000 0.500000 0.500000
O O6 0.500000 0.000000 0.500000
O O7 0.618465 0.960195 0.872385
O O8 0.695882 0.437510 0.230319
O O9 0.500000 0.000000 0.000000
O O10 0.696349 0.935584 0.226812
O O11 0.500000 0.500000 0.000000
O O12 0.925019 0.605397 0.685778
O O13 0.903753 0.150014 0.645029
O O14 0.000000 0.000000 0.000000
O O15 0.000000 0.000000 0.500000
#
# Coordination Sequence:
#
# PCOD9029763 Si02
#       6
#     2   2   2   2   2   2
#     4  10  22  42  68  93 134 181 216 279 345 392
#     4  11  23  38  58  89 124 168 219 260 309 389
#     4   9  18  35  55  76 113 160 204 255 303 353
#     4   9  18  33  57  87 118 165 212 251 309 383
#     4  10  22  42  70 101 134 175 225 283 350 415
#     4  11  24  44  70 104 134 169 228 290 347 418
#
# _framework density 25.945667
#
# number of rings (size 3 to 8) (size 9 to 14) (size 15 to 20)
#    0.000    2.000    0.000    4.500    0.000   12.000 
#    0.000   15.000    0.000    4.000    0.000    0.000 
#    0.000    0.000    0.000    0.000    0.000    0.000 
#
# Total GULP energy -66818.029903 kJ/mol
# GULP energy per Si atom -5568.169159 kJ/mol
# Density = 2.588661 g / cm^3
# Si number density = 25.945667 Si / 1000 Ang^3
#
#
#
# Elastic Constant Matrix: (Units=GPa)
#
#
# Indices 1 2 3 4 5 6 
#
# 1 125.7802 77.2231 39.6707 5.2836 -18.6188 -26.0001
# 2 77.2231 365.0312 66.3561 13.8561 -2.4868 -20.9211
# 3 39.6707 66.3561 101.4578 23.8809 17.9439 -2.3209
# 4 5.2836 13.8561 23.8809 21.6300 1.5995 -0.6616
# 5 -18.6188 -2.4868 17.9439 1.5995 38.3335 7.3322
# 6 -26.0001 -20.9211 -2.3209 -0.6616 7.3322 51.2279
#
#
#
# Elastic Compliance Matrix: (Units=1/GPa)
#
#
# Indices 1 2 3 4 5 6 
#
# 1 0.012789 -0.001383 -0.006472 0.004447 0.008099 0.004531
# 2 -0.001383 0.003375 -0.001710 0.000064 0.000237 0.000566
# 3 -0.006472 -0.001710 0.019826 -0.018418 -0.011444 -0.001685
# 4 0.004447 0.000064 -0.018418 0.064894 0.007855 0.001162
# 5 0.008099 0.000237 -0.011444 0.007855 0.035307 -0.001263
# 6 0.004531 0.000566 -0.001685 0.001162 -0.001263 0.022171
#
#
# Mechanical properties :
#
#
# Convention : Reuss Voigt Hill
#
# Bulk Modulus (GPa) = 59.31228 106.52989 82.92109
# Shear Modulus (GPa) = 27.30574 49.50624 38.40599
#
# Velocity S-wave (km/s) = 3.24762 4.37289 3.85157
# Velocity P-wave (km/s) = 6.08051 8.16359 7.19780
#
# Compressibility (1/GPa) = 0.01685991
#
# Stress axis : x y z
#
# Youngs Moduli (GPa) = 78.18942 296.33177 50.43884
#
# Poissons Ratio (x) = 0.40986 0.32642
# Poissons Ratio (y) = 0.10815 0.08627
# Poissons Ratio (z) = 0.50601 0.50683
#
# Static dielectric constant tensor:
#      x y z
#    x 2.261730 0.000770 -0.031700 
#    y 0.000770 2.568060 0.113100 
#    z -0.031700 0.113100 2.145910 
# 
# From -- ./inp_files/286188.got.cif
#   From: 2010.05.17/outbox.cif.g08.bks.cpg/sg2_144_cif.got.tgz:286188.got - 2010.06.03 11:33:40.
