data_PCOD9029392
_publ_section_title
;
Structure prediction by ZEFSAII (Michael W. Deem and Ramdas Pophale) SiO2 
 PCOD9029392
Probable space group: P -1
;
_chemical_formula_sum "Si O2"
_cell_formula_units_Z 14
_cell_length_a 7.604261
_cell_length_b 13.928233
_cell_length_c 12.271432
_cell_angle_alpha 35.826400
_cell_angle_beta 104.335278
_cell_angle_gamma 81.462820
_cell_volume 580.768592
_symmetry_space_group_name_H-M "P -1"
_symmetry_group_IT_number 2
_symmetry_cell_setting 'triclinic'
loop_
_space_group_symop_operation_xyz
x,y,z
-x,-y,-z
loop_
_atom_site_type_symbol
_atom_site_label
_atom_site_fract_x
_atom_site_fract_y
_atom_site_fract_z
Si Si1 0.921838 0.673658 0.615622
Si Si2 0.188514 0.038829 0.463929
Si Si3 0.639768 0.587595 0.947874
Si Si4 0.504937 0.009017 0.121192
Si Si5 0.261836 0.817747 0.241159
Si Si6 0.519963 0.616365 0.234374
Si Si7 0.858011 0.370483 0.957615
O O1 0.828695 0.815701 0.579336
O O2 0.774232 0.849617 0.341550
O O3 0.866700 0.511927 0.743015
O O4 0.192450 0.522545 0.821998
O O5 0.447933 0.832594 0.693500
O O6 0.000000 0.000000 0.500000
O O7 0.099747 0.156608 0.226133
O O8 0.781394 0.503541 0.934814
O O9 0.500000 0.500000 0.000000
O O10 0.369873 0.920664 0.220222
O O11 0.500000 0.000000 0.000000
O O12 0.403105 0.244075 0.917370
O O13 0.397903 0.709993 0.247643
O O14 0.300049 0.632533 0.490114
O O15 0.000000 0.000000 0.000000
O O16 0.325427 0.660153 0.081000
#
# Coordination Sequence:
#
# PCOD9029392 Si02
#       7
#     2   2   2   2   2   2   2
#     4  11  23  42  63  94 132 168 218 272 324 384
#     4  11  21  40  63  92 129 167 213 265 322 386
#     4  11  23  40  64  94 128 170 221 262 324 395
#     4  10  22  44  68  92 130 173 216 269 323 386
#     4  10  22  44  67  96 129 166 220 273 323 389
#     4  10  22  42  67  92 131 172 210 270 332 378
#     4  11  23  40  65  94 133 169 212 273 325 386
#
# _framework density 24.105986000000001
#
# number of rings (size 3 to 8) (size 9 to 14) (size 15 to 20)
#    0.000    1.429    4.286    2.571    0.000    4.000 
#    5.143    0.000    0.000    0.000    0.000    0.000 
#    0.000    0.000    0.000    0.000    0.000    0.000 
#
# Total GULP energy -78228.661751 kJ/mol
# GULP energy per Si atom -5587.761554 kJ/mol
# Density = 2.405112 g / cm^3
# Si number density = 24.105986 Si / 1000 Ang^3
#
#
#
# Elastic Constant Matrix: (Units=GPa)
#
#
# Indices 1 2 3 4 5 6 
#
# 1 55.2658 23.0282 44.7087 -16.7712 4.7503 30.5054
# 2 23.0282 105.5782 55.7283 -2.3309 2.4710 27.5283
# 3 44.7087 55.7283 235.2223 -3.2858 16.6126 26.3769
# 4 -16.7712 -2.3309 -3.2858 46.5789 8.9417 -3.3752
# 5 4.7503 2.4710 16.6126 8.9417 42.3859 -2.4651
# 6 30.5054 27.5283 26.3769 -3.3752 -2.4651 39.0473
#
#
#
# Elastic Compliance Matrix: (Units=1/GPa)
#
#
# Indices 1 2 3 4 5 6 
#
# 1 0.043390 0.001481 -0.004308 0.014697 -0.008181 -0.031279
# 2 0.001481 0.012582 -0.002259 0.000506 -0.000615 -0.008496
# 3 -0.004308 -0.002259 0.005569 -0.000945 -0.001309 0.001032
# 4 0.014697 0.000506 -0.000945 0.027514 -0.007652 -0.009305
# 5 -0.008181 -0.000615 -0.001309 -0.007652 0.027182 0.008763
# 6 -0.031279 -0.008496 0.001032 -0.009305 0.008763 0.055088
#
#
# Mechanical properties :
#
#
# Convention : Reuss Voigt Hill
#
# Bulk Modulus (GPa) = 19.46661 71.44409 45.45535
# Shear Modulus (GPa) = 25.17366 43.77583 34.47474
#
# Velocity S-wave (km/s) = 3.23505 4.26605 3.78581
# Velocity P-wave (km/s) = 4.69543 7.34625 6.16500
#
# Compressibility (1/GPa) = 0.05137001
#
# Stress axis : x y z
#
# Youngs Moduli (GPa) = 23.04655 79.47891 179.57230
#
# Poissons Ratio (x) = -0.11772 0.77352
# Poissons Ratio (y) = -0.03413 0.40568
# Poissons Ratio (z) = 0.09927 0.17956
#
# Static dielectric constant tensor:
#      x y z
#    x 1.985720 0.017240 -0.136060 
#    y 0.017240 1.842300 0.094770 
#    z -0.136060 0.094770 1.851060 
# 
# From -- ./inp_files/202761.got.cif
#   From: 2010.05.17/outbox.cif.g08.bks.cpg/sg2_102_cif.got.tgz:202761.got - 2010.06.03 11:33:40.
