data_PCOD9029391
_publ_section_title
;
Structure prediction by ZEFSAII (Michael W. Deem and Ramdas Pophale) SiO2 
 PCOD9029391
Probable space group: P -1
;
_chemical_formula_sum "Si O2"
_cell_formula_units_Z 16
_cell_length_a 17.540346
_cell_length_b 24.504869
_cell_length_c 15.383059
_cell_angle_alpha 19.625083
_cell_angle_beta 27.436311
_cell_angle_gamma 18.362986
_cell_volume 698.320431
_symmetry_space_group_name_H-M "P -1"
_symmetry_group_IT_number 2
_symmetry_cell_setting 'triclinic'
loop_
_space_group_symop_operation_xyz
x,y,z
-x,-y,-z
loop_
_atom_site_type_symbol
_atom_site_label
_atom_site_fract_x
_atom_site_fract_y
_atom_site_fract_z
Si Si1 0.883976 0.240042 0.476657
Si Si2 0.595512 0.270543 0.341947
Si Si3 0.371820 0.920076 0.228059
Si Si4 0.678957 0.689436 0.101943
Si Si5 0.034725 0.628392 0.955771
Si Si6 0.249531 0.013740 0.941285
Si Si7 0.768380 0.498082 0.781547
Si Si8 0.742426 0.788061 0.520385
O O1 0.838142 0.421657 0.315691
O O2 0.794750 0.379191 0.264771
O O3 0.158346 0.983208 0.565649
O O4 0.763164 0.167552 0.749696
O O5 0.566264 0.244347 0.510405
O O6 0.367783 0.368840 0.370829
O O7 0.630979 0.436847 0.047050
O O8 0.471595 0.793541 0.225527
O O9 0.500000 0.000000 0.000000
O O10 0.089421 0.164607 0.158039
O O11 0.847183 0.697827 0.967946
O O12 0.523338 0.867431 0.910939
O O13 0.102895 0.417496 0.254995
O O14 0.191340 0.098762 0.772282
O O15 0.045516 0.252798 0.846635
O O16 0.732639 0.664326 0.637688
O O17 0.500000 0.000000 0.500000
#
# Coordination Sequence:
#
# PCOD9029391 Si02
#       8
#     2   2   2   2   2   2   2   2
#     4  10  22  42  67  92 131 165 223 262 319 381
#     4   9  21  41  65  95 122 176 213 266 312 388
#     4   9  20  34  61  92 122 152 220 255 308 367
#     4  11  22  38  68  94 125 170 217 265 320 379
#     4  10  23  42  63  91 130 171 215 260 320 388
#     4  11  25  42  66  98 127 173 213 265 323 383
#     4  10  23  42  66  88 134 170 217 255 328 382
#     4  12  27  41  64  99 137 165 210 271 331 374
#
# _framework density 22.912119000000001
#
# number of rings (size 3 to 8) (size 9 to 14) (size 15 to 20)
#    0.000    1.750    0.000    2.625   10.500    2.000 
#    0.000    4.375    0.000    0.000    0.000    0.000 
#    0.000    0.000    0.000    0.000    0.000    0.000 
#
# Total GULP energy -89337.446769 kJ/mol
# GULP energy per Si atom -5583.590423 kJ/mol
# Density = 2.285997 g / cm^3
# Si number density = 22.912119 Si / 1000 Ang^3
#
#
#
# Elastic Constant Matrix: (Units=GPa)
#
#
# Indices 1 2 3 4 5 6 
#
# 1 36.8541 16.6783 24.6128 2.0309 11.3858 0.2211
# 2 16.6783 68.5045 18.5642 2.1431 0.2685 29.1881
# 3 24.6128 18.5642 117.6550 22.4172 24.8441 6.5971
# 4 2.0309 2.1431 22.4172 34.6283 6.8196 3.9041
# 5 11.3858 0.2685 24.8441 6.8196 42.1691 -6.2015
# 6 0.2211 29.1881 6.5971 3.9041 -6.2015 45.5075
#
#
#
# Elastic Compliance Matrix: (Units=1/GPa)
#
#
# Indices 1 2 3 4 5 6 
#
# 1 0.037303 -0.010191 -0.005752 0.002688 -0.006153 0.006120
# 2 -0.010191 0.023763 -0.001239 0.001447 0.000888 -0.015016
# 3 -0.005752 -0.001239 0.012178 -0.006422 -0.004728 -0.001036
# 4 0.002688 0.001447 -0.006422 0.033729 -0.002891 -0.003298
# 5 -0.006153 0.000888 -0.004728 -0.002891 0.029267 0.004382
# 6 0.006120 -0.015016 -0.001036 -0.003298 0.004382 0.032606
#
#
# Mechanical properties :
#
#
# Convention : Reuss Voigt Hill
#
# Bulk Modulus (GPa) = 25.71872 38.08044 31.89958
# Shear Modulus (GPa) = 23.12988 35.33820 29.23404
#
# Velocity S-wave (km/s) = 3.18072 3.93152 3.57588
# Velocity P-wave (km/s) = 4.97379 6.10454 5.56794
#
# Compressibility (1/GPa) = 0.03888218
#
# Stress axis : x y z
#
# Youngs Moduli (GPa) = 26.80734 42.08148 82.11447
#
# Poissons Ratio (x) = 0.42884 0.47230
# Poissons Ratio (y) = 0.27318 0.10173
# Poissons Ratio (z) = 0.15419 0.05214
#
# Static dielectric constant tensor:
#      x y z
#    x 1.864830 -0.046730 0.042260 
#    y -0.046730 1.933500 0.044610 
#    z 0.042260 0.044610 1.962650 
# 
# From -- ./inp_files/539274.got.cif
#   From: 2010.05.17/outbox.cif.g08.bks.cpg/sg2_270_cif.got.tgz:539274.got - 2010.06.03 11:33:40.
