data_PCOD9029144
_publ_section_title
;
Structure prediction by ZEFSAII (Michael W. Deem and Ramdas Pophale) SiO2 
 PCOD9029144
Probable space group: P -1
;
_chemical_formula_sum "Si O2"
_cell_formula_units_Z 15
_cell_length_a 8.070842
_cell_length_b 7.225580
_cell_length_c 16.326612
_cell_angle_alpha 125.489981
_cell_angle_beta 124.925929
_cell_angle_gamma 64.507491
_cell_volume 628.713721
_symmetry_space_group_name_H-M "P -1"
_symmetry_group_IT_number 2
_symmetry_cell_setting 'triclinic'
loop_
_space_group_symop_operation_xyz
x,y,z
-x,-y,-z
loop_
_atom_site_type_symbol
_atom_site_label
_atom_site_fract_x
_atom_site_fract_y
_atom_site_fract_z
Si Si1 0.509019 0.630220 0.917537
Si Si2 0.395401 0.794174 0.379423
Si Si3 0.832013 0.071141 0.807584
Si Si4 0.098820 0.765480 0.427556
Si Si5 0.520672 0.132485 0.863637
Si Si6 0.117806 0.652021 0.710779
Si Si7 0.000000 0.500000 0.000000
Si Si8 0.666706 0.307082 0.367596
O O1 0.448675 0.392639 0.878260
O O2 0.338774 0.691436 0.816252
O O3 0.743197 0.564252 0.938973
O O4 0.486532 0.828273 0.031280
O O5 0.184073 0.790275 0.367584
O O6 0.522056 0.541783 0.362299
O O7 0.500000 0.000000 0.500000
O O8 0.352978 0.853778 0.288036
O O9 0.943399 0.827098 0.748820
O O10 0.750798 0.073327 0.877948
O O11 0.986527 0.253232 0.891360
O O12 0.287426 0.681496 0.520426
O O13 0.934735 0.594590 0.344293
O O14 0.000000 0.000000 0.500000
O O15 0.412268 0.929886 0.742188
O O16 0.127326 0.688425 0.625711
#
# Coordination Sequence:
#
# PCOD9029144 Si02
#       8
#     2   2   2   2   2   2   1   2
#     4  10  23  43  68  95 134 174 219 274 333 394
#     4  12  25  44  68  95 132 177 224 274 328 389
#     4  11  24  42  66  97 135 173 222 273 329 393
#     4  12  25  42  66  97 133 171 221 276 333 395
#     4  10  22  42  66  97 132 174 220 272 325 392
#     4  12  25  42  66  98 134 175 220 273 333 396
#     4  10  22  42  66  94 126 172 218 268 326 390
#     4  12  23  41  67  94 132 176 222 270 328 393
#
# _framework density 23.858236000000002
#
# number of rings (size 3 to 8) (size 9 to 14) (size 15 to 20)
#    0.000    0.800    0.000    8.000    0.000    6.933 
#    0.000    2.667    0.000    0.000    0.000    0.000 
#    0.000    0.000    0.000    0.000    0.000    0.000 
#
# Total GULP energy -83689.245232 kJ/mol
# GULP energy per Si atom -5579.283015 kJ/mol
# Density = 2.380393 g / cm^3
# Si number density = 23.858236 Si / 1000 Ang^3
#
#
#
# Elastic Constant Matrix: (Units=GPa)
#
#
# Indices 1 2 3 4 5 6 
#
# 1 63.0031 30.1208 28.5113 0.2090 -21.5190 -6.7056
# 2 30.1208 86.9676 27.3681 12.8602 2.7574 -18.7377
# 3 28.5113 27.3681 136.4050 18.2603 20.9340 1.8352
# 4 0.2090 12.8602 18.2603 41.4504 -2.1299 -1.9034
# 5 -21.5190 2.7574 20.9340 -2.1299 46.3327 10.8681
# 6 -6.7056 -18.7377 1.8352 -1.9034 10.8681 32.4639
#
#
#
# Elastic Compliance Matrix: (Units=1/GPa)
#
#
# Indices 1 2 3 4 5 6 
#
# 1 0.031774 -0.011494 -0.008563 0.007979 0.021129 -0.006193
# 2 -0.011494 0.018910 0.000775 -0.006129 -0.009772 0.011408
# 3 -0.008563 0.000775 0.011161 -0.005562 -0.009536 0.000914
# 4 0.007979 -0.006129 -0.005562 0.028750 0.008551 -0.002752
# 5 0.021129 -0.009772 -0.009536 0.008551 0.039865 -0.013581
# 6 -0.006193 0.011408 0.000914 -0.002752 -0.013581 0.040443
#
#
# Mechanical properties :
#
#
# Convention : Reuss Voigt Hill
#
# Bulk Modulus (GPa) = 42.95383 50.93067 46.94225
# Shear Modulus (GPa) = 23.01748 37.40774 30.21261
#
# Velocity S-wave (km/s) = 3.10943 3.96399 3.56243
# Velocity P-wave (km/s) = 5.56186 6.50726 6.05305
#
# Compressibility (1/GPa) = 0.02328081
#
# Stress axis : x y z
#
# Youngs Moduli (GPa) = 31.47260 52.88309 89.59636
#
# Poissons Ratio (x) = 0.60785 0.76719
# Poissons Ratio (y) = 0.36175 -0.06945
# Poissons Ratio (z) = 0.26949 -0.04099
#
# Static dielectric constant tensor:
#      x y z
#    x 1.937590 0.039790 0.008280 
#    y 0.039790 1.965020 -0.016780 
#    z 0.008280 -0.016780 1.870590 
# 
# From -- ./inp_files/556696.got.cif
#   From: 2010.05.17/outbox.cif.g08.bks.cpg/sg2_279_cif.got.tgz:556696.got - 2010.06.03 11:33:40.
