data_PCOD9029664
_publ_section_title
;
Structure prediction by ZEFSAII (Michael W. Deem and Ramdas Pophale) SiO2 
 PCOD9029664
Probable space group: P -1
;
_chemical_formula_sum "Si O2"
_cell_formula_units_Z 14
_cell_length_a 24.917973
_cell_length_b 9.553435
_cell_length_c 19.385650
_cell_angle_alpha 152.020741
_cell_angle_beta 162.643991
_cell_angle_gamma 29.117595
_cell_volume 630.104125
_symmetry_space_group_name_H-M "P -1"
_symmetry_group_IT_number 2
_symmetry_cell_setting 'triclinic'
loop_
_space_group_symop_operation_xyz
x,y,z
-x,-y,-z
loop_
_atom_site_type_symbol
_atom_site_label
_atom_site_fract_x
_atom_site_fract_y
_atom_site_fract_z
Si Si1 0.220976 0.408709 0.805031
Si Si2 0.514427 0.281263 0.988582
Si Si3 0.508933 0.347291 0.653054
Si Si4 0.860977 0.156670 0.454885
Si Si5 0.468070 0.666655 0.606459
Si Si6 0.914270 0.483638 0.780825
Si Si7 0.033341 0.946667 0.218692
O O1 0.331239 0.336505 0.836523
O O2 0.173087 0.107906 0.649292
O O3 0.358521 0.526592 0.078170
O O4 0.045639 0.695124 0.711134
O O5 0.557442 0.946168 0.860751
O O6 0.500000 0.500000 0.000000
O O7 0.675120 0.308174 0.251572
O O8 0.543470 0.408809 0.643035
O O9 0.299997 0.528893 0.487469
O O10 0.500000 0.000000 0.500000
O O11 0.961784 0.388234 0.720046
O O12 0.000000 0.000000 0.500000
O O13 0.500000 0.500000 0.500000
O O14 0.249618 0.821331 0.414410
O O15 0.013923 0.234306 0.850153
O O16 0.936292 0.810096 0.976651
#
# Coordination Sequence:
#
# PCOD9029664 Si02
#       7
#     2   2   2   2   2   2   2
#     4  12  24  48  75 101 146 184 245 293 355 430
#     4  12  29  47  74 108 142 193 238 298 367 423
#     4  11  21  42  72 103 131 192 233 288 356 421
#     4  12  28  46  72 105 145 187 239 299 354 425
#     4  11  27  46  68  99 148 186 240 294 357 428
#     4  10  22  42  68 102 140 176 236 285 353 416
#     4  10  24  41  72 104 135 189 232 290 353 416
#
# _framework density 22.21855
#
# number of rings (size 3 to 8) (size 9 to 14) (size 15 to 20)
#    0.000    0.857    4.286    2.143    8.000    1.143 
#    0.000    1.429    0.000    0.000    0.000    0.000 
#    0.000    0.000    0.000    0.000    0.000    0.000 
#
# Total GULP energy -78224.816994 kJ/mol
# GULP energy per Si atom -5587.486928 kJ/mol
# Density = 2.216798 g / cm^3
# Si number density = 22.218550 Si / 1000 Ang^3
#
#
#
# Elastic Constant Matrix: (Units=GPa)
#
#
# Indices 1 2 3 4 5 6 
#
# 1 156.3079 61.7579 26.2996 10.4491 -29.3765 -2.4635
# 2 61.7579 135.3879 26.6770 13.8233 -12.8052 10.7325
# 3 26.2996 26.6770 89.8478 5.1972 -29.2792 -8.5641
# 4 10.4491 13.8233 5.1972 40.1199 -12.0711 3.5968
# 5 -29.3765 -12.8052 -29.2792 -12.0711 42.0012 8.7689
# 6 -2.4635 10.7325 -8.5641 3.5968 8.7689 43.2199
#
#
#
# Elastic Compliance Matrix: (Units=1/GPa)
#
#
# Indices 1 2 3 4 5 6 
#
# 1 0.008746 -0.003614 0.000225 0.000485 0.005241 0.000337
# 2 -0.003614 0.009831 -0.002410 -0.002289 -0.001312 -0.002668
# 3 0.000225 -0.002410 0.015129 0.001750 0.010180 0.001398
# 4 0.000485 -0.002289 0.001750 0.028617 0.009801 -0.003427
# 5 0.005241 -0.001312 0.010180 0.009801 0.038226 -0.005930
# 6 0.000337 -0.002668 0.001398 -0.003427 -0.005930 0.025585
#
#
# Mechanical properties :
#
#
# Convention : Reuss Voigt Hill
#
# Bulk Modulus (GPa) = 45.23495 67.89029 56.56262
# Shear Modulus (GPa) = 34.45860 42.85548 38.65704
#
# Velocity S-wave (km/s) = 3.94241 4.39659 4.17568
# Velocity P-wave (km/s) = 6.41301 7.50969 6.98291
#
# Compressibility (1/GPa) = 0.02210680
#
# Stress axis : x y z
#
# Youngs Moduli (GPa) = 114.34274 101.71938 66.09712
#
# Poissons Ratio (x) = 0.36764 -0.01488
# Poissons Ratio (y) = 0.41326 0.15932
# Poissons Ratio (z) = -0.02574 0.24518
#
# Static dielectric constant tensor:
#      x y z
#    x 1.878620 -0.024380 -0.027010 
#    y -0.024380 1.826920 -0.009640 
#    z -0.027010 -0.009640 1.894020 
# 
# From -- ./inp_files/156578.got.cif
#   From: 2010.05.17/outbox.cif.g08.bks.cpg/sg2_79_cif.got.tgz:156578.got - 2010.06.03 11:33:40.
