data_PCOD9029311
_publ_section_title
;
Structure prediction by ZEFSAII (Michael W. Deem and Ramdas Pophale) SiO2 
 PCOD9029311
Probable space group: P -1
;
_chemical_formula_sum "Si O2"
_cell_formula_units_Z 16
_cell_length_a 23.892415
_cell_length_b 13.185593
_cell_length_c 11.077020
_cell_angle_alpha 33.044185
_cell_angle_beta 27.401746
_cell_angle_gamma 24.853101
_cell_volume 665.307717
_symmetry_space_group_name_H-M "P -1"
_symmetry_group_IT_number 2
_symmetry_cell_setting 'triclinic'
loop_
_space_group_symop_operation_xyz
x,y,z
-x,-y,-z
loop_
_atom_site_type_symbol
_atom_site_label
_atom_site_fract_x
_atom_site_fract_y
_atom_site_fract_z
Si Si1 0.965253 0.140623 0.644120
Si Si2 0.450345 0.577065 0.216124
Si Si3 0.695560 0.083762 0.648116
Si Si4 0.161703 0.409697 0.724225
Si Si5 0.839753 0.383776 0.246394
Si Si6 0.817043 0.225057 0.083412
Si Si7 0.588000 0.115502 0.249515
Si Si8 0.149248 0.430145 0.205530
O O1 0.875443 0.389268 0.496116
O O2 0.837079 0.196976 0.930787
O O3 0.127955 0.062753 0.473564
O O4 0.028115 0.901651 0.686592
O O5 0.457773 0.715062 0.176171
O O6 0.308045 0.596516 0.529992
O O7 0.547750 0.312267 0.230812
O O8 0.409980 0.759785 0.000582
O O9 0.714335 0.854196 0.799501
O O10 0.704781 0.195984 0.397278
O O11 0.233495 0.432060 0.685035
O O12 0.245835 0.146300 0.773709
O O13 0.000000 0.500000 0.000000
O O14 0.900703 0.442353 0.958588
O O15 0.785279 0.462722 0.951852
O O16 0.000000 0.000000 0.000000
O O17 0.500000 0.000000 0.500000
O O18 0.000000 0.500000 0.500000
#
# Coordination Sequence:
#
# PCOD9029311 Si02
#       8
#     2   2   2   2   2   2   2   2
#     4  10  19  33  50  81 122 150 184 241 302 348
#     4  10  21  39  62  82 117 154 206 254 287 346
#     4  10  19  33  55  84 112 152 202 243 291 349
#     4  12  24  37  57  89 126 157 194 244 307 369
#     4  11  20  36  56  88 121 161 196 244 300 360
#     4  10  17  32  49  80 118 149 195 240 294 342
#     4  11  23  41  62  85 118 159 209 245 292 360
#     4  12  18  28  56  84 121 154 195 248 298 342
#
# _framework density 24.049022000000001
#
# number of rings (size 3 to 8) (size 9 to 14) (size 15 to 20)
#    0.000    1.250    7.500    3.375    0.000    0.000 
#    0.000    0.000    0.000    0.750    0.000    1.750 
#    0.000    0.000    0.000    0.000    0.000    0.000 
#
# Total GULP energy -89123.487854 kJ/mol
# GULP energy per Si atom -5570.217991 kJ/mol
# Density = 2.399428 g / cm^3
# Si number density = 24.049022 Si / 1000 Ang^3
#
#
#
# Elastic Constant Matrix: (Units=GPa)
#
#
# Indices 1 2 3 4 5 6 
#
# 1 49.3269 33.3144 20.5738 -3.1457 4.0347 13.7008
# 2 33.3144 214.4605 66.3277 -24.5951 22.1271 61.7234
# 3 20.5738 66.3277 122.6834 -24.8147 35.9608 6.2406
# 4 -3.1457 -24.5951 -24.8147 29.2913 11.0824 -1.2250
# 5 4.0347 22.1271 35.9608 11.0824 42.6657 2.7893
# 6 13.7008 61.7234 6.2406 -1.2250 2.7893 34.3460
#
#
#
# Elastic Compliance Matrix: (Units=1/GPa)
#
#
# Indices 1 2 3 4 5 6 
#
# 1 0.024691 -0.000934 -0.005636 -0.005010 0.004705 -0.007707
# 2 -0.000934 0.014667 -0.001642 0.012763 -0.007841 -0.024596
# 3 -0.005636 -0.001642 0.022290 0.026344 -0.024512 0.004079
# 4 -0.005010 0.012763 0.026344 0.084411 -0.049050 -0.018730
# 5 0.004705 -0.007841 -0.024512 -0.049050 0.059803 0.010063
# 6 -0.007707 -0.024596 0.004079 -0.018730 0.010063 0.074165
#
#
# Mechanical properties :
#
#
# Convention : Reuss Voigt Hill
#
# Bulk Modulus (GPa) = 22.11227 69.65582 45.88405
# Shear Modulus (GPa) = 16.05004 39.01092 27.53048
#
# Velocity S-wave (km/s) = 2.58619 4.03195 3.38711
# Velocity P-wave (km/s) = 4.25822 7.12057 5.86664
#
# Compressibility (1/GPa) = 0.04522376
#
# Stress axis : x y z
#
# Youngs Moduli (GPa) = 40.50070 68.17826 44.86341
#
# Poissons Ratio (x) = 0.06369 0.25285
# Poissons Ratio (y) = 0.03784 0.07367
# Poissons Ratio (z) = 0.22826 0.11195
#
# Static dielectric constant tensor:
#      x y z
#    x 1.961080 -0.130420 -0.009450 
#    y -0.130420 2.045720 0.109360 
#    z -0.009450 0.109360 1.881620 
# 
# From -- ./inp_files/477657.got.cif
#   From: 2010.05.17/outbox.cif.g08.bks.cpg/sg2_239_cif.got.tgz:477657.got - 2010.06.03 11:33:40.
