data_PCOD9029965
_publ_section_title
;
Structure prediction by ZEFSAII (Michael W. Deem and Ramdas Pophale) SiO2 
 PCOD9029965
Probable space group: P -1
;
_chemical_formula_sum "Si O2"
_cell_formula_units_Z 14
_cell_length_a 9.467414
_cell_length_b 18.218659
_cell_length_c 5.177595
_cell_angle_alpha 60.668240
_cell_angle_beta 121.059265
_cell_angle_gamma 131.155446
_cell_volume 560.137288
_symmetry_space_group_name_H-M "P -1"
_symmetry_group_IT_number 2
_symmetry_cell_setting 'triclinic'
loop_
_space_group_symop_operation_xyz
x,y,z
-x,-y,-z
loop_
_atom_site_type_symbol
_atom_site_label
_atom_site_fract_x
_atom_site_fract_y
_atom_site_fract_z
Si Si1 0.372172 0.881182 0.100731
Si Si2 0.037496 0.602815 0.472211
Si Si3 0.673139 0.746105 0.240842
Si Si4 0.263228 0.086063 0.336648
Si Si5 0.719076 0.289420 0.976595
Si Si6 0.383538 0.436067 0.753158
Si Si7 0.988664 0.131451 0.336285
O O1 0.350620 0.827102 0.899343
O O2 0.156291 0.856543 0.006597
O O3 0.514076 0.862185 0.440013
O O4 0.500000 0.000000 0.000000
O O5 0.177208 0.649681 0.772816
O O6 0.000000 0.500000 0.500000
O O7 0.832672 0.585679 0.393807
O O8 0.140316 0.673538 0.201970
O O9 0.635445 0.670044 0.107679
O O10 0.860963 0.767872 0.540421
O O11 0.728286 0.855576 0.011488
O O12 0.466444 0.701230 0.265601
O O13 0.131554 0.108011 0.360484
O O14 0.152519 0.965514 0.447214
O O15 0.500000 0.500000 0.500000
O O16 0.500000 0.500000 0.000000
#
# Coordination Sequence:
#
# PCOD9029965 Si02
#       7
#     2   2   2   2   2   2   2
#     4  10  22  44  69 103 149 198 248 306 368 449
#     4  12  26  48  73 105 144 188 243 310 379 446
#     4  12  25  43  73 103 150 193 250 311 377 448
#     4  10  22  43  67 103 146 194 247 307 372 437
#     4  12  25  44  72 106 143 194 243 304 374 443
#     4  12  28  48  75 110 145 194 249 311 381 454
#     4  10  22  42  69 101 144 194 251 303 370 440
#
# _framework density 24.993870999999999
#
# number of rings (size 3 to 8) (size 9 to 14) (size 15 to 20)
#    0.000    0.857    1.429    5.143    4.000    0.000 
#    2.571    3.571    0.000    0.000    0.000    0.000 
#    0.000    0.000    0.000    0.000    0.000    0.000 
#
# Total GULP energy -78324.943123 kJ/mol
# GULP energy per Si atom -5594.638795 kJ/mol
# Density = 2.493698 g / cm^3
# Si number density = 24.993871 Si / 1000 Ang^3
#
#
#
# Elastic Constant Matrix: (Units=GPa)
#
#
# Indices 1 2 3 4 5 6 
#
# 1 156.1978 59.1587 70.1360 11.5120 13.2441 13.8963
# 2 59.1587 121.1876 40.2988 31.5059 5.6288 -3.6597
# 3 70.1360 40.2988 110.7140 37.1495 13.7188 16.8348
# 4 11.5120 31.5059 37.1495 50.0611 5.9209 0.2570
# 5 13.2441 5.6288 13.7188 5.9209 54.4704 0.7273
# 6 13.8963 -3.6597 16.8348 0.2570 0.7273 36.7961
#
#
#
# Elastic Compliance Matrix: (Units=1/GPa)
#
#
# Indices 1 2 3 4 5 6 
#
# 1 0.010989 -0.004531 -0.006797 0.005502 -0.001070 -0.001508
# 2 -0.004531 0.012245 0.000237 -0.006913 0.000490 0.002859
# 3 -0.006797 0.000237 0.018332 -0.011970 -0.001612 -0.005681
# 4 0.005502 -0.006913 -0.011970 0.032065 -0.001128 0.002509
# 5 -0.001070 0.000490 -0.001612 -0.001128 0.019086 0.000821
# 6 -0.001508 0.002859 -0.005681 0.002509 0.000821 0.030596
#
#
# Mechanical properties :
#
#
# Convention : Reuss Voigt Hill
#
# Bulk Modulus (GPa) = 51.58365 80.80960 66.19663
# Shear Modulus (GPa) = 32.90423 42.83256 37.86840
#
# Velocity S-wave (km/s) = 3.63229 4.14420 3.89666
# Velocity P-wave (km/s) = 6.18665 7.43648 6.84017
#
# Compressibility (1/GPa) = 0.01938599
#
# Stress axis : x y z
#
# Youngs Moduli (GPa) = 90.99612 81.66319 54.54999
#
# Poissons Ratio (x) = 0.37000 0.37077
# Poissons Ratio (y) = 0.41228 -0.01295
# Poissons Ratio (z) = 0.61849 -0.01938
#
# Static dielectric constant tensor:
#      x y z
#    x 1.972450 0.057640 -0.021570 
#    y 0.057640 2.206310 -0.097820 
#    z -0.021570 -0.097820 2.019610 
# 
# From -- ./inp_files/47222.got.cif
#   From: 2010.05.17/outbox.cif.g08.bks.cpg/sg2_24_cif.got.tgz:47222.got - 2010.06.03 11:33:40.
