data_PCOD9029946
_publ_section_title
;
Structure prediction by ZEFSAII (Michael W. Deem and Ramdas Pophale) SiO2 
 PCOD9029946
Probable space group: P -1
;
_chemical_formula_sum "Si O2"
_cell_formula_units_Z 14
_cell_length_a 9.128661
_cell_length_b 9.744923
_cell_length_c 9.405640
_cell_angle_alpha 134.664474
_cell_angle_beta 110.888597
_cell_angle_gamma 76.612344
_cell_volume 555.754111
_symmetry_space_group_name_H-M "P -1"
_symmetry_group_IT_number 2
_symmetry_cell_setting 'triclinic'
loop_
_space_group_symop_operation_xyz
x,y,z
-x,-y,-z
loop_
_atom_site_type_symbol
_atom_site_label
_atom_site_fract_x
_atom_site_fract_y
_atom_site_fract_z
Si Si1 0.400441 0.426117 0.641199
Si Si2 0.409675 0.186903 0.050886
Si Si3 0.718175 0.298891 0.650071
Si Si4 0.048661 0.127407 0.976770
Si Si5 0.725061 0.613771 0.119952
Si Si6 0.134379 0.477694 0.385762
Si Si7 0.014238 0.840632 0.525900
O O1 0.531708 0.263585 0.553031
O O2 0.365940 0.440136 0.806447
O O3 0.239541 0.384052 0.472948
O O4 0.471136 0.627541 0.747164
O O5 0.236658 0.148360 0.032365
O O6 0.365662 0.240665 0.910753
O O7 0.500000 0.000000 0.000000
O O8 0.752788 0.460087 0.659400
O O9 0.835357 0.141135 0.515102
O O10 0.752177 0.420095 0.894330
O O11 0.980236 0.030328 0.740756
O O12 0.005323 0.340920 0.166005
O O13 0.000000 0.000000 0.000000
O O14 0.881212 0.729111 0.309314
O O15 0.933924 0.315885 0.449881
#
# Coordination Sequence:
#
# PCOD9029946 Si02
#       7
#     2   2   2   2   2   2   2
#     4  11  21  41  74 103 136 183 235 289 342 410
#     4  11  24  43  67 101 137 179 229 286 350 412
#     4   9  20  40  68 100 132 182 231 278 342 414
#     4  12  25  42  66 102 140 182 231 284 340 414
#     4  11  22  44  71 105 136 182 235 288 345 417
#     4  10  22  42  69 100 138 182 237 274 344 416
#     4  10  24  42  68  99 140 186 227 281 350 409
#
# _framework density 25.190998
#
# number of rings (size 3 to 8) (size 9 to 14) (size 15 to 20)
#    0.857    0.571    2.857    4.286    0.000    4.000 
#    0.000    1.429    0.000    6.857    0.000    0.000 
#    0.000    0.000    0.000    0.000    0.000    0.000 
#
# Total GULP energy -78066.859985 kJ/mol
# GULP energy per Si atom -5576.204285 kJ/mol
# Density = 2.513366 g / cm^3
# Si number density = 25.190998 Si / 1000 Ang^3
#
#
#
# Elastic Constant Matrix: (Units=GPa)
#
#
# Indices 1 2 3 4 5 6 
#
# 1 69.1658 20.3928 13.8369 -2.2289 1.0161 29.9342
# 2 20.3928 103.9907 42.0271 -7.0560 -4.5736 10.4066
# 3 13.8369 42.0271 136.4691 -13.0308 -1.7093 -5.7721
# 4 -2.2289 -7.0560 -13.0308 39.1491 2.4487 4.2112
# 5 1.0161 -4.5736 -1.7093 2.4487 39.7236 -16.4058
# 6 29.9342 10.4066 -5.7721 4.2112 -16.4058 27.1961
#
#
#
# Elastic Compliance Matrix: (Units=1/GPa)
#
#
# Indices 1 2 3 4 5 6 
#
# 1 0.055209 0.000715 -0.008871 0.012255 -0.038940 -0.088312
# 2 0.000715 0.011856 -0.003901 0.001842 -0.002122 -0.007717
# 3 -0.008871 -0.003901 0.010271 -0.000222 0.007720 0.018128
# 4 0.012255 0.001842 -0.000222 0.030194 -0.013031 -0.026777
# 5 -0.038940 -0.002122 0.007720 -0.013031 0.062073 0.084773
# 6 -0.088312 -0.007717 0.018128 -0.026777 0.084773 0.196059
#
#
# Mechanical properties :
#
#
# Convention : Reuss Voigt Hill
#
# Bulk Modulus (GPa) = 18.78896 51.34878 35.06887
# Shear Modulus (GPa) = 12.26944 36.77169 24.52056
#
# Velocity S-wave (km/s) = 2.20933 3.82477 3.12330
# Velocity P-wave (km/s) = 3.73938 6.31927 5.19212
#
# Compressibility (1/GPa) = 0.05322274
#
# Stress axis : x y z
#
# Youngs Moduli (GPa) = 18.11292 84.34206 97.36513
#
# Poissons Ratio (x) = -0.06029 0.86370
# Poissons Ratio (y) = -0.01295 0.37981
# Poissons Ratio (z) = 0.16068 0.32901
#
# Static dielectric constant tensor:
#      x y z
#    x 2.037040 -0.039230 -0.034050 
#    y -0.039230 2.013770 0.035810 
#    z -0.034050 0.035810 2.048870 
# 
# From -- ./inp_files/190916.got.cif
#   From: 2010.05.17/outbox.cif.g08.bks.cpg/sg2_96_cif.got.tgz:190916.got - 2010.06.03 11:33:40.
