data_PCOD9029244
_publ_section_title
;
Structure prediction by ZEFSAII (Michael W. Deem and Ramdas Pophale) SiO2 
 PCOD9029244
Probable space group: P -1
;
_chemical_formula_sum "Si O2"
_cell_formula_units_Z 12
_cell_length_a 4.977082
_cell_length_b 6.945832
_cell_length_c 15.783616
_cell_angle_alpha 64.157781
_cell_angle_beta 117.012210
_cell_angle_gamma 108.593128
_cell_volume 432.503140
_symmetry_space_group_name_H-M "P -1"
_symmetry_group_IT_number 2
_symmetry_cell_setting 'triclinic'
loop_
_space_group_symop_operation_xyz
x,y,z
-x,-y,-z
loop_
_atom_site_type_symbol
_atom_site_label
_atom_site_fract_x
_atom_site_fract_y
_atom_site_fract_z
Si Si1 0.865970 0.664115 0.265854
Si Si2 0.455730 0.746938 0.435566
Si Si3 0.477913 0.504552 0.895257
Si Si4 0.884258 0.121187 0.219880
Si Si5 0.436924 0.799461 0.618822
Si Si6 0.829091 0.140966 0.011538
O O1 0.806412 0.642886 0.162406
O O2 0.720541 0.433236 0.326471
O O3 0.210968 0.721331 0.331476
O O4 0.740655 0.869248 0.247833
O O5 0.500000 0.500000 0.500000
O O6 0.357041 0.791651 0.509144
O O7 0.668555 0.977629 0.404915
O O8 0.376371 0.738055 0.819444
O O9 0.754171 0.379429 0.927231
O O10 0.500000 0.500000 0.000000
O O11 0.199976 0.177358 0.308228
O O12 0.961898 0.163745 0.122116
O O13 0.500000 0.000000 0.000000
O O14 0.000000 0.000000 0.000000
#
# Coordination Sequence:
#
# PCOD9029244 Si02
#       6
#     2   2   2   2   2   2
#     4  11  22  42  69 101 146 190 250 307 386 445
#     4  10  22  42  66  97 143 185 242 310 381 452
#     4  10  23  43  71 106 148 192 251 307 367 453
#     4  10  23  45  71 104 151 193 252 312 376 450
#     4  10  23  41  67 105 136 191 245 311 375 459
#     4  11  24  47  76 106 152 205 255 313 383 451
#
# _framework density 27.745460000000001
#
# number of rings (size 3 to 8) (size 9 to 14) (size 15 to 20)
#    0.000    1.667    1.667    1.500    0.000    6.000 
#    6.000    5.833    0.000    0.000    0.000    0.000 
#    0.000    0.000    0.000    0.000    0.000    0.000 
#
# Total GULP energy -67036.152855 kJ/mol
# GULP energy per Si atom -5586.346071 kJ/mol
# Density = 2.768231 g / cm^3
# Si number density = 27.745460 Si / 1000 Ang^3
#
#
#
# Elastic Constant Matrix: (Units=GPa)
#
#
# Indices 1 2 3 4 5 6 
#
# 1 118.6738 57.6907 22.2034 -0.3056 9.7140 -17.4070
# 2 57.6907 231.3350 19.0599 -30.5946 11.0738 -6.9605
# 3 22.2034 19.0599 108.1440 20.9924 17.8760 -9.3563
# 4 -0.3056 -30.5946 20.9924 92.5658 4.6627 3.9142
# 5 9.7140 11.0738 17.8760 4.6627 36.9734 -1.7680
# 6 -17.4070 -6.9605 -9.3563 3.9142 -1.7680 63.9494
#
#
#
# Elastic Compliance Matrix: (Units=1/GPa)
#
#
# Indices 1 2 3 4 5 6 
#
# 1 0.010259 -0.002402 -0.001172 -0.000532 -0.001229 0.002358
# 2 -0.002402 0.005269 -0.000698 0.001950 -0.000871 -0.000326
# 3 -0.001172 -0.000698 0.010938 -0.002546 -0.004391 0.001240
# 4 -0.000532 0.001950 -0.002546 0.012108 -0.000791 -0.001068
# 5 -0.001229 -0.000871 -0.004391 -0.000791 0.029843 -0.000198
# 6 0.002358 -0.000326 0.001240 -0.001068 -0.000198 0.016485
#
#
# Mechanical properties :
#
#
# Convention : Reuss Voigt Hill
#
# Bulk Modulus (GPa) = 55.80305 72.89562 64.34934
# Shear Modulus (GPa) = 50.29090 62.64430 56.46760
#
# Velocity S-wave (km/s) = 4.26206 4.75681 4.51621
# Velocity P-wave (km/s) = 6.66156 7.51663 7.10197
#
# Compressibility (1/GPa) = 0.01792017
#
# Stress axis : x y z
#
# Youngs Moduli (GPa) = 97.47764 189.78706 91.42416
#
# Poissons Ratio (x) = 0.45593 0.10719
# Poissons Ratio (y) = 0.23417 0.06382
# Poissons Ratio (z) = 0.11428 0.13249
#
# Static dielectric constant tensor:
#      x y z
#    x 2.268940 0.074490 -0.010610 
#    y 0.074490 2.504990 -0.168690 
#    z -0.010610 -0.168690 2.302690 
# 
# From -- ./inp_files/545897.got.cif
#   From: 2010.05.17/outbox.cif.g08.bks.cpg/sg2_273_cif.got.tgz:545897.got - 2010.06.03 11:33:40.
