data_PCOD9029762
_publ_section_title
;
Structure prediction by ZEFSAII (Michael W. Deem and Ramdas Pophale) SiO2 
 PCOD9029762
Probable space group: P -1
;
_chemical_formula_sum "Si O2"
_cell_formula_units_Z 14
_cell_length_a 21.976500
_cell_length_b 8.617672
_cell_length_c 13.081427
_cell_angle_alpha 35.186192
_cell_angle_beta 28.686624
_cell_angle_gamma 39.334552
_cell_volume 670.827309
_symmetry_space_group_name_H-M "P -1"
_symmetry_group_IT_number 2
_symmetry_cell_setting 'triclinic'
loop_
_space_group_symop_operation_xyz
x,y,z
-x,-y,-z
loop_
_atom_site_type_symbol
_atom_site_label
_atom_site_fract_x
_atom_site_fract_y
_atom_site_fract_z
Si Si1 0.846997 0.542799 0.215492
Si Si2 0.400809 0.772101 0.969666
Si Si3 0.873059 0.242176 0.554809
Si Si4 0.992321 0.625728 0.323726
Si Si5 0.162190 0.772614 0.805447
Si Si6 0.422501 0.783587 0.502771
Si Si7 0.362713 0.903901 0.743526
O O1 0.842746 0.379887 0.414573
O O2 0.805251 0.432965 0.227965
O O3 0.758002 0.842002 0.205513
O O4 0.000000 0.500000 0.000000
O O5 0.364714 0.713246 0.938873
O O6 0.481202 0.008375 0.741959
O O7 0.500000 0.500000 0.000000
O O8 0.259033 0.861430 0.176684
O O9 0.901415 0.461101 0.480331
O O10 0.000000 0.000000 0.500000
O O11 0.000000 0.500000 0.500000
O O12 0.938259 0.955258 0.231596
O O13 0.108234 0.633566 0.061026
O O14 0.292597 0.880406 0.578788
O O15 0.500000 0.500000 0.500000
O O16 0.367898 0.750698 0.713274
O O17 0.500000 0.000000 0.500000
#
# Coordination Sequence:
#
# PCOD9029762 Si02
#       7
#     2   2   2   2   2   2   2
#     4  12  23  43  69 101 138 186 235 276 352 430
#     4  11  24  44  68 100 137 179 236 290 344 419
#     4  12  25  42  69 102 140 177 235 292 348 420
#     4  11  25  43  68 104 143 182 228 292 358 415
#     4  11  24  44  70  99 143 184 230 289 357 417
#     4  11  25  45  71  97 138 185 233 286 354 422
#     4  10  22  42  68  93 133 187 227 272 339 425
#
# _framework density 20.869751999999998
#
# number of rings (size 3 to 8) (size 9 to 14) (size 15 to 20)
#    0.000    0.857    1.429    6.857    6.000    0.000 
#    0.000    1.429    0.000    0.000    0.000    0.000 
#    0.000    0.000    0.000    0.000    0.000    0.000 
#
# Total GULP energy -77952.818590 kJ/mol
# GULP energy per Si atom -5568.058471 kJ/mol
# Density = 2.082225 g / cm^3
# Si number density = 20.869752 Si / 1000 Ang^3
#
#
#
# Elastic Constant Matrix: (Units=GPa)
#
#
# Indices 1 2 3 4 5 6 
#
# 1 129.9120 50.7592 67.9314 9.1320 20.8005 3.7163
# 2 50.7592 145.6656 32.5767 15.1189 22.0127 -4.5923
# 3 67.9314 32.5767 108.8243 5.9298 1.0265 -7.0905
# 4 9.1320 15.1189 5.9298 30.7197 -1.6516 -1.3159
# 5 20.8005 22.0127 1.0265 -1.6516 48.2004 2.2345
# 6 3.7163 -4.5923 -7.0905 -1.3159 2.2345 44.8228
#
#
#
# Elastic Compliance Matrix: (Units=1/GPa)
#
#
# Indices 1 2 3 4 5 6 
#
# 1 0.013590 -0.002164 -0.007850 -0.001814 -0.004660 -0.002411
# 2 -0.002164 0.008723 -0.000971 -0.003593 -0.003198 0.000973
# 3 -0.007850 -0.000971 0.014506 0.000310 0.003408 0.002685
# 4 -0.001814 -0.003593 0.000310 0.035022 0.003585 0.000681
# 5 -0.004660 -0.003198 0.003408 0.003585 0.024292 -0.000508
# 6 -0.002411 0.000973 0.002685 0.000681 -0.000508 0.023080
#
#
# Mechanical properties :
#
#
# Convention : Reuss Voigt Hill
#
# Bulk Modulus (GPa) = 67.34348 76.32631 71.83489
# Shear Modulus (GPa) = 34.21550 40.29087 37.25319
#
# Velocity S-wave (km/s) = 4.05344 4.39861 4.22955
# Velocity P-wave (km/s) = 7.36517 7.90248 7.63855
#
# Compressibility (1/GPa) = 0.01484925
#
# Stress axis : x y z
#
# Youngs Moduli (GPa) = 73.58168 114.63950 68.93667
#
# Poissons Ratio (x) = 0.24805 0.54116
# Poissons Ratio (y) = 0.15921 0.06695
# Poissons Ratio (z) = 0.57762 0.11134
#
# Static dielectric constant tensor:
#      x y z
#    x 12.229070 -0.274220 6.200630 
#    y -0.274220 1.712490 -0.194520 
#    z 6.200630 -0.194520 5.373840 
# 
# From -- ./inp_files/252710.got.cif
#   From: 2010.05.17/outbox.cif.g08.bks.cpg/sg2_127_cif.got.tgz:252710.got - 2010.06.03 11:33:40.
