data_PCOD9029592
_publ_section_title
;
Structure prediction by ZEFSAII (Michael W. Deem and Ramdas Pophale) SiO2 
 PCOD9029592
Probable space group: P -1
;
_chemical_formula_sum "Si O2"
_cell_formula_units_Z 16
_cell_length_a 24.752340
_cell_length_b 6.091515
_cell_length_c 9.048164
_cell_angle_alpha 96.618851
_cell_angle_beta 40.317725
_cell_angle_gamma 116.282349
_cell_volume 731.026607
_symmetry_space_group_name_H-M "P -1"
_symmetry_group_IT_number 2
_symmetry_cell_setting 'triclinic'
loop_
_space_group_symop_operation_xyz
x,y,z
-x,-y,-z
loop_
_atom_site_type_symbol
_atom_site_label
_atom_site_fract_x
_atom_site_fract_y
_atom_site_fract_z
Si Si1 0.430779 0.575059 0.066982
Si Si2 0.383157 0.904362 0.386398
Si Si3 0.225611 0.744291 0.474645
Si Si4 0.033244 0.591486 0.272334
Si Si5 0.758678 0.196741 0.057762
Si Si6 0.247329 0.111995 0.231132
Si Si7 0.965988 0.695353 0.014584
Si Si8 0.154595 0.389558 0.335717
O O1 0.504882 0.838376 0.835833
O O2 0.500000 0.500000 0.000000
O O3 0.383901 0.657922 0.300934
O O4 0.346668 0.352970 0.118300
O O5 0.319377 0.935291 0.394344
O O6 0.326637 0.856903 0.654608
O O7 0.236844 0.608349 0.296419
O O8 0.192531 0.916783 0.471052
O O9 0.150155 0.495120 0.712801
O O10 0.021872 0.351953 0.184068
O O11 0.000000 0.500000 0.500000
O O12 0.953488 0.665422 0.398010
O O13 0.152527 0.806867 0.042081
O O14 0.813249 0.483389 0.883718
O O15 0.722595 0.001343 0.977545
O O16 0.167814 0.155188 0.322133
O O17 0.000000 0.500000 0.000000
O O18 0.000000 0.000000 0.000000
#
# Coordination Sequence:
#
# PCOD9029592 Si02
#       8
#     2   2   2   2   2   2   2   2
#     4  11  24  43  72 104 133 181 234 305 373 440
#     4  11  23  43  70 102 140 176 240 303 368 436
#     4  11  22  41  70  97 137 181 240 295 354 431
#     4  10  22  46  65 100 149 192 246 292 362 431
#     4  10  24  43  66 102 144 186 238 294 365 435
#     4  11  24  44  71 100 140 189 244 294 370 440
#     4  12  27  44  69 107 143 192 254 309 358 430
#     4  10  22  42  67  98 141 194 236 293 358 425
#
# _framework density 21.887028000000001
#
# number of rings (size 3 to 8) (size 9 to 14) (size 15 to 20)
#    0.000    1.250    5.000    0.000    1.750    2.000 
#    4.500    1.250    0.000    0.000    0.000    0.000 
#    0.000    0.000    0.000    0.000    0.000    0.000 
#
# Total GULP energy -89073.278062 kJ/mol
# GULP energy per Si atom -5567.079879 kJ/mol
# Density = 2.183721 g / cm^3
# Si number density = 21.887028 Si / 1000 Ang^3
#
#
#
# Elastic Constant Matrix: (Units=GPa)
#
#
# Indices 1 2 3 4 5 6 
#
# 1 97.6318 57.5022 44.7353 11.7831 -2.1897 -2.0789
# 2 57.5022 124.3266 69.8005 14.7143 -0.3745 15.1364
# 3 44.7353 69.8005 149.4550 17.2811 5.3831 9.5519
# 4 11.7831 14.7143 17.2811 40.8023 9.8091 -6.6634
# 5 -2.1897 -0.3745 5.3831 9.8091 27.8009 -0.5561
# 6 -2.0789 15.1364 9.5519 -6.6634 -0.5561 41.6341
#
#
#
# Elastic Compliance Matrix: (Units=1/GPa)
#
#
# Indices 1 2 3 4 5 6 
#
# 1 0.014933 -0.006176 -0.001709 -0.001307 0.001949 0.003200
# 2 -0.006176 0.014175 -0.004197 -0.002681 0.001365 -0.004910
# 3 -0.001709 -0.004197 0.009494 -0.001850 -0.001398 -0.001052
# 4 -0.001307 -0.002681 -0.001850 0.030089 -0.010277 0.006012
# 5 0.001949 0.001365 -0.001398 -0.010277 0.040015 -0.001189
# 6 0.003200 -0.004910 -0.001052 0.006012 -0.001189 0.027151
#
#
# Mechanical properties :
#
#
# Convention : Reuss Voigt Hill
#
# Bulk Modulus (GPa) = 69.26084 79.49884 74.37984
# Shear Modulus (GPa) = 30.33356 35.33916 32.83636
#
# Velocity S-wave (km/s) = 3.72683 4.02259 3.87753
# Velocity P-wave (km/s) = 7.08748 7.61421 7.35556
#
# Compressibility (1/GPa) = 0.01443817
#
# Stress axis : x y z
#
# Youngs Moduli (GPa) = 66.96695 70.54489 105.32809
#
# Poissons Ratio (x) = 0.43570 0.17998
# Poissons Ratio (y) = 0.41360 0.44207
# Poissons Ratio (z) = 0.11443 0.29608
#
# Static dielectric constant tensor:
#      x y z
#    x 1.924420 -0.063800 -0.042450 
#    y -0.063800 1.941480 -0.008920 
#    z -0.042450 -0.008920 1.815360 
# 
# From -- ./inp_files/356016.got.cif
#   From: 2010.05.17/outbox.cif.g08.bks.cpg/sg2_179_cif.got.tgz:356016.got - 2010.06.03 11:33:40.
