data_PCOD9029714
_publ_section_title
;
Structure prediction by ZEFSAII (Michael W. Deem and Ramdas Pophale) SiO2 
 PCOD9029714
Probable space group: P -1
;
_chemical_formula_sum "Si O2"
_cell_formula_units_Z 16
_cell_length_a 8.464978
_cell_length_b 10.918961
_cell_length_c 11.067332
_cell_angle_alpha 81.572044
_cell_angle_beta 133.020526
_cell_angle_gamma 115.554476
_cell_volume 657.576406
_symmetry_space_group_name_H-M "P -1"
_symmetry_group_IT_number 2
_symmetry_cell_setting 'triclinic'
loop_
_space_group_symop_operation_xyz
x,y,z
-x,-y,-z
loop_
_atom_site_type_symbol
_atom_site_label
_atom_site_fract_x
_atom_site_fract_y
_atom_site_fract_z
Si Si1 0.620249 0.243017 0.213954
Si Si2 0.243355 0.790859 0.971715
Si Si3 0.764838 0.819091 0.305125
Si Si4 0.430503 0.088525 0.361882
Si Si5 0.374381 0.280923 0.501912
Si Si6 0.231499 0.456750 0.223458
Si Si7 0.898712 0.960675 0.112562
Si Si8 0.409690 0.492518 0.816556
O O1 0.736128 0.214213 0.161457
O O2 0.619609 0.157918 0.343198
O O3 0.714552 0.405399 0.266222
O O4 0.331840 0.176016 0.038004
O O5 0.052799 0.635694 0.936211
O O6 0.162325 0.908904 0.942452
O O7 0.508436 0.825171 0.153514
O O8 0.793664 0.817219 0.464592
O O9 0.927891 0.927252 0.273381
O O10 0.740334 0.669089 0.272600
O O11 0.416952 0.204674 0.422102
O O12 0.500000 0.000000 0.500000
O O13 0.157087 0.998088 0.182993
O O14 0.268497 0.375346 0.369959
O O15 0.631162 0.384381 0.683366
O O16 0.378195 0.450415 0.182494
O O17 0.500000 0.500000 0.000000
#
# Coordination Sequence:
#
# PCOD9029714 Si02
#       8
#     2   2   2   2   2   2   2   2
#     4  11  23  43  67  96 130 162 214 273 315 368
#     4  11  22  41  67  97 122 167 218 263 313 378
#     4  10  23  38  67  98 125 168 214 258 316 384
#     4  12  27  44  63  95 129 172 211 264 320 381
#     4  10  22  43  62  87 130 169 209 252 314 386
#     4  10  22  42  68  87 124 175 208 257 323 372
#     4  11  23  43  65  91 128 170 213 263 320 375
#     4  11  19  41  64  94 132 158 211 268 310 362
#
# _framework density 24.331773999999999
#
# number of rings (size 3 to 8) (size 9 to 14) (size 15 to 20)
#    0.000    1.250    5.000    1.875    3.500    3.500 
#    4.500    0.625    0.000    0.000    0.000    0.000 
#    0.000    0.000    0.000    0.000    0.000    0.000 
#
# Total GULP energy -89489.229305 kJ/mol
# GULP energy per Si atom -5593.076832 kJ/mol
# Density = 2.427639 g / cm^3
# Si number density = 24.331774 Si / 1000 Ang^3
#
#
#
# Elastic Constant Matrix: (Units=GPa)
#
#
# Indices 1 2 3 4 5 6 
#
# 1 74.1336 17.4484 17.6756 -4.0438 -23.7506 15.7757
# 2 17.4484 94.0019 17.8916 -12.4220 -6.1995 1.4059
# 3 17.6756 17.8916 71.8523 -6.3444 -14.0732 1.7610
# 4 -4.0438 -12.4220 -6.3444 44.2811 5.1442 -14.9860
# 5 -23.7506 -6.1995 -14.0732 5.1442 47.2087 -12.7214
# 6 15.7757 1.4059 1.7610 -14.9860 -12.7214 39.6611
#
#
#
# Elastic Compliance Matrix: (Units=1/GPa)
#
#
# Indices 1 2 3 4 5 6 
#
# 1 0.017900 -0.002604 -0.002504 -0.002117 0.006643 -0.005586
# 2 -0.002604 0.011942 -0.002117 0.003497 -0.000227 0.001955
# 3 -0.002504 -0.002117 0.015866 0.001774 0.003588 0.002188
# 4 -0.002117 0.003497 0.001774 0.027338 -0.000109 0.010934
# 5 0.006643 -0.000227 0.003588 -0.000109 0.027160 0.005877
# 6 -0.005586 0.001955 0.002188 0.010934 0.005877 0.033285
#
#
# Mechanical properties :
#
#
# Convention : Reuss Voigt Hill
#
# Bulk Modulus (GPa) = 31.99034 38.44656 35.21845
# Shear Modulus (GPa) = 31.57333 38.69500 35.13416
#
# Velocity S-wave (km/s) = 3.60615 3.99219 3.80407
# Velocity P-wave (km/s) = 5.52406 6.08978 5.81380
#
# Compressibility (1/GPa) = 0.03125944
#
# Stress axis : x y z
#
# Youngs Moduli (GPa) = 55.86449 83.73652 63.02646
#
# Poissons Ratio (x) = 0.21806 0.15782
# Poissons Ratio (y) = 0.14548 0.13341
# Poissons Ratio (z) = 0.13988 0.17724
#
# Static dielectric constant tensor:
#      x y z
#    x 1.794610 0.161890 0.058060 
#    y 0.161890 1.810000 -0.041740 
#    z 0.058060 -0.041740 1.995060 
# 
# From -- ./inp_files/382935.got.cif
#   From: 2010.05.17/outbox.cif.g08.bks.cpg/sg2_192_cif.got.tgz:382935.got - 2010.06.03 11:33:40.
