data_PCOD9029501
_publ_section_title
;
Structure prediction by ZEFSAII (Michael W. Deem and Ramdas Pophale) SiO2 
 PCOD9029501
Probable space group: P -1
;
_chemical_formula_sum "Si O2"
_cell_formula_units_Z 16
_cell_length_a 16.152979
_cell_length_b 8.668916
_cell_length_c 17.414969
_cell_angle_alpha 30.365901
_cell_angle_beta 41.923773
_cell_angle_gamma 42.257937
_cell_volume 788.106850
_symmetry_space_group_name_H-M "P -1"
_symmetry_group_IT_number 2
_symmetry_cell_setting 'triclinic'
loop_
_space_group_symop_operation_xyz
x,y,z
-x,-y,-z
loop_
_atom_site_type_symbol
_atom_site_label
_atom_site_fract_x
_atom_site_fract_y
_atom_site_fract_z
Si Si1 0.528809 0.208741 0.664072
Si Si2 0.048151 0.779828 0.811090
Si Si3 0.657353 0.333722 0.297176
Si Si4 0.041584 0.975408 0.391449
Si Si5 0.094633 0.526703 0.326520
Si Si6 0.366650 0.245373 0.340037
Si Si7 0.457473 0.356157 0.908433
Si Si8 0.254038 0.191667 0.221207
O O1 0.500000 0.500000 0.500000
O O2 0.420692 0.337782 0.747077
O O3 0.542714 0.904652 0.731300
O O4 0.668345 0.113145 0.650351
O O5 0.193323 0.733957 0.757883
O O6 0.039692 0.792677 0.718207
O O7 0.959196 0.113386 0.763683
O O8 0.000000 0.500000 0.000000
O O9 0.622672 0.396830 0.205536
O O10 0.615813 0.036087 0.488793
O O11 0.020776 0.641440 0.521742
O O12 0.177544 0.055634 0.267889
O O13 0.000000 0.000000 0.500000
O O14 0.217661 0.350085 0.370535
O O15 0.155799 0.450251 0.231867
O O16 0.416260 0.535676 0.207556
O O17 0.361873 0.341574 0.050003
O O18 0.500000 0.000000 0.000000
#
# Coordination Sequence:
#
# PCOD9029501 Si02
#       8
#     2   2   2   2   2   2   2   2
#     4   9  20  40  65  93 126 169 214 268 320 386
#     4  12  26  41  67 100 134 172 218 274 327 384
#     4  11  23  43  63  96 134 166 220 264 325 392
#     4  10  22  44  70  96 127 176 224 262 320 392
#     4  10  23  44  70  93 125 181 220 259 322 398
#     4  10  23  42  68  92 128 169 225 259 321 394
#     4  12  25  40  63 100 133 169 209 279 334 376
#     4  10  22  42  67  96 131 167 219 270 325 384
#
# _framework density 20.301815999999999
#
# number of rings (size 3 to 8) (size 9 to 14) (size 15 to 20)
#    0.000    1.500    2.500    1.500    5.250    3.000 
#    4.500    5.625    0.000    0.000    0.000    0.000 
#    0.000    0.000    0.000    0.000    0.000    0.000 
#
# Total GULP energy -89218.700320 kJ/mol
# GULP energy per Si atom -5576.168770 kJ/mol
# Density = 2.025561 g / cm^3
# Si number density = 20.301816 Si / 1000 Ang^3
#
#
#
# Elastic Constant Matrix: (Units=GPa)
#
#
# Indices 1 2 3 4 5 6 
#
# 1 106.5824 11.0206 35.6102 -13.1667 -7.0521 -4.4877
# 2 11.0206 100.9166 18.0532 -6.7356 -4.2188 6.3669
# 3 35.6102 18.0532 98.2206 -4.8861 -14.3940 16.0544
# 4 -13.1667 -6.7356 -4.8861 31.6847 4.9333 -0.1577
# 5 -7.0521 -4.2188 -14.3940 4.9333 31.9379 0.9486
# 6 -4.4877 6.3669 16.0544 -0.1577 0.9486 21.4106
#
#
#
# Elastic Compliance Matrix: (Units=1/GPa)
#
#
# Indices 1 2 3 4 5 6 
#
# 1 0.011923 -0.000539 -0.005187 0.004169 -0.000616 0.006606
# 2 -0.000539 0.010465 -0.001180 0.001724 0.000535 -0.002351
# 3 -0.005187 -0.001180 0.015132 -0.001076 0.006052 -0.012359
# 4 0.004169 0.001724 -0.001076 0.034230 -0.004672 0.001627
# 5 -0.000616 0.000535 0.006052 -0.004672 0.034885 -0.006406
# 6 0.006606 -0.002351 -0.012359 0.001627 -0.006406 0.058353
#
#
# Mechanical properties :
#
#
# Convention : Reuss Voigt Hill
#
# Bulk Modulus (GPa) = 42.17554 48.34306 45.25930
# Shear Modulus (GPa) = 26.78084 33.07567 29.92826
#
# Velocity S-wave (km/s) = 3.63593 4.04071 3.84365
# Velocity P-wave (km/s) = 6.20049 6.75527 6.48381
#
# Compressibility (1/GPa) = 0.02371043
#
# Stress axis : x y z
#
# Youngs Moduli (GPa) = 83.86826 95.55840 66.08576
#
# Poissons Ratio (x) = 0.05146 0.34276
# Poissons Ratio (y) = 0.04517 0.07796
# Poissons Ratio (z) = 0.43499 0.11273
#
# Static dielectric constant tensor:
#      x y z
#    x 1.748220 0.028460 0.028720 
#    y 0.028460 1.738550 0.030650 
#    z 0.028720 0.030650 1.736840 
# 
# From -- ./inp_files/261717.got.cif
#   From: 2010.05.17/outbox.cif.g08.bks.cpg/sg2_131_cif.got.tgz:261717.got - 2010.06.03 11:33:40.
