data_PCOD9029397
_publ_section_title
;
Structure prediction by ZEFSAII (Michael W. Deem and Ramdas Pophale) SiO2 
 PCOD9029397
Probable space group: P -1
;
_chemical_formula_sum "Si O2"
_cell_formula_units_Z 16
_cell_length_a 6.755726
_cell_length_b 6.858693
_cell_length_c 16.206892
_cell_angle_alpha 99.966361
_cell_angle_beta 110.831687
_cell_angle_gamma 100.232051
_cell_volume 667.528948
_symmetry_space_group_name_H-M "P -1"
_symmetry_group_IT_number 2
_symmetry_cell_setting 'triclinic'
loop_
_space_group_symop_operation_xyz
x,y,z
-x,-y,-z
loop_
_atom_site_type_symbol
_atom_site_label
_atom_site_fract_x
_atom_site_fract_y
_atom_site_fract_z
Si Si1 0.958113 0.876330 0.611504
Si Si2 0.075104 0.402711 0.125732
Si Si3 0.488724 0.692372 0.567147
Si Si4 0.340995 0.078609 0.787723
Si Si5 0.032479 0.723670 0.449151
Si Si6 0.563233 0.773741 0.765247
Si Si7 0.632097 0.352582 0.963665
Si Si8 0.830747 0.525662 0.246091
O O1 0.716959 0.860897 0.605105
O O2 0.939885 0.699236 0.526792
O O3 0.037361 0.084178 0.586483
O O4 0.121454 0.906291 0.715311
O O5 0.008119 0.525748 0.201713
O O6 0.203364 0.245361 0.170736
O O7 0.241781 0.536795 0.092575
O O8 0.837135 0.314794 0.042375
O O9 0.500000 0.500000 0.500000
O O10 0.289237 0.771556 0.509617
O O11 0.484681 0.645722 0.660633
O O12 0.451887 0.143514 0.897526
O O13 0.280200 0.287466 0.769854
O O14 0.528979 0.998994 0.762422
O O15 0.956240 0.557150 0.354411
O O16 0.378203 0.670940 0.797668
O O17 0.500000 0.500000 0.000000
#
# Coordination Sequence:
#
# PCOD9029397 Si02
#       8
#     2   2   2   2   2   2   2   2
#     4  10  23  43  63  99 135 184 240 275 341 410
#     4  11  24  45  78 103 136 181 233 290 350 437
#     4  12  25  40  65 102 141 188 236 285 340 414
#     4  11  24  45  73  98 144 187 223 303 347 411
#     4  10  22  42  67  92 139 190 223 288 335 403
#     4  12  26  43  69 109 145 178 239 293 349 418
#     4  11  23  50  77 104 138 181 238 285 367 426
#     4  11  24  47  70 102 146 188 231 288 359 411
#
# _framework density 23.968999
#
# number of rings (size 3 to 8) (size 9 to 14) (size 15 to 20)
#    0.000    1.000    3.750    1.875    3.500    3.500 
#    4.500    2.500    0.000    0.000    0.000    0.000 
#    0.000    0.000    0.000    0.000    0.000    0.000 
#
# Total GULP energy -89257.561849 kJ/mol
# GULP energy per Si atom -5578.597616 kJ/mol
# Density = 2.391444 g / cm^3
# Si number density = 23.968999 Si / 1000 Ang^3
#
#
#
# Elastic Constant Matrix: (Units=GPa)
#
#
# Indices 1 2 3 4 5 6 
#
# 1 154.2939 35.3854 83.7712 -3.7116 10.1262 -28.1094
# 2 35.3854 48.2674 18.4505 -3.9187 -7.1310 -26.7644
# 3 83.7712 18.4505 158.5944 9.0689 19.7532 -8.9132
# 4 -3.7116 -3.9187 9.0689 35.1156 -5.3997 10.3639
# 5 10.1262 -7.1310 19.7532 -5.3997 54.5042 -11.5498
# 6 -28.1094 -26.7644 -8.9132 10.3639 -11.5498 41.2348
#
#
#
# Elastic Compliance Matrix: (Units=1/GPa)
#
#
# Indices 1 2 3 4 5 6 
#
# 1 0.010827 -0.003896 -0.005150 0.001026 0.000196 0.003536
# 2 -0.003896 0.041959 -0.002805 -0.001247 0.013026 0.027934
# 3 -0.005150 -0.002805 0.009820 -0.002951 -0.004023 -0.003594
# 4 0.001026 -0.001247 -0.002951 0.031953 0.002149 -0.008176
# 5 0.000196 0.013026 -0.004023 0.002149 0.024671 0.014089
# 6 0.003536 0.027934 -0.003594 -0.008176 0.014089 0.050018
#
#
# Mechanical properties :
#
#
# Convention : Reuss Voigt Hill
#
# Bulk Modulus (GPa) = 25.70405 70.70777 48.20591
# Shear Modulus (GPa) = 24.28178 41.07416 32.67797
#
# Velocity S-wave (km/s) = 3.18630 4.14410 3.69635
# Velocity P-wave (km/s) = 4.92786 7.24305 6.19458
#
# Compressibility (1/GPa) = 0.03890437
#
# Stress axis : x y z
#
# Youngs Moduli (GPa) = 92.36566 23.83286 101.83516
#
# Poissons Ratio (x) = 0.09285 0.52444
# Poissons Ratio (y) = 0.35983 0.28563
# Poissons Ratio (z) = 0.47567 0.06685
#
# Static dielectric constant tensor:
#      x y z
#    x 1.940550 0.012660 -0.031870 
#    y 0.012660 1.992790 0.016580 
#    z -0.031870 0.016580 1.974100 
# 
# From -- ./inp_files/547414.got.cif
#   From: 2010.05.17/outbox.cif.g08.bks.cpg/sg2_274_cif.got.tgz:547414.got - 2010.06.03 11:33:40.
