data_PCOD9029686
_publ_section_title
;
Structure prediction by ZEFSAII (Michael W. Deem and Ramdas Pophale) SiO2 
 PCOD9029686
Probable space group: P -1
;
_chemical_formula_sum "Si O2"
_cell_formula_units_Z 15
_cell_length_a 20.973506
_cell_length_b 5.581441
_cell_length_c 12.777772
_cell_angle_alpha 67.756903
_cell_angle_beta 150.831892
_cell_angle_gamma 119.568076
_cell_volume 629.219562
_symmetry_space_group_name_H-M "P -1"
_symmetry_group_IT_number 2
_symmetry_cell_setting 'triclinic'
loop_
_space_group_symop_operation_xyz
x,y,z
-x,-y,-z
loop_
_atom_site_type_symbol
_atom_site_label
_atom_site_fract_x
_atom_site_fract_y
_atom_site_fract_z
Si Si1 0.561316 0.071095 0.773450
Si Si2 0.000000 0.500000 0.500000
Si Si3 0.719206 0.521197 0.039271
Si Si4 0.359956 0.327796 0.887354
Si Si5 0.121712 0.032064 0.253913
Si Si6 0.251149 0.698289 0.350139
Si Si7 0.183839 0.854305 0.006458
Si Si8 0.073803 0.068852 0.411902
O O1 0.417119 0.874269 0.551082
O O2 0.688283 0.209978 0.851166
O O3 0.606197 0.893598 0.954468
O O4 0.568098 0.339063 0.804683
O O5 0.846952 0.412162 0.232721
O O6 0.980004 0.176748 0.541605
O O7 0.696845 0.515786 0.132822
O O8 0.764516 0.817609 0.999213
O O9 0.236048 0.218719 0.644707
O O10 0.500000 0.500000 0.000000
O O11 0.210262 0.364904 0.341778
O O12 0.202290 0.836103 0.357430
O O13 0.060707 0.943972 0.297028
O O14 0.000000 0.000000 0.000000
O O15 0.178104 0.773781 0.132028
O O16 0.024009 0.747589 0.753571
#
# Coordination Sequence:
#
# PCOD9029686 Si02
#       8
#     2   1   2   2   2   2   2   2
#     4  11  25  44  71 104 150 192 250 308 381 445
#     4  10  22  42  68 104 138 186 242 308 364 436
#     4  10  24  42  69 107 142 192 250 309 373 444
#     4  11  25  44  66 104 147 192 247 303 381 445
#     4  12  28  52  77 113 148 200 254 311 373 451
#     4  12  28  49  77 109 154 199 254 307 380 446
#     4  10  25  44  71 105 144 198 247 317 371 446
#     4  11  24  46  75 107 149 194 250 316 371 450
#
# _framework density 23.839054999999998
#
# number of rings (size 3 to 8) (size 9 to 14) (size 15 to 20)
#    0.000    1.067    2.667    1.600    9.333    4.800 
#    0.000    0.000    0.000    0.000    0.000    0.000 
#    0.000    0.000    0.000    0.000    0.000    0.000 
#
# Total GULP energy -83511.708249 kJ/mol
# GULP energy per Si atom -5567.447217 kJ/mol
# Density = 2.378480 g / cm^3
# Si number density = 23.839055 Si / 1000 Ang^3
#
#
#
# Elastic Constant Matrix: (Units=GPa)
#
#
# Indices 1 2 3 4 5 6 
#
# 1 111.0609 17.1596 -5.3839 -7.3367 -2.9265 0.1651
# 2 17.1596 66.4243 26.9164 13.9418 -2.1932 -1.3414
# 3 -5.3839 26.9164 105.1232 9.6155 11.0835 2.3178
# 4 -7.3367 13.9418 9.6155 31.9993 8.5819 3.5935
# 5 -2.9265 -2.1932 11.0835 8.5819 31.3997 3.6878
# 6 0.1651 -1.3414 2.3178 3.5935 3.6878 23.5508
#
#
#
# Elastic Compliance Matrix: (Units=1/GPa)
#
#
# Indices 1 2 3 4 5 6 
#
# 1 0.009913 -0.003935 0.001257 0.003914 -0.000759 -0.000896
# 2 -0.003935 0.020473 -0.005146 -0.009972 0.005325 0.002388
# 3 0.001257 -0.005146 0.011327 0.000355 -0.004243 -0.000806
# 4 0.003914 -0.009972 0.000355 0.039834 -0.010754 -0.005024
# 5 -0.000759 0.005325 -0.004243 -0.010754 0.036988 -0.003425
# 6 -0.000896 0.002388 -0.000806 -0.005024 -0.003425 0.043986
#
#
# Mechanical properties :
#
#
# Convention : Reuss Voigt Hill
#
# Bulk Modulus (GPa) = 38.36304 39.99918 39.18111
# Shear Modulus (GPa) = 26.75842 33.65103 30.20473
#
# Velocity S-wave (km/s) = 3.35395 3.76119 3.56339
# Velocity P-wave (km/s) = 5.57908 5.97305 5.77942
#
# Compressibility (1/GPa) = 0.02606675
#
# Stress axis : x y z
#
# Youngs Moduli (GPa) = 100.87967 48.84393 88.28315
#
# Poissons Ratio (x) = 0.19219 -0.11097
# Poissons Ratio (y) = 0.39693 0.45427
# Poissons Ratio (z) = -0.12680 0.25133
#
# Static dielectric constant tensor:
#      x y z
#    x 1.993390 -0.073410 0.020700 
#    y -0.073410 2.014660 0.062070 
#    z 0.020700 0.062070 1.956820 
# 
# From -- ./inp_files/67468.got.cif
#   From: 2010.05.17/outbox.cif.g08.bks.cpg/sg2_34_cif.got.tgz:67468.got - 2010.06.03 11:33:40.
