data_PCOD9029537
_publ_section_title
;
Structure prediction by ZEFSAII (Michael W. Deem and Ramdas Pophale) SiO2 
 PCOD9029537
Probable space group: P -1
;
_chemical_formula_sum "Si O2"
_cell_formula_units_Z 16
_cell_length_a 8.128690
_cell_length_b 21.764203
_cell_length_c 12.432335
_cell_angle_alpha 159.467486
_cell_angle_beta 116.556668
_cell_angle_gamma 65.012109
_cell_volume 689.994660
_symmetry_space_group_name_H-M "P -1"
_symmetry_group_IT_number 2
_symmetry_cell_setting 'triclinic'
loop_
_space_group_symop_operation_xyz
x,y,z
-x,-y,-z
loop_
_atom_site_type_symbol
_atom_site_label
_atom_site_fract_x
_atom_site_fract_y
_atom_site_fract_z
Si Si1 0.160441 0.126878 0.298368
Si Si2 0.288129 0.496291 0.884150
Si Si3 0.391638 0.174887 0.790293
Si Si4 0.743361 0.368545 0.145942
Si Si5 0.961807 0.009874 0.630941
Si Si6 0.584902 0.126670 0.143161
Si Si7 0.621000 0.635872 0.689036
Si Si8 0.107800 0.772575 0.440005
O O1 0.221817 0.296128 0.527357
O O2 0.081062 0.208249 0.517260
O O3 0.333588 0.995241 0.129062
O O4 0.000000 0.000000 0.000000
O O5 0.254038 0.580159 0.894090
O O6 0.500000 0.500000 0.000000
O O7 0.158852 0.607772 0.110735
O O8 0.500000 0.000000 0.500000
O O9 0.186410 0.142015 0.638314
O O10 0.527099 0.320016 0.021570
O O11 0.356988 0.212779 0.968391
O O12 0.782823 0.518551 0.491943
O O13 0.867787 0.198409 0.930789
O O14 0.000000 0.000000 0.500000
O O15 0.122419 0.948116 0.656942
O O16 0.464397 0.273227 0.291277
O O17 0.743074 0.222703 0.413508
O O18 0.500000 0.000000 0.000000
O O19 0.500000 0.500000 0.500000
#
# Coordination Sequence:
#
# PCOD9029537 Si02
#       8
#     2   2   2   2   2   2   2   2
#     4  10  25  45  66  99 143 185 232 295 376 428
#     4  12  24  43  72 104 136 187 247 305 353 438
#     4   9  22  39  68  96 133 185 230 286 348 429
#     4  10  22  43  66 101 137 180 239 289 359 421
#     4  11  23  43  66 102 144 182 231 289 367 431
#     4  11  24  44  72 100 136 189 240 294 363 438
#     4  10  22  42  67  97 132 173 239 286 344 421
#     4  11  25  44  69 102 143 182 241 298 368 432
#
# _framework density 23.188586000000001
#
# number of rings (size 3 to 8) (size 9 to 14) (size 15 to 20)
#    0.000    1.500    1.250    2.625    8.750    1.000 
#    9.000    0.625    0.000    0.000    0.000    0.000 
#    0.000    0.000    0.000    0.000    0.000    0.000 
#
# Total GULP energy -89192.516033 kJ/mol
# GULP energy per Si atom -5574.532252 kJ/mol
# Density = 2.313581 g / cm^3
# Si number density = 23.188586 Si / 1000 Ang^3
#
#
#
# Elastic Constant Matrix: (Units=GPa)
#
#
# Indices 1 2 3 4 5 6 
#
# 1 65.1285 -0.9772 38.3670 -0.6051 -17.9210 11.8862
# 2 -0.9772 101.3536 40.4838 3.9054 -1.0312 1.6851
# 3 38.3670 40.4838 125.8551 4.2891 -32.5747 3.5239
# 4 -0.6051 3.9054 4.2891 36.4663 7.1453 -8.6020
# 5 -17.9210 -1.0312 -32.5747 7.1453 59.5209 0.8399
# 6 11.8862 1.6851 3.5239 -8.6020 0.8399 23.8641
#
#
#
# Elastic Compliance Matrix: (Units=1/GPa)
#
#
# Indices 1 2 3 4 5 6 
#
# 1 0.022269 0.003106 -0.006412 -0.002639 0.003728 -0.011447
# 2 0.003106 0.011988 -0.005124 -0.000766 -0.001544 -0.001858
# 3 -0.006412 -0.005124 0.012965 -0.001943 0.005299 0.000754
# 4 -0.002639 -0.000766 -0.001943 0.032007 -0.005903 0.013401
# 5 0.003728 -0.001544 0.005299 -0.005903 0.021581 -0.005417
# 6 -0.011447 -0.001858 0.000754 0.013401 -0.005417 0.052646
#
#
# Mechanical properties :
#
#
# Convention : Reuss Voigt Hill
#
# Bulk Modulus (GPa) = 32.93785 49.78717 41.36251
# Shear Modulus (GPa) = 27.71030 38.26780 32.98905
#
# Velocity S-wave (km/s) = 3.46062 4.06678 3.77588
# Velocity P-wave (km/s) = 5.49573 6.60066 6.07338
#
# Compressibility (1/GPa) = 0.03036021
#
# Stress axis : x y z
#
# Youngs Moduli (GPa) = 44.90625 83.41720 77.12812
#
# Poissons Ratio (x) = -0.25909 0.49458
# Poissons Ratio (y) = -0.13948 0.39524
# Poissons Ratio (z) = 0.28796 0.42746
#
# Static dielectric constant tensor:
#      x y z
#    x 1.961840 -0.011620 0.100410 
#    y -0.011620 1.875160 -0.008130 
#    z 0.100410 -0.008130 2.158170 
# 
# From -- ./inp_files/226646.got.cif
#   From: 2010.05.17/outbox.cif.g08.bks.cpg/sg2_114_cif.got.tgz:226646.got - 2010.06.03 11:33:40.
