data_PCOD9029256
_publ_section_title
;
Structure prediction by ZEFSAII (Michael W. Deem and Ramdas Pophale) SiO2 
 PCOD9029256
Probable space group: P -1
;
_chemical_formula_sum "Si O2"
_cell_formula_units_Z 11
_cell_length_a 14.181767
_cell_length_b 11.868288
_cell_length_c 7.485342
_cell_angle_alpha 123.702137
_cell_angle_beta 46.667565
_cell_angle_gamma 149.686565
_cell_volume 460.120886
_symmetry_space_group_name_H-M "P -1"
_symmetry_group_IT_number 2
_symmetry_cell_setting 'triclinic'
loop_
_space_group_symop_operation_xyz
x,y,z
-x,-y,-z
loop_
_atom_site_type_symbol
_atom_site_label
_atom_site_fract_x
_atom_site_fract_y
_atom_site_fract_z
Si Si1 0.348881 0.971296 0.784556
Si Si2 0.894528 0.490937 0.964216
Si Si3 0.938734 0.039098 0.358305
Si Si4 0.661538 0.774870 0.176137
Si Si5 0.500000 0.000000 0.000000
Si Si6 0.236075 0.361954 0.547458
O O1 0.386981 0.967230 0.937085
O O2 0.500000 0.000000 0.500000
O O3 0.400192 0.169157 0.844795
O O4 0.103603 0.739991 0.834882
O O5 0.742788 0.484222 0.231742
O O6 0.000000 0.500000 0.000000
O O7 0.736154 0.263232 0.862573
O O8 0.037791 0.214790 0.537790
O O9 0.763558 0.942094 0.359481
O O10 0.828250 0.818633 0.406352
O O11 0.148718 0.161542 0.086747
O O12 0.455631 0.524914 0.297679
#
# Coordination Sequence:
#
# PCOD9029256 Si02
#       6
#     2   2   2   2   1   2
#     4  11  24  44  68 103 135 178 232 281 342 413
#     4  10  22  42  66  98 133 172 228 277 337 403
#     4  10  24  42  66 100 136 179 218 281 336 397
#     4  11  22  42  66 101 136 173 230 271 340 410
#     4  10  24  44  68  94 134 180 216 286 346 384
#     4  11  22  43  67  99 136 176 226 278 335 406
#
# _framework density 23.906760999999999
#
# number of rings (size 3 to 8) (size 9 to 14) (size 15 to 20)
#    0.000    1.455    1.818    3.273    0.000    8.000 
#    3.273    0.000    0.000    0.000    0.000    0.000 
#    0.000    0.000    0.000    0.000    0.000    0.000 
#
# Total GULP energy -61240.833556 kJ/mol
# GULP energy per Si atom -5567.348505 kJ/mol
# Density = 2.385235 g / cm^3
# Si number density = 23.906761 Si / 1000 Ang^3
#
#
#
# Elastic Constant Matrix: (Units=GPa)
#
#
# Indices 1 2 3 4 5 6 
#
# 1 97.5849 22.8270 8.8840 -5.9371 14.0490 19.3312
# 2 22.8270 112.1990 30.4707 -49.9062 -2.7421 18.2613
# 3 8.8840 30.4707 65.1732 -32.0345 -8.9801 -13.4453
# 4 -5.9371 -49.9062 -32.0345 41.8131 1.5092 6.7523
# 5 14.0490 -2.7421 -8.9801 1.5092 23.9980 -1.8273
# 6 19.3312 18.2613 -13.4453 6.7523 -1.8273 33.1755
#
#
#
# Elastic Compliance Matrix: (Units=1/GPa)
#
#
# Indices 1 2 3 4 5 6 
#
# 1 0.014852 0.000526 -0.006267 0.000338 -0.011931 -0.012210
# 2 0.000526 0.032273 0.000424 0.043288 -0.001223 -0.026778
# 3 -0.006267 0.000424 0.030776 0.020637 0.014889 0.012512
# 4 0.000338 0.043288 0.020637 0.096992 0.003691 -0.035199
# 5 -0.011931 -0.001223 0.014889 0.003691 0.055068 0.015941
# 6 -0.012210 -0.026778 0.012512 -0.035199 0.015941 0.065110
#
#
# Mechanical properties :
#
#
# Convention : Reuss Voigt Hill
#
# Bulk Modulus (GPa) = 14.86622 44.36895 29.61758
# Shear Modulus (GPa) = 15.23796 33.98234 24.61015
#
# Velocity S-wave (km/s) = 2.52740 3.77431 3.21194
# Velocity P-wave (km/s) = 3.84043 6.13134 5.11577
#
# Compressibility (1/GPa) = 0.06726662
#
# Stress axis : x y z
#
# Youngs Moduli (GPa) = 67.33176 30.98525 32.49277
#
# Poissons Ratio (x) = -0.01631 0.20365
# Poissons Ratio (y) = -0.03544 -0.01377
# Poissons Ratio (z) = 0.42200 -0.01313
#
# Static dielectric constant tensor:
#      x y z
#    x 1.896420 0.025720 0.046940 
#    y 0.025720 1.948650 0.027450 
#    z 0.046940 0.027450 1.986500 
# 
# From -- ./inp_files/308456.got.cif
#   From: 2010.05.17/outbox.cif.g08.bks.cpg/sg2_155_cif.got.tgz:308456.got - 2010.06.03 11:33:40.
