data_PCOD9029877
_publ_section_title
;
Structure prediction by ZEFSAII (Michael W. Deem and Ramdas Pophale) SiO2 
 PCOD9029877
Probable space group: P -1
;
_chemical_formula_sum "Si O2"
_cell_formula_units_Z 13
_cell_length_a 9.479533
_cell_length_b 10.963369
_cell_length_c 5.360988
_cell_angle_alpha 60.905720
_cell_angle_beta 72.100734
_cell_angle_gamma 69.823269
_cell_volume 450.306176
_symmetry_space_group_name_H-M "P -1"
_symmetry_group_IT_number 2
_symmetry_cell_setting 'triclinic'
loop_
_space_group_symop_operation_xyz
x,y,z
-x,-y,-z
loop_
_atom_site_type_symbol
_atom_site_label
_atom_site_fract_x
_atom_site_fract_y
_atom_site_fract_z
Si Si1 0.058317 0.259711 0.179625
Si Si2 0.000000 0.000000 0.500000
Si Si3 0.782505 0.292344 0.034714
Si Si4 0.187404 0.501959 0.609876
Si Si5 0.571103 0.880860 0.379854
Si Si6 0.509111 0.606257 0.664463
Si Si7 0.709299 0.091230 0.873618
O O1 0.938872 0.377122 0.293326
O O2 0.129115 0.108239 0.415829
O O3 0.942163 0.188786 0.137271
O O4 0.146784 0.355106 0.875343
O O5 0.127444 0.917759 0.318172
O O6 0.825645 0.426990 0.735210
O O7 0.695614 0.210910 0.975582
O O8 0.673399 0.325096 0.302408
O O9 0.374561 0.459439 0.556073
O O10 0.600465 0.719878 0.618336
O O11 0.443970 0.875004 0.242702
O O12 0.500000 0.000000 0.500000
O O13 0.707276 0.934578 0.132837
O O14 0.500000 0.500000 0.000000
#
# Coordination Sequence:
#
# PCOD9029877 Si02
#       7
#     2   1   2   2   2   2   2
#     4  11  24  43  69  93 138 176 218 274 327 389
#     4  12  24  44  66 100 128 182 222 268 332 392
#     4  11  22  44  68  97 131 176 218 275 329 390
#     4  10  23  45  63  99 132 172 224 268 326 396
#     4  11  23  46  71  95 134 172 220 278 330 389
#     4  10  22  42  68  98 128 172 219 268 335 387
#     4  11  25  43  68 100 135 170 224 275 330 393
#
# _framework density 28.869247000000001
#
# number of rings (size 3 to 8) (size 9 to 14) (size 15 to 20)
#    0.000    1.231    3.077    2.308    0.000    1.231 
#    8.308    3.077    0.000    0.000    0.000    0.000 
#    0.000    0.000    0.000    0.000    0.000    0.000 
#
# Total GULP energy -72397.235462 kJ/mol
# GULP energy per Si atom -5569.018112 kJ/mol
# Density = 2.880354 g / cm^3
# Si number density = 28.869247 Si / 1000 Ang^3
#
#
#
# Elastic Constant Matrix: (Units=GPa)
#
#
# Indices 1 2 3 4 5 6 
#
# 1 93.3051 -1.2521 53.9613 20.1778 -14.5623 -3.7707
# 2 -1.2521 188.4610 66.6768 1.3053 -24.6996 11.4161
# 3 53.9613 66.6768 200.8457 -20.8836 -79.5987 19.6924
# 4 20.1778 1.3053 -20.8836 74.6827 4.0697 -13.2560
# 5 -14.5623 -24.6996 -79.5987 4.0697 66.7082 3.9097
# 6 -3.7707 11.4161 19.6924 -13.2560 3.9097 40.0114
#
#
#
# Elastic Compliance Matrix: (Units=1/GPa)
#
#
# Indices 1 2 3 4 5 6 
#
# 1 0.015855 0.002059 -0.007834 -0.005639 -0.004979 0.003381
# 2 0.002059 0.006352 -0.003052 -0.001583 -0.000710 -0.000571
# 3 -0.007834 -0.003052 0.015652 0.004305 0.016025 -0.007710
# 4 -0.005639 -0.001583 0.004305 0.016577 0.002127 0.003086
# 5 -0.004979 -0.000710 0.016025 0.002127 0.033260 -0.010699
# 6 0.003381 -0.000571 -0.007710 0.003086 -0.010699 0.031337
#
#
# Mechanical properties :
#
#
# Convention : Reuss Voigt Hill
#
# Bulk Modulus (GPa) = 49.49588 80.15376 64.82482
# Shear Modulus (GPa) = 34.86219 60.49552 47.67885
#
# Velocity S-wave (km/s) = 3.47881 4.58263 4.06833
# Velocity P-wave (km/s) = 5.77219 7.47164 6.67621
#
# Compressibility (1/GPa) = 0.02020370
#
# Stress axis : x y z
#
# Youngs Moduli (GPa) = 63.07159 157.42822 63.89122
#
# Poissons Ratio (x) = -0.32411 0.50054
# Poissons Ratio (y) = -0.12985 0.19500
# Poissons Ratio (z) = 0.49412 0.48048
#
# Static dielectric constant tensor:
#      x y z
#    x 2.169440 0.407970 -0.333390 
#    y 0.407970 1.707340 0.842860 
#    z -0.333390 0.842860 1.390430 
# 
# From -- ./inp_files/22992.got.cif
#   From: 2010.05.17/outbox.cif.g08.bks.cpg/sg2_12_cif.got.tgz:22992.got - 2010.06.03 11:33:40.
