data_PCOD9029771
_publ_section_title
;
Structure prediction by ZEFSAII (Michael W. Deem and Ramdas Pophale) SiO2 
 PCOD9029771
Probable space group: P -1
;
_chemical_formula_sum "Si O2"
_cell_formula_units_Z 16
_cell_length_a 8.115193
_cell_length_b 14.806589
_cell_length_c 15.222490
_cell_angle_alpha 27.361046
_cell_angle_beta 65.217143
_cell_angle_gamma 69.973512
_cell_volume 761.276798
_symmetry_space_group_name_H-M "P -1"
_symmetry_group_IT_number 2
_symmetry_cell_setting 'triclinic'
loop_
_space_group_symop_operation_xyz
x,y,z
-x,-y,-z
loop_
_atom_site_type_symbol
_atom_site_label
_atom_site_fract_x
_atom_site_fract_y
_atom_site_fract_z
Si Si1 0.480142 0.730877 0.805770
Si Si2 0.586876 0.311951 0.341887
Si Si3 0.134427 0.719111 0.021782
Si Si4 0.211147 0.299028 0.988795
Si Si5 0.748594 0.524705 0.623770
Si Si6 0.856404 0.924074 0.171719
Si Si7 0.185869 0.028575 0.382281
Si Si8 0.550350 0.128536 0.963085
O O1 0.454929 0.778129 0.667383
O O2 0.659997 0.839052 0.713549
O O3 0.500000 0.500000 0.000000
O O4 0.306668 0.751267 0.890363
O O5 0.695317 0.523921 0.127944
O O6 0.411141 0.354217 0.401574
O O7 0.717118 0.170559 0.483856
O O8 0.170425 0.582694 0.216232
O O9 0.954403 0.630148 0.091120
O O10 0.097347 0.936454 0.876201
O O11 0.367787 0.204393 0.979984
O O12 0.135747 0.132039 0.215093
O O13 0.672530 0.336425 0.745320
O O14 0.857314 0.694467 0.395649
O O15 0.661754 0.991008 0.121774
O O16 0.000000 0.000000 0.000000
O O17 0.000000 0.000000 0.500000
O O18 0.500000 0.000000 0.000000
#
# Coordination Sequence:
#
# PCOD9029771 Si02
#       8
#     2   2   2   2   2   2   2   2
#     4  12  22  43  67  91 137 178 215 276 329 387
#     4  11  23  41  68  93 132 175 224 267 333 396
#     4  11  24  41  67  95 132 176 223 272 331 399
#     4  11  24  43  63  98 134 172 216 281 329 388
#     4  10  22  42  68  94 126 175 221 264 336 401
#     4  11  24  44  68  95 131 173 221 276 330 402
#     4  12  26  40  63  98 133 174 225 271 328 394
#     4  10  22  43  68  96 130 163 215 280 339 393
#
# _framework density 21.017323999999999
#
# number of rings (size 3 to 8) (size 9 to 14) (size 15 to 20)
#    0.000    1.000    2.500    4.875    1.750    5.500 
#    0.000    3.750    0.000    0.000    0.000    0.000 
#    0.000    0.000    0.000    0.000    0.000    0.000 
#
# Total GULP energy -89369.764267 kJ/mol
# GULP energy per Si atom -5585.610267 kJ/mol
# Density = 2.096949 g / cm^3
# Si number density = 21.017324 Si / 1000 Ang^3
#
#
#
# Elastic Constant Matrix: (Units=GPa)
#
#
# Indices 1 2 3 4 5 6 
#
# 1 101.5815 27.9152 31.4256 4.4211 -10.0405 -1.1168
# 2 27.9152 103.7663 40.8887 -9.6993 -13.2108 10.3231
# 3 31.4256 40.8887 129.3511 -3.6127 0.5981 -2.6926
# 4 4.4211 -9.6993 -3.6127 25.2444 -9.5134 3.2257
# 5 -10.0405 -13.2108 0.5981 -9.5134 27.1693 3.6051
# 6 -1.1168 10.3231 -2.6926 3.2257 3.6051 27.4482
#
#
#
# Elastic Compliance Matrix: (Units=1/GPa)
#
#
# Indices 1 2 3 4 5 6 
#
# 1 0.011471 -0.002350 -0.002101 -0.002577 0.002085 0.001174
# 2 -0.002350 0.015452 -0.004242 0.011432 0.011967 -0.009238
# 3 -0.002101 -0.004242 0.009616 -0.001851 -0.004125 0.003212
# 4 -0.002577 0.011432 -0.001851 0.055915 0.026162 -0.014593
# 5 0.002085 0.011967 -0.004125 0.026162 0.054647 -0.015072
# 6 0.001174 -0.009238 0.003212 -0.014593 -0.015072 0.043964
#
#
# Mechanical properties :
#
#
# Convention : Reuss Voigt Hill
#
# Bulk Modulus (GPa) = 52.21066 59.46199 55.83633
# Shear Modulus (GPa) = 23.27345 31.60366 27.43856
#
# Velocity S-wave (km/s) = 3.33129 3.88196 3.61712
# Velocity P-wave (km/s) = 6.30018 6.96032 6.63847
#
# Compressibility (1/GPa) = 0.01915318
#
# Stress axis : x y z
#
# Youngs Moduli (GPa) = 87.17384 64.71700 103.98812
#
# Poissons Ratio (x) = 0.15210 0.21850
# Poissons Ratio (y) = 0.20488 0.44110
# Poissons Ratio (z) = 0.18317 0.27452
#
# Static dielectric constant tensor:
#      x y z
#    x 2.063470 -0.561200 -0.598350 
#    y -0.561200 2.828240 1.125590 
#    z -0.598350 1.125590 2.917150 
# 
# From -- ./inp_files/503556.got.cif
#   From: 2010.05.17/outbox.cif.g08.bks.cpg/sg2_252_cif.got.tgz:503556.got - 2010.06.03 11:33:40.
