data_PCOD9029400
_publ_section_title
;
Structure prediction by ZEFSAII (Michael W. Deem and Ramdas Pophale) SiO2 
 PCOD9029400
Probable space group: P -1
;
_chemical_formula_sum "Si O2"
_cell_formula_units_Z 16
_cell_length_a 8.769682
_cell_length_b 20.804354
_cell_length_c 11.837433
_cell_angle_alpha 25.259509
_cell_angle_beta 79.397798
_cell_angle_gamma 96.148164
_cell_volume 686.789433
_symmetry_space_group_name_H-M "P -1"
_symmetry_group_IT_number 2
_symmetry_cell_setting 'triclinic'
loop_
_space_group_symop_operation_xyz
x,y,z
-x,-y,-z
loop_
_atom_site_type_symbol
_atom_site_label
_atom_site_fract_x
_atom_site_fract_y
_atom_site_fract_z
Si Si1 0.425746 0.461039 0.392048
Si Si2 0.430153 0.930699 0.248870
Si Si3 0.177550 0.307420 0.891533
Si Si4 0.153645 0.497371 0.237361
Si Si5 0.226226 0.695187 0.255082
Si Si6 0.750126 0.156417 0.226931
Si Si7 0.979367 0.665880 0.724886
Si Si8 0.439757 0.581031 0.781188
O O1 0.259737 0.312512 0.747200
O O2 0.644869 0.639940 0.132970
O O3 0.345051 0.555005 0.186707
O O4 0.442870 0.354273 0.456291
O O5 0.206585 0.863319 0.394416
O O6 0.441388 0.755953 0.544499
O O7 0.500000 0.000000 0.000000
O O8 0.570651 0.102901 0.045116
O O9 0.226292 0.517512 0.554309
O O10 0.932731 0.143215 0.215713
O O11 0.953760 0.349808 0.574382
O O12 0.106985 0.377663 0.320972
O O13 0.190914 0.700519 0.901580
O O14 0.195200 0.717849 0.094349
O O15 0.500000 0.000000 0.500000
O O16 0.000000 0.500000 0.000000
O O17 0.796308 0.606958 0.919967
O O18 0.500000 0.500000 0.000000
#
# Coordination Sequence:
#
# PCOD9029400 Si02
#       8
#     2   2   2   2   2   2   2   2
#     4  11  21  39  69  88 130 174 219 257 338 413
#     4  11  23  41  67  98 127 173 232 276 317 396
#     4  10  22  42  67  93 124 177 219 272 332 394
#     4  11  20  42  65  90 129 170 218 267 331 401
#     4  11  21  41  65  92 126 164 229 273 317 389
#     4  11  24  37  66  97 121 165 221 281 325 379
#     4  10  23  39  63  94 128 175 218 272 333 392
#     4  11  24  40  64  95 135 178 212 271 350 398
#
# _framework density 23.296806
#
# number of rings (size 3 to 8) (size 9 to 14) (size 15 to 20)
#    0.000    1.250    5.000    1.500    8.750    0.000 
#    0.000    4.375    8.250    0.000    0.000    0.000 
#    0.000    0.000    0.000    0.000    0.000    0.000 
#
# Total GULP energy -89219.960890 kJ/mol
# GULP energy per Si atom -5576.247556 kJ/mol
# Density = 2.324378 g / cm^3
# Si number density = 23.296806 Si / 1000 Ang^3
#
#
#
# Elastic Constant Matrix: (Units=GPa)
#
#
# Indices 1 2 3 4 5 6 
#
# 1 137.1911 29.0295 38.0386 2.7290 -36.4673 16.3389
# 2 29.0295 97.5002 12.6500 -0.5057 -11.6880 -1.3365
# 3 38.0386 12.6500 74.7191 -4.6795 -29.4228 1.3168
# 4 2.7290 -0.5057 -4.6795 31.4553 5.2995 -8.0761
# 5 -36.4673 -11.6880 -29.4228 5.2995 45.8459 5.0867
# 6 16.3389 -1.3365 1.3168 -8.0761 5.0867 42.5016
#
#
#
# Elastic Compliance Matrix: (Units=1/GPa)
#
#
# Indices 1 2 3 4 5 6 
#
# 1 0.011415 -0.002217 -0.002379 -0.004346 0.008177 -0.006189
# 2 -0.002217 0.011067 -0.000530 0.000526 0.000517 0.001255
# 3 -0.002379 -0.000530 0.018661 0.001142 0.009888 -0.000647
# 4 -0.004346 0.000526 0.001142 0.036087 -0.007809 0.009444
# 5 0.008177 0.000517 0.009888 -0.007809 0.036730 -0.009313
# 6 -0.006189 0.001255 -0.000647 0.009444 -0.009313 0.028876
#
#
# Mechanical properties :
#
#
# Convention : Reuss Voigt Hill
#
# Bulk Modulus (GPa) = 32.37277 52.09406 42.23342
# Shear Modulus (GPa) = 30.60214 39.27339 34.93777
#
# Velocity S-wave (km/s) = 3.62826 4.11028 3.87677
# Velocity P-wave (km/s) = 5.61056 6.70339 6.18117
#
# Compressibility (1/GPa) = 0.03089016
#
# Stress axis : x y z
#
# Youngs Moduli (GPa) = 87.60458 90.35636 53.58705
#
# Poissons Ratio (x) = 0.20033 0.12749
# Poissons Ratio (y) = 0.19423 0.02842
# Poissons Ratio (z) = 0.20842 0.04792
#
# Static dielectric constant tensor:
#      x y z
#    x 2.002400 -0.076270 -0.053960 
#    y -0.076270 1.971730 0.044550 
#    z -0.053960 0.044550 1.944200 
# 
# From -- ./inp_files/404523.got.cif
#   From: 2010.05.17/outbox.cif.g08.bks.cpg/sg2_203_cif.got.tgz:404523.got - 2010.06.03 11:33:40.
