data_PCOD9029996
_publ_section_title
;
Structure prediction by ZEFSAII (Michael W. Deem and Ramdas Pophale) SiO2 
 PCOD9029996
Probable space group: P -1
;
_chemical_formula_sum "Si O2"
_cell_formula_units_Z 15
_cell_length_a 11.723102
_cell_length_b 9.204114
_cell_length_c 19.073451
_cell_angle_alpha 63.560064
_cell_angle_beta 28.076638
_cell_angle_gamma 83.694854
_cell_volume 642.580134
_symmetry_space_group_name_H-M "P -1"
_symmetry_group_IT_number 2
_symmetry_cell_setting 'triclinic'
loop_
_space_group_symop_operation_xyz
x,y,z
-x,-y,-z
loop_
_atom_site_type_symbol
_atom_site_label
_atom_site_fract_x
_atom_site_fract_y
_atom_site_fract_z
Si Si1 0.486066 0.943365 0.099702
Si Si2 0.569002 0.501249 0.382144
Si Si3 0.761058 0.648260 0.544215
Si Si4 0.855045 0.281875 0.289538
Si Si5 0.498271 0.226682 0.142932
Si Si6 0.890849 0.817811 0.947551
Si Si7 0.000000 0.000000 0.000000
Si Si8 0.180345 0.969790 0.509817
O O1 0.721664 0.898788 0.989313
O O2 0.103256 0.731770 0.369351
O O3 0.582889 0.131829 0.058729
O O4 0.500000 0.000000 0.000000
O O5 0.500000 0.500000 0.500000
O O6 0.280313 0.408316 0.503435
O O7 0.652611 0.349244 0.363303
O O8 0.853359 0.753962 0.153321
O O9 0.424998 0.435105 0.806797
O O10 0.783883 0.849162 0.504096
O O11 0.774069 0.156436 0.433806
O O12 0.217118 0.518727 0.053457
O O13 0.881245 0.170423 0.234068
O O14 0.179865 0.180546 0.297644
O O15 0.415357 0.092461 0.288560
O O16 0.056983 0.957283 0.897778
#
# Coordination Sequence:
#
# PCOD9029996 Si02
#       8
#     2   2   2   2   2   2   1   2
#     4  11  24  42  74 101 142 186 233 294 351 422
#     4  11  28  48  69 101 139 187 237 291 351 428
#     4  10  23  45  66 102 140 186 234 288 349 418
#     4  12  25  43  75 101 139 186 235 293 349 427
#     4  10  22  44  67 103 144 181 232 289 354 422
#     4  11  23  46  70 107 139 186 238 289 356 418
#     4  10  26  48  74  96 146 186 232 288 352 424
#     4  10  22  42  69 104 141 178 231 295 353 413
#
# _framework density 23.343391
#
# number of rings (size 3 to 8) (size 9 to 14) (size 15 to 20)
#    0.000    1.333    1.333    3.200    5.600    5.867 
#    2.400    0.000    0.000    0.000    0.000    0.000 
#    0.000    0.000    0.000    0.000    0.000    0.000 
#
# Total GULP energy -83721.558883 kJ/mol
# GULP energy per Si atom -5581.437259 kJ/mol
# Density = 2.329026 g / cm^3
# Si number density = 23.343391 Si / 1000 Ang^3
#
#
#
# Elastic Constant Matrix: (Units=GPa)
#
#
# Indices 1 2 3 4 5 6 
#
# 1 119.7316 57.9428 38.7421 6.1380 32.3111 12.3170
# 2 57.9428 135.7213 36.8325 11.5621 11.6605 5.8296
# 3 38.7421 36.8325 68.1249 -0.0974 15.4720 -4.8468
# 4 6.1380 11.5621 -0.0974 37.8491 -2.4175 7.9966
# 5 32.3111 11.6605 15.4720 -2.4175 38.9977 -2.4524
# 6 12.3170 5.8296 -4.8468 7.9966 -2.4524 47.1619
#
#
#
# Elastic Compliance Matrix: (Units=1/GPa)
#
#
# Indices 1 2 3 4 5 6 
#
# 1 0.014791 -0.004057 -0.004325 -0.000909 -0.009644 -0.004153
# 2 -0.004057 0.010125 -0.003537 -0.002326 0.001588 -0.000079
# 3 -0.004325 -0.003537 0.019972 0.000943 -0.003017 0.003302
# 4 -0.000909 -0.002326 0.000943 0.028300 0.002575 -0.004043
# 5 -0.009644 0.001588 -0.003017 0.002575 0.034727 0.003381
# 6 -0.004153 -0.000079 0.003302 -0.004043 0.003381 0.023499
#
#
# Mechanical properties :
#
#
# Convention : Reuss Voigt Hill
#
# Bulk Modulus (GPa) = 47.50233 65.62363 56.56298
# Shear Modulus (GPa) = 30.81356 37.47244 34.14300
#
# Velocity S-wave (km/s) = 3.63714 4.01093 3.82860
# Velocity P-wave (km/s) = 6.16700 7.04439 6.62025
#
# Compressibility (1/GPa) = 0.02105160
#
# Stress axis : x y z
#
# Youngs Moduli (GPa) = 67.60956 98.76738 50.07006
#
# Poissons Ratio (x) = 0.40065 0.21654
# Poissons Ratio (y) = 0.27426 0.17708
# Poissons Ratio (z) = 0.29240 0.34931
#
# Static dielectric constant tensor:
#      x y z
#    x 1.864200 -0.001060 -0.035270 
#    y -0.001060 1.822290 -0.003730 
#    z -0.035270 -0.003730 1.947430 
# 
# From -- ./inp_files/565865.got.cif
#   From: 2010.05.17/outbox.cif.g08.bks.cpg/sg2_283_cif.got.tgz:565865.got - 2010.06.03 11:33:40.
