data_PCOD9029075
_publ_section_title
;
Structure prediction by ZEFSAII (Michael W. Deem and Ramdas Pophale) SiO2 
 PCOD9029075
Probable space group: P -1
;
_chemical_formula_sum "Si O2"
_cell_formula_units_Z 14
_cell_length_a 11.346721
_cell_length_b 13.405728
_cell_length_c 4.928778
_cell_angle_alpha 87.929183
_cell_angle_beta 87.018530
_cell_angle_gamma 51.304191
_cell_volume 584.341506
_symmetry_space_group_name_H-M "P -1"
_symmetry_group_IT_number 2
_symmetry_cell_setting 'triclinic'
loop_
_space_group_symop_operation_xyz
x,y,z
-x,-y,-z
loop_
_atom_site_type_symbol
_atom_site_label
_atom_site_fract_x
_atom_site_fract_y
_atom_site_fract_z
Si Si1 0.555881 0.130942 0.970220
Si Si2 0.187786 0.925435 0.675546
Si Si3 0.876517 0.168662 0.804462
Si Si4 0.291558 0.135437 0.263325
Si Si5 0.310665 0.403054 0.846531
Si Si6 0.131493 0.298800 0.781853
Si Si7 0.793037 0.431852 0.652416
O O1 0.663840 0.113686 0.194206
O O2 0.422208 0.138877 0.132143
O O3 0.469761 0.263839 0.808038
O O4 0.647300 0.007421 0.778235
O O5 0.192741 0.880076 0.377503
O O6 0.134081 0.861914 0.882423
O O7 0.052891 0.077462 0.704609
O O8 0.796274 0.315030 0.746143
O O9 0.247550 0.187065 0.566788
O O10 0.149905 0.232610 0.072708
O O11 0.184130 0.384729 0.811558
O O12 0.271904 0.513157 0.640455
O O13 0.302321 0.449085 0.145133
O O14 0.965125 0.378111 0.675135
#
# Coordination Sequence:
#
# PCOD9029075 Si02
#       7
#     2   2   2   2   2   2   2
#     4  10  23  42  62  92 128 161 196 250 311 362
#     4  10  22  42  66  88 118 152 199 265 306 344
#     4  10  23  41  64  92 113 153 212 252 301 352
#     4  10  23  38  65  95 121 155 207 251 303 369
#     4  11  24  38  60  91 127 167 200 237 301 379
#     4  11  22  40  63  92 122 162 205 253 303 347
#     4  12  23  41  62  88 128 164 203 251 292 358
#
# _framework density 23.958590999999998
#
# number of rings (size 3 to 8) (size 9 to 14) (size 15 to 20)
#    0.000    1.429    0.000    5.143    0.000   14.286 
#    0.000    4.286    0.000    0.000    0.000    0.000 
#    0.000    0.000    0.000    0.000    0.000    0.000 
#
# Total GULP energy -78495.851054 kJ/mol
# GULP energy per Si atom -5606.846504 kJ/mol
# Density = 2.390406 g / cm^3
# Si number density = 23.958591 Si / 1000 Ang^3
#
#
#
# Elastic Constant Matrix: (Units=GPa)
#
#
# Indices 1 2 3 4 5 6 
#
# 1 44.9502 12.3219 0.4839 -8.4908 17.5973 -6.5680
# 2 12.3219 113.1571 -4.1756 -11.8879 -4.3702 5.0075
# 3 0.4839 -4.1756 62.0816 2.1029 4.1910 -0.8105
# 4 -8.4908 -11.8879 2.1029 38.7415 -4.5875 8.9901
# 5 17.5973 -4.3702 4.1910 -4.5875 26.1328 -7.8504
# 6 -6.5680 5.0075 -0.8105 8.9901 -7.8504 26.8914
#
#
#
# Elastic Compliance Matrix: (Units=1/GPa)
#
#
# Indices 1 2 3 4 5 6 
#
# 1 0.032710 -0.004131 0.000866 0.002933 -0.021919 0.001405
# 2 -0.004131 0.009919 0.000274 0.003246 0.004148 -0.002722
# 3 0.000866 0.000274 0.016379 -0.001015 -0.003336 0.000019
# 4 0.002933 0.003246 -0.001015 0.029859 0.001094 -0.009582
# 5 -0.021919 0.004148 -0.003336 0.001094 0.057510 0.010196
# 6 0.001405 -0.002722 0.000019 -0.009582 0.010196 0.044217
#
#
# Mechanical properties :
#
#
# Convention : Reuss Voigt Hill
#
# Bulk Modulus (GPa) = 18.85844 26.38327 22.62085
# Shear Modulus (GPa) = 23.33706 32.45704 27.89705
#
# Velocity S-wave (km/s) = 3.12438 3.68464 3.41601
# Velocity P-wave (km/s) = 4.57209 5.39796 5.00210
#
# Compressibility (1/GPa) = 0.05302667
#
# Stress axis : x y z
#
# Youngs Moduli (GPa) = 30.57164 100.81794 61.05242
#
# Poissons Ratio (x) = 0.41643 -0.05287
# Poissons Ratio (y) = 0.12628 -0.01672
# Poissons Ratio (z) = -0.02647 -0.02760
#
# Static dielectric constant tensor:
#      x y z
#    x 1.932990 0.001590 -0.042670 
#    y 0.001590 1.878120 -0.015950 
#    z -0.042670 -0.015950 1.854750 
# 
# From -- ./inp_files/64219.got.cif
#   From: 2010.05.17/outbox.cif.g08.bks.cpg/sg2_33_cif.got.tgz:64219.got - 2010.06.03 11:33:40.
