data_PCOD9029591
_publ_section_title
;
Structure prediction by ZEFSAII (Michael W. Deem and Ramdas Pophale) SiO2 
 PCOD9029591
Probable space group: P -1
;
_chemical_formula_sum "Si O2"
_cell_formula_units_Z 14
_cell_length_a 9.049565
_cell_length_b 11.669460
_cell_length_c 11.534410
_cell_angle_alpha 144.103465
_cell_angle_beta 60.490487
_cell_angle_gamma 95.852920
_cell_volume 505.365484
_symmetry_space_group_name_H-M "P -1"
_symmetry_group_IT_number 2
_symmetry_cell_setting 'triclinic'
loop_
_space_group_symop_operation_xyz
x,y,z
-x,-y,-z
loop_
_atom_site_type_symbol
_atom_site_label
_atom_site_fract_x
_atom_site_fract_y
_atom_site_fract_z
Si Si1 0.885174 0.989331 0.229915
Si Si2 0.686161 0.286031 0.011352
Si Si3 0.039000 0.254306 0.327478
Si Si4 0.478988 0.747003 0.739995
Si Si5 0.718953 0.693029 0.382431
Si Si6 0.125147 0.452272 0.143409
Si Si7 0.602837 0.165751 0.704275
O O1 0.718329 0.123071 0.505369
O O2 0.888328 0.169551 0.287665
O O3 0.107715 0.850525 0.098573
O O4 0.869578 0.781773 0.012575
O O5 0.517701 0.268605 0.133426
O O6 0.635825 0.546828 0.244784
O O7 0.708566 0.197553 0.800599
O O8 0.978142 0.333011 0.549439
O O9 0.000000 0.500000 0.500000
O O10 0.269342 0.014806 0.018747
O O11 0.500000 0.500000 0.500000
O O12 0.645636 0.733701 0.579367
O O13 0.967861 0.552605 0.178635
O O14 0.625340 0.924624 0.531773
O O15 0.357354 0.370284 0.964312
#
# Coordination Sequence:
#
# PCOD9029591 Si02
#       7
#     2   2   2   2   2   2   2
#     4  10  24  46  68 100 146 189 236 299 358 426
#     4   9  21  40  68 100 132 184 247 296 347 420
#     4  11  24  44  72 107 142 183 240 303 364 429
#     4   9  19  42  71  99 138 187 238 294 356 422
#     4  10  22  42  67  98 140 185 234 296 359 422
#     4  11  26  43  67 106 146 186 238 295 356 431
#     4  12  24  42  70 102 142 193 240 288 357 430
#
# _framework density 27.702722999999999
#
# number of rings (size 3 to 8) (size 9 to 14) (size 15 to 20)
#    0.000    1.714    0.000    4.286    0.000    9.143 
#    0.000    2.857    0.000    0.000    0.000    0.000 
#    0.000    0.000    0.000    0.000    0.000    0.000 
#
# Total GULP energy -78427.378367 kJ/mol
# GULP energy per Si atom -5601.955598 kJ/mol
# Density = 2.763967 g / cm^3
# Si number density = 27.702723 Si / 1000 Ang^3
#
#
#
# Elastic Constant Matrix: (Units=GPa)
#
#
# Indices 1 2 3 4 5 6 
#
# 1 72.7522 18.0754 36.2341 -5.8772 -6.5965 7.1251
# 2 18.0754 106.8941 46.4051 28.0629 -4.5393 5.6267
# 3 36.2341 46.4051 166.1474 20.1424 9.5787 10.7504
# 4 -5.8772 28.0629 20.1424 42.8403 4.8565 0.4549
# 5 -6.5965 -4.5393 9.5787 4.8565 58.2434 3.9775
# 6 7.1251 5.6267 10.7504 0.4549 3.9775 36.2321
#
#
#
# Elastic Compliance Matrix: (Units=1/GPa)
#
#
# Indices 1 2 3 4 5 6 
#
# 1 0.017035 -0.002544 -0.003649 0.005514 0.002019 -0.002163
# 2 -0.002544 0.012943 -0.002129 -0.008021 0.001806 -0.000976
# 3 -0.003649 -0.002129 0.007889 -0.002624 -0.001584 -0.001086
# 4 0.005514 -0.008021 -0.002624 0.030827 -0.002194 0.000794
# 5 0.002019 0.001806 -0.001584 -0.002194 0.018130 -0.002170
# 6 -0.002163 -0.000976 -0.001086 0.000794 -0.002170 0.028727
#
#
# Mechanical properties :
#
#
# Convention : Reuss Voigt Hill
#
# Bulk Modulus (GPa) = 47.11943 60.80253 53.96098
# Shear Modulus (GPa) = 35.90112 43.80177 39.85145
#
# Velocity S-wave (km/s) = 3.60382 3.98066 3.79692
# Velocity P-wave (km/s) = 5.86196 6.56684 6.22439
#
# Compressibility (1/GPa) = 0.02122267
#
# Stress axis : x y z
#
# Youngs Moduli (GPa) = 58.70154 77.26023 126.76035
#
# Poissons Ratio (x) = 0.19657 0.46260
# Poissons Ratio (y) = 0.14935 0.26985
# Poissons Ratio (z) = 0.21423 0.16447
#
# Static dielectric constant tensor:
#      x y z
#    x 2.183890 0.032730 -0.002310 
#    y 0.032730 2.205820 0.034310 
#    z -0.002310 0.034310 2.137630 
# 
# From -- ./inp_files/532760.got.cif
#   From: 2010.05.17/outbox.cif.g08.bks.cpg/sg2_267_cif.got.tgz:532760.got - 2010.06.03 11:33:40.
