data_PCOD9029071
_publ_section_title
;
Structure prediction by ZEFSAII (Michael W. Deem and Ramdas Pophale) SiO2 
 PCOD9029071
Probable space group: P -1
;
_chemical_formula_sum "Si O2"
_cell_formula_units_Z 13
_cell_length_a 5.079942
_cell_length_b 10.527291
_cell_length_c 15.726752
_cell_angle_alpha 42.717185
_cell_angle_beta 111.868673
_cell_angle_gamma 104.732181
_cell_volume 529.235151
_symmetry_space_group_name_H-M "P -1"
_symmetry_group_IT_number 2
_symmetry_cell_setting 'triclinic'
loop_
_space_group_symop_operation_xyz
x,y,z
-x,-y,-z
loop_
_atom_site_type_symbol
_atom_site_label
_atom_site_fract_x
_atom_site_fract_y
_atom_site_fract_z
Si Si1 0.710069 0.439790 0.630908
Si Si2 0.489926 0.211313 0.160207
Si Si3 0.693448 0.090006 0.408433
Si Si4 0.000000 0.500000 0.000000
Si Si5 0.666976 0.256083 0.002098
Si Si6 0.340327 0.508610 0.714919
Si Si7 0.118167 0.989017 0.113708
O O1 0.500000 0.500000 0.500000
O O2 0.568407 0.515458 0.663584
O O3 0.753885 0.214430 0.750515
O O4 0.033450 0.503056 0.635366
O O5 0.605174 0.062056 0.313375
O O6 0.383823 0.125807 0.098425
O O7 0.714657 0.330659 0.075655
O O8 0.251667 0.326526 0.120684
O O9 0.680336 0.311525 0.315292
O O10 0.500000 0.000000 0.500000
O O11 0.000000 0.000000 0.500000
O O12 0.905543 0.414998 0.930154
O O13 0.424516 0.325705 0.871648
O O14 0.854502 0.065100 0.101114
O O15 0.000000 0.000000 0.000000
#
# Coordination Sequence:
#
# PCOD9029071 Si02
#       7
#     2   2   2   1   2   2   2
#     4  12  29  49  75 108 153 203 254 307 374 458
#     4  11  26  42  75 104 146 193 244 315 377 446
#     4  12  30  49  75 109 153 198 251 307 378 458
#     4  10  22  42  66 108 142 178 244 302 378 434
#     4  11  24  42  77 107 145 190 250 314 385 436
#     4  12  27  49  79 106 148 197 256 311 376 448
#     4  11  25  46  72 107 151 192 252 309 374 440
#
# _framework density 24.563748
#
# number of rings (size 3 to 8) (size 9 to 14) (size 15 to 20)
#    0.000    0.615    3.077    2.769   12.923    1.231 
#    0.000    0.000    0.000    0.000    0.000    0.000 
#    0.000    0.000    0.000    0.000    0.000    0.000 
#
# Total GULP energy -72500.318672 kJ/mol
# GULP energy per Si atom -5576.947590 kJ/mol
# Density = 2.450784 g / cm^3
# Si number density = 24.563748 Si / 1000 Ang^3
#
#
#
# Elastic Constant Matrix: (Units=GPa)
#
#
# Indices 1 2 3 4 5 6 
#
# 1 132.6580 9.5998 36.8212 2.4545 37.8812 -11.6733
# 2 9.5998 76.8904 33.2690 7.6574 18.3946 1.1476
# 3 36.8212 33.2690 185.4498 34.6110 32.5382 -4.4554
# 4 2.4545 7.6574 34.6110 46.0881 -4.7688 7.6573
# 5 37.8812 18.3946 32.5382 -4.7688 43.0683 -8.3709
# 6 -11.6733 1.1476 -4.4554 7.6573 -8.3709 49.0261
#
#
#
# Elastic Compliance Matrix: (Units=1/GPa)
#
#
# Indices 1 2 3 4 5 6 
#
# 1 0.010331 0.001229 -0.000286 -0.001687 -0.009374 0.001068
# 2 0.001229 0.015365 -0.001397 -0.002120 -0.007029 -0.001063
# 3 -0.000286 -0.001397 0.007912 -0.006402 -0.005699 0.000710
# 4 -0.001687 -0.002120 -0.006402 0.028569 0.009661 -0.003746
# 5 -0.009374 -0.007029 -0.005699 0.009661 0.040386 0.002801
# 6 0.001068 -0.001063 0.000710 -0.003746 0.002801 0.021804
#
#
# Mechanical properties :
#
#
# Convention : Reuss Voigt Hill
#
# Bulk Modulus (GPa) = 30.58281 61.59760 46.09020
# Shear Modulus (GPa) = 36.71712 48.65707 42.68710
#
# Velocity S-wave (km/s) = 3.87042 4.45550 4.17323
# Velocity P-wave (km/s) = 5.69657 7.18329 6.48269
#
# Compressibility (1/GPa) = 0.03269811
#
# Stress axis : x y z
#
# Youngs Moduli (GPa) = 96.79817 65.08234 126.39623
#
# Poissons Ratio (x) = -0.07997 0.03621
# Poissons Ratio (y) = -0.11894 0.17658
# Poissons Ratio (z) = 0.02773 0.09092
#
# Static dielectric constant tensor:
#      x y z
#    x 1.392940 -0.071530 -0.493170 
#    y -0.071530 1.998150 -0.091230 
#    z -0.493170 -0.091230 1.795330 
# 
# From -- ./inp_files/67747.got.cif
#   From: 2010.05.17/outbox.cif.g08.bks.cpg/sg2_34_cif.got.tgz:67747.got - 2010.06.03 11:33:40.
