data_PCOD9029785
_publ_section_title
;
Structure prediction by ZEFSAII (Michael W. Deem and Ramdas Pophale) SiO2 
 PCOD9029785
Probable space group: P -1
;
_chemical_formula_sum "Si O2"
_cell_formula_units_Z 15
_cell_length_a 7.984291
_cell_length_b 11.059297
_cell_length_c 8.760509
_cell_angle_alpha 117.627082
_cell_angle_beta 94.136117
_cell_angle_gamma 89.812208
_cell_volume 683.177438
_symmetry_space_group_name_H-M "P -1"
_symmetry_group_IT_number 2
_symmetry_cell_setting 'triclinic'
loop_
_space_group_symop_operation_xyz
x,y,z
-x,-y,-z
loop_
_atom_site_type_symbol
_atom_site_label
_atom_site_fract_x
_atom_site_fract_y
_atom_site_fract_z
Si Si1 0.524802 0.500084 0.252090
Si Si2 0.269182 0.582533 0.523898
Si Si3 0.340705 0.326765 0.880139
Si Si4 0.500000 0.000000 0.000000
Si Si5 0.564088 0.072466 0.700473
Si Si6 0.921964 0.711344 0.637188
Si Si7 0.849079 0.857431 0.024797
Si Si8 0.918405 0.982930 0.650298
O O1 0.399708 0.589028 0.396824
O O2 0.614963 0.394162 0.306000
O O3 0.669340 0.584185 0.219749
O O4 0.410042 0.423298 0.076089
O O5 0.195300 0.425770 0.439390
O O6 0.107304 0.673590 0.568627
O O7 0.481568 0.217967 0.791533
O O8 0.185334 0.243279 0.892388
O O9 0.517497 0.995581 0.809892
O O10 0.324558 0.085727 0.017398
O O11 0.500000 0.000000 0.500000
O O12 0.763958 0.081310 0.709735
O O13 0.856115 0.827349 0.587965
O O14 0.931085 0.774112 0.844906
O O15 0.957469 0.979359 0.179860
O O16 0.000000 0.000000 0.500000
#
# Coordination Sequence:
#
# PCOD9029785 Si02
#       8
#     2   2   2   1   2   2   2   2
#     4  10  22  44  68  94 125 180 230 282 335 399
#     4  10  24  43  69  95 125 181 224 288 334 403
#     4  10  23  42  66  96 135 167 231 281 335 415
#     4  10  22  42  68  94 136 184 224 272 340 410
#     4  11  25  44  69 105 136 185 228 284 354 413
#     4  11  24  44  65  97 137 167 229 277 348 415
#     4  11  23  44  67  99 136 182 221 280 352 415
#     4  12  27  43  67 103 139 181 223 285 354 422
#
# _framework density 21.956229
#
# number of rings (size 3 to 8) (size 9 to 14) (size 15 to 20)
#    0.000    1.333    2.667    2.000    7.467    1.067 
#    2.400    0.667    0.000    0.000    0.000    0.000 
#    0.000    0.000    0.000    0.000    0.000    0.000 
#
# Total GULP energy -83567.517035 kJ/mol
# GULP energy per Si atom -5571.167802 kJ/mol
# Density = 2.190626 g / cm^3
# Si number density = 21.956229 Si / 1000 Ang^3
#
#
#
# Elastic Constant Matrix: (Units=GPa)
#
#
# Indices 1 2 3 4 5 6 
#
# 1 26.7587 -11.1197 5.7681 -4.6823 -9.4452 4.2698
# 2 -11.1197 36.9186 19.7864 -11.6842 -2.2860 9.5572
# 3 5.7681 19.7864 106.9503 -28.1592 -7.6101 -2.6101
# 4 -4.6823 -11.6842 -28.1592 28.0919 1.5582 -3.6779
# 5 -9.4452 -2.2860 -7.6101 1.5582 32.4314 -1.4196
# 6 4.2698 9.5572 -2.6101 -3.6779 -1.4196 26.2580
#
#
#
# Elastic Compliance Matrix: (Units=1/GPa)
#
#
# Indices 1 2 3 4 5 6 
#
# 1 0.064873 0.033490 -0.004485 0.016620 0.018534 -0.019854
# 2 0.033490 0.052689 -0.006878 0.017117 0.010052 -0.022366
# 3 -0.004485 -0.006878 0.014067 0.011244 0.001244 0.006273
# 4 0.016620 0.017117 0.011244 0.056481 0.005990 0.000420
# 5 0.018534 0.010052 0.001244 0.005990 0.036782 -0.003721
# 6 -0.019854 -0.022366 0.006273 0.000420 -0.003721 0.049934
#
#
# Mechanical properties :
#
#
# Convention : Reuss Voigt Hill
#
# Bulk Modulus (GPa) = 5.68556 22.16635 13.92595
# Shear Modulus (GPa) = 17.28915 27.76911 22.52913
#
# Velocity S-wave (km/s) = 2.80918 3.56019 3.20674
# Velocity P-wave (km/s) = 3.62175 5.19784 4.47965
#
# Compressibility (1/GPa) = 0.17588427
#
# Stress axis : x y z
#
# Youngs Moduli (GPa) = 15.41475 18.97914 71.09009
#
# Poissons Ratio (x) = -0.63561 0.31881
# Poissons Ratio (y) = -0.51624 0.48895
# Poissons Ratio (z) = 0.06913 0.13054
#
# Static dielectric constant tensor:
#      x y z
#    x 1.822650 0.066490 -0.006310 
#    y 0.066490 1.956730 -0.055230 
#    z -0.006310 -0.055230 1.814640 
# 
# From -- ./inp_files/182532.got.cif
#   From: 2010.05.17/outbox.cif.g08.bks.cpg/sg2_92_cif.got.tgz:182532.got - 2010.06.03 11:33:40.
