data_PCOD9029728
_publ_section_title
;
Structure prediction by ZEFSAII (Michael W. Deem and Ramdas Pophale) SiO2 
 PCOD9029728
Probable space group: P -1
;
_chemical_formula_sum "Si O2"
_cell_formula_units_Z 14
_cell_length_a 8.474363
_cell_length_b 12.021611
_cell_length_c 11.602756
_cell_angle_alpha 52.957613
_cell_angle_beta 38.900888
_cell_angle_gamma 70.508754
_cell_volume 570.545031
_symmetry_space_group_name_H-M "P -1"
_symmetry_group_IT_number 2
_symmetry_cell_setting 'triclinic'
loop_
_space_group_symop_operation_xyz
x,y,z
-x,-y,-z
loop_
_atom_site_type_symbol
_atom_site_label
_atom_site_fract_x
_atom_site_fract_y
_atom_site_fract_z
Si Si1 0.303405 0.055062 0.754038
Si Si2 0.521614 0.609108 0.314218
Si Si3 0.976168 0.352339 0.541774
Si Si4 0.880988 0.938536 0.726198
Si Si5 0.352489 0.903018 0.033899
Si Si6 0.898600 0.207291 0.125422
Si Si7 0.496507 0.353399 0.313216
O O1 0.291114 0.920423 0.760230
O O2 0.403533 0.210752 0.539838
O O3 0.435527 0.028466 0.814888
O O4 0.000000 0.000000 0.000000
O O5 0.500000 0.500000 0.500000
O O6 0.542120 0.504265 0.260548
O O7 0.256475 0.660954 0.410900
O O8 0.790689 0.732407 0.112052
O O9 0.266688 0.341507 0.356715
O O10 0.000000 0.500000 0.500000
O O11 0.883873 0.234553 0.770215
O O12 0.085132 0.869144 0.713958
O O13 0.773867 0.040268 0.815961
O O14 0.594504 0.831284 0.941542
O O15 0.000000 0.000000 0.500000
O O16 0.767167 0.337519 0.119496
#
# Coordination Sequence:
#
# PCOD9029728 Si02
#       7
#     2   2   2   2   2   2   2
#     4  12  22  40  72  99 136 185 229 279 353 421
#     4  11  25  44  71  96 134 189 231 279 348 424
#     4  10  22  42  68  90 133 182 226 273 343 420
#     4  11  24  41  68 103 140 179 229 294 349 409
#     4  11  23  43  70  99 139 181 236 280 351 425
#     4  12  24  43  69 106 139 174 235 297 346 409
#     4  11  24  43  66 101 139 179 231 290 347 412
#
# _framework density 24.537942000000001
#
# number of rings (size 3 to 8) (size 9 to 14) (size 15 to 20)
#    0.000    0.857    4.286    2.571    2.000    2.286 
#    0.000    0.714    0.000    0.000    0.000    0.000 
#    0.000    0.000    0.000    0.000    0.000    0.000 
#
# Total GULP energy -77956.853376 kJ/mol
# GULP energy per Si atom -5568.346670 kJ/mol
# Density = 2.448209 g / cm^3
# Si number density = 24.537942 Si / 1000 Ang^3
#
#
#
# Elastic Constant Matrix: (Units=GPa)
#
#
# Indices 1 2 3 4 5 6 
#
# 1 128.4963 36.8900 35.2830 14.0253 -12.5040 -32.1875
# 2 36.8900 92.0085 14.1551 3.4284 -11.0645 -19.6368
# 3 35.2830 14.1551 75.1955 -5.9890 -0.5943 0.1817
# 4 14.0253 3.4284 -5.9890 35.2825 -11.5604 -16.1494
# 5 -12.5040 -11.0645 -0.5943 -11.5604 38.4445 2.2608
# 6 -32.1875 -19.6368 0.1817 -16.1494 2.2608 44.2967
#
#
#
# Elastic Compliance Matrix: (Units=1/GPa)
#
#
# Indices 1 2 3 4 5 6 
#
# 1 0.012058 -0.002134 -0.005368 -0.001426 0.002373 0.007197
# 2 -0.002134 0.013382 -0.001265 0.002969 0.003720 0.005279
# 3 -0.005368 -0.001265 0.016321 0.003301 -0.000672 -0.003291
# 4 -0.001426 0.002969 0.003301 0.039355 0.011451 0.014030
# 5 0.002373 0.003720 -0.000672 0.011451 0.030936 0.005972
# 6 0.007197 0.005279 -0.003291 0.014030 0.005972 0.034969
#
#
# Mechanical properties :
#
#
# Convention : Reuss Voigt Hill
#
# Bulk Modulus (GPa) = 41.27577 52.03961 46.65769
# Shear Modulus (GPa) = 28.96342 37.56289 33.26316
#
# Velocity S-wave (km/s) = 3.43935 3.91680 3.68582
# Velocity P-wave (km/s) = 5.71226 6.45825 6.09667
#
# Compressibility (1/GPa) = 0.02422729
#
# Stress axis : x y z
#
# Youngs Moduli (GPa) = 82.92906 74.72579 61.26980
#
# Poissons Ratio (x) = 0.15949 0.32892
# Poissons Ratio (y) = 0.17700 0.07748
# Poissons Ratio (z) = 0.44520 0.09450
#
# Static dielectric constant tensor:
#      x y z
#    x 2.099170 0.146840 -0.096280 
#    y 0.146840 2.051730 -0.014070 
#    z -0.096280 -0.014070 2.015480 
# 
# From -- ./inp_files/393735.got.cif
#   From: 2010.05.17/outbox.cif.g08.bks.cpg/sg2_197_cif.got.tgz:393735.got - 2010.06.03 11:33:40.
