data_PCOD9029658
_publ_section_title
;
Structure prediction by ZEFSAII (Michael W. Deem and Ramdas Pophale) SiO2 
 PCOD9029658
Probable space group: P -1
;
_chemical_formula_sum "Si O2"
_cell_formula_units_Z 12
_cell_length_a 26.817219
_cell_length_b 8.189853
_cell_length_c 5.408584
_cell_angle_alpha 59.353935
_cell_angle_beta 44.273609
_cell_angle_gamma 34.798739
_cell_volume 464.031936
_symmetry_space_group_name_H-M "P -1"
_symmetry_group_IT_number 2
_symmetry_cell_setting 'triclinic'
loop_
_space_group_symop_operation_xyz
x,y,z
-x,-y,-z
loop_
_atom_site_type_symbol
_atom_site_label
_atom_site_fract_x
_atom_site_fract_y
_atom_site_fract_z
Si Si1 0.607029 0.379413 0.596826
Si Si2 0.006696 0.657802 0.543610
Si Si3 0.164244 0.261321 0.691651
Si Si4 0.523571 0.068349 0.617405
Si Si5 0.863781 0.276659 0.422844
Si Si6 0.264946 0.519529 0.764726
O O1 0.555421 0.590793 0.379559
O O2 0.662543 0.434366 0.519678
O O3 0.708899 0.031691 0.474620
O O4 0.500000 0.500000 0.000000
O O5 0.123930 0.409995 0.450384
O O6 0.000000 0.500000 0.500000
O O7 0.970192 0.940269 0.376705
O O8 0.906767 0.786930 0.979310
O O9 0.123903 0.522325 0.792658
O O10 0.500000 0.000000 0.500000
O O11 0.654729 0.819682 0.324758
O O12 0.500000 0.000000 0.000000
O O13 0.815624 0.297586 0.321788
O O14 0.782576 0.409906 0.844723
#
# Coordination Sequence:
#
# PCOD9029658 Si02
#       6
#     2   2   2   2   2   2
#     4  11  23  47  77 111 157 201 259 319 380 459
#     4  11  26  48  80 106 155 192 254 321 376 459
#     4  11  26  48  73 116 144 201 254 308 386 451
#     4  10  22  42  68 101 146 200 245 300 371 444
#     4  12  26  48  79 110 154 198 249 317 384 457
#     4  11  24  47  73 108 156 197 250 311 378 453
#
# _framework density 25.860291
#
# number of rings (size 3 to 8) (size 9 to 14) (size 15 to 20)
#    0.000    1.000    1.667    4.500    4.667    2.000 
#    3.000    8.333    0.000    0.000    0.000    0.000 
#    0.000    0.000    0.000    0.000    0.000    0.000 
#
# Total GULP energy -67133.374086 kJ/mol
# GULP energy per Si atom -5594.447840 kJ/mol
# Density = 2.580143 g / cm^3
# Si number density = 25.860291 Si / 1000 Ang^3
#
#
#
# Elastic Constant Matrix: (Units=GPa)
#
#
# Indices 1 2 3 4 5 6 
#
# 1 112.9597 28.1402 51.4645 -8.4601 -0.4561 0.1205
# 2 28.1402 253.3506 62.9904 -3.7949 0.7812 -17.7660
# 3 51.4645 62.9904 146.2698 -3.2276 -4.1120 -19.5384
# 4 -8.4601 -3.7949 -3.2276 51.1784 1.4847 0.6561
# 5 -0.4561 0.7812 -4.1120 1.4847 46.3257 -8.9016
# 6 0.1205 -17.7660 -19.5384 0.6561 -8.9016 38.7887
#
#
#
# Elastic Compliance Matrix: (Units=1/GPa)
#
#
# Indices 1 2 3 4 5 6 
#
# 1 0.010872 -0.000361 -0.003977 0.001572 -0.000752 -0.002402
# 2 -0.000361 0.004482 -0.001635 0.000154 0.000007 0.001229
# 3 -0.003977 -0.001635 0.009581 -0.000282 0.001710 0.004487
# 4 0.001572 0.000154 -0.000282 0.019823 -0.000760 -0.000586
# 5 -0.000752 0.000007 0.001710 -0.000760 0.022935 0.006143
# 6 -0.002402 0.001229 0.004487 -0.000586 0.006143 0.030031
#
#
# Mechanical properties :
#
#
# Convention : Reuss Voigt Hill
#
# Bulk Modulus (GPa) = 76.99135 88.64114 82.81625
# Shear Modulus (GPa) = 43.85921 51.92423 47.89172
#
# Velocity S-wave (km/s) = 4.12273 4.48579 4.30809
# Velocity P-wave (km/s) = 7.24563 7.82184 7.53924
#
# Compressibility (1/GPa) = 0.01298847
#
# Stress axis : x y z
#
# Youngs Moduli (GPa) = 91.98048 223.09889 104.36900
#
# Poissons Ratio (x) = 0.08061 0.41506
# Poissons Ratio (y) = 0.03324 0.17068
# Poissons Ratio (z) = 0.36579 0.36485
#
# Static dielectric constant tensor:
#      x y z
#    x 1.782570 0.029360 -0.148780 
#    y 0.029360 2.123170 0.017550 
#    z -0.148780 0.017550 2.126100 
# 
# From -- ./inp_files/35297.got.cif
#   From: 2010.05.17/outbox.cif.g08.bks.cpg/sg2_18_cif.got.tgz:35297.got - 2010.06.03 11:33:40.
