data_PCOD9029294
_publ_section_title
;
Structure prediction by ZEFSAII (Michael W. Deem and Ramdas Pophale) SiO2 
 PCOD9029294
Probable space group: P -1
;
_chemical_formula_sum "Si O2"
_cell_formula_units_Z 16
_cell_length_a 12.776236
_cell_length_b 11.263898
_cell_length_c 12.377511
_cell_angle_alpha 117.535703
_cell_angle_beta 47.500117
_cell_angle_gamma 79.537739
_cell_volume 762.937362
_symmetry_space_group_name_H-M "P -1"
_symmetry_group_IT_number 2
_symmetry_cell_setting 'triclinic'
loop_
_space_group_symop_operation_xyz
x,y,z
-x,-y,-z
loop_
_atom_site_type_symbol
_atom_site_label
_atom_site_fract_x
_atom_site_fract_y
_atom_site_fract_z
Si Si1 0.004481 0.313112 0.378537
Si Si2 0.539141 0.126992 0.504292
Si Si3 0.323274 0.381960 0.549546
Si Si4 0.978533 0.151335 0.008589
Si Si5 0.024063 0.416251 0.630671
Si Si6 0.578395 0.619255 0.100440
Si Si7 0.756977 0.122452 0.002775
Si Si8 0.499842 0.359487 0.074791
O O1 0.101276 0.275198 0.414029
O O2 0.744370 0.496278 0.652955
O O3 0.068024 0.385369 0.282504
O O4 0.084212 0.115642 0.196316
O O5 0.376510 0.302899 0.601836
O O6 0.516102 0.226090 0.672365
O O7 0.500000 0.000000 0.500000
O O8 0.781215 0.967222 0.223788
O O9 0.175501 0.620470 0.745730
O O10 0.204207 0.345004 0.555434
O O11 0.548960 0.252670 0.278997
O O12 0.876314 0.172300 0.976177
O O13 0.000000 0.000000 0.000000
O O14 0.832477 0.474207 0.848514
O O15 0.534106 0.494849 0.101176
O O16 0.478559 0.715809 0.091755
O O17 0.670064 0.186060 0.968983
#
# Coordination Sequence:
#
# PCOD9029294 Si02
#       8
#     2   2   2   2   2   2   2   2
#     4  10  22  42  67 100 130 169 217 272 329 379
#     4  12  28  45  66  96 138 182 212 269 338 395
#     4  12  26  43  68 101 133 172 229 273 323 393
#     4  12  26  44  70 100 131 175 224 277 326 387
#     4  10  22  43  67  95 137 171 213 274 322 394
#     4  10  23  43  67  91 139 171 211 265 336 389
#     4  12  24  39  74 100 126 167 227 275 323 387
#     4  10  22  44  68  97 127 173 213 276 325 386
#
# _framework density 20.971578000000001
#
# number of rings (size 3 to 8) (size 9 to 14) (size 15 to 20)
#    0.000    1.000    2.500    3.375    3.500    4.500 
#    0.000   10.000    0.000    0.000    0.000    0.000 
#    0.000    0.000    0.000    0.000    0.000    0.000 
#
# Total GULP energy -89488.100842 kJ/mol
# GULP energy per Si atom -5593.006303 kJ/mol
# Density = 2.092385 g / cm^3
# Si number density = 20.971578 Si / 1000 Ang^3
#
#
#
# Elastic Constant Matrix: (Units=GPa)
#
#
# Indices 1 2 3 4 5 6 
#
# 1 165.2571 45.8274 76.8044 8.4531 13.9234 15.8066
# 2 45.8274 89.1855 39.8992 -7.3635 1.8881 3.3546
# 3 76.8044 39.8992 123.0540 5.3667 22.6416 22.1615
# 4 8.4531 -7.3635 5.3667 24.0093 9.8715 -4.8490
# 5 13.9234 1.8881 22.6416 9.8715 44.4593 0.5838
# 6 15.8066 3.3546 22.1615 -4.8490 0.5838 47.2485
#
#
#
# Elastic Compliance Matrix: (Units=1/GPa)
#
#
# Indices 1 2 3 4 5 6 
#
# 1 0.009229 -0.002987 -0.004493 -0.003522 0.000322 -0.001133
# 2 -0.002987 0.014904 -0.003830 0.006661 0.000742 0.002412
# 3 -0.004493 -0.003830 0.014084 -0.001606 -0.005181 -0.004932
# 4 -0.003522 0.006661 -0.001606 0.050648 -0.009696 0.006777
# 5 0.000322 0.000742 -0.005181 -0.009696 0.027139 0.000940
# 6 -0.001133 0.002412 -0.004932 0.006777 0.000940 0.024370
#
#
# Mechanical properties :
#
#
# Convention : Reuss Voigt Hill
#
# Bulk Modulus (GPa) = 64.11178 78.06209 71.08693
# Shear Modulus (GPa) = 29.72742 37.47444 33.60093
#
# Velocity S-wave (km/s) = 3.76907 4.23178 4.00711
# Velocity P-wave (km/s) = 7.04119 7.82182 7.44175
#
# Compressibility (1/GPa) = 0.01559776
#
# Stress axis : x y z
#
# Youngs Moduli (GPa) = 108.34951 67.09475 71.00045
#
# Poissons Ratio (x) = 0.20043 0.31904
# Poissons Ratio (y) = 0.32367 0.27190
# Poissons Ratio (z) = 0.48686 0.25694
#
# Static dielectric constant tensor:
#      x y z
#    x 1.779880 -0.034760 0.011620 
#    y -0.034760 1.740830 -0.009070 
#    z 0.011620 -0.009070 1.707290 
# 
# From -- ./inp_files/428671.got.cif
#   From: 2010.05.17/outbox.cif.g08.bks.cpg/sg2_215_cif.got.tgz:428671.got - 2010.06.03 11:33:40.
