data_PCOD9029019
_publ_section_title
;
Structure prediction by ZEFSAII (Michael W. Deem and Ramdas Pophale) SiO2 
 PCOD9029019
Probable space group: P -1
;
_chemical_formula_sum "Si O2"
_cell_formula_units_Z 15
_cell_length_a 5.700260
_cell_length_b 21.177876
_cell_length_c 14.489456
_cell_angle_alpha 159.454685
_cell_angle_beta 85.540807
_cell_angle_gamma 91.738236
_cell_volume 607.480205
_symmetry_space_group_name_H-M "P -1"
_symmetry_group_IT_number 2
_symmetry_cell_setting 'triclinic'
loop_
_space_group_symop_operation_xyz
x,y,z
-x,-y,-z
loop_
_atom_site_type_symbol
_atom_site_label
_atom_site_fract_x
_atom_site_fract_y
_atom_site_fract_z
Si Si1 0.425040 0.671502 0.973242
Si Si2 0.640272 0.383528 0.719199
Si Si3 0.500000 0.000000 0.500000
Si Si4 0.221557 0.296013 0.139995
Si Si5 0.001738 0.932667 0.687223
Si Si6 0.802912 0.571505 0.485629
Si Si7 0.234036 0.073653 0.137590
Si Si8 0.253348 0.278742 0.735702
O O1 0.510661 0.499781 0.799339
O O2 0.640587 0.756490 0.031423
O O3 0.301458 0.597855 0.787681
O O4 0.312107 0.845257 0.269360
O O5 0.449011 0.329481 0.724845
O O6 0.797970 0.195245 0.437512
O O7 0.814298 0.525879 0.947068
O O8 0.374663 0.142490 0.622027
O O9 0.325057 0.337871 0.295301
O O10 0.070018 0.489568 0.389057
O O11 0.079026 0.127024 0.931213
O O12 0.778997 0.955311 0.792505
O O13 0.941657 0.820735 0.446592
O O14 0.799548 0.719413 0.609660
O O15 0.500000 0.000000 0.000000
O O16 0.000000 0.000000 0.000000
#
# Coordination Sequence:
#
# PCOD9029019 Si02
#       8
#     2   2   1   2   2   2   2   2
#     4  11  23  42  68  97 139 188 231 305 365 437
#     4  10  23  42  69 102 136 179 246 296 368 446
#     4  10  22  42  66 100 138 178 244 292 372 442
#     4  11  25  42  65 103 138 186 239 298 358 457
#     4  12  24  43  70 100 141 186 240 298 378 430
#     4  11  25  44  68  97 142 184 242 294 373 432
#     4  12  29  48  75 111 149 195 254 309 369 444
#     4  10  22  42  68 100 138 184 233 307 369 439
#
# _framework density 24.692160999999999
#
# number of rings (size 3 to 8) (size 9 to 14) (size 15 to 20)
#    0.000    1.067    1.333    4.000    5.600    2.133 
#    0.000   16.000    0.000    0.000    0.000    0.000 
#    0.000    0.000    0.000    0.000    0.000    0.000 
#
# Total GULP energy -83557.283059 kJ/mol
# GULP energy per Si atom -5570.485537 kJ/mol
# Density = 2.463596 g / cm^3
# Si number density = 24.692161 Si / 1000 Ang^3
#
#
#
# Elastic Constant Matrix: (Units=GPa)
#
#
# Indices 1 2 3 4 5 6 
#
# 1 36.8966 15.4421 27.4898 7.8346 3.3359 -0.3699
# 2 15.4421 113.9396 28.5477 30.9523 11.7491 -2.0734
# 3 27.4898 28.5477 118.4842 23.9592 25.6774 -17.3597
# 4 7.8346 30.9523 23.9592 44.4737 -10.1505 9.6419
# 5 3.3359 11.7491 25.6774 -10.1505 40.0321 -10.5822
# 6 -0.3699 -2.0734 -17.3597 9.6419 -10.5822 30.5986
#
#
#
# Elastic Compliance Matrix: (Units=1/GPa)
#
#
# Indices 1 2 3 4 5 6 
#
# 1 0.034517 -0.003779 -0.009370 0.003545 0.003834 -0.004946
# 2 -0.003779 0.012662 0.002128 -0.011568 -0.006826 0.003304
# 3 -0.009370 0.002128 0.016790 -0.013635 -0.011456 0.009891
# 4 0.003545 -0.011568 -0.013635 0.045090 0.019021 -0.016107
# 5 0.003834 -0.006826 -0.011456 0.019021 0.038987 0.000574
# 6 -0.004946 0.003304 0.009891 -0.016107 0.000574 0.043731
#
#
# Mechanical properties :
#
#
# Convention : Reuss Voigt Hill
#
# Bulk Modulus (GPa) = 23.85040 45.80885 34.82962
# Shear Modulus (GPa) = 21.94977 36.21026 29.08002
#
# Velocity S-wave (km/s) = 2.98474 3.83360 3.43549
# Velocity P-wave (km/s) = 4.64309 6.17961 5.46562
#
# Compressibility (1/GPa) = 0.04192802
#
# Stress axis : x y z
#
# Youngs Moduli (GPa) = 28.97161 78.97778 59.55830
#
# Poissons Ratio (x) = 0.29842 0.55807
# Poissons Ratio (y) = 0.10947 -0.12677
# Poissons Ratio (z) = 0.27147 -0.16810
#
# Static dielectric constant tensor:
#      x y z
#    x 2.091380 -0.018720 0.040670 
#    y -0.018720 1.978370 -0.166260 
#    z 0.040670 -0.166260 2.116030 
# 
# From -- ./inp_files/54797.got.cif
#   From: 2010.05.17/outbox.cif.g08.bks.cpg/sg2_28_cif.got.tgz:54797.got - 2010.06.03 11:33:40.
