data_PCOD9029701
_publ_section_title
;
Structure prediction by ZEFSAII (Michael W. Deem and Ramdas Pophale) SiO2 
 PCOD9029701
Probable space group: P -1
;
_chemical_formula_sum "Si O2"
_cell_formula_units_Z 16
_cell_length_a 11.096430
_cell_length_b 10.584320
_cell_length_c 13.578688
_cell_angle_alpha 71.853735
_cell_angle_beta 126.017486
_cell_angle_gamma 63.203048
_cell_volume 693.035918
_symmetry_space_group_name_H-M "P -1"
_symmetry_group_IT_number 2
_symmetry_cell_setting 'triclinic'
loop_
_space_group_symop_operation_xyz
x,y,z
-x,-y,-z
loop_
_atom_site_type_symbol
_atom_site_label
_atom_site_fract_x
_atom_site_fract_y
_atom_site_fract_z
Si Si1 0.471662 0.881131 0.466413
Si Si2 0.267986 0.425977 0.748494
Si Si3 0.384352 0.632560 0.808586
Si Si4 0.702056 0.451075 0.726994
Si Si5 0.681047 0.042897 0.210154
Si Si6 0.675173 0.770365 0.371978
Si Si7 0.878225 0.239526 0.653838
Si Si8 0.917003 0.189273 0.076544
O O1 0.642817 0.649086 0.666088
O O2 0.545988 0.827318 0.399579
O O3 0.500000 0.000000 0.500000
O O4 0.165545 0.069407 0.277598
O O5 0.240312 0.606764 0.704058
O O6 0.374938 0.297186 0.724641
O O7 0.987637 0.559823 0.591447
O O8 0.458465 0.239852 0.973905
O O9 0.265464 0.864798 0.719299
O O10 0.643905 0.457418 0.910256
O O11 0.500000 0.500000 0.000000
O O12 0.809887 0.367272 0.688363
O O13 0.411993 0.595966 0.559468
O O14 0.911027 0.221039 0.950232
O O15 0.594981 0.976796 0.245486
O O16 0.944937 0.818723 0.327951
O O17 0.056276 0.982388 0.835799
#
# Coordination Sequence:
#
# PCOD9029701 Si02
#       8
#     2   2   2   2   2   2   2   2
#     4  11  29  47  65  97 142 186 237 280 333 425
#     4  10  24  44  69 100 140 175 227 287 339 416
#     4  10  22  42  70 103 134 173 228 293 339 401
#     4  10  25  41  69  98 136 179 227 284 334 415
#     4  11  24  42  73 104 137 179 225 289 350 408
#     4  11  27  44  68 100 140 187 227 276 352 413
#     4  10  22  42  68 106 134 165 228 288 347 403
#     4  11  23  45  71  96 133 181 231 282 355 392
#
# _framework density 23.086825999999999
#
# number of rings (size 3 to 8) (size 9 to 14) (size 15 to 20)
#    0.000    1.500    2.500    0.750   12.250    4.000 
#    0.000    0.000    0.000    0.000    0.000    0.000 
#    0.000    0.000    0.000    0.000    0.000    0.000 
#
# Total GULP energy -89430.593681 kJ/mol
# GULP energy per Si atom -5589.412105 kJ/mol
# Density = 2.303428 g / cm^3
# Si number density = 23.086826 Si / 1000 Ang^3
#
#
#
# Elastic Constant Matrix: (Units=GPa)
#
#
# Indices 1 2 3 4 5 6 
#
# 1 47.2035 8.7746 6.5268 -0.1000 -9.8556 21.7744
# 2 8.7746 76.5964 12.0734 9.7734 2.4457 22.6103
# 3 6.5268 12.0734 88.7413 4.9516 -16.8778 17.6395
# 4 -0.1000 9.7734 4.9516 31.2196 -1.9205 6.4872
# 5 -9.8556 2.4457 -16.8778 -1.9205 35.7374 -5.5630
# 6 21.7744 22.6103 17.6395 6.4872 -5.5630 37.0985
#
#
#
# Elastic Compliance Matrix: (Units=1/GPa)
#
#
# Indices 1 2 3 4 5 6 
#
# 1 0.031249 0.001184 0.002594 0.003885 0.006866 -0.019946
# 2 0.001184 0.016575 -0.000658 -0.003103 -0.002900 -0.010376
# 3 0.002594 -0.000658 0.013677 -0.000190 0.006172 -0.006666
# 4 0.003885 -0.003103 -0.000190 0.034422 0.002110 -0.006001
# 5 0.006866 -0.002900 0.006172 0.002110 0.033006 -0.000616
# 6 -0.019946 -0.010376 -0.006666 -0.006001 -0.000616 0.049113
#
#
# Mechanical properties :
#
#
# Convention : Reuss Voigt Hill
#
# Bulk Modulus (GPa) = 14.76195 29.69899 22.23047
# Shear Modulus (GPa) = 25.72266 33.15552 29.43909
#
# Velocity S-wave (km/s) = 3.34154 3.79373 3.57479
# Velocity P-wave (km/s) = 4.61474 5.66408 5.16612
#
# Compressibility (1/GPa) = 0.06774172
#
# Stress axis : x y z
#
# Youngs Moduli (GPa) = 32.00138 60.33167 73.11592
#
# Poissons Ratio (x) = -0.07145 -0.18969
# Poissons Ratio (y) = -0.03790 0.04812
# Poissons Ratio (z) = -0.08302 0.03970
#
# Static dielectric constant tensor:
#      x y z
#    x 1.947360 -0.045240 -0.028270 
#    y -0.045240 1.837710 -0.022970 
#    z -0.028270 -0.022970 1.851560 
# 
# From -- ./inp_files/428220.got.cif
#   From: 2010.05.17/outbox.cif.g08.bks.cpg/sg2_215_cif.got.tgz:428220.got - 2010.06.03 11:33:40.
