data_PCOD9029814
_publ_section_title
;
Structure prediction by ZEFSAII (Michael W. Deem and Ramdas Pophale) SiO2 
 PCOD9029814
Probable space group: P -1
;
_chemical_formula_sum "Si O2"
_cell_formula_units_Z 16
_cell_length_a 9.405678
_cell_length_b 16.095120
_cell_length_c 7.302255
_cell_angle_alpha 82.074069
_cell_angle_beta 80.961394
_cell_angle_gamma 143.882756
_cell_volume 573.074969
_symmetry_space_group_name_H-M "P -1"
_symmetry_group_IT_number 2
_symmetry_cell_setting 'triclinic'
loop_
_space_group_symop_operation_xyz
x,y,z
-x,-y,-z
loop_
_atom_site_type_symbol
_atom_site_label
_atom_site_fract_x
_atom_site_fract_y
_atom_site_fract_z
Si Si1 0.774120 0.631645 0.782934
Si Si2 0.669404 0.827576 0.957482
Si Si3 0.646705 0.946628 0.622783
Si Si4 0.413009 0.554968 0.647874
Si Si5 0.860014 0.046824 0.143363
Si Si6 0.223132 0.548458 0.350998
Si Si7 0.090895 0.695505 0.969444
Si Si8 0.092200 0.801695 0.237541
O O1 0.695338 0.665929 0.644837
O O2 0.006092 0.737750 0.857277
O O3 0.500000 0.500000 0.000000
O O4 0.837407 0.576390 0.674106
O O5 0.353892 0.656598 0.115090
O O6 0.751576 0.908995 0.109229
O O7 0.824505 0.816258 0.917104
O O8 0.756716 0.925260 0.734462
O O9 0.762327 0.091370 0.643568
O O10 0.326999 0.776373 0.775452
O O11 0.422989 0.622412 0.456474
O O12 0.199395 0.486827 0.861730
O O13 0.708582 0.978317 0.387786
O O14 0.838674 0.094523 0.956545
O O15 0.000000 0.500000 0.500000
O O16 0.227299 0.382073 0.674386
O O17 0.215956 0.780195 0.119459
#
# Coordination Sequence:
#
# PCOD9029814 Si02
#       8
#     2   2   2   2   2   2   2   2
#     4  10  22  44  68  97 139 185 241 292 344 430
#     4  10  24  44  63  98 146 180 239 290 348 447
#     4  11  21  41  69 104 136 187 232 294 372 413
#     4   9  21  44  68 102 141 189 235 293 361 421
#     4  10  22  42  68  95 135 191 237 290 357 425
#     4  12  25  43  72 105 146 192 232 297 372 427
#     4   9  21  40  64  99 139 171 231 302 350 412
#     4   9  21  40  68  98 142 169 240 300 346 418
#
# _framework density 27.919557000000001
#
# number of rings (size 3 to 8) (size 9 to 14) (size 15 to 20)
#    0.750    1.250    0.000    2.625    1.750    1.500 
#    4.500    5.625    0.000    0.000    0.000    0.000 
#    0.000    0.000    0.000    0.000    0.000    0.000 
#
# Total GULP energy -89217.745320 kJ/mol
# GULP energy per Si atom -5576.109082 kJ/mol
# Density = 2.785601 g / cm^3
# Si number density = 27.919557 Si / 1000 Ang^3
#
#
#
# Elastic Constant Matrix: (Units=GPa)
#
#
# Indices 1 2 3 4 5 6 
#
# 1 86.5878 17.2737 10.8068 3.9968 0.5571 7.9707
# 2 17.2737 101.9176 18.3182 29.9001 -0.1658 -3.4538
# 3 10.8068 18.3182 117.3550 12.8125 7.9657 -7.6333
# 4 3.9968 29.9001 12.8125 48.2846 -1.1752 -3.2678
# 5 0.5571 -0.1658 7.9657 -1.1752 49.8903 2.5973
# 6 7.9707 -3.4538 -7.6333 -3.2678 2.5973 28.5051
#
#
#
# Elastic Compliance Matrix: (Units=1/GPa)
#
#
# Indices 1 2 3 4 5 6 
#
# 1 0.012472 -0.002143 -0.001129 0.000328 0.000252 -0.004035
# 2 -0.002143 0.012500 -0.000892 -0.007256 -0.000017 0.001045
# 3 -0.001129 -0.000892 0.009229 -0.001664 -0.001640 0.002638
# 4 0.000328 -0.007256 -0.001664 0.025736 0.000768 0.001464
# 5 0.000252 -0.000017 -0.001640 0.000768 0.020440 -0.002286
# 6 -0.004035 0.001045 0.002638 0.001464 -0.002286 0.037419
#
#
# Mechanical properties :
#
#
# Convention : Reuss Voigt Hill
#
# Bulk Modulus (GPa) = 38.65366 44.29532 41.47449
# Shear Modulus (GPa) = 37.10593 42.63344 39.86969
#
# Velocity S-wave (km/s) = 3.64954 3.91194 3.78301
# Velocity P-wave (km/s) = 5.62437 6.02529 5.82828
#
# Compressibility (1/GPa) = 0.02587077
#
# Stress axis : x y z
#
# Youngs Moduli (GPa) = 80.17835 80.00278 108.35334
#
# Poissons Ratio (x) = 0.17147 0.12236
# Poissons Ratio (y) = 0.17185 0.09670
# Poissons Ratio (z) = 0.09054 0.07140
#
# Static dielectric constant tensor:
#      x y z
#    x 2.263810 -0.095810 -0.039760 
#    y -0.095810 2.406010 -0.009340 
#    z -0.039760 -0.009340 2.268250 
# 
# From -- ./inp_files/404773.got.cif
#   From: 2010.05.17/outbox.cif.g08.bks.cpg/sg2_203_cif.got.tgz:404773.got - 2010.06.03 11:33:40.
