data_PCOD9029863
_publ_section_title
;
Structure prediction by ZEFSAII (Michael W. Deem and Ramdas Pophale) SiO2 
 PCOD9029863
Probable space group: P -1
;
_chemical_formula_sum "Si O2"
_cell_formula_units_Z 16
_cell_length_a 13.039732
_cell_length_b 9.423967
_cell_length_c 22.597487
_cell_angle_alpha 32.376672
_cell_angle_beta 145.492262
_cell_angle_gamma 148.225235
_cell_volume 725.498442
_symmetry_space_group_name_H-M "P -1"
_symmetry_group_IT_number 2
_symmetry_cell_setting 'triclinic'
loop_
_space_group_symop_operation_xyz
x,y,z
-x,-y,-z
loop_
_atom_site_type_symbol
_atom_site_label
_atom_site_fract_x
_atom_site_fract_y
_atom_site_fract_z
Si Si1 0.637865 0.452849 0.001875
Si Si2 0.511866 0.040593 0.562046
Si Si3 0.221088 0.493567 0.184683
Si Si4 0.691705 0.934128 0.267276
Si Si5 0.247745 0.259086 0.522470
Si Si6 0.215240 0.217835 0.162912
Si Si7 0.806453 0.914539 0.020563
Si Si8 0.856101 0.921175 0.591964
O O1 0.726114 0.248193 0.145043
O O2 0.392712 0.282281 0.962457
O O3 0.680435 0.517854 0.930197
O O4 0.745683 0.769392 0.978134
O O5 0.654300 0.402886 0.520915
O O6 0.273241 0.907460 0.518114
O O7 0.500000 0.000000 0.500000
O O8 0.621805 0.874601 0.703255
O O9 0.124707 0.309573 0.143699
O O10 0.178529 0.278173 0.296047
O O11 0.471739 0.675819 0.227526
O O12 0.156786 0.743504 0.081346
O O13 0.893699 0.900953 0.362392
O O14 0.656931 0.902002 0.333389
O O15 0.264292 0.284955 0.450345
O O16 0.000000 0.000000 0.500000
O O17 0.015257 0.932554 0.137295
#
# Coordination Sequence:
#
# PCOD9029863 Si02
#       8
#     2   2   2   2   2   2   2   2
#     4  10  24  44  67 102 131 169 226 285 327 400
#     4  12  25  46  65 103 143 175 232 283 335 411
#     4  11  23  43  65  96 138 170 228 274 331 417
#     4  10  22  42  68  97 136 167 232 277 331 402
#     4  10  23  42  69 100 130 183 229 277 337 409
#     4  12  25  42  67  97 138 175 218 279 341 399
#     4  10  24  42  68  97 132 176 222 276 340 394
#     4  11  23  41  69  97 127 189 221 278 343 389
#
# _framework density 22.053802999999998
#
# number of rings (size 3 to 8) (size 9 to 14) (size 15 to 20)
#    0.000    1.250    2.500    1.875    5.250    5.000 
#    2.250    3.125    0.000    0.000    0.000    0.000 
#    0.000    0.000    0.000    0.000    0.000    0.000 
#
# Total GULP energy -89324.898810 kJ/mol
# GULP energy per Si atom -5582.806176 kJ/mol
# Density = 2.200361 g / cm^3
# Si number density = 22.053803 Si / 1000 Ang^3
#
#
#
# Elastic Constant Matrix: (Units=GPa)
#
#
# Indices 1 2 3 4 5 6 
#
# 1 83.6940 8.3068 35.9333 -2.1584 -18.9287 -5.7540
# 2 8.3068 31.8640 6.6938 6.0694 -4.9353 1.5720
# 3 35.9333 6.6938 133.8920 2.5010 -16.5691 -3.4768
# 4 -2.1584 6.0694 2.5010 30.7199 8.4424 5.0007
# 5 -18.9287 -4.9353 -16.5691 8.4424 51.7672 16.7057
# 6 -5.7540 1.5720 -3.4768 5.0007 16.7057 30.7084
#
#
#
# Elastic Compliance Matrix: (Units=1/GPa)
#
#
# Indices 1 2 3 4 5 6 
#
# 1 0.014526 -0.002660 -0.003303 0.000725 0.003783 0.000308
# 2 -0.002660 0.034503 -0.000393 -0.007653 0.004587 -0.003559
# 3 -0.003303 -0.000393 0.008618 -0.001299 0.001862 -0.000425
# 4 0.000725 -0.007653 -0.001299 0.036252 -0.006077 -0.002217
# 5 0.003783 0.004587 0.001862 -0.006077 0.026909 -0.012964
# 6 0.000308 -0.003559 -0.000425 -0.002217 -0.012964 0.040170
#
#
# Mechanical properties :
#
#
# Convention : Reuss Voigt Hill
#
# Bulk Modulus (GPa) = 22.25403 39.03533 30.64468
# Shear Modulus (GPa) = 26.50153 35.87348 31.18751
#
# Velocity S-wave (km/s) = 3.47028 4.03753 3.76461
# Velocity P-wave (km/s) = 5.11565 6.28283 5.72904
#
# Compressibility (1/GPa) = 0.04493569
#
# Stress axis : x y z
#
# Youngs Moduli (GPa) = 68.84291 28.98270 116.03066
#
# Poissons Ratio (x) = 0.07711 0.38322
# Poissons Ratio (y) = 0.18315 0.04557
# Poissons Ratio (z) = 0.22737 0.01138
#
# Static dielectric constant tensor:
#      x y z
#    x 1.886430 0.011230 0.013140 
#    y 0.011230 1.831290 0.010690 
#    z 0.013140 0.010690 1.818470 
# 
# From -- ./inp_files/498983.got.cif
#   From: 2010.05.17/outbox.cif.g08.bks.cpg/sg2_250_cif.got.tgz:498983.got - 2010.06.03 11:33:40.
