data_PCOD9029402
_publ_section_title
;
Structure prediction by ZEFSAII (Michael W. Deem and Ramdas Pophale) SiO2 
 PCOD9029402
Probable space group: P -1
;
_chemical_formula_sum "Si O2"
_cell_formula_units_Z 16
_cell_length_a 9.730350
_cell_length_b 14.429345
_cell_length_c 10.527678
_cell_angle_alpha 102.355237
_cell_angle_beta 71.105345
_cell_angle_gamma 42.819234
_cell_volume 676.834504
_symmetry_space_group_name_H-M "P -1"
_symmetry_group_IT_number 2
_symmetry_cell_setting 'triclinic'
loop_
_space_group_symop_operation_xyz
x,y,z
-x,-y,-z
loop_
_atom_site_type_symbol
_atom_site_label
_atom_site_fract_x
_atom_site_fract_y
_atom_site_fract_z
Si Si1 0.112383 0.610963 0.568374
Si Si2 0.396648 0.153900 0.513846
Si Si3 0.985918 0.397643 0.146202
Si Si4 0.539861 0.227384 0.699343
Si Si5 0.230084 0.443269 0.234289
Si Si6 0.423930 0.980261 0.855242
Si Si7 0.848796 0.043766 0.935551
Si Si8 0.069085 0.845406 0.566298
O O1 0.209766 0.539865 0.663903
O O2 0.215765 0.468345 0.399815
O O3 0.757388 0.813489 0.743998
O O4 0.174330 0.678394 0.508253
O O5 0.489739 0.188980 0.581525
O O6 0.046492 0.337999 0.659748
O O7 0.500000 0.000000 0.500000
O O8 0.540109 0.084366 0.313375
O O9 0.789559 0.543030 0.127905
O O10 0.134960 0.399618 0.179955
O O11 0.223708 0.186502 0.970119
O O12 0.725722 0.055377 0.688735
O O13 0.740486 0.205220 0.606832
O O14 0.567334 0.266869 0.045726
O O15 0.284735 0.982189 0.990985
O O16 0.073961 0.897562 0.713434
O O17 0.000000 0.000000 0.000000
#
# Coordination Sequence:
#
# PCOD9029402 Si02
#       8
#     2   2   2   2   2   2   2   2
#     4  11  21  38  67  89 128 164 204 260 314 365
#     4  10  22  42  67  93 126 169 207 252 318 378
#     4  11  21  38  66  94 124 163 208 262 313 364
#     4  10  24  42  63  91 128 171 206 254 310 381
#     4  10  23  37  63  96 125 160 211 262 307 374
#     4  11  22  39  62  95 127 158 208 264 307 364
#     4  12  25  40  63  93 127 165 208 263 318 364
#     4  11  24  44  62  90 132 167 208 255 316 374
#
# _framework density 23.639454000000001
#
# number of rings (size 3 to 8) (size 9 to 14) (size 15 to 20)
#    0.000    1.250    2.500    3.750    5.250    2.500 
#    0.000    3.125    0.000    5.250    0.000    0.000 
#    0.000    0.000    0.000    0.000    0.000    0.000 
#
# Total GULP energy -89371.354699 kJ/mol
# GULP energy per Si atom -5585.709669 kJ/mol
# Density = 2.358565 g / cm^3
# Si number density = 23.639454 Si / 1000 Ang^3
#
#
#
# Elastic Constant Matrix: (Units=GPa)
#
#
# Indices 1 2 3 4 5 6 
#
# 1 60.5338 3.5857 7.8606 4.8925 3.8657 -6.0756
# 2 3.5857 72.1130 -1.0396 13.9395 -2.3004 1.7419
# 3 7.8606 -1.0396 60.6321 19.3556 5.3836 4.4713
# 4 4.8925 13.9395 19.3556 35.0326 6.0410 -1.3673
# 5 3.8657 -2.3004 5.3836 6.0410 36.2492 -8.0776
# 6 -6.0756 1.7419 4.4713 -1.3673 -8.0776 34.6940
#
#
#
# Elastic Compliance Matrix: (Units=1/GPa)
#
#
# Indices 1 2 3 4 5 6 
#
# 1 0.017274 -0.000882 -0.002237 -0.000570 -0.000767 0.003157
# 2 -0.000882 0.015585 0.002877 -0.008012 0.001718 -0.001223
# 3 -0.002237 0.002877 0.021257 -0.012466 -0.001580 -0.004135
# 4 -0.000570 -0.008012 -0.012466 0.039597 -0.004664 0.002384
# 5 -0.000767 0.001718 -0.001580 -0.004664 0.030318 0.006858
# 6 0.003157 -0.001223 -0.004135 0.002384 0.006858 0.031661
#
#
# Mechanical properties :
#
#
# Convention : Reuss Voigt Hill
#
# Bulk Modulus (GPa) = 18.64553 23.78805 21.21679
# Shear Modulus (GPa) = 28.72662 33.38663 31.05662
#
# Velocity S-wave (km/s) = 3.48975 3.76217 3.62852
# Velocity P-wave (km/s) = 4.91349 5.38113 5.15262
#
# Compressibility (1/GPa) = 0.05363214
#
# Stress axis : x y z
#
# Youngs Moduli (GPa) = 57.88931 64.16223 47.04354
#
# Poissons Ratio (x) = 0.05657 0.10525
# Poissons Ratio (y) = 0.05104 -0.13533
# Poissons Ratio (z) = 0.12952 -0.18458
#
# Static dielectric constant tensor:
#      x y z
#    x 1.915100 0.008300 0.024040 
#    y 0.008300 1.971540 0.013430 
#    z 0.024040 0.013430 2.008060 
# 
# From -- ./inp_files/399270.got.cif
#   From: 2010.05.17/outbox.cif.g08.bks.cpg/sg2_200_cif.got.tgz:399270.got - 2010.06.03 11:33:40.
