data_PCOD9029321
_publ_section_title
;
Structure prediction by ZEFSAII (Michael W. Deem and Ramdas Pophale) SiO2 
 PCOD9029321
Probable space group: P -1
;
_chemical_formula_sum "Si O2"
_cell_formula_units_Z 12
_cell_length_a 5.209470
_cell_length_b 5.008471
_cell_length_c 20.196805
_cell_angle_alpha 109.325831
_cell_angle_beta 119.096392
_cell_angle_gamma 88.483581
_cell_volume 428.700263
_symmetry_space_group_name_H-M "P -1"
_symmetry_group_IT_number 2
_symmetry_cell_setting 'triclinic'
loop_
_space_group_symop_operation_xyz
x,y,z
-x,-y,-z
loop_
_atom_site_type_symbol
_atom_site_label
_atom_site_fract_x
_atom_site_fract_y
_atom_site_fract_z
Si Si1 0.776956 0.920577 0.602529
Si Si2 0.634371 0.417100 0.835734
Si Si3 0.389920 0.382288 0.579137
Si Si4 0.188481 0.746755 0.858676
Si Si5 0.842190 0.407916 0.304443
Si Si6 0.005234 0.820011 0.051881
O O1 0.532870 0.691934 0.592882
O O2 0.756787 0.810406 0.515654
O O3 0.084806 0.877728 0.670922
O O4 0.681867 0.233487 0.621742
O O5 0.481846 0.606305 0.883609
O O6 0.428973 0.449583 0.749432
O O7 0.694163 0.132511 0.858566
O O8 0.954923 0.556033 0.861001
O O9 0.159793 0.407281 0.610710
O O10 0.056103 0.700426 0.764412
O O11 0.227259 0.065928 0.918556
O O12 0.000000 0.500000 0.000000
O O13 0.000000 0.000000 0.000000
#
# Coordination Sequence:
#
# PCOD9029321 Si02
#       6
#     2   2   2   2   2   2
#     4  10  22  42  67 101 143 191 242 294 355 422
#     4  10  25  48  73 109 145 190 242 303 363 436
#     4  10  22  42  67 101 143 191 242 294 355 422
#     4  10  25  48  73 109 145 190 242 303 363 436
#     4  10  23  42  72  98 152 180 250 286 372 412
#     4  12  26  52  80 106 149 190 245 300 372 440
#
# _framework density 27.991582999999999
#
# number of rings (size 3 to 8) (size 9 to 14) (size 15 to 20)
#    1.000    0.667    1.667    1.500    2.333    4.000 
#    6.000    5.000    0.000    0.000    0.000    0.000 
#    0.000    0.000    0.000    0.000    0.000    0.000 
#
# Total GULP energy -66837.540929 kJ/mol
# GULP energy per Si atom -5569.795077 kJ/mol
# Density = 2.792787 g / cm^3
# Si number density = 27.991583 Si / 1000 Ang^3
#
#
#
# Elastic Constant Matrix: (Units=GPa)
#
#
# Indices 1 2 3 4 5 6 
#
# 1 148.5000 106.4946 25.2675 15.5097 -11.4271 -0.7171
# 2 106.4946 267.5276 19.0924 -17.4780 32.4307 -3.6598
# 3 25.2675 19.0924 184.8994 -12.1779 -74.1997 -11.5949
# 4 15.5097 -17.4780 -12.1779 60.5379 -15.2739 17.4480
# 5 -11.4271 32.4307 -74.1997 -15.2739 89.0047 16.0673
# 6 -0.7171 -3.6598 -11.5949 17.4480 16.0673 47.2722
#
#
#
# Elastic Compliance Matrix: (Units=1/GPa)
#
#
# Indices 1 2 3 4 5 6 
#
# 1 0.010764 -0.004754 -0.000369 -0.003793 0.002084 0.000396
# 2 -0.004754 0.006337 -0.001484 0.001464 -0.004067 0.000896
# 3 -0.000369 -0.001484 0.009795 0.005041 0.010066 -0.003000
# 4 -0.003793 0.001464 0.005041 0.024424 0.009340 -0.010897
# 5 0.002084 -0.004067 0.010066 0.009340 0.024724 -0.009665
# 6 0.000396 0.000896 -0.003000 -0.010897 -0.009665 0.027801
#
#
# Mechanical properties :
#
#
# Convention : Reuss Voigt Hill
#
# Bulk Modulus (GPa) = 73.08039 100.29288 86.68663
# Shear Modulus (GPa) = 41.11155 69.36780 55.23968
#
# Velocity S-wave (km/s) = 3.83653 4.98352 4.44716
# Velocity P-wave (km/s) = 6.76683 8.30791 7.57665
#
# Compressibility (1/GPa) = 0.01368356
#
# Stress axis : x y z
#
# Youngs Moduli (GPa) = 92.90129 157.80075 102.08953
#
# Poissons Ratio (x) = 0.75012 0.03763
# Poissons Ratio (y) = 0.44162 0.15153
# Poissons Ratio (z) = 0.03424 0.23422
#
# Static dielectric constant tensor:
#      x y z
#    x 1.767830 -0.039320 -0.060560 
#    y -0.039320 2.192390 -0.038150 
#    z -0.060560 -0.038150 2.118220 
# 
# From -- ./inp_files/602795.got.cif
#   From: 2010.05.17/outbox.cif.g08.bks.cpg/sg2_302_cif.got.tgz:602795.got - 2010.06.03 11:33:40.
