data_PCOD9029033
_publ_section_title
;
Structure prediction by ZEFSAII (Michael W. Deem and Ramdas Pophale) SiO2 
 PCOD9029033
Probable space group: P -1
;
_chemical_formula_sum "Si O2"
_cell_formula_units_Z 14
_cell_length_a 13.064083
_cell_length_b 15.605866
_cell_length_c 11.448020
_cell_angle_alpha 126.103989
_cell_angle_beta 53.202127
_cell_angle_gamma 161.577658
_cell_volume 588.592979
_symmetry_space_group_name_H-M "P -1"
_symmetry_group_IT_number 2
_symmetry_cell_setting 'triclinic'
loop_
_space_group_symop_operation_xyz
x,y,z
-x,-y,-z
loop_
_atom_site_type_symbol
_atom_site_label
_atom_site_fract_x
_atom_site_fract_y
_atom_site_fract_z
Si Si1 0.239737 0.779682 0.600349
Si Si2 0.577436 0.880403 0.608481
Si Si3 0.736106 0.693600 0.607239
Si Si4 0.306387 0.507965 0.337950
Si Si5 0.479862 0.696845 0.907776
Si Si6 0.629132 0.718203 0.065649
Si Si7 0.724809 0.069291 0.905335
O O1 0.446457 0.893094 0.659489
O O2 0.000000 0.500000 0.500000
O O3 0.015508 0.714014 0.698134
O O4 0.500000 0.000000 0.500000
O O5 0.316262 0.597386 0.510059
O O6 0.611518 0.910848 0.746749
O O7 0.919405 0.095709 0.497011
O O8 0.500000 0.500000 0.500000
O O9 0.636684 0.556814 0.684809
O O10 0.707245 0.792037 0.750740
O O11 0.584833 0.740616 0.238461
O O12 0.100576 0.390352 0.884572
O O13 0.636615 0.931733 0.968144
O O14 0.462865 0.651780 0.019105
O O15 0.500000 0.500000 0.000000
O O16 0.000000 0.000000 0.000000
O O17 0.500000 0.000000 0.000000
#
# Coordination Sequence:
#
# PCOD9029033 Si02
#       7
#     2   2   2   2   2   2   2
#     4  10  22  42  66 101 141 186 237 294 366 429
#     4  11  25  45  74 107 148 190 253 304 373 438
#     4  12  23  41  74 110 148 188 240 307 370 441
#     4  11  25  44  72 109 151 193 246 314 367 447
#     4  12  27  49  74 108 147 197 250 300 381 439
#     4  12  26  46  73 108 153 196 244 301 375 451
#     4  12  29  52  74 104 149 198 250 307 369 450
#
# _framework density 23.785534999999999
#
# number of rings (size 3 to 8) (size 9 to 14) (size 15 to 20)
#    0.000    0.571    4.286    3.000    4.000    1.143 
#    5.143    0.000    0.000    0.000    0.000    0.000 
#    0.000    0.000    0.000    0.000    0.000    0.000 
#
# Total GULP energy -78232.841192 kJ/mol
# GULP energy per Si atom -5588.060085 kJ/mol
# Density = 2.373140 g / cm^3
# Si number density = 23.785535 Si / 1000 Ang^3
#
#
#
# Elastic Constant Matrix: (Units=GPa)
#
#
# Indices 1 2 3 4 5 6 
#
# 1 137.2428 38.6960 22.7761 -16.3854 3.4541 5.6564
# 2 38.6960 99.3930 8.3251 -17.1858 -1.9239 3.6286
# 3 22.7761 8.3251 84.0648 -9.1857 7.9816 1.4589
# 4 -16.3854 -17.1858 -9.1857 28.0310 -1.2243 2.5663
# 5 3.4541 -1.9239 7.9816 -1.2243 32.3123 -0.2297
# 6 5.6564 3.6286 1.4589 2.5663 -0.2297 49.1143
#
#
#
# Elastic Compliance Matrix: (Units=1/GPa)
#
#
# Indices 1 2 3 4 5 6 
#
# 1 0.008742 -0.002731 -0.001707 0.002935 -0.000571 -0.000910
# 2 -0.002731 0.012221 0.000092 0.006063 0.001220 -0.000902
# 3 -0.001707 0.000092 0.012983 0.003221 -0.002900 -0.000378
# 4 0.002935 0.006063 0.003221 0.042483 0.000839 -0.003097
# 5 -0.000571 0.001220 -0.002900 0.000839 0.031831 0.000167
# 6 -0.000910 -0.000902 -0.000378 -0.003097 0.000167 0.020706
#
#
# Mechanical properties :
#
#
# Convention : Reuss Voigt Hill
#
# Bulk Modulus (GPa) = 39.59863 51.14391 45.37127
# Shear Modulus (GPa) = 34.22863 38.61840 36.42352
#
# Velocity S-wave (km/s) = 3.79760 4.03377 3.91747
# Velocity P-wave (km/s) = 5.99278 6.57601 6.29115
#
# Compressibility (1/GPa) = 0.02525340
#
# Stress axis : x y z
#
# Youngs Moduli (GPa) = 114.39129 81.82380 77.02462
#
# Poissons Ratio (x) = 0.22344 0.13151
# Poissons Ratio (y) = 0.31238 -0.00707
# Poissons Ratio (z) = 0.19531 -0.00751
#
# Static dielectric constant tensor:
#      x y z
#    x 2.007370 0.022440 -0.054770 
#    y 0.022440 1.941090 0.049060 
#    z -0.054770 0.049060 1.932440 
# 
# From -- ./inp_files/66271.got.cif
#   From: 2010.05.17/outbox.cif.g08.bks.cpg/sg2_34_cif.got.tgz:66271.got - 2010.06.03 11:33:40.
