data_PCOD9029596
_publ_section_title
;
Structure prediction by ZEFSAII (Michael W. Deem and Ramdas Pophale) SiO2 
 PCOD9029596
Probable space group: P -1
;
_chemical_formula_sum "Si O2"
_cell_formula_units_Z 16
_cell_length_a 14.081195
_cell_length_b 15.587206
_cell_length_c 5.110829
_cell_angle_alpha 90.460375
_cell_angle_beta 71.002744
_cell_angle_gamma 38.542163
_cell_volume 591.582814
_symmetry_space_group_name_H-M "P -1"
_symmetry_group_IT_number 2
_symmetry_cell_setting 'triclinic'
loop_
_space_group_symop_operation_xyz
x,y,z
-x,-y,-z
loop_
_atom_site_type_symbol
_atom_site_label
_atom_site_fract_x
_atom_site_fract_y
_atom_site_fract_z
Si Si1 0.755606 0.884480 0.755723
Si Si2 0.533503 0.808505 0.271032
Si Si3 0.058334 0.599069 0.779401
Si Si4 0.775960 0.073719 0.167561
Si Si5 0.156656 0.343515 0.631625
Si Si6 0.671687 0.534145 0.888885
Si Si7 0.058876 0.782284 0.206417
Si Si8 0.277455 0.776038 0.275880
O O1 0.757581 0.787399 0.636272
O O2 0.870146 0.784777 0.913760
O O3 0.894184 0.850985 0.491292
O O4 0.568203 0.061021 0.849084
O O5 0.386144 0.877067 0.616118
O O6 0.689857 0.745099 0.289162
O O7 0.608811 0.670348 0.058392
O O8 0.091704 0.482878 0.599743
O O9 0.216417 0.537451 0.482761
O O10 0.014871 0.585897 0.095804
O O11 0.750780 0.167719 0.406243
O O12 0.768294 0.115337 0.885309
O O13 0.967706 0.895667 0.051899
O O14 0.797443 0.394313 0.977943
O O15 0.487824 0.611801 0.029978
O O16 0.157779 0.780856 0.300565
#
# Coordination Sequence:
#
# PCOD9029596 Si02
#       8
#     2   2   2   2   2   2   2   2
#     4  10  23  45  61  95 130 169 223 267 333 394
#     4  10  23  43  65  96 128 173 219 276 330 400
#     4  10  24  40  64  92 125 168 216 268 334 388
#     4  10  23  45  69 103 136 177 226 282 338 405
#     4  11  23  40  67  94 126 171 221 269 337 395
#     4  10  23  44  67  95 139 169 226 276 341 399
#     4  10  22  42  67  99 131 176 225 273 340 404
#     4  11  22  46  70 102 136 180 224 281 341 405
#
# _framework density 27.046085999999999
#
# number of rings (size 3 to 8) (size 9 to 14) (size 15 to 20)
#    0.000    1.750    0.000    2.625    8.750    0.500 
#   24.750    3.125    0.000    0.000    0.000    0.000 
#    0.000    0.000    0.000    0.000    0.000    0.000 
#
# Total GULP energy -89540.165841 kJ/mol
# GULP energy per Si atom -5596.260365 kJ/mol
# Density = 2.698453 g / cm^3
# Si number density = 27.046086 Si / 1000 Ang^3
#
#
#
# Elastic Constant Matrix: (Units=GPa)
#
#
# Indices 1 2 3 4 5 6 
#
# 1 136.6798 4.3572 44.1934 25.5620 -20.5027 -3.8023
# 2 4.3572 136.1670 18.1779 36.2778 -18.5146 -4.7679
# 3 44.1934 18.1779 98.4229 1.9823 -13.2775 2.0684
# 4 25.5620 36.2778 1.9823 37.6309 3.1825 -2.3464
# 5 -20.5027 -18.5146 -13.2775 3.1825 39.4154 6.4840
# 6 -3.8023 -4.7679 2.0684 -2.3464 6.4840 39.0652
#
#
#
# Elastic Compliance Matrix: (Units=1/GPa)
#
#
# Indices 1 2 3 4 5 6 
#
# 1 0.012764 0.005209 -0.005264 -0.014138 0.008471 -0.000098
# 2 0.005209 0.013433 -0.003206 -0.017128 0.009366 -0.000267
# 3 -0.005264 -0.003206 0.013003 0.005918 -0.000142 -0.001213
# 4 -0.014138 -0.017128 0.005918 0.054071 -0.018181 0.002485
# 5 0.008471 0.009366 -0.000142 -0.018181 0.036447 -0.005166
# 6 -0.000098 -0.000267 -0.001213 0.002485 -0.005166 0.026627
#
#
# Mechanical properties :
#
#
# Convention : Reuss Voigt Hill
#
# Bulk Modulus (GPa) = 30.60048 56.08073 43.34061
# Shear Modulus (GPa) = 28.77556 43.52507 36.15032
#
# Velocity S-wave (km/s) = 3.26536 4.01595 3.65995
# Velocity P-wave (km/s) = 5.05524 6.50262 5.82407
#
# Compressibility (1/GPa) = 0.03267922
#
# Stress axis : x y z
#
# Youngs Moduli (GPa) = 78.34324 74.44508 76.90505
#
# Poissons Ratio (x) = -0.38780 0.40482
# Poissons Ratio (y) = -0.40811 0.24654
# Poissons Ratio (z) = 0.41239 0.23865
#
# Static dielectric constant tensor:
#      x y z
#    x 2.251310 -0.087610 0.091740 
#    y -0.087610 2.171940 -0.008860 
#    z 0.091740 -0.008860 2.110670 
# 
# From -- ./inp_files/98023.got.cif
#   From: 2010.05.17/outbox.cif.g08.bks.cpg/sg2_50_cif.got.tgz:98023.got - 2010.06.03 11:33:40.
