data_PCOD9029406
_publ_section_title
;
Structure prediction by ZEFSAII (Michael W. Deem and Ramdas Pophale) SiO2 
 PCOD9029406
Probable space group: P -1
;
_chemical_formula_sum "Si O2"
_cell_formula_units_Z 14
_cell_length_a 10.617490
_cell_length_b 7.060492
_cell_length_c 9.551509
_cell_angle_alpha 128.313920
_cell_angle_beta 99.585890
_cell_angle_gamma 77.497140
_cell_volume 548.001101
_symmetry_space_group_name_H-M "P -1"
_symmetry_group_IT_number 2
_symmetry_cell_setting 'triclinic'
loop_
_space_group_symop_operation_xyz
x,y,z
-x,-y,-z
loop_
_atom_site_type_symbol
_atom_site_label
_atom_site_fract_x
_atom_site_fract_y
_atom_site_fract_z
Si Si1 0.646264 0.681587 0.763815
Si Si2 0.983482 0.733352 0.443796
Si Si3 0.700378 0.899696 0.402518
Si Si4 0.765027 0.267743 0.371565
Si Si5 0.409538 0.565258 0.842721
Si Si6 0.100015 0.182718 0.140583
Si Si7 0.671034 0.086286 0.771719
O O1 0.701635 0.468177 0.566810
O O2 0.540170 0.630048 0.829574
O O3 0.769292 0.778039 0.903843
O O4 0.589001 0.894392 0.741622
O O5 0.831044 0.744191 0.416174
O O6 0.080581 0.729511 0.592719
O O7 0.034257 0.466179 0.264715
O O8 0.000000 0.000000 0.500000
O O9 0.596904 0.720264 0.287010
O O10 0.734671 0.019745 0.321067
O O11 0.664404 0.093847 0.608337
O O12 0.698968 0.319219 0.235388
O O13 0.367233 0.672899 0.035306
O O14 0.181772 0.041826 0.220864
O O15 0.000000 0.000000 0.000000
#
# Coordination Sequence:
#
# PCOD9029406 Si02
#       7
#     2   2   2   2   2   2   2
#     4   9  21  42  63  91 134 171 206 276 325 380
#     4   9  19  38  62  92 131 170 214 273 327 385
#     4  11  23  41  66  97 129 173 217 268 325 392
#     4  10  22  42  67  93 130 174 218 263 329 390
#     4  12  22  43  66  94 132 175 216 266 330 388
#     4   9  18  36  63  96 122 167 220 266 325 393
#     4  10  23  39  64  94 132 164 216 271 320 377
#
# _framework density 25.547395999999999
#
# number of rings (size 3 to 8) (size 9 to 14) (size 15 to 20)
#    0.857    1.143    1.429    1.714    0.000    4.000 
#    2.571    0.714    0.000    6.857    0.000    0.000 
#    0.000    0.000    0.000    0.000    0.000    0.000 
#
# Total GULP energy -78159.706646 kJ/mol
# GULP energy per Si atom -5582.836189 kJ/mol
# Density = 2.548925 g / cm^3
# Si number density = 25.547396 Si / 1000 Ang^3
#
#
#
# Elastic Constant Matrix: (Units=GPa)
#
#
# Indices 1 2 3 4 5 6 
#
# 1 141.6120 27.8221 41.0704 11.4323 23.0118 1.8254
# 2 27.8221 87.6388 36.6940 -6.6267 5.5757 -3.8045
# 3 41.0704 36.6940 129.6212 -0.7972 -1.3487 2.5740
# 4 11.4323 -6.6267 -0.7972 32.4683 1.6410 -9.8307
# 5 23.0118 5.5757 -1.3487 1.6410 40.3595 16.0524
# 6 1.8254 -3.8045 2.5740 -9.8307 16.0524 37.1659
#
#
#
# Elastic Compliance Matrix: (Units=1/GPa)
#
#
# Indices 1 2 3 4 5 6 
#
# 1 0.009251 -0.001712 -0.002543 -0.003068 -0.005428 0.001079
# 2 -0.001712 0.014204 -0.003567 0.004901 -0.003055 0.004401
# 3 -0.002543 -0.003567 0.009610 -0.000502 0.003257 -0.002445
# 4 -0.003068 0.004901 -0.000502 0.037055 -0.005582 0.012899
# 5 -0.005428 -0.003055 0.003257 -0.005582 0.035408 -0.017041
# 6 0.001079 0.004401 -0.002445 0.012899 -0.017041 0.038245
#
#
# Mechanical properties :
#
#
# Convention : Reuss Voigt Hill
#
# Bulk Modulus (GPa) = 57.40751 63.33831 60.37291
# Shear Modulus (GPa) = 30.26166 38.88444 34.57305
#
# Velocity S-wave (km/s) = 3.44543 3.90558 3.68270
# Velocity P-wave (km/s) = 6.19256 6.72193 6.46267
#
# Compressibility (1/GPa) = 0.01741932
#
# Stress axis : x y z
#
# Youngs Moduli (GPa) = 108.09261 70.40457 104.05881
#
# Poissons Ratio (x) = 0.12052 0.26467
# Poissons Ratio (y) = 0.18504 0.37123
# Poissons Ratio (z) = 0.27493 0.25117
#
# Static dielectric constant tensor:
#      x y z
#    x 2.048470 -0.045390 -0.008950 
#    y -0.045390 2.017520 0.027430 
#    z -0.008950 0.027430 2.050240 
# 
# From -- ./inp_files/415958.got.cif
#   From: 2010.05.17/outbox.cif.g08.bks.cpg/sg2_208_cif.got.tgz:415958.got - 2010.06.03 11:33:40.
