data_PCOD9029449
_publ_section_title
;
Structure prediction by ZEFSAII (Michael W. Deem and Ramdas Pophale) SiO2 
 PCOD9029449
Probable space group: P -1
;
_chemical_formula_sum "Si O2"
_cell_formula_units_Z 14
_cell_length_a 7.071527
_cell_length_b 19.670916
_cell_length_c 10.089665
_cell_angle_alpha 48.358827
_cell_angle_beta 46.561073
_cell_angle_gamma 50.939067
_cell_volume 721.720886
_symmetry_space_group_name_H-M "P -1"
_symmetry_group_IT_number 2
_symmetry_cell_setting 'triclinic'
loop_
_space_group_symop_operation_xyz
x,y,z
-x,-y,-z
loop_
_atom_site_type_symbol
_atom_site_label
_atom_site_fract_x
_atom_site_fract_y
_atom_site_fract_z
Si Si1 0.464142 0.769352 0.299414
Si Si2 0.807298 0.110437 0.960705
Si Si3 0.242560 0.863955 0.540219
Si Si4 0.726044 0.455615 0.835030
Si Si5 0.072351 0.773920 0.999211
Si Si6 0.340194 0.452245 0.541398
Si Si7 0.371546 0.029533 0.379414
O O1 0.233457 0.839373 0.227120
O O2 0.391467 0.782145 0.472144
O O3 0.513708 0.661038 0.375823
O O4 0.749567 0.790840 0.115873
O O5 0.887887 0.175190 0.949109
O O6 0.514802 0.101688 0.157408
O O7 0.000000 0.000000 0.000000
O O8 0.178082 0.824593 0.762144
O O9 0.956210 0.923472 0.530680
O O10 0.421146 0.934156 0.390517
O O11 0.645948 0.509172 0.663714
O O12 0.020783 0.469031 0.710057
O O13 0.500000 0.500000 0.000000
O O14 0.780939 0.341457 0.931498
O O15 0.500000 0.500000 0.500000
O O16 0.500000 0.000000 0.500000
#
# Coordination Sequence:
#
# PCOD9029449 Si02
#       7
#     2   2   2   2   2   2   2
#     4  11  24  41  62  93 121 166 209 249 314 368
#     4  12  24  39  62  90 128 165 210 252 304 365
#     4  11  23  39  62  84 124 162 203 252 302 355
#     4  10  22  42  67  95 125 163 209 262 323 375
#     4  11  23  42  63  91 126 162 205 258 307 373
#     4  10  22  43  65  92 131 161 207 265 315 380
#     4  11  22  39  57  85 122 160 204 252 293 353
#
# _framework density 19.398081000000001
#
# number of rings (size 3 to 8) (size 9 to 14) (size 15 to 20)
#    0.000    1.143    2.857    3.429    2.000    1.714 
#    2.571    0.000    0.000    0.000    0.000    0.000 
#    0.000    0.000    0.000    0.000    0.000    0.000 
#
# Total GULP energy -78201.916860 kJ/mol
# GULP energy per Si atom -5585.851204 kJ/mol
# Density = 1.935393 g / cm^3
# Si number density = 19.398081 Si / 1000 Ang^3
#
#
#
# Elastic Constant Matrix: (Units=GPa)
#
#
# Indices 1 2 3 4 5 6 
#
# 1 121.9691 70.5408 36.0312 -10.9237 -1.8204 23.0477
# 2 70.5408 110.2801 37.4615 5.6592 -8.1877 17.0124
# 3 36.0312 37.4615 71.5125 3.7713 8.5798 11.5599
# 4 -10.9237 5.6592 3.7713 33.9352 4.8265 2.1381
# 5 -1.8204 -8.1877 8.5798 4.8265 23.3211 -11.9588
# 6 23.0477 17.0124 11.5599 2.1381 -11.9588 39.0322
#
#
#
# Elastic Compliance Matrix: (Units=1/GPa)
#
#
# Indices 1 2 3 4 5 6 
#
# 1 0.016423 -0.009807 -0.001460 0.008618 -0.007366 -0.007719
# 2 -0.009807 0.018044 -0.006025 -0.007296 0.011096 0.003510
# 3 -0.001460 -0.006025 0.020531 0.000574 -0.013343 -0.006712
# 4 0.008618 -0.007296 0.000574 0.035872 -0.013759 -0.008260
# 5 -0.007366 0.011096 -0.013343 -0.013759 0.066581 0.024618
# 6 -0.007719 0.003510 -0.006712 -0.008260 0.024618 0.038631
#
#
# Mechanical properties :
#
#
# Convention : Reuss Voigt Hill
#
# Bulk Modulus (GPa) = 48.98679 65.75874 57.37276
# Shear Modulus (GPa) = 21.05521 29.90625 25.48073
#
# Velocity S-wave (km/s) = 3.29816 3.93072 3.62825
# Velocity P-wave (km/s) = 6.30968 7.38742 6.86972
#
# Compressibility (1/GPa) = 0.02041367
#
# Stress axis : x y z
#
# Youngs Moduli (GPa) = 60.89159 55.41879 48.70700
#
# Poissons Ratio (x) = 0.54350 0.07111
# Poissons Ratio (y) = 0.59717 0.29346
# Poissons Ratio (z) = 0.08890 0.33390
#
# Static dielectric constant tensor:
#      x y z
#    x 1.654680 -0.028400 0.007810 
#    y -0.028400 1.657610 0.016260 
#    z 0.007810 0.016260 1.659880 
# 
# From -- ./inp_files/46462.got.cif
#   From: 2010.05.17/outbox.cif.g08.bks.cpg/sg2_24_cif.got.tgz:46462.got - 2010.06.03 11:33:40.
