data_PCOD9029250
_publ_section_title
;
Structure prediction by ZEFSAII (Michael W. Deem and Ramdas Pophale) SiO2 
 PCOD9029250
Probable space group: P -1
;
_chemical_formula_sum "Si O2"
_cell_formula_units_Z 14
_cell_length_a 8.351791
_cell_length_b 18.945361
_cell_length_c 20.945324
_cell_angle_alpha 19.536284
_cell_angle_beta 46.887531
_cell_angle_gamma 35.804632
_cell_volume 590.332831
_symmetry_space_group_name_H-M "P -1"
_symmetry_group_IT_number 2
_symmetry_cell_setting 'triclinic'
loop_
_space_group_symop_operation_xyz
x,y,z
-x,-y,-z
loop_
_atom_site_type_symbol
_atom_site_label
_atom_site_fract_x
_atom_site_fract_y
_atom_site_fract_z
Si Si1 0.108381 0.069581 0.327847
Si Si2 0.743623 0.212790 0.094080
Si Si3 0.387790 0.852148 0.681242
Si Si4 0.692724 0.079089 0.893747
Si Si5 0.244924 0.104510 0.833405
Si Si6 0.720535 0.595556 0.056390
Si Si7 0.619611 0.556892 0.551190
O O1 0.121718 0.283423 0.102715
O O2 0.884733 0.059890 0.361363
O O3 0.437918 0.757842 0.491619
O O4 0.966468 0.247498 0.281343
O O5 0.708310 0.081048 0.275712
O O6 0.512628 0.297037 0.029483
O O7 0.647480 0.505915 0.896439
O O8 0.072779 0.014196 0.144856
O O9 0.500000 0.000000 0.500000
O O10 0.504627 0.413564 0.675902
O O11 0.500000 0.000000 0.000000
O O12 0.864612 0.892000 0.070721
O O13 0.376466 0.254134 0.661710
O O14 0.964446 0.286481 0.706885
O O15 0.510532 0.770544 0.025210
#
# Coordination Sequence:
#
# PCOD9029250 Si02
#       7
#     2   2   2   2   2   2   2
#     4   9  20  39  67 100 125 167 225 276 326 385
#     4  10  23  43  65  93 132 180 218 270 339 390
#     4  10  23  44  67  92 134 174 221 277 332 397
#     4  12  27  41  67 101 136 182 221 270 336 403
#     4  10  22  44  68  94 137 174 223 275 333 393
#     4   9  18  41  67  94 133 175 214 277 332 380
#     4  10  22  42  66  98 131 176 223 276 324 395
#
# _framework density 23.715433000000001
#
# number of rings (size 3 to 8) (size 9 to 14) (size 15 to 20)
#    0.000    2.000    1.429    0.429    6.000    1.714 
#    0.000    1.429    0.000    0.000    0.000    0.000 
#    0.000    0.000    0.000    0.000    0.000    0.000 
#
# Total GULP energy -78277.957232 kJ/mol
# GULP energy per Si atom -5591.282659 kJ/mol
# Density = 2.366146 g / cm^3
# Si number density = 23.715433 Si / 1000 Ang^3
#
#
#
# Elastic Constant Matrix: (Units=GPa)
#
#
# Indices 1 2 3 4 5 6 
#
# 1 55.1804 25.8906 33.3266 19.3391 -33.3739 -9.3114
# 2 25.8906 149.9290 62.9512 -4.2961 -6.4544 -1.9786
# 3 33.3266 62.9512 133.6212 9.2886 -32.6050 -5.3573
# 4 19.3391 -4.2961 9.2886 46.7216 -4.6901 5.5368
# 5 -33.3739 -6.4544 -32.6050 -4.6901 36.8506 8.0119
# 6 -9.3114 -1.9786 -5.3573 5.5368 8.0119 27.4329
#
#
#
# Elastic Compliance Matrix: (Units=1/GPa)
#
#
# Indices 1 2 3 4 5 6 
#
# 1 0.063920 -0.011269 0.004851 -0.024228 0.054793 0.010718
# 2 -0.011269 0.010596 -0.005633 0.005739 -0.012223 -0.001749
# 3 0.004851 -0.005633 0.012620 -0.003668 0.014030 0.000347
# 4 -0.024228 0.005739 -0.003668 0.032037 -0.017987 -0.009739
# 5 0.054793 -0.012223 0.014030 -0.017987 0.084898 -0.000708
# 6 0.010718 -0.001749 0.000347 -0.009739 -0.000708 0.042204
#
#
# Mechanical properties :
#
#
# Convention : Reuss Voigt Hill
#
# Bulk Modulus (GPa) = 15.86444 64.78527 40.32486
# Shear Modulus (GPa) = 17.15916 36.63851 26.89883
#
# Velocity S-wave (km/s) = 2.69280 3.93481 3.37149
# Velocity P-wave (km/s) = 4.04626 6.92970 5.67419
#
# Compressibility (1/GPa) = 0.06303407
#
# Stress axis : x y z
#
# Youngs Moduli (GPa) = 15.64460 94.37429 79.23738
#
# Poissons Ratio (x) = 1.06347 -0.38435
# Poissons Ratio (y) = 0.17629 0.44635
# Poissons Ratio (z) = -0.07589 0.53162
#
# Static dielectric constant tensor:
#      x y z
#    x 1.912720 0.003480 -0.014470 
#    y 0.003480 1.931440 -0.016280 
#    z -0.014470 -0.016280 1.910560 
# 
# From -- ./inp_files/590847.got.cif
#   From: 2010.05.17/outbox.cif.g08.bks.cpg/sg2_296_cif.got.tgz:590847.got - 2010.06.03 11:33:40.
