data_PCOD9029109
_publ_section_title
;
Structure prediction by ZEFSAII (Michael W. Deem and Ramdas Pophale) SiO2 
 PCOD9029109
Probable space group: P -1
;
_chemical_formula_sum "Si O2"
_cell_formula_units_Z 15
_cell_length_a 9.057416
_cell_length_b 14.927195
_cell_length_c 6.732331
_cell_angle_alpha 95.076232
_cell_angle_beta 53.530185
_cell_angle_gamma 108.176674
_cell_volume 689.827820
_symmetry_space_group_name_H-M "P -1"
_symmetry_group_IT_number 2
_symmetry_cell_setting 'triclinic'
loop_
_space_group_symop_operation_xyz
x,y,z
-x,-y,-z
loop_
_atom_site_type_symbol
_atom_site_label
_atom_site_fract_x
_atom_site_fract_y
_atom_site_fract_z
Si Si1 0.470293 0.095600 0.636242
Si Si2 0.880685 0.611651 0.618520
Si Si3 0.106590 0.794662 0.728934
Si Si4 0.463305 0.399871 0.392774
Si Si5 0.939715 0.092358 0.568685
Si Si6 0.800880 0.795214 0.293052
Si Si7 0.500000 0.000000 0.000000
Si Si8 0.127098 0.551844 0.095649
O O1 0.663463 0.181539 0.435559
O O2 0.293408 0.127749 0.702062
O O3 0.459627 0.072214 0.873409
O O4 0.500000 0.000000 0.500000
O O5 0.676073 0.605773 0.685621
O O6 0.849569 0.523086 0.774298
O O7 0.997971 0.701225 0.672775
O O8 0.013496 0.609174 0.320726
O O9 0.087168 0.880227 0.627926
O O10 0.986263 0.792155 0.021049
O O11 0.500000 0.500000 0.500000
O O12 0.354964 0.309610 0.597969
O O13 0.664845 0.392588 0.150038
O O14 0.730558 0.066458 0.834682
O O15 0.112845 0.172730 0.552372
O O16 0.000000 0.000000 0.500000
O O17 0.000000 0.500000 0.000000
#
# Coordination Sequence:
#
# PCOD9029109 Si02
#       8
#     2   2   2   2   2   2   1   2
#     4  11  25  44  68 100 135 184 230 288 352 417
#     4  11  25  46  69 105 136 188 232 294 350 414
#     4  11  25  43  68  99 142 178 229 288 348 418
#     4  12  25  46  73 103 145 190 232 287 357 421
#     4  11  23  44  67  99 134 179 229 285 349 413
#     4  12  26  43  71 107 140 183 239 287 351 421
#     4  10  22  42  66  92 132 176 220 282 348 400
#     4  11  25  45  74  99 141 183 237 289 350 416
#
# _framework density 21.744555999999999
#
# number of rings (size 3 to 8) (size 9 to 14) (size 15 to 20)
#    0.000    0.800    2.667    4.400    1.867    2.667 
#    9.600    0.000    0.000    0.000    0.000    0.000 
#    0.000    0.000    0.000    0.000    0.000    0.000 
#
# Total GULP energy -83583.421810 kJ/mol
# GULP energy per Si atom -5572.228121 kJ/mol
# Density = 2.169506 g / cm^3
# Si number density = 21.744556 Si / 1000 Ang^3
#
#
#
# Elastic Constant Matrix: (Units=GPa)
#
#
# Indices 1 2 3 4 5 6 
#
# 1 94.3058 -5.6576 2.6741 -7.3543 -1.0139 8.2197
# 2 -5.6576 68.0392 -4.7942 -8.2810 1.9177 16.1042
# 3 2.6741 -4.7942 79.2149 -20.5774 -3.4347 4.7801
# 4 -7.3543 -8.2810 -20.5774 35.8723 11.5244 3.1039
# 5 -1.0139 1.9177 -3.4347 11.5244 22.3359 -9.0881
# 6 8.2197 16.1042 4.7801 3.1039 -9.0881 32.5622
#
#
#
# Elastic Compliance Matrix: (Units=1/GPa)
#
#
# Indices 1 2 3 4 5 6 
#
# 1 0.011957 0.004014 0.001896 0.007180 -0.006365 -0.007743
# 2 0.004014 0.022622 0.006021 0.016801 -0.017462 -0.019561
# 3 0.001896 0.006021 0.017212 0.015801 -0.010135 -0.010318
# 4 0.007180 0.016801 0.015801 0.057799 -0.040401 -0.029227
# 5 -0.006365 -0.017462 -0.010135 -0.040401 0.080782 0.038128
# 6 -0.007743 -0.019561 -0.010318 -0.029227 0.038128 0.057281
#
#
# Mechanical properties :
#
#
# Convention : Reuss Voigt Hill
#
# Bulk Modulus (GPa) = 13.21823 25.11159 19.16491
# Shear Modulus (GPa) = 20.07959 34.77659 27.42809
#
# Velocity S-wave (km/s) = 3.04210 4.00349 3.55544
# Velocity P-wave (km/s) = 4.29316 5.73970 5.06830
#
# Compressibility (1/GPa) = 0.07565311
#
# Stress axis : x y z
#
# Youngs Moduli (GPa) = 83.63149 44.20423 58.09914
#
# Poissons Ratio (x) = -0.17743 -0.11014
# Poissons Ratio (y) = -0.33568 -0.34983
# Poissons Ratio (z) = -0.15854 -0.26617
#
# Static dielectric constant tensor:
#      x y z
#    x 1.648710 -0.058600 0.142190 
#    y -0.058600 1.786590 0.056840 
#    z 0.142190 0.056840 1.840490 
# 
# From -- ./inp_files/38396.got.cif
#   From: 2010.05.17/outbox.cif.g08.bks.cpg/sg2_20_cif.got.tgz:38396.got - 2010.06.03 11:33:40.
