data_PCOD9029615
_publ_section_title
;
Structure prediction by ZEFSAII (Michael W. Deem and Ramdas Pophale) SiO2 
 PCOD9029615
Probable space group: P -1
;
_chemical_formula_sum "Si O2"
_cell_formula_units_Z 16
_cell_length_a 8.945225
_cell_length_b 7.395426
_cell_length_c 15.257983
_cell_angle_alpha 111.981330
_cell_angle_beta 77.197931
_cell_angle_gamma 55.653944
_cell_volume 637.504242
_symmetry_space_group_name_H-M "P -1"
_symmetry_group_IT_number 2
_symmetry_cell_setting 'triclinic'
loop_
_space_group_symop_operation_xyz
x,y,z
-x,-y,-z
loop_
_atom_site_type_symbol
_atom_site_label
_atom_site_fract_x
_atom_site_fract_y
_atom_site_fract_z
Si Si1 0.766765 0.496865 0.090620
Si Si2 0.024383 0.094774 0.293445
Si Si3 0.544532 0.886475 0.344779
Si Si4 0.628937 0.204236 0.287464
Si Si5 0.745666 0.858354 0.037288
Si Si6 0.124540 0.364862 0.586067
Si Si7 0.169904 0.727250 0.368873
Si Si8 0.320746 0.806300 0.037873
O O1 0.596045 0.689693 0.225017
O O2 0.690934 0.695449 0.052876
O O3 0.801238 0.242795 0.015980
O O4 0.999526 0.376574 0.066886
O O5 0.806447 0.179997 0.305784
O O6 0.959584 0.357607 0.394569
O O7 0.154820 0.833723 0.293923
O O8 0.167538 0.013910 0.174653
O O9 0.731643 0.700886 0.360445
O O10 0.566453 0.083771 0.337983
O O11 0.304650 0.089832 0.454236
O O12 0.408206 0.512496 0.342332
O O13 0.725897 0.014269 0.153513
O O14 0.617219 0.077902 0.015287
O O15 0.075687 0.592407 0.354773
O O16 0.000000 0.000000 0.500000
O O17 0.500000 0.500000 0.000000
#
# Coordination Sequence:
#
# PCOD9029615 Si02
#       8
#     2   2   2   2   2   2   2   2
#     4  10  22  42  70 100 137 181 237 285 347 427
#     4  12  27  48  73 108 147 189 240 295 361 431
#     4  10  23  44  75 102 139 191 241 292 361 421
#     4  11  24  46  76 102 146 190 233 298 361 424
#     4  10  22  42  68 100 131 184 230 282 352 421
#     4  11  26  46  72 105 144 188 242 298 354 429
#     4  12  29  48  72 107 147 190 244 298 355 427
#     4  12  26  42  69 106 144 184 235 294 354 425
#
# _framework density 25.097874000000001
#
# number of rings (size 3 to 8) (size 9 to 14) (size 15 to 20)
#    0.000    1.000    2.500    2.625    5.250    7.500 
#    0.000    0.000    0.000    0.000    0.000    0.000 
#    0.000    0.000    0.000    0.000    0.000    0.000 
#
# Total GULP energy -89742.252704 kJ/mol
# GULP energy per Si atom -5608.890794 kJ/mol
# Density = 2.504075 g / cm^3
# Si number density = 25.097874 Si / 1000 Ang^3
#
#
#
# Elastic Constant Matrix: (Units=GPa)
#
#
# Indices 1 2 3 4 5 6 
#
# 1 81.1603 21.5147 -2.7360 -6.2749 -9.1124 -2.6098
# 2 21.5147 146.6429 1.4641 -13.6928 -10.7787 -18.7864
# 3 -2.7360 1.4641 77.8981 -0.0326 -3.2059 5.4323
# 4 -6.2749 -13.6928 -0.0326 46.5171 6.4056 -1.2806
# 5 -9.1124 -10.7787 -3.2059 6.4056 21.9704 -3.2617
# 6 -2.6098 -18.7864 5.4323 -1.2806 -3.2617 38.8091
#
#
#
# Elastic Compliance Matrix: (Units=1/GPa)
#
#
# Indices 1 2 3 4 5 6 
#
# 1 0.013344 -0.001481 0.000657 0.000722 0.004770 0.000513
# 2 -0.001481 0.007987 -0.000354 0.001805 0.003343 0.004157
# 3 0.000657 -0.000354 0.013068 -0.000308 0.001827 -0.001813
# 4 0.000722 0.001805 -0.000308 0.022897 -0.005347 0.001272
# 5 0.004770 0.003343 0.001827 -0.005347 0.051830 0.005863
# 6 0.000513 0.004157 -0.001813 0.001272 0.005863 0.028602
#
#
# Mechanical properties :
#
#
# Convention : Reuss Voigt Hill
#
# Bulk Modulus (GPa) = 31.20573 38.46523 34.83548
# Shear Modulus (GPa) = 33.16430 40.48989 36.82709
#
# Velocity S-wave (km/s) = 3.63905 4.02092 3.83474
# Velocity P-wave (km/s) = 5.48794 6.07589 5.78939
#
# Compressibility (1/GPa) = 0.03204539
#
# Stress axis : x y z
#
# Youngs Moduli (GPa) = 74.94126 125.20575 76.51999
#
# Poissons Ratio (x) = 0.18537 -0.05030
# Poissons Ratio (y) = 0.11095 0.02706
# Poissons Ratio (z) = -0.04926 0.04428
#
# Static dielectric constant tensor:
#      x y z
#    x 2.057060 -0.045840 0.020420 
#    y -0.045840 1.984910 -0.014170 
#    z 0.020420 -0.014170 1.942630 
# 
# From -- ./inp_files/515645.got.cif
#   From: 2010.05.17/outbox.cif.g08.bks.cpg/sg2_258_cif.got.tgz:515645.got - 2010.06.03 11:33:40.
