data_PCOD9029969
_publ_section_title
;
Structure prediction by ZEFSAII (Michael W. Deem and Ramdas Pophale) SiO2 
 PCOD9029969
Probable space group: P -1
;
_chemical_formula_sum "Si O2"
_cell_formula_units_Z 15
_cell_length_a 9.199026
_cell_length_b 12.028787
_cell_length_c 9.372976
_cell_angle_alpha 103.524302
_cell_angle_beta 60.958854
_cell_angle_gamma 133.113524
_cell_volume 654.092112
_symmetry_space_group_name_H-M "P -1"
_symmetry_group_IT_number 2
_symmetry_cell_setting 'triclinic'
loop_
_space_group_symop_operation_xyz
x,y,z
-x,-y,-z
loop_
_atom_site_type_symbol
_atom_site_label
_atom_site_fract_x
_atom_site_fract_y
_atom_site_fract_z
Si Si1 0.649013 0.946103 0.697055
Si Si2 0.827261 0.277092 0.768833
Si Si3 0.863419 0.284761 0.231740
Si Si4 0.706040 0.007519 0.380867
Si Si5 0.000000 0.500000 0.500000
Si Si6 0.191021 0.394634 0.850838
Si Si7 0.523321 0.717382 0.908817
Si Si8 0.226585 0.166839 0.890738
O O1 0.386077 0.813947 0.740694
O O2 0.774574 0.993909 0.499747
O O3 0.684448 0.868642 0.778669
O O4 0.703016 0.097215 0.772964
O O5 0.866716 0.339713 0.609564
O O6 0.067593 0.369139 0.756762
O O7 0.674041 0.290948 0.940233
O O8 0.926637 0.405260 0.356038
O O9 0.879504 0.167303 0.262216
O O10 0.030917 0.364940 0.044727
O O11 0.645579 0.873527 0.269197
O O12 0.500000 0.000000 0.500000
O O13 0.422547 0.567269 0.819820
O O14 0.201902 0.263919 0.829232
O O15 0.642546 0.732784 0.001037
O O16 0.000000 0.000000 0.000000
#
# Coordination Sequence:
#
# PCOD9029969 Si02
#       8
#     2   2   2   2   1   2   2   2
#     4  11  23  39  68 101 135 176 240 288 333 404
#     4  12  24  42  71 106 136 184 241 289 342 417
#     4  11  21  41  65 103 137 180 224 290 343 403
#     4  10  22  42  69 102 132 181 236 286 336 409
#     4  12  24  38  68 108 136 176 230 296 346 402
#     4  12  25  45  67 102 148 180 231 294 356 412
#     4  12  24  43  67 103 138 190 230 287 347 421
#     4  12  26  45  72 102 140 187 235 286 354 421
#
# _framework density 22.932549000000002
#
# number of rings (size 3 to 8) (size 9 to 14) (size 15 to 20)
#    0.000    0.533    5.333    4.400    1.867    0.000 
#    0.000    4.667    0.000    0.000    0.000    0.000 
#    0.000    0.000    0.000    0.000    0.000    0.000 
#
# Total GULP energy -83695.268287 kJ/mol
# GULP energy per Si atom -5579.684552 kJ/mol
# Density = 2.288035 g / cm^3
# Si number density = 22.932549 Si / 1000 Ang^3
#
#
#
# Elastic Constant Matrix: (Units=GPa)
#
#
# Indices 1 2 3 4 5 6 
#
# 1 68.7876 12.6789 23.8372 2.4289 4.1792 -7.5417
# 2 12.6789 106.4765 1.7469 16.1993 -12.5262 -10.0079
# 3 23.8372 1.7469 69.4818 -1.2916 14.8893 -13.0666
# 4 2.4289 16.1993 -1.2916 46.0176 -12.8766 17.2927
# 5 4.1792 -12.5262 14.8893 -12.8766 23.2180 -7.7112
# 6 -7.5417 -10.0079 -13.0666 17.2927 -7.7112 27.7069
#
#
#
# Elastic Compliance Matrix: (Units=1/GPa)
#
#
# Indices 1 2 3 4 5 6 
#
# 1 0.016994 -0.001542 -0.005237 -0.001578 -0.000605 0.002416
# 2 -0.001542 0.012163 0.000601 -0.006106 0.006333 0.009831
# 3 -0.005237 0.000601 0.020332 -0.006084 -0.012232 0.008773
# 4 -0.001578 -0.006106 -0.006084 0.036770 0.013039 -0.024825
# 5 -0.000605 0.006333 -0.012232 0.013039 0.063640 0.005928
# 6 0.002416 0.009831 0.008773 -0.024825 0.005928 0.061582
#
#
# Mechanical properties :
#
#
# Convention : Reuss Voigt Hill
#
# Bulk Modulus (GPa) = 26.92894 35.69689 31.31292
# Shear Modulus (GPa) = 21.16734 33.15401 27.16068
#
# Velocity S-wave (km/s) = 3.04143 3.80639 3.44520
# Velocity P-wave (km/s) = 4.90937 5.90914 5.43230
#
# Compressibility (1/GPa) = 0.03713477
#
# Stress axis : x y z
#
# Youngs Moduli (GPa) = 58.84538 82.21380 49.18447
#
# Poissons Ratio (x) = 0.12675 0.25756
# Poissons Ratio (y) = 0.09072 -0.02957
# Poissons Ratio (z) = 0.30815 -0.04943
#
# Static dielectric constant tensor:
#      x y z
#    x 1.896890 0.004670 -0.004360 
#    y 0.004670 1.860060 -0.022090 
#    z -0.004360 -0.022090 1.840270 
# 
# From -- ./inp_files/180123.got.cif
#   From: 2010.05.17/outbox.cif.g08.bks.cpg/sg2_91_cif.got.tgz:180123.got - 2010.06.03 11:33:40.
