data_PCOD9029890
_publ_section_title
;
Structure prediction by ZEFSAII (Michael W. Deem and Ramdas Pophale) SiO2 
 PCOD9029890
Probable space group: P -1
;
_chemical_formula_sum "Si O2"
_cell_formula_units_Z 15
_cell_length_a 8.667161
_cell_length_b 8.909049
_cell_length_c 11.841612
_cell_angle_alpha 79.022289
_cell_angle_beta 128.043505
_cell_angle_gamma 116.513332
_cell_volume 639.699933
_symmetry_space_group_name_H-M "P -1"
_symmetry_group_IT_number 2
_symmetry_cell_setting 'triclinic'
loop_
_space_group_symop_operation_xyz
x,y,z
-x,-y,-z
loop_
_atom_site_type_symbol
_atom_site_label
_atom_site_fract_x
_atom_site_fract_y
_atom_site_fract_z
Si Si1 0.846977 0.666195 0.470405
Si Si2 0.832689 0.017716 0.012605
Si Si3 0.322038 0.347539 0.008737
Si Si4 0.636449 0.519228 0.740345
Si Si5 0.500000 0.000000 0.500000
Si Si6 0.846460 0.844747 0.653734
Si Si7 0.167585 0.725169 0.193544
Si Si8 0.208735 0.711659 0.461292
O O1 0.600607 0.632723 0.344566
O O2 0.941460 0.811581 0.584661
O O3 0.825854 0.481378 0.528398
O O4 0.992265 0.704506 0.419237
O O5 0.968931 0.090964 0.176539
O O6 0.761818 0.145992 0.896675
O O7 0.661093 0.826984 0.982599
O O8 0.000000 0.000000 0.000000
O O9 0.338437 0.389371 0.142427
O O10 0.500000 0.500000 0.000000
O O11 0.078231 0.321534 0.873888
O O12 0.677229 0.656034 0.642193
O O13 0.804514 0.439143 0.806982
O O14 0.715401 0.957182 0.571722
O O15 0.422091 0.850411 0.593775
O O16 0.291688 0.795990 0.359344
#
# Coordination Sequence:
#
# PCOD9029890 Si02
#       8
#     2   2   2   2   1   2   2   2
#     4  11  25  44  66 102 138 179 232 295 339 407
#     4  10  22  42  68  98 132 176 227 277 333 408
#     4  11  24  43  69  99 137 180 230 285 343 405
#     4  12  22  41  69 102 135 180 233 282 343 423
#     4  12  24  40  70  96 134 186 230 276 344 416
#     4  12  23  43  70 101 138 180 235 285 342 417
#     4  11  22  41  71  98 131 184 232 272 347 422
#     4  11  24  42  68  98 136 183 233 283 353 404
#
# _framework density 23.448495999999999
#
# number of rings (size 3 to 8) (size 9 to 14) (size 15 to 20)
#    0.000    0.800    5.333    4.000    0.000    0.533 
#    0.000    2.000    2.933    0.000    0.000    0.933 
#    0.000    0.000    0.000    0.000    0.000    0.000 
#
# Total GULP energy -83690.541875 kJ/mol
# GULP energy per Si atom -5579.369458 kJ/mol
# Density = 2.339513 g / cm^3
# Si number density = 23.448496 Si / 1000 Ang^3
#
#
#
# Elastic Constant Matrix: (Units=GPa)
#
#
# Indices 1 2 3 4 5 6 
#
# 1 71.8998 44.1126 29.7550 -8.8849 -8.1954 1.7511
# 2 44.1126 148.4585 29.3530 -15.2212 0.1703 3.7743
# 3 29.7550 29.3530 102.7340 7.0329 -16.1210 -5.2698
# 4 -8.8849 -15.2212 7.0329 38.6879 -12.3445 4.7706
# 5 -8.1954 0.1703 -16.1210 -12.3445 21.7703 5.0664
# 6 1.7511 3.7743 -5.2698 4.7706 5.0664 44.2842
#
#
#
# Elastic Compliance Matrix: (Units=1/GPa)
#
#
# Indices 1 2 3 4 5 6 
#
# 1 0.020188 -0.004508 -0.003688 0.006868 0.009420 -0.002670
# 2 -0.004508 0.008649 -0.001592 0.002297 -0.001448 -0.000830
# 3 -0.003688 -0.001592 0.012471 -0.001797 0.006559 0.001209
# 4 0.006868 0.002297 -0.001797 0.037265 0.024102 -0.007453
# 5 0.009420 -0.001448 0.006559 0.024102 0.070369 -0.010116
# 6 -0.002670 -0.000830 0.001209 -0.007453 -0.010116 0.024862
#
#
# Mechanical properties :
#
#
# Convention : Reuss Voigt Hill
#
# Bulk Modulus (GPa) = 46.01822 58.83707 52.42765
# Shear Modulus (GPa) = 24.92221 35.60659 30.26440
#
# Velocity S-wave (km/s) = 3.26367 3.90102 3.59649
# Velocity P-wave (km/s) = 5.81979 6.74071 6.29711
#
# Compressibility (1/GPa) = 0.02173052
#
# Stress axis : x y z
#
# Youngs Moduli (GPa) = 49.53499 115.62623 80.18435
#
# Poissons Ratio (x) = 0.52126 0.29572
# Poissons Ratio (y) = 0.22331 0.12769
# Poissons Ratio (z) = 0.18268 0.18413
#
# Static dielectric constant tensor:
#      x y z
#    x 1.857450 0.017930 0.002410 
#    y 0.017930 2.103090 0.156100 
#    z 0.002410 0.156100 2.171650 
# 
# From -- ./inp_files/378948.got.cif
#   From: 2010.05.17/outbox.cif.g08.bks.cpg/sg2_190_cif.got.tgz:378948.got - 2010.06.03 11:33:40.
