data_PCOD9029249
_publ_section_title
;
Structure prediction by ZEFSAII (Michael W. Deem and Ramdas Pophale) SiO2 
 PCOD9029249
Probable space group: P -1
;
_chemical_formula_sum "Si O2"
_cell_formula_units_Z 16
_cell_length_a 17.717789
_cell_length_b 5.314954
_cell_length_c 11.793260
_cell_angle_alpha 64.928773
_cell_angle_beta 38.574925
_cell_angle_gamma 62.894111
_cell_volume 611.840328
_symmetry_space_group_name_H-M "P -1"
_symmetry_group_IT_number 2
_symmetry_cell_setting 'triclinic'
loop_
_space_group_symop_operation_xyz
x,y,z
-x,-y,-z
loop_
_atom_site_type_symbol
_atom_site_label
_atom_site_fract_x
_atom_site_fract_y
_atom_site_fract_z
Si Si1 0.948199 0.067157 0.767994
Si Si2 0.626203 0.430522 0.516286
Si Si3 0.474670 0.771267 0.812180
Si Si4 0.081403 0.201050 0.922619
Si Si5 0.266904 0.460388 0.110633
Si Si6 0.678063 0.874933 0.695956
Si Si7 0.884866 0.534093 0.390175
Si Si8 0.650579 0.648371 0.211662
O O1 0.846509 0.281449 0.772953
O O2 0.032199 0.272692 0.681406
O O3 0.034085 0.784894 0.664127
O O4 0.876931 0.952253 0.978592
O O5 0.583346 0.676729 0.611173
O O6 0.691448 0.497853 0.311432
O O7 0.488658 0.393915 0.645206
O O8 0.697603 0.153100 0.552911
O O9 0.536138 0.875042 0.830713
O O10 0.376898 0.013605 0.816291
O O11 0.398581 0.534721 0.972214
O O12 0.155690 0.304369 0.713103
O O13 0.000000 0.500000 0.000000
O O14 0.000000 0.000000 0.000000
O O15 0.276600 0.162473 0.220986
O O16 0.264665 0.435412 0.981686
O O17 0.761596 0.586672 0.599500
#
# Coordination Sequence:
#
# PCOD9029249 Si02
#       8
#     2   2   2   2   2   2   2   2
#     4  10  23  43  66  97 133 179 227 283 337 407
#     4   9  20  40  65  94 129 168 222 280 338 400
#     4  10  22  42  66  98 130 174 224 278 340 406
#     4   8  16  36  62  89 125 165 223 274 334 389
#     4  11  25  41  65  97 135 179 222 275 339 406
#     4  11  25  41  65  97 135 179 222 275 339 406
#     4  10  23  43  66  97 133 179 227 283 337 407
#     4   9  20  40  65  94 129 168 222 280 338 400
#
# _framework density 26.150614000000001
#
# number of rings (size 3 to 8) (size 9 to 14) (size 15 to 20)
#    0.000    2.250    0.000    0.750    5.250    7.500 
#    0.000    0.000    0.000    0.000    0.000    0.000 
#    0.000    0.000    0.000    0.000    0.000    0.000 
#
# Total GULP energy -89407.696413 kJ/mol
# GULP energy per Si atom -5587.981026 kJ/mol
# Density = 2.609109 g / cm^3
# Si number density = 26.150614 Si / 1000 Ang^3
#
#
#
# Elastic Constant Matrix: (Units=GPa)
#
#
# Indices 1 2 3 4 5 6 
#
# 1 85.1253 53.7414 21.9354 -2.3788 -2.2737 -17.2372
# 2 53.7414 185.6968 46.4324 3.7200 24.9098 -22.5871
# 3 21.9354 46.4324 44.5880 8.6023 -2.0553 -20.1945
# 4 -2.3788 3.7200 8.6023 41.4288 -9.9410 15.1010
# 5 -2.2737 24.9098 -2.0553 -9.9410 29.1197 -10.6139
# 6 -17.2372 -22.5871 -20.1945 15.1010 -10.6139 45.4654
#
#
#
# Elastic Compliance Matrix: (Units=1/GPa)
#
#
# Indices 1 2 3 4 5 6 
#
# 1 0.016321 -0.005108 -0.000552 0.001697 0.007892 0.004683
# 2 -0.005108 0.010736 -0.011078 -0.000297 -0.012007 -0.004228
# 3 -0.000552 -0.011078 0.048922 -0.014096 0.017071 0.024684
# 4 0.001697 -0.000297 -0.014096 0.034257 0.005288 -0.015909
# 5 0.007892 -0.012007 0.017071 0.005288 0.053861 0.015427
# 6 0.004683 -0.004228 0.024684 -0.015909 0.015427 0.041519
#
#
# Mechanical properties :
#
#
# Convention : Reuss Voigt Hill
#
# Bulk Modulus (GPa) = 23.52842 62.18094 42.85468
# Shear Modulus (GPa) = 19.74257 36.08951 27.91604
#
# Velocity S-wave (km/s) = 2.75063 3.71895 3.27082
# Velocity P-wave (km/s) = 4.37090 6.50157 5.53964
#
# Compressibility (1/GPa) = 0.04250180
#
# Stress axis : x y z
#
# Youngs Moduli (GPa) = 61.27001 93.14663 20.44090
#
# Poissons Ratio (x) = 0.47582 0.01129
# Poissons Ratio (y) = 0.31298 0.22644
# Poissons Ratio (z) = 0.03383 1.03187
#
# Static dielectric constant tensor:
#      x y z
#    x 2.089070 0.038190 0.023810 
#    y 0.038190 2.019420 -0.032300 
#    z 0.023810 -0.032300 2.100440 
# 
# From -- ./inp_files/468281.got.cif
#   From: 2010.05.17/outbox.cif.g08.bks.cpg/sg2_235_cif.got.tgz:468281.got - 2010.06.03 11:33:40.
