data_PCOD9029676
_publ_section_title
;
Structure prediction by ZEFSAII (Michael W. Deem and Ramdas Pophale) SiO2 
 PCOD9029676
Probable space group: P -1
;
_chemical_formula_sum "Si O2"
_cell_formula_units_Z 14
_cell_length_a 7.890036
_cell_length_b 8.662619
_cell_length_c 11.135865
_cell_angle_alpha 118.134977
_cell_angle_beta 122.614758
_cell_angle_gamma 55.271154
_cell_volume 511.802290
_symmetry_space_group_name_H-M "P -1"
_symmetry_group_IT_number 2
_symmetry_cell_setting 'triclinic'
loop_
_space_group_symop_operation_xyz
x,y,z
-x,-y,-z
loop_
_atom_site_type_symbol
_atom_site_label
_atom_site_fract_x
_atom_site_fract_y
_atom_site_fract_z
Si Si1 0.303877 0.696600 0.393708
Si Si2 0.703281 0.155336 0.306739
Si Si3 0.970240 0.355966 0.529474
Si Si4 0.457836 0.244933 0.715288
Si Si5 0.454916 0.395251 0.094968
Si Si6 0.128161 0.241456 0.898041
Si Si7 0.237705 0.992826 0.068369
O O1 0.289468 0.849470 0.549059
O O2 0.231964 0.570506 0.421962
O O3 0.488615 0.721920 0.389096
O O4 0.111920 0.724209 0.231496
O O5 0.920243 0.195968 0.378183
O O6 0.716960 0.959557 0.184637
O O7 0.509110 0.344906 0.240581
O O8 0.000000 0.500000 0.500000
O O9 0.208876 0.272897 0.652377
O O10 0.493848 0.425581 0.852032
O O11 0.631850 0.049913 0.772185
O O12 0.215232 0.405839 0.973227
O O13 0.626289 0.196360 0.029328
O O14 0.185553 0.179390 0.035712
O O15 0.000000 0.000000 0.000000
#
# Coordination Sequence:
#
# PCOD9029676 Si02
#       7
#     2   2   2   2   2   2   2
#     4  10  23  41  74 102 142 179 239 289 354 424
#     4   9  21  42  69  98 134 187 232 288 352 413
#     4  10  22  42  68 103 144 178 226 298 356 409
#     4  12  23  46  72 112 136 186 240 290 359 419
#     4  11  24  42  75  98 142 187 234 293 359 418
#     4  11  22  47  68  99 142 193 232 290 354 420
#     4  11  23  43  66  98 147 181 237 287 342 425
#
# _framework density 27.354310000000002
#
# number of rings (size 3 to 8) (size 9 to 14) (size 15 to 20)
#    0.857    0.571    2.857    3.429    0.000    2.857 
#    2.571    6.429    0.000    0.000    0.000    0.000 
#    0.000    0.000    0.000    0.000    0.000    0.000 
#
# Total GULP energy -78108.788823 kJ/mol
# GULP energy per Si atom -5579.199202 kJ/mol
# Density = 2.729205 g / cm^3
# Si number density = 27.354310 Si / 1000 Ang^3
#
#
#
# Elastic Constant Matrix: (Units=GPa)
#
#
# Indices 1 2 3 4 5 6 
#
# 1 144.0853 14.9997 33.2066 7.4831 -1.7221 21.9218
# 2 14.9997 80.2662 40.7357 -13.8717 -4.6314 34.1187
# 3 33.2066 40.7357 133.8404 -5.1773 15.4632 23.8125
# 4 7.4831 -13.8717 -5.1773 51.6925 16.0805 6.4913
# 5 -1.7221 -4.6314 15.4632 16.0805 54.3280 -3.7603
# 6 21.9218 34.1187 23.8125 6.4913 -3.7603 39.5469
#
#
#
# Elastic Compliance Matrix: (Units=1/GPa)
#
#
# Indices 1 2 3 4 5 6 
#
# 1 0.007881 0.000991 -0.001657 -0.000770 0.000755 -0.004027
# 2 0.000991 0.024588 -0.003472 0.009104 -0.001051 -0.021265
# 3 -0.001657 -0.003472 0.009958 0.001875 -0.003929 -0.002763
# 4 -0.000770 0.009104 0.001875 0.026475 -0.008568 -0.013717
# 5 0.000755 -0.001051 -0.003929 -0.008568 0.022438 0.006393
# 6 -0.004027 -0.021265 -0.002763 -0.013717 0.006393 0.050388
#
#
# Mechanical properties :
#
#
# Convention : Reuss Voigt Hill
#
# Bulk Modulus (GPa) = 29.28421 59.56396 44.42408
# Shear Modulus (GPa) = 30.98128 47.06347 39.02238
#
# Velocity S-wave (km/s) = 3.36905 4.15241 3.78107
# Velocity P-wave (km/s) = 5.08555 6.69419 5.94454
#
# Compressibility (1/GPa) = 0.03414810
#
# Stress axis : x y z
#
# Youngs Moduli (GPa) = 126.88923 40.67086 100.42641
#
# Poissons Ratio (x) = -0.04029 0.16644
# Poissons Ratio (y) = -0.12570 0.34870
# Poissons Ratio (z) = 0.21030 0.14122
#
# Static dielectric constant tensor:
#      x y z
#    x 2.218270 -0.106560 -0.071780 
#    y -0.106560 2.282300 -0.004460 
#    z -0.071780 -0.004460 2.208570 
# 
# From -- ./inp_files/387932.got.cif
#   From: 2010.05.17/outbox.cif.g08.bks.cpg/sg2_194_cif.got.tgz:387932.got - 2010.06.03 11:33:40.
