data_PCOD9029265
_publ_section_title
;
Structure prediction by ZEFSAII (Michael W. Deem and Ramdas Pophale) SiO2 
 PCOD9029265
Probable space group: P -1
;
_chemical_formula_sum "Si O2"
_cell_formula_units_Z 15
_cell_length_a 14.597182
_cell_length_b 8.104443
_cell_length_c 7.679266
_cell_angle_alpha 56.051486
_cell_angle_beta 56.453747
_cell_angle_gamma 55.494320
_cell_volume 582.762735
_symmetry_space_group_name_H-M "P -1"
_symmetry_group_IT_number 2
_symmetry_cell_setting 'triclinic'
loop_
_space_group_symop_operation_xyz
x,y,z
-x,-y,-z
loop_
_atom_site_type_symbol
_atom_site_label
_atom_site_fract_x
_atom_site_fract_y
_atom_site_fract_z
Si Si1 0.500000 0.000000 0.000000
Si Si2 0.870303 0.501215 0.927264
Si Si3 0.388891 0.651305 0.290113
Si Si4 0.623580 0.989110 0.451042
Si Si5 0.228058 0.057330 0.397398
Si Si6 0.323320 0.310445 0.722152
Si Si7 0.906855 0.889964 0.122933
Si Si8 0.720892 0.285401 0.990980
O O1 0.515639 0.237769 0.876356
O O2 0.390181 0.121234 0.898907
O O3 0.849620 0.739047 0.747001
O O4 0.007038 0.347925 0.875869
O O5 0.798891 0.530666 0.162817
O O6 0.793299 0.415087 0.925728
O O7 0.404344 0.443958 0.510300
O O8 0.270079 0.835422 0.386324
O O9 0.356398 0.606276 0.155928
O O10 0.642229 0.943059 0.666555
O O11 0.705761 0.789540 0.365470
O O12 0.500000 0.000000 0.500000
O O13 0.641985 0.207907 0.253678
O O14 0.163067 0.077031 0.638835
O O15 0.820063 0.050123 0.979201
O O16 0.000000 0.000000 0.000000
#
# Coordination Sequence:
#
# PCOD9029265 Si02
#       8
#     1   2   2   2   2   2   2   2
#     4  12  24  44  64  92 132 168 226 266 332 384
#     4  11  22  43  67  98 134 176 223 276 335 392
#     4  12  24  44  67  98 134 179 219 274 329 398
#     4  11  23  42  64  96 131 174 223 274 329 395
#     4  11  22  41  67  97 138 175 222 278 325 397
#     4  12  25  44  69  96 132 177 221 275 334 395
#     4   9  20  40  66  97 131 177 219 274 334 389
#     4  10  22  42  66  98 137 170 224 274 325 401
#
# _framework density 25.739466
#
# number of rings (size 3 to 8) (size 9 to 14) (size 15 to 20)
#    0.000    1.067    2.667    4.800    0.000    1.067 
#    0.000   15.333    0.000    0.000    0.000    0.000 
#    0.000    0.000    0.000    0.000    0.000    0.000 
#
# Total GULP energy -83708.311864 kJ/mol
# GULP energy per Si atom -5580.554124 kJ/mol
# Density = 2.568088 g / cm^3
# Si number density = 25.739466 Si / 1000 Ang^3
#
#
#
# Elastic Constant Matrix: (Units=GPa)
#
#
# Indices 1 2 3 4 5 6 
#
# 1 63.9950 -8.6706 6.8666 3.9096 9.5713 12.1285
# 2 -8.6706 103.1065 7.1485 14.9592 9.0550 -5.1186
# 3 6.8666 7.1485 102.9779 -25.3727 7.4914 4.9847
# 4 3.9096 14.9592 -25.3727 46.1614 0.2359 -2.3446
# 5 9.5713 9.0550 7.4914 0.2359 36.0669 -0.7997
# 6 12.1285 -5.1186 4.9847 -2.3446 -0.7997 48.9681
#
#
#
# Elastic Compliance Matrix: (Units=1/GPa)
#
#
# Indices 1 2 3 4 5 6 
#
# 1 0.017886 0.002334 -0.001603 -0.003343 -0.005072 -0.004266
# 2 0.002334 0.011002 -0.001904 -0.004770 -0.002944 0.000489
# 3 -0.001603 -0.001904 0.011891 0.007262 -0.001629 -0.000691
# 4 -0.003343 -0.004770 0.007262 0.027528 0.000416 0.000915
# 5 -0.005072 -0.002944 -0.001629 0.000416 0.030183 0.001627
# 6 -0.004266 0.000489 -0.000691 0.000915 0.001627 0.021670
#
#
# Mechanical properties :
#
#
# Convention : Reuss Voigt Hill
#
# Bulk Modulus (GPa) = 26.01949 31.19648 28.60798
# Shear Modulus (GPa) = 36.95042 43.88826 40.41934
#
# Velocity S-wave (km/s) = 3.79298 4.13376 3.96703
# Velocity P-wave (km/s) = 5.41415 5.91019 5.66760
#
# Compressibility (1/GPa) = 0.03843273
#
# Stress axis : x y z
#
# Youngs Moduli (GPa) = 55.91058 90.89401 84.09618
#
# Poissons Ratio (x) = -0.21214 0.13479
# Poissons Ratio (y) = -0.13049 0.16012
# Poissons Ratio (z) = 0.08961 0.17307
#
# Static dielectric constant tensor:
#      x y z
#    x 2.027850 -0.024540 0.018610 
#    y -0.024540 2.029420 -0.026910 
#    z 0.018610 -0.026910 1.952950 
# 
# From -- ./inp_files/293924.got.cif
#   From: 2010.05.17/outbox.cif.g08.bks.cpg/sg2_147_cif.got.tgz:293924.got - 2010.06.03 11:33:40.
