data_PCOD9029654
_publ_section_title
;
Structure prediction by ZEFSAII (Michael W. Deem and Ramdas Pophale) SiO2 
 PCOD9029654
Probable space group: P -1
;
_chemical_formula_sum "Si O2"
_cell_formula_units_Z 15
_cell_length_a 5.129762
_cell_length_b 14.282336
_cell_length_c 9.318540
_cell_angle_alpha 61.828451
_cell_angle_beta 87.132467
_cell_angle_gamma 72.341768
_cell_volume 569.949164
_symmetry_space_group_name_H-M "P -1"
_symmetry_group_IT_number 2
_symmetry_cell_setting 'triclinic'
loop_
_space_group_symop_operation_xyz
x,y,z
-x,-y,-z
loop_
_atom_site_type_symbol
_atom_site_label
_atom_site_fract_x
_atom_site_fract_y
_atom_site_fract_z
Si Si1 0.756151 0.539168 0.362492
Si Si2 0.308911 0.776076 0.137066
Si Si3 0.633461 0.340579 0.379943
Si Si4 0.261234 0.193189 0.486811
Si Si5 0.956353 0.359797 0.911901
Si Si6 0.500000 0.500000 0.000000
Si Si7 0.607778 0.038263 0.823759
Si Si8 0.638779 0.830976 0.821735
O O1 0.552036 0.667401 0.267827
O O2 0.624691 0.440565 0.417896
O O3 0.000000 0.500000 0.500000
O O4 0.927903 0.542230 0.208556
O O5 0.058403 0.728472 0.145614
O O6 0.246502 0.874691 0.183788
O O7 0.410387 0.819134 0.953012
O O8 0.390071 0.290336 0.451057
O O9 0.589184 0.393274 0.185821
O O10 0.932440 0.245935 0.448486
O O11 0.367459 0.102017 0.674058
O O12 0.402680 0.147513 0.361657
O O13 0.649190 0.418094 0.924759
O O14 0.138432 0.291459 0.083583
O O15 0.759425 0.925048 0.815624
O O16 0.500000 0.000000 0.000000
#
# Coordination Sequence:
#
# PCOD9029654 Si02
#       8
#     2   2   2   2   2   1   2   2
#     4  11  25  41  64 100 147 194 240 294 370 443
#     4  10  22  42  68 101 140 189 250 300 362 448
#     4  12  27  43  76 110 152 195 238 305 369 447
#     4  12  26  48  74 113 149 189 254 309 371 447
#     4  11  23  41  70 101 145 190 249 299 366 446
#     4  12  22  44  68 108 146 196 236 292 372 434
#     4  10  24  50  75 102 143 193 253 310 383 433
#     4  10  23  45  71 104 139 189 245 315 367 438
#
# _framework density 26.318138000000001
#
# number of rings (size 3 to 8) (size 9 to 14) (size 15 to 20)
#    0.000    1.067    2.667    2.800    3.733    2.133 
#    4.800    1.333    0.000    0.000    0.000    0.000 
#    0.000    0.000    0.000    0.000    0.000    0.000 
#
# Total GULP energy -83721.306037 kJ/mol
# GULP energy per Si atom -5581.420402 kJ/mol
# Density = 2.625824 g / cm^3
# Si number density = 26.318138 Si / 1000 Ang^3
#
#
#
# Elastic Constant Matrix: (Units=GPa)
#
#
# Indices 1 2 3 4 5 6 
#
# 1 80.5685 11.2300 20.4291 -9.1668 3.0753 11.1101
# 2 11.2300 100.8981 18.3373 6.5005 -17.1955 14.6949
# 3 20.4291 18.3373 192.9277 -12.1523 7.1629 -19.1245
# 4 -9.1668 6.5005 -12.1523 41.3894 -6.5096 7.8710
# 5 3.0753 -17.1955 7.1629 -6.5096 23.8855 -10.8311
# 6 11.1101 14.6949 -19.1245 7.8710 -10.8311 27.3266
#
#
#
# Elastic Compliance Matrix: (Units=1/GPa)
#
#
# Indices 1 2 3 4 5 6 
#
# 1 0.015213 -0.001016 -0.002093 0.004015 -0.005747 -0.010537
# 2 -0.001016 0.012284 -0.001807 -0.000703 0.007357 -0.004339
# 3 -0.002093 -0.001807 0.006205 0.000494 -0.000033 0.006010
# 4 0.004015 -0.000703 0.000494 0.027195 0.002775 -0.007642
# 5 -0.005747 0.007357 -0.000033 0.002775 0.057983 0.020540
# 6 -0.010537 -0.004339 0.006010 -0.007642 0.020540 0.057760
#
#
# Mechanical properties :
#
#
# Convention : Reuss Voigt Hill
#
# Bulk Modulus (GPa) = 41.89558 52.70968 47.30263
# Shear Modulus (GPa) = 25.71635 40.14681 32.93158
#
# Velocity S-wave (km/s) = 3.12931 3.90993 3.54119
# Velocity P-wave (km/s) = 5.38611 6.36041 5.89343
#
# Compressibility (1/GPa) = 0.02386887
#
# Stress axis : x y z
#
# Youngs Moduli (GPa) = 65.73205 81.40939 161.16686
#
# Poissons Ratio (x) = 0.08274 0.33726
# Poissons Ratio (y) = 0.06680 0.29130
# Poissons Ratio (z) = 0.13755 0.14714
#
# Static dielectric constant tensor:
#      x y z
#    x 2.082620 -0.036070 -0.043440 
#    y -0.036070 1.998400 -0.018750 
#    z -0.043440 -0.018750 2.043160 
# 
# From -- ./inp_files/134830.got.cif
#   From: 2010.05.17/outbox.cif.g08.bks.cpg/sg2_68_cif.got.tgz:134830.got - 2010.06.03 11:33:40.
