data_PCOD9029049
_publ_section_title
;
Structure prediction by ZEFSAII (Michael W. Deem and Ramdas Pophale) SiO2 
 PCOD9029049
Probable space group: P -1
;
_chemical_formula_sum "Si O2"
_cell_formula_units_Z 16
_cell_length_a 23.847879
_cell_length_b 10.185052
_cell_length_c 8.887218
_cell_angle_alpha 87.608636
_cell_angle_beta 47.330014
_cell_angle_gamma 47.439930
_cell_volume 746.741359
_symmetry_space_group_name_H-M "P -1"
_symmetry_group_IT_number 2
_symmetry_cell_setting 'triclinic'
loop_
_space_group_symop_operation_xyz
x,y,z
-x,-y,-z
loop_
_atom_site_type_symbol
_atom_site_label
_atom_site_fract_x
_atom_site_fract_y
_atom_site_fract_z
Si Si1 0.165586 0.702540 0.129539
Si Si2 0.202394 0.107348 0.057945
Si Si3 0.635395 0.378098 0.076153
Si Si4 0.837376 0.571084 0.711939
Si Si5 0.686845 0.262629 0.658204
Si Si6 0.822423 0.304628 0.250344
Si Si7 0.283895 0.007081 0.583805
Si Si8 0.685349 0.763238 0.649632
O O1 0.298937 0.599800 0.951989
O O2 0.205815 0.493883 0.115787
O O3 0.164940 0.712691 0.951032
O O4 0.000000 0.000000 0.500000
O O5 0.232440 0.189795 0.100229
O O6 0.030213 0.299504 0.391336
O O7 0.336892 0.796030 0.872074
O O8 0.190393 0.164390 0.902103
O O9 0.735692 0.211802 0.744594
O O10 0.453841 0.687730 0.345280
O O11 0.777278 0.640431 0.647640
O O12 0.706021 0.366171 0.522941
O O13 0.782602 0.000778 0.411555
O O14 0.500000 0.500000 0.000000
O O15 0.767359 0.525910 0.410884
O O16 0.000000 0.000000 0.000000
O O17 0.309346 0.105258 0.449993
O O18 0.500000 0.000000 0.000000
#
# Coordination Sequence:
#
# PCOD9029049 Si02
#       8
#     2   2   2   2   2   2   2   2
#     4  12  23  43  68  99 140 179 235 290 347 415
#     4  11  24  42  66 100 137 177 232 285 349 410
#     4  11  22  42  69  98 136 182 223 286 345 413
#     4  11  25  44  67  97 139 184 224 288 353 408
#     4  10  22  42  66 102 142 181 230 283 348 416
#     4  12  27  44  73 107 139 187 239 289 357 426
#     4  11  24  42  68 101 136 180 235 279 344 418
#     4  12  26  48  71 100 146 187 235 295 355 424
#
# _framework density 21.426428000000001
#
# number of rings (size 3 to 8) (size 9 to 14) (size 15 to 20)
#    0.000    0.750    1.250    7.125    1.750    3.500 
#    0.000    2.500    0.000    0.000    0.000    0.000 
#    0.000    0.000    0.000    0.000    0.000    0.000 
#
# Total GULP energy -89510.730634 kJ/mol
# GULP energy per Si atom -5594.420665 kJ/mol
# Density = 2.137766 g / cm^3
# Si number density = 21.426428 Si / 1000 Ang^3
#
#
#
# Elastic Constant Matrix: (Units=GPa)
#
#
# Indices 1 2 3 4 5 6 
#
# 1 175.8000 65.3386 41.7302 -18.0141 31.6531 7.9126
# 2 65.3386 155.0671 40.2635 -34.9129 2.5026 11.0714
# 3 41.7302 40.2635 51.4902 -13.7034 20.6013 -1.5514
# 4 -18.0141 -34.9129 -13.7034 43.7246 -11.1785 5.0739
# 5 31.6531 2.5026 20.6013 -11.1785 33.2899 -5.6338
# 6 7.9126 11.0714 -1.5514 5.0739 -5.6338 40.3313
#
#
#
# Elastic Compliance Matrix: (Units=1/GPa)
#
#
# Indices 1 2 3 4 5 6 
#
# 1 0.008623 -0.003191 -0.001880 -0.001304 -0.007535 -0.001777
# 2 -0.003191 0.011903 -0.008480 0.008329 0.009734 -0.002656
# 3 -0.001880 -0.008480 0.034976 -0.001760 -0.019551 0.001532
# 4 -0.001304 0.008329 -0.001760 0.031935 0.011667 -0.004486
# 5 -0.007535 0.009734 -0.019551 0.011667 0.053168 0.004013
# 6 -0.001777 -0.002656 0.001532 -0.004486 0.004013 0.027056
#
#
# Mechanical properties :
#
#
# Convention : Reuss Voigt Hill
#
# Bulk Modulus (GPa) = 35.20906 75.22468 55.21687
# Shear Modulus (GPa) = 24.48245 39.13749 31.80997
#
# Velocity S-wave (km/s) = 3.38395 4.27851 3.85725
# Velocity P-wave (km/s) = 5.63350 7.71959 6.75753
#
# Compressibility (1/GPa) = 0.02840178
#
# Stress axis : x y z
#
# Youngs Moduli (GPa) = 115.96513 84.01528 28.59127
#
# Poissons Ratio (x) = 0.26806 0.05375
# Poissons Ratio (y) = 0.36999 0.24244
# Poissons Ratio (z) = 0.21799 0.71241
#
# Static dielectric constant tensor:
#      x y z
#    x 1.767280 -0.001190 0.032000 
#    y -0.001190 1.735110 0.013300 
#    z 0.032000 0.013300 1.799170 
# 
# From -- ./inp_files/207776.got.cif
#   From: 2010.05.17/outbox.cif.g08.bks.cpg/sg2_104_cif.got.tgz:207776.got - 2010.06.03 11:33:40.
