data_PCOD9029994
_publ_section_title
;
Structure prediction by ZEFSAII (Michael W. Deem and Ramdas Pophale) SiO2 
 PCOD9029994
Probable space group: P -1
;
_chemical_formula_sum "Si O2"
_cell_formula_units_Z 16
_cell_length_a 27.868850
_cell_length_b 5.569342
_cell_length_c 7.617135
_cell_angle_alpha 117.390486
_cell_angle_beta 44.492214
_cell_angle_gamma 99.430723
_cell_volume 709.543756
_symmetry_space_group_name_H-M "P -1"
_symmetry_group_IT_number 2
_symmetry_cell_setting 'triclinic'
loop_
_space_group_symop_operation_xyz
x,y,z
-x,-y,-z
loop_
_atom_site_type_symbol
_atom_site_label
_atom_site_fract_x
_atom_site_fract_y
_atom_site_fract_z
Si Si1 0.831150 0.157335 0.837729
Si Si2 0.979341 0.791454 0.347494
Si Si3 0.935533 0.273776 0.226184
Si Si4 0.222402 0.808361 0.366761
Si Si5 0.559759 0.161307 0.373327
Si Si6 0.218833 0.171158 0.834592
Si Si7 0.334930 0.236416 0.823155
Si Si8 0.482712 0.254909 0.263291
O O1 0.780782 0.092676 0.794344
O O2 0.909768 0.000916 0.515132
O O3 0.816845 0.494913 0.989465
O O4 0.821023 0.007924 0.996729
O O5 0.951449 0.523962 0.385251
O O6 0.000000 0.000000 0.500000
O O7 0.045641 0.666094 0.005102
O O8 0.854454 0.261044 0.433974
O O9 0.000000 0.000000 0.000000
O O10 0.228947 0.027471 0.570610
O O11 0.285322 0.526457 0.121698
O O12 0.547471 0.237020 0.225313
O O13 0.535938 0.429700 0.652890
O O14 0.500000 0.000000 0.500000
O O15 0.636419 0.982143 0.169105
O O16 0.290178 0.148943 0.753216
O O17 0.408655 0.262775 0.556120
O O18 0.500000 0.000000 0.000000
#
# Coordination Sequence:
#
# PCOD9029994 Si02
#       8
#     2   2   2   2   2   2   2   2
#     4  11  25  47  67 104 141 186 249 303 361 443
#     4  11  24  40  71  97 137 181 245 305 369 432
#     4  11  24  43  65 101 133 191 240 297 367 427
#     4  11  25  48  70  97 152 183 243 306 362 428
#     4   9  21  41  67  97 139 178 220 281 351 411
#     4  11  27  44  72 104 141 196 242 294 375 430
#     4  10  24  43  66 102 135 185 234 290 356 431
#     4  10  22  42  69 104 138 177 231 286 352 432
#
# _framework density 22.549700000000001
#
# number of rings (size 3 to 8) (size 9 to 14) (size 15 to 20)
#    0.000    1.500    1.250    2.250    5.250    9.500 
#    0.000    0.000    0.000    0.000    0.000    0.000 
#    0.000    0.000    0.000    0.000    0.000    0.000 
#
# Total GULP energy -89250.647986 kJ/mol
# GULP energy per Si atom -5578.165499 kJ/mol
# Density = 2.249838 g / cm^3
# Si number density = 22.549700 Si / 1000 Ang^3
#
#
#
# Elastic Constant Matrix: (Units=GPa)
#
#
# Indices 1 2 3 4 5 6 
#
# 1 76.6024 44.6876 67.2194 38.2819 -6.5314 8.7485
# 2 44.6876 86.5559 56.0376 24.9124 -4.8111 12.3528
# 3 67.2194 56.0376 145.1928 35.4663 -5.8310 10.7247
# 4 38.2819 24.9124 35.4663 44.9401 6.9946 -3.4553
# 5 -6.5314 -4.8111 -5.8310 6.9946 52.8676 8.1386
# 6 8.7485 12.3528 10.7247 -3.4553 8.1386 41.5125
#
#
#
# Elastic Compliance Matrix: (Units=1/GPa)
#
#
# Indices 1 2 3 4 5 6 
#
# 1 0.036648 -0.005316 -0.008364 -0.023380 0.007349 -0.007367
# 2 -0.005316 0.018115 -0.003315 -0.003473 0.001707 -0.004037
# 3 -0.008364 -0.003315 0.012283 -0.000804 0.000208 -0.000532
# 4 -0.023380 -0.003473 -0.000804 0.047466 -0.011477 0.012369
# 5 0.007349 0.001707 0.000208 -0.011477 0.022676 -0.007511
# 6 -0.007367 -0.004037 -0.000532 0.012369 -0.007511 0.029483
#
#
# Mechanical properties :
#
#
# Convention : Reuss Voigt Hill
#
# Bulk Modulus (GPa) = 30.25313 71.58226 50.91770
# Shear Modulus (GPa) = 23.62049 37.22449 30.42249
#
# Velocity S-wave (km/s) = 3.24000 4.06738 3.67704
# Velocity P-wave (km/s) = 5.23852 7.33970 6.37626
#
# Compressibility (1/GPa) = 0.03305443
#
# Stress axis : x y z
#
# Youngs Moduli (GPa) = 27.28669 55.20314 81.41047
#
# Poissons Ratio (x) = 0.29348 0.68096
# Poissons Ratio (y) = 0.14507 0.26988
# Poissons Ratio (z) = 0.22824 0.18300
#
# Static dielectric constant tensor:
#      x y z
#    x 1.872780 -0.110650 0.032910 
#    y -0.110650 2.092400 -0.067460 
#    z 0.032910 -0.067460 1.826060 
# 
# From -- ./inp_files/358285.got.cif
#   From: 2010.05.17/outbox.cif.g08.bks.cpg/sg2_180_cif.got.tgz:358285.got - 2010.06.03 11:33:40.
