data_PCOD9029811
_publ_section_title
;
Structure prediction by ZEFSAII (Michael W. Deem and Ramdas Pophale) SiO2 
 PCOD9029811
Probable space group: P -1
;
_chemical_formula_sum "Si O2"
_cell_formula_units_Z 16
_cell_length_a 8.457399
_cell_length_b 12.704067
_cell_length_c 21.845610
_cell_angle_alpha 150.718680
_cell_angle_beta 42.955528
_cell_angle_gamma 143.078995
_cell_volume 684.826130
_symmetry_space_group_name_H-M "P -1"
_symmetry_group_IT_number 2
_symmetry_cell_setting 'triclinic'
loop_
_space_group_symop_operation_xyz
x,y,z
-x,-y,-z
loop_
_atom_site_type_symbol
_atom_site_label
_atom_site_fract_x
_atom_site_fract_y
_atom_site_fract_z
Si Si1 0.325891 0.844008 0.129800
Si Si2 0.675692 0.446441 0.691988
Si Si3 0.946152 0.481433 0.845482
Si Si4 0.816123 0.051315 0.439275
Si Si5 0.444143 0.169535 0.149144
Si Si6 0.578474 0.778559 0.616318
Si Si7 0.263605 0.975687 0.414778
Si Si8 0.226853 0.277717 0.073169
O O1 0.109639 0.632082 0.128037
O O2 0.276931 0.985004 0.158294
O O3 0.513892 0.075354 0.238377
O O4 0.497910 0.722454 0.995219
O O5 0.824922 0.307813 0.548113
O O6 0.673233 0.665631 0.764027
O O7 0.794710 0.564731 0.784344
O O8 0.373603 0.218583 0.671304
O O9 0.806687 0.257120 0.724502
O O10 0.807320 0.638878 0.942964
O O11 0.255317 0.630910 0.816325
O O12 0.681863 0.025111 0.530961
O O13 0.108474 0.090752 0.386951
O O14 0.500000 0.000000 0.000000
O O15 0.500000 0.500000 0.500000
O O16 0.520055 0.812042 0.579839
O O17 0.000000 0.000000 0.500000
O O18 0.000000 0.000000 0.000000
#
# Coordination Sequence:
#
# PCOD9029811 Si02
#       8
#     2   2   2   2   2   2   2   2
#     4  11  25  42  67 100 131 173 228 277 343 396
#     4  11  23  41  71  98 138 178 228 277 340 418
#     4  11  23  43  68  93 137 173 230 282 329 409
#     4  10  22  42  68  95 134 184 222 273 349 400
#     4  12  24  44  67 100 135 184 224 275 349 408
#     4  10  23  38  65 100 130 170 227 280 332 398
#     4   9  18  35  64  92 119 171 217 268 329 386
#     4  12  23  43  71 100 133 178 230 286 341 397
#
# _framework density 23.363593000000002
#
# number of rings (size 3 to 8) (size 9 to 14) (size 15 to 20)
#    0.000    1.250    3.750    2.625    7.000    0.500 
#    2.250    0.625    2.750    0.000    0.000    0.000 
#    0.000    0.000    0.000    0.000    0.000    0.000 
#
# Total GULP energy -89120.333144 kJ/mol
# GULP energy per Si atom -5570.020822 kJ/mol
# Density = 2.331042 g / cm^3
# Si number density = 23.363593 Si / 1000 Ang^3
#
#
#
# Elastic Constant Matrix: (Units=GPa)
#
#
# Indices 1 2 3 4 5 6 
#
# 1 77.8835 36.2049 1.3448 11.8903 -20.1074 -27.8123
# 2 36.2049 89.9827 26.2582 20.3915 3.8354 -32.1558
# 3 1.3448 26.2582 81.7404 17.0685 -5.6809 -15.4344
# 4 11.8903 20.3915 17.0685 32.1305 -3.6020 -2.2850
# 5 -20.1074 3.8354 -5.6809 -3.6020 47.0617 13.3709
# 6 -27.8123 -32.1558 -15.4344 -2.2850 13.3709 46.5454
#
#
#
# Elastic Compliance Matrix: (Units=1/GPa)
#
#
# Indices 1 2 3 4 5 6 
#
# 1 0.021057 -0.006508 0.004625 -0.004748 0.007682 0.007180
# 2 -0.006508 0.021581 -0.003127 -0.009787 -0.009109 0.012120
# 3 0.004625 -0.003127 0.015802 -0.007532 0.002185 0.004846
# 4 -0.004748 -0.009787 -0.007532 0.042778 0.004327 -0.011238
# 5 0.007682 -0.009109 0.002185 0.004327 0.028404 -0.008925
# 6 0.007180 0.012120 0.004846 -0.011238 -0.008925 0.037767
#
#
# Mechanical properties :
#
#
# Convention : Reuss Voigt Hill
#
# Bulk Modulus (GPa) = 20.65181 41.91359 31.28270
# Shear Modulus (GPa) = 25.83320 37.53409 31.68365
#
# Velocity S-wave (km/s) = 3.32882 4.01249 3.68654
# Velocity P-wave (km/s) = 4.86140 6.28056 5.61599
#
# Compressibility (1/GPa) = 0.04842190
#
# Stress axis : x y z
#
# Youngs Moduli (GPa) = 47.48957 46.33608 63.28372
#
# Poissons Ratio (x) = 0.30155 -0.29270
# Poissons Ratio (y) = 0.30905 0.19787
# Poissons Ratio (z) = -0.21965 0.14488
#
# Static dielectric constant tensor:
#      x y z
#    x 1.942480 -0.051750 -0.029880 
#    y -0.051750 1.973680 -0.144560 
#    z -0.029880 -0.144560 1.599600 
# 
# From -- ./inp_files/589708.got.cif
#   From: 2010.05.17/outbox.cif.g08.bks.cpg/sg2_295_cif.got.tgz:589708.got - 2010.06.03 11:33:40.
