data_PCOD9029674
_publ_section_title
;
Structure prediction by ZEFSAII (Michael W. Deem and Ramdas Pophale) SiO2 
 PCOD9029674
Probable space group: P -1
;
_chemical_formula_sum "Si O2"
_cell_formula_units_Z 15
_cell_length_a 12.500157
_cell_length_b 17.452129
_cell_length_c 5.459553
_cell_angle_alpha 89.947475
_cell_angle_beta 69.016646
_cell_angle_gamma 40.138312
_cell_volume 638.973761
_symmetry_space_group_name_H-M "P -1"
_symmetry_group_IT_number 2
_symmetry_cell_setting 'triclinic'
loop_
_space_group_symop_operation_xyz
x,y,z
-x,-y,-z
loop_
_atom_site_type_symbol
_atom_site_label
_atom_site_fract_x
_atom_site_fract_y
_atom_site_fract_z
Si Si1 0.500000 0.500000 0.000000
Si Si2 0.623704 0.007968 0.955367
Si Si3 0.525411 0.293721 0.267258
Si Si4 0.359852 0.918506 0.542490
Si Si5 0.960933 0.068333 0.781599
Si Si6 0.725186 0.479325 0.182653
Si Si7 0.069976 0.703168 0.587300
Si Si8 0.132316 0.499250 0.313971
O O1 0.414195 0.477994 0.908816
O O2 0.737395 0.361301 0.687550
O O3 0.858525 0.859830 0.738244
O O4 0.559794 0.099906 0.787005
O O5 0.500000 0.000000 0.000000
O O6 0.591759 0.057189 0.257152
O O7 0.572491 0.203408 0.430680
O O8 0.425828 0.421058 0.474283
O O9 0.353407 0.359335 0.230159
O O10 0.726690 0.210666 0.977757
O O11 0.122103 0.046028 0.687253
O O12 0.000000 0.000000 0.500000
O O13 0.000000 0.000000 0.000000
O O14 0.881146 0.334371 0.164051
O O15 0.838582 0.492808 0.993761
O O16 0.057961 0.621411 0.492461
O O17 0.000000 0.500000 0.500000
#
# Coordination Sequence:
#
# PCOD9029674 Si02
#       8
#     1   2   2   2   2   2   2   2
#     4  10  22  44  74  98 144 182 238 298 370 430
#     4  12  29  47  71 102 143 198 243 293 354 441
#     4  10  24  41  69 105 139 174 233 299 359 432
#     4  11  26  45  71 103 140 195 232 296 364 417
#     4  10  22  42  68 103 142 179 232 291 360 430
#     4  10  23  42  71 105 136 185 234 304 368 422
#     4  10  25  45  67 103 137 182 242 291 358 432
#     4  10  24  42  70  98 132 184 228 298 356 422
#
# _framework density 23.475142999999999
#
# number of rings (size 3 to 8) (size 9 to 14) (size 15 to 20)
#    0.000    1.600    0.000    2.400   13.067    6.400 
#    0.000    0.000    0.000    0.000    0.000    0.000 
#    0.000    0.000    0.000    0.000    0.000    0.000 
#
# Total GULP energy -83514.808954 kJ/mol
# GULP energy per Si atom -5567.653930 kJ/mol
# Density = 2.342171 g / cm^3
# Si number density = 23.475143 Si / 1000 Ang^3
#
#
#
# Elastic Constant Matrix: (Units=GPa)
#
#
# Indices 1 2 3 4 5 6 
#
# 1 96.8698 5.2680 14.3763 -17.6187 1.3880 -12.2432
# 2 5.2680 113.9479 19.7549 -18.6292 -2.5259 -7.8092
# 3 14.3763 19.7549 71.2251 -17.2428 14.0733 -14.2838
# 4 -17.6187 -18.6292 -17.2428 25.6804 3.6389 3.3753
# 5 1.3880 -2.5259 14.0733 3.6389 41.3766 1.0748
# 6 -12.2432 -7.8092 -14.2838 3.3753 1.0748 27.8875
#
#
#
# Elastic Compliance Matrix: (Units=1/GPa)
#
#
# Indices 1 2 3 4 5 6 
#
# 1 0.012550 0.001158 0.000804 0.009539 -0.001596 0.005153
# 2 0.001158 0.010218 -0.000949 0.007277 0.000216 0.001995
# 3 0.000804 -0.000949 0.021210 0.014090 -0.008787 0.009584
# 4 0.009539 0.007277 0.014090 0.060816 -0.010185 0.006474
# 5 -0.001596 0.000216 -0.008787 -0.010185 0.028249 -0.004997
# 6 0.005153 0.001995 0.009584 0.006474 -0.004997 0.042997
#
#
# Mechanical properties :
#
#
# Convention : Reuss Voigt Hill
#
# Bulk Modulus (GPa) = 21.73743 40.09344 30.91544
# Shear Modulus (GPa) = 26.40616 35.16516 30.78566
#
# Velocity S-wave (km/s) = 3.35753 3.87457 3.62528
# Velocity P-wave (km/s) = 4.93057 6.09365 5.54270
#
# Compressibility (1/GPa) = 0.04600360
#
# Stress axis : x y z
#
# Youngs Moduli (GPa) = 79.68206 97.86583 47.14699
#
# Poissons Ratio (x) = -0.11329 -0.03789
# Poissons Ratio (y) = -0.09224 0.04473
# Poissons Ratio (z) = -0.06405 0.09285
#
# Static dielectric constant tensor:
#      x y z
#    x 1.871840 0.031110 -0.008150 
#    y 0.031110 1.924650 -0.060390 
#    z -0.008150 -0.060390 1.968840 
# 
# From -- ./inp_files/80549.got.cif
#   From: 2010.05.17/outbox.cif.g08.bks.cpg/sg2_41_cif.got.tgz:80549.got - 2010.06.03 11:33:40.
