data_PCOD9029982
_publ_section_title
;
Structure prediction by ZEFSAII (Michael W. Deem and Ramdas Pophale) SiO2 
 PCOD9029982
Probable space group: P -1
;
_chemical_formula_sum "Si O2"
_cell_formula_units_Z 16
_cell_length_a 17.318785
_cell_length_b 12.153248
_cell_length_c 7.487598
_cell_angle_alpha 58.015720
_cell_angle_beta 128.852723
_cell_angle_gamma 149.433678
_cell_volume 623.915961
_symmetry_space_group_name_H-M "P -1"
_symmetry_group_IT_number 2
_symmetry_cell_setting 'triclinic'
loop_
_space_group_symop_operation_xyz
x,y,z
-x,-y,-z
loop_
_atom_site_type_symbol
_atom_site_label
_atom_site_fract_x
_atom_site_fract_y
_atom_site_fract_z
Si Si1 0.191166 0.302054 0.013881
Si Si2 0.359599 0.649447 0.472407
Si Si3 0.436665 0.775880 0.057758
Si Si4 0.667997 0.896224 0.902480
Si Si5 0.831978 0.995234 0.721792
Si Si6 0.816485 0.795051 0.331636
Si Si7 0.888805 0.381387 0.768293
Si Si8 0.774948 0.201368 0.263790
O O1 0.176970 0.246731 0.831500
O O2 0.351092 0.554688 0.063383
O O3 0.184776 0.166092 0.242359
O O4 0.019290 0.196157 0.896456
O O5 0.426094 0.761481 0.274948
O O6 0.488948 0.769001 0.720043
O O7 0.274634 0.420587 0.521292
O O8 0.233146 0.625617 0.380573
O O9 0.627017 0.001134 0.081379
O O10 0.322104 0.774500 0.824283
O O11 0.687929 0.841959 0.789649
O O12 0.794952 0.147301 0.839977
O O13 0.723795 0.838896 0.165198
O O14 0.801484 0.091234 0.486580
O O15 0.000000 0.000000 0.500000
O O16 0.037722 0.554685 0.697934
O O17 0.000000 0.500000 0.000000
#
# Coordination Sequence:
#
# PCOD9029982 Si02
#       8
#     2   2   2   2   2   2   2   2
#     4  10  24  44  72 107 141 188 237 296 361 432
#     4  12  25  48  71 109 145 192 238 304 358 426
#     4  11  25  46  73 108 151 183 244 297 357 432
#     4  11  25  47  70 105 147 187 242 301 358 432
#     4  10  22  42  69 103 137 183 240 288 358 421
#     4  11  26  47  76 105 144 190 242 300 368 430
#     4  12  25  43  71 104 144 193 245 293 357 426
#     4  11  24  46  70 105 147 194 235 296 359 424
#
# _framework density 25.644480000000001
#
# number of rings (size 3 to 8) (size 9 to 14) (size 15 to 20)
#    0.000    1.000    2.500    3.000    5.250    4.500 
#    0.000    0.000    0.000    0.000    0.000    0.000 
#    0.000    0.000    0.000    0.000    0.000    0.000 
#
# Total GULP energy -89323.893857 kJ/mol
# GULP energy per Si atom -5582.743366 kJ/mol
# Density = 2.558611 g / cm^3
# Si number density = 25.644480 Si / 1000 Ang^3
#
#
#
# Elastic Constant Matrix: (Units=GPa)
#
#
# Indices 1 2 3 4 5 6 
#
# 1 69.0218 27.2344 57.6338 -9.8512 24.1265 10.1134
# 2 27.2344 153.2430 39.8737 -28.1782 8.4927 -19.1129
# 3 57.6338 39.8737 139.5457 -26.8132 44.5853 -12.5667
# 4 -9.8512 -28.1782 -26.8132 38.3801 -12.1771 2.1847
# 5 24.1265 8.4927 44.5853 -12.1771 56.2090 1.3314
# 6 10.1134 -19.1129 -12.5667 2.1847 1.3314 41.2246
#
#
#
# Elastic Compliance Matrix: (Units=1/GPa)
#
#
# Indices 1 2 3 4 5 6 
#
# 1 0.027509 -0.004020 -0.011056 -0.003901 -0.002999 -0.011679
# 2 -0.004020 0.008745 0.000271 0.005723 0.001316 0.004777
# 3 -0.011056 0.000271 0.015514 0.005698 -0.006544 0.007476
# 4 -0.003901 0.005723 0.005698 0.034189 0.003616 0.003419
# 5 -0.002999 0.001316 -0.006544 0.003616 0.024892 -0.001644
# 6 -0.011679 0.004777 0.007476 0.003419 -0.001644 0.031488
#
#
# Mechanical properties :
#
#
# Convention : Reuss Voigt Hill
#
# Bulk Modulus (GPa) = 45.13086 67.92160 56.52623
# Shear Modulus (GPa) = 27.88116 42.96733 35.42424
#
# Velocity S-wave (km/s) = 3.30088 4.09773 3.72070
# Velocity P-wave (km/s) = 5.67138 6.99513 6.36775
#
# Compressibility (1/GPa) = 0.02215779
#
# Stress axis : x y z
#
# Youngs Moduli (GPa) = 36.35179 114.35335 64.45927
#
# Poissons Ratio (x) = 0.45969 0.71266
# Poissons Ratio (y) = 0.14613 -0.01747
# Poissons Ratio (z) = 0.40190 -0.03099
#
# Static dielectric constant tensor:
#      x y z
#    x 2.176260 -0.018480 -0.048710 
#    y -0.018480 1.977450 0.009890 
#    z -0.048710 0.009890 2.061070 
# 
# From -- ./inp_files/333059.got.cif
#   From: 2010.05.17/outbox.cif.g08.bks.cpg/sg2_167_cif.got.tgz:333059.got - 2010.06.03 11:33:40.
