data_PCOD9029891
_publ_section_title
;
Structure prediction by ZEFSAII (Michael W. Deem and Ramdas Pophale) SiO2 
 PCOD9029891
Probable space group: P -1
;
_chemical_formula_sum "Si O2"
_cell_formula_units_Z 14
_cell_length_a 15.304090
_cell_length_b 15.525121
_cell_length_c 8.190324
_cell_angle_alpha 70.407201
_cell_angle_beta 132.093030
_cell_angle_gamma 149.190438
_cell_volume 572.870703
_symmetry_space_group_name_H-M "P -1"
_symmetry_group_IT_number 2
_symmetry_cell_setting 'triclinic'
loop_
_space_group_symop_operation_xyz
x,y,z
-x,-y,-z
loop_
_atom_site_type_symbol
_atom_site_label
_atom_site_fract_x
_atom_site_fract_y
_atom_site_fract_z
Si Si1 0.019287 0.958058 0.364488
Si Si2 0.095554 0.215957 0.373134
Si Si3 0.427589 0.590504 0.772560
Si Si4 0.903258 0.613723 0.934797
Si Si5 0.965029 0.366188 0.550861
Si Si6 0.376555 0.153379 0.424719
Si Si7 0.565567 0.080196 0.715843
O O1 0.117773 0.959707 0.632574
O O2 0.683250 0.730162 0.108134
O O3 0.147558 0.149739 0.418302
O O4 0.081675 0.959930 0.265458
O O5 0.317460 0.436663 0.605828
O O6 0.029409 0.233806 0.123473
O O7 0.168376 0.453622 0.629282
O O8 0.582972 0.779760 0.746460
O O9 0.589819 0.364200 0.664528
O O10 0.962251 0.622823 0.185721
O O11 0.103444 0.701621 0.999677
O O12 0.000000 0.500000 0.500000
O O13 0.632709 0.112307 0.284381
O O14 0.480219 0.124279 0.588810
O O15 0.500000 0.000000 0.500000
#
# Coordination Sequence:
#
# PCOD9029891 Si02
#       7
#     2   2   2   2   2   2   2
#     4  11  25  44  72  98 143 184 231 285 339 411
#     4  10  25  45  68 101 136 182 240 273 347 403
#     4  11  24  45  69 101 144 180 231 287 338 415
#     4  10  24  43  71  99 139 177 227 291 338 410
#     4  11  25  43  71 103 137 180 228 283 352 412
#     4  11  24  45  69 105 134 181 235 275 350 410
#     4  10  22  42  68  98 133 175 223 282 343 407
#
# _framework density 24.438324000000001
#
# number of rings (size 3 to 8) (size 9 to 14) (size 15 to 20)
#    0.000    1.429    0.000    3.857   10.000    3.429 
#    5.143    4.286    0.000    0.000    0.000    0.000 
#    0.000    0.000    0.000    0.000    0.000    0.000 
#
# Total GULP energy -78181.261884 kJ/mol
# GULP energy per Si atom -5584.375849 kJ/mol
# Density = 2.438270 g / cm^3
# Si number density = 24.438324 Si / 1000 Ang^3
#
#
#
# Elastic Constant Matrix: (Units=GPa)
#
#
# Indices 1 2 3 4 5 6 
#
# 1 118.2930 59.9844 22.3622 6.0116 19.5423 6.9061
# 2 59.9844 171.5011 20.9494 -33.5898 6.5660 -22.5572
# 3 22.3622 20.9494 52.7989 -4.7050 -0.4252 3.3164
# 4 6.0116 -33.5898 -4.7050 44.1252 6.6072 4.3486
# 5 19.5423 6.5660 -0.4252 6.6072 28.6766 3.9470
# 6 6.9061 -22.5572 3.3164 4.3486 3.9470 53.9087
#
#
#
# Elastic Compliance Matrix: (Units=1/GPa)
#
#
# Indices 1 2 3 4 5 6 
#
# 1 0.013356 -0.005312 -0.003873 -0.005041 -0.006393 -0.002821
# 2 -0.005312 0.010028 -0.001306 0.007955 -0.001134 0.004398
# 3 -0.003873 -0.001306 0.021366 0.001510 0.003143 -0.001717
# 4 -0.005041 0.007955 0.001510 0.030219 -0.005581 0.001852
# 5 -0.006393 -0.001134 0.003143 -0.005581 0.041153 -0.002411
# 6 -0.002821 0.004398 -0.001717 0.001852 -0.002411 0.020884
#
#
# Mechanical properties :
#
#
# Convention : Reuss Voigt Hill
#
# Bulk Modulus (GPa) = 42.07068 61.02057 51.54563
# Shear Modulus (GPa) = 30.13670 41.29520 35.71595
#
# Velocity S-wave (km/s) = 3.51547 4.11514 3.82707
# Velocity P-wave (km/s) = 5.80779 6.89947 6.37703
#
# Compressibility (1/GPa) = 0.02376952
#
# Stress axis : x y z
#
# Youngs Moduli (GPa) = 74.87038 99.71901 46.80374
#
# Poissons Ratio (x) = 0.52971 0.18126
# Poissons Ratio (y) = 0.39772 0.06111
# Poissons Ratio (z) = 0.28995 0.13020
#
# Static dielectric constant tensor:
#      x y z
#    x 1.932410 0.026290 -0.023710 
#    y 0.026290 1.958730 -0.038170 
#    z -0.023710 -0.038170 2.138350 
# 
# From -- ./inp_files/315000.got.cif
#   From: 2010.05.17/outbox.cif.g08.bks.cpg/sg2_158_cif.got.tgz:315000.got - 2010.06.03 11:33:40.
