data_PCOD9029121
_publ_section_title
;
Structure prediction by ZEFSAII (Michael W. Deem and Ramdas Pophale) SiO2 
 PCOD9029121
Probable space group: P -1
;
_chemical_formula_sum "Si O2"
_cell_formula_units_Z 16
_cell_length_a 16.823451
_cell_length_b 8.977694
_cell_length_c 12.125047
_cell_angle_alpha 53.314028
_cell_angle_beta 41.053489
_cell_angle_gamma 82.211572
_cell_volume 772.973841
_symmetry_space_group_name_H-M "P -1"
_symmetry_group_IT_number 2
_symmetry_cell_setting 'triclinic'
loop_
_space_group_symop_operation_xyz
x,y,z
-x,-y,-z
loop_
_atom_site_type_symbol
_atom_site_label
_atom_site_fract_x
_atom_site_fract_y
_atom_site_fract_z
Si Si1 0.759486 0.384854 0.295602
Si Si2 0.558192 0.588393 0.069728
Si Si3 0.930853 0.368259 0.813335
Si Si4 0.064309 0.818489 0.879051
Si Si5 0.514550 0.877204 0.141661
Si Si6 0.190810 0.697224 0.259392
Si Si7 0.624908 0.275374 0.255511
Si Si8 0.747750 0.678067 0.630079
O O1 0.822181 0.237660 0.261687
O O2 0.645751 0.277910 0.563280
O O3 0.662067 0.365232 0.302253
O O4 0.905787 0.638596 0.063016
O O5 0.568789 0.733642 0.097528
O O6 0.563512 0.385237 0.198095
O O7 0.400262 0.479335 0.221840
O O8 0.690399 0.726370 0.779986
O O9 0.881646 0.266125 0.786062
O O10 0.086094 0.620301 0.512253
O O11 0.952852 0.242332 0.945194
O O12 0.788021 0.359111 0.003952
O O13 0.133472 0.081587 0.662342
O O14 0.500000 0.000000 0.000000
O O15 0.641898 0.075265 0.000221
O O16 0.199109 0.481747 0.328788
O O17 0.500000 0.000000 0.500000
#
# Coordination Sequence:
#
# PCOD9029121 Si02
#       8
#     2   2   2   2   2   2   2   2
#     4  10  23  41  65  94 134 171 215 267 333 382
#     4  11  24  40  67  99 127 172 220 265 328 388
#     4  10  22  42  66  93 128 171 222 257 331 381
#     4  10  22  42  66  94 129 176 217 268 323 393
#     4  12  23  41  65  95 134 169 215 277 324 383
#     4  11  23  42  67  99 130 174 215 274 325 387
#     4  11  22  43  67  96 132 176 216 266 324 394
#     4  11  23  42  67  98 128 171 227 259 321 396
#
# _framework density 20.699279000000001
#
# number of rings (size 3 to 8) (size 9 to 14) (size 15 to 20)
#    0.000    1.250    2.500    3.750    1.750    3.000 
#    6.750    1.250    0.000    0.000    0.000    0.000 
#    0.000    0.000    0.000    0.000    0.000    0.000 
#
# Total GULP energy -89369.988671 kJ/mol
# GULP energy per Si atom -5585.624292 kJ/mol
# Density = 2.065217 g / cm^3
# Si number density = 20.699279 Si / 1000 Ang^3
#
#
#
# Elastic Constant Matrix: (Units=GPa)
#
#
# Indices 1 2 3 4 5 6 
#
# 1 98.2303 12.0964 16.0538 -4.6779 8.6736 9.0410
# 2 12.0964 62.1385 45.2257 1.2802 2.6707 2.8344
# 3 16.0538 45.2257 91.2108 8.8677 12.8819 1.5552
# 4 -4.6779 1.2802 8.8677 30.9827 0.5489 1.3868
# 5 8.6736 2.6707 12.8819 0.5489 38.2016 6.0916
# 6 9.0410 2.8344 1.5552 1.3868 6.0916 17.9993
#
#
#
# Elastic Compliance Matrix: (Units=1/GPa)
#
#
# Indices 1 2 3 4 5 6 
#
# 1 0.011230 -0.000821 -0.001550 0.002425 -0.001181 -0.005165
# 2 -0.000821 0.026012 -0.013448 0.002763 0.003487 -0.003915
# 3 -0.001550 -0.013448 0.019150 -0.005218 -0.005658 0.003559
# 4 0.002425 0.002763 -0.005218 0.034190 0.001201 -0.004243
# 5 -0.001181 0.003487 -0.005658 0.001201 0.029620 -0.009584
# 6 -0.005165 -0.003915 0.003559 -0.004243 -0.009584 0.062032
#
#
# Mechanical properties :
#
#
# Convention : Reuss Voigt Hill
#
# Bulk Modulus (GPa) = 40.39838 44.25904 42.32871
# Shear Modulus (GPa) = 22.50996 29.31697 25.91346
#
# Velocity S-wave (km/s) = 3.30127 3.76750 3.54206
# Velocity P-wave (km/s) = 5.83869 6.35246 6.10099
#
# Compressibility (1/GPa) = 0.02475347
#
# Stress axis : x y z
#
# Youngs Moduli (GPa) = 89.04908 38.44339 52.21911
#
# Poissons Ratio (x) = 0.03158 0.08095
# Poissons Ratio (y) = 0.07315 0.70223
# Poissons Ratio (z) = 0.13804 0.51698
#
# Static dielectric constant tensor:
#      x y z
#    x 1.731380 -0.015810 0.028180 
#    y -0.015810 1.660380 0.061420 
#    z 0.028180 0.061420 1.740530 
# 
# From -- ./inp_files/189994.got.cif
#   From: 2010.05.17/outbox.cif.g08.bks.cpg/sg2_95_cif.got.tgz:189994.got - 2010.06.03 11:33:40.
