data_PCOD9029640
_publ_section_title
;
Structure prediction by ZEFSAII (Michael W. Deem and Ramdas Pophale) SiO2 
 PCOD9029640
Probable space group: P -1
;
_chemical_formula_sum "Si O2"
_cell_formula_units_Z 16
_cell_length_a 22.861236
_cell_length_b 9.991186
_cell_length_c 13.119685
_cell_angle_alpha 141.263983
_cell_angle_beta 147.104587
_cell_angle_gamma 26.536166
_cell_volume 721.963173
_symmetry_space_group_name_H-M "P -1"
_symmetry_group_IT_number 2
_symmetry_cell_setting 'triclinic'
loop_
_space_group_symop_operation_xyz
x,y,z
-x,-y,-z
loop_
_atom_site_type_symbol
_atom_site_label
_atom_site_fract_x
_atom_site_fract_y
_atom_site_fract_z
Si Si1 0.856743 0.830909 0.256410
Si Si2 0.252516 0.653755 0.970676
Si Si3 0.602943 0.892024 0.684975
Si Si4 0.013775 0.663968 0.703121
Si Si5 0.527772 0.062862 0.900278
Si Si6 0.128072 0.159317 0.948102
Si Si7 0.479885 0.405449 0.309439
Si Si8 0.774587 0.207268 0.549528
O O1 0.969854 0.484633 0.255388
O O2 0.855290 0.017805 0.450952
O O3 0.892937 0.858162 0.212391
O O4 0.688569 0.959765 0.082762
O O5 0.166641 0.578264 0.852676
O O6 0.389384 0.384617 0.938717
O O7 0.332740 0.677182 0.190905
O O8 0.133695 0.947504 0.902914
O O9 0.709546 0.949817 0.865404
O O10 0.713049 0.533320 0.648565
O O11 0.500000 0.000000 0.500000
O O12 0.505719 0.053058 0.741616
O O13 0.000000 0.500000 0.500000
O O14 0.876235 0.016026 0.684600
O O15 0.532296 0.828242 0.823748
O O16 0.000000 0.500000 0.000000
O O17 0.500000 0.500000 0.500000
O O18 0.628971 0.256442 0.375955
#
# Coordination Sequence:
#
# PCOD9029640 Si02
#       8
#     2   2   2   2   2   2   2   2
#     4  10  22  43  71  94 132 178 221 276 336 399
#     4  12  24  44  73  97 135 180 228 276 333 405
#     4  11  25  43  63  96 141 174 222 279 335 393
#     4  10  22  42  68 101 130 176 220 276 332 396
#     4  11  22  40  69 100 130 176 226 274 333 400
#     4  11  27  47  64  96 134 177 228 274 337 402
#     4  12  23  40  68 107 135 169 226 282 333 391
#     4  11  22  42  67  98 137 173 226 275 334 403
#
# _framework density 22.161795999999999
#
# number of rings (size 3 to 8) (size 9 to 14) (size 15 to 20)
#    0.000    1.000    3.750    3.375    1.750    2.000 
#    4.500    5.625    0.000    0.000    0.000    0.000 
#    0.000    0.000    0.000    0.000    0.000    0.000 
#
# Total GULP energy -89514.088682 kJ/mol
# GULP energy per Si atom -5594.630543 kJ/mol
# Density = 2.211135 g / cm^3
# Si number density = 22.161796 Si / 1000 Ang^3
#
#
#
# Elastic Constant Matrix: (Units=GPa)
#
#
# Indices 1 2 3 4 5 6 
#
# 1 61.1648 -2.2359 23.3672 1.5742 -18.9920 11.4721
# 2 -2.2359 82.4093 15.5780 -5.6506 -20.8632 14.0015
# 3 23.3672 15.5780 89.5416 -14.9643 -26.0178 1.6175
# 4 1.5742 -5.6506 -14.9643 33.9644 2.5680 -4.3201
# 5 -18.9920 -20.8632 -26.0178 2.5680 44.4701 -5.5482
# 6 11.4721 14.0015 1.6175 -4.3201 -5.5482 26.8919
#
#
#
# Elastic Compliance Matrix: (Units=1/GPa)
#
#
# Indices 1 2 3 4 5 6 
#
# 1 0.023362 0.005345 -0.005171 -0.004557 0.008293 -0.011459
# 2 0.005345 0.016079 -0.001825 -0.000097 0.007643 -0.008981
# 3 -0.005171 -0.001825 0.015759 0.006990 0.006330 0.004638
# 4 -0.004557 -0.000097 0.006990 0.033551 0.001057 0.007182
# 5 0.008293 0.007643 0.006330 0.001057 0.033146 -0.000890
# 6 -0.011459 -0.008981 0.004638 0.007182 -0.000890 0.047442
#
#
# Mechanical properties :
#
#
# Convention : Reuss Voigt Hill
#
# Bulk Modulus (GPa) = 19.26899 34.05937 26.66418
# Shear Modulus (GPa) = 26.32409 34.15904 30.24156
#
# Velocity S-wave (km/s) = 3.45021 3.93026 3.69803
# Velocity P-wave (km/s) = 4.95837 5.99982 5.50378
#
# Compressibility (1/GPa) = 0.05189684
#
# Stress axis : x y z
#
# Youngs Moduli (GPa) = 42.80477 62.19332 63.45635
#
# Poissons Ratio (x) = -0.33245 0.32816
# Poissons Ratio (y) = -0.22881 0.11583
# Poissons Ratio (z) = 0.22136 0.11352
#
# Static dielectric constant tensor:
#      x y z
#    x 1.813540 0.005000 -0.011160 
#    y 0.005000 1.890870 -0.013330 
#    z -0.011160 -0.013330 1.811380 
# 
# From -- ./inp_files/217701.got.cif
#   From: 2010.05.17/outbox.cif.g08.bks.cpg/sg2_109_cif.got.tgz:217701.got - 2010.06.03 11:33:40.
