data_PCOD9029921
_publ_section_title
;
Structure prediction by ZEFSAII (Michael W. Deem and Ramdas Pophale) SiO2 
 PCOD9029921
Probable space group: P -1
;
_chemical_formula_sum "Si O2"
_cell_formula_units_Z 16
_cell_length_a 7.993497
_cell_length_b 18.907821
_cell_length_c 13.394925
_cell_angle_alpha 156.583277
_cell_angle_beta 104.164606
_cell_angle_gamma 63.965575
_cell_volume 648.260304
_symmetry_space_group_name_H-M "P -1"
_symmetry_group_IT_number 2
_symmetry_cell_setting 'triclinic'
loop_
_space_group_symop_operation_xyz
x,y,z
-x,-y,-z
loop_
_atom_site_type_symbol
_atom_site_label
_atom_site_fract_x
_atom_site_fract_y
_atom_site_fract_z
Si Si1 0.212990 0.924071 0.196200
Si Si2 0.673256 0.944376 0.821844
Si Si3 0.899134 0.245488 0.332039
Si Si4 0.771855 0.710380 0.235816
Si Si5 0.365491 0.383686 0.701884
Si Si6 0.299162 0.386533 0.355303
Si Si7 0.615717 0.533981 0.834798
Si Si8 0.974139 0.327803 0.129959
O O1 0.242114 0.006688 0.202448
O O2 0.212596 0.086710 0.485584
O O3 0.420267 0.689223 0.937828
O O4 0.029296 0.885460 0.131260
O O5 0.561925 0.826074 0.624891
O O6 0.515127 0.173469 0.143044
O O7 0.889471 0.765934 0.673278
O O8 0.720517 0.421198 0.461902
O O9 0.802717 0.337927 0.546330
O O10 0.000000 0.000000 0.000000
O O11 0.657801 0.683689 0.278901
O O12 0.677140 0.686095 0.089726
O O13 0.000000 0.500000 0.000000
O O14 0.525533 0.451429 0.797569
O O15 0.141882 0.569463 0.860329
O O16 0.173070 0.513507 0.598384
O O17 0.189980 0.303631 0.156613
#
# Coordination Sequence:
#
# PCOD9029921 Si02
#       8
#     2   2   2   2   2   2   2   2
#     4  10  22  42  68  99 133 186 226 282 351 414
#     4  11  23  40  68  95 140 176 236 270 347 405
#     4  12  26  42  69 104 141 186 234 282 346 414
#     4  11  24  42  71  99 138 181 234 292 348 415
#     4  10  23  43  68 101 136 182 231 285 350 413
#     4  11  24  42  67  99 140 188 224 290 338 418
#     4  11  23  44  69  99 141 181 238 289 342 413
#     4  10  23  43  65  97 142 175 234 281 351 408
#
# _framework density 24.681442000000001
#
# number of rings (size 3 to 8) (size 9 to 14) (size 15 to 20)
#    0.000    1.250    2.500    3.000    3.500    5.500 
#    0.000    2.500    0.000    0.000    0.000    0.000 
#    0.000    0.000    0.000    0.000    0.000    0.000 
#
# Total GULP energy -89395.519202 kJ/mol
# GULP energy per Si atom -5587.219950 kJ/mol
# Density = 2.462527 g / cm^3
# Si number density = 24.681442 Si / 1000 Ang^3
#
#
#
# Elastic Constant Matrix: (Units=GPa)
#
#
# Indices 1 2 3 4 5 6 
#
# 1 62.5841 5.1690 53.9050 -5.0677 16.4865 -10.6436
# 2 5.1690 58.8005 11.8942 -2.0580 4.8311 -3.5135
# 3 53.9050 11.8942 145.7283 -1.9601 14.9589 -1.1602
# 4 -5.0677 -2.0580 -1.9601 39.7863 -9.5154 2.7946
# 5 16.4865 4.8311 14.9589 -9.5154 57.4144 4.8079
# 6 -10.6436 -3.5135 -1.1602 2.7946 4.8079 35.8631
#
#
#
# Elastic Compliance Matrix: (Units=1/GPa)
#
#
# Indices 1 2 3 4 5 6 
#
# 1 0.027104 0.000546 -0.009380 0.001002 -0.005932 0.008511
# 2 0.000546 0.017500 -0.001471 0.000444 -0.001338 0.001974
# 3 -0.009380 -0.001471 0.010400 -0.000520 0.000238 -0.002583
# 4 0.001002 0.000444 -0.000520 0.026473 0.004393 -0.002328
# 5 -0.005932 -0.001338 0.000238 0.004393 0.020314 -0.004949
# 6 0.008511 0.001974 -0.002583 -0.002328 -0.004949 0.031365
#
#
# Mechanical properties :
#
#
# Convention : Reuss Voigt Hill
#
# Bulk Modulus (GPa) = 29.07633 45.44995 37.26314
# Shear Modulus (GPa) = 30.26078 39.68906 34.97492
#
# Velocity S-wave (km/s) = 3.50530 4.01440 3.76846
# Velocity P-wave (km/s) = 5.30934 6.31996 5.83656
#
# Compressibility (1/GPa) = 0.03439224
#
# Stress axis : x y z
#
# Youngs Moduli (GPa) = 36.89497 57.14403 96.15437
#
# Poissons Ratio (x) = -0.03119 0.90195
# Poissons Ratio (y) = -0.02014 0.14146
# Poissons Ratio (z) = 0.34608 0.08407
#
# Static dielectric constant tensor:
#      x y z
#    x 2.092710 -0.092850 0.114760 
#    y -0.092850 2.129750 -0.039570 
#    z 0.114760 -0.039570 1.976870 
# 
# From -- ./inp_files/508207.got.cif
#   From: 2010.05.17/outbox.cif.g08.bks.cpg/sg2_255_cif.got.tgz:508207.got - 2010.06.03 11:33:40.
