data_PCOD9029932
_publ_section_title
;
Structure prediction by ZEFSAII (Michael W. Deem and Ramdas Pophale) SiO2 
 PCOD9029932
Probable space group: P -1
;
_chemical_formula_sum "Si O2"
_cell_formula_units_Z 14
_cell_length_a 10.737493
_cell_length_b 5.346558
_cell_length_c 14.224047
_cell_angle_alpha 83.473420
_cell_angle_beta 43.328383
_cell_angle_gamma 81.510724
_cell_volume 554.159093
_symmetry_space_group_name_H-M "P -1"
_symmetry_group_IT_number 2
_symmetry_cell_setting 'triclinic'
loop_
_space_group_symop_operation_xyz
x,y,z
-x,-y,-z
loop_
_atom_site_type_symbol
_atom_site_label
_atom_site_fract_x
_atom_site_fract_y
_atom_site_fract_z
Si Si1 0.064365 0.487006 0.683564
Si Si2 0.548141 0.730818 0.530356
Si Si3 0.906135 0.737441 0.944316
Si Si4 0.255571 0.682516 0.850739
Si Si5 0.402429 0.857992 0.959713
Si Si6 0.686672 0.425704 0.799080
Si Si7 0.891609 0.266178 0.529659
O O1 0.234303 0.287246 0.582062
O O2 0.123552 0.710596 0.574654
O O3 0.013542 0.564138 0.813142
O O4 0.881538 0.407164 0.742420
O O5 0.500000 0.500000 0.500000
O O6 0.433471 0.704197 0.689589
O O7 0.500000 0.000000 0.500000
O O8 0.084161 0.845969 0.888680
O O9 0.810449 0.596510 0.087576
O O10 0.734819 0.884506 0.977077
O O11 0.294627 0.744809 0.934956
O O12 0.602765 0.717397 0.827203
O O13 0.408653 0.752060 0.068156
O O14 0.706375 0.304186 0.690268
O O15 0.000000 0.500000 0.500000
O O16 0.000000 0.000000 0.500000
#
# Coordination Sequence:
#
# PCOD9029932 Si02
#       7
#     2   2   2   2   2   2   2
#     4  11  23  47  70 108 142 193 243 305 373 440
#     4  12  29  48  75 107 149 191 246 309 370 446
#     4  11  24  43  76 102 148 189 247 305 371 441
#     4  11  25  46  69 110 139 196 245 304 374 440
#     4  11  23  42  70 104 145 187 248 300 369 435
#     4  10  23  43  67 108 141 193 243 304 363 444
#     4  10  22  42  68  99 140 188 236 286 358 426
#
# _framework density 25.263501000000002
#
# number of rings (size 3 to 8) (size 9 to 14) (size 15 to 20)
#    0.000    1.143    2.857    2.143    4.000    2.857 
#   10.286    0.000    0.000    0.000    0.000    0.000 
#    0.000    0.000    0.000    0.000    0.000    0.000 
#
# Total GULP energy -78019.643454 kJ/mol
# GULP energy per Si atom -5572.831675 kJ/mol
# Density = 2.520600 g / cm^3
# Si number density = 25.263501 Si / 1000 Ang^3
#
#
#
# Elastic Constant Matrix: (Units=GPa)
#
#
# Indices 1 2 3 4 5 6 
#
# 1 106.1210 19.8064 28.5586 7.2355 -29.2932 -20.6345
# 2 19.8064 106.0869 55.3078 8.0443 -5.3224 -38.6068
# 3 28.5586 55.3078 185.2020 13.3128 6.4095 -16.7173
# 4 7.2355 8.0443 13.3128 19.7017 -22.9625 -6.2841
# 5 -29.2932 -5.3224 6.4095 -22.9625 53.5283 15.8998
# 6 -20.6345 -38.6068 -16.7173 -6.2841 15.8998 41.8833
#
#
#
# Elastic Compliance Matrix: (Units=1/GPa)
#
#
# Indices 1 2 3 4 5 6 
#
# 1 0.013266 -0.000443 -0.003025 0.012253 0.012203 0.002126
# 2 -0.000443 0.016756 -0.002947 -0.006060 -0.005327 0.015164
# 3 -0.003025 -0.002947 0.008001 -0.012974 -0.008558 0.000289
# 4 0.012253 -0.006060 -0.012974 0.133413 0.068016 -0.010531
# 5 0.012203 -0.005327 -0.008558 0.068016 0.059384 -0.014653
# 6 0.002126 0.015164 0.000289 -0.010531 -0.014653 0.042999
#
#
# Mechanical properties :
#
#
# Convention : Reuss Voigt Hill
#
# Bulk Modulus (GPa) = 39.69226 67.19505 53.44365
# Shear Modulus (GPa) = 16.94653 42.60513 29.77583
#
# Velocity S-wave (km/s) = 2.59277 4.11107 3.43681
# Velocity P-wave (km/s) = 4.97079 7.01356 6.07860
#
# Compressibility (1/GPa) = 0.02519383
#
# Stress axis : x y z
#
# Youngs Moduli (GPa) = 75.37913 59.68083 124.98725
#
# Poissons Ratio (x) = 0.02645 0.37803
# Poissons Ratio (y) = 0.03340 0.36831
# Poissons Ratio (z) = 0.22799 0.17587
#
# Static dielectric constant tensor:
#      x y z
#    x 1.987720 0.007130 0.037670 
#    y 0.007130 2.188730 -0.055940 
#    z 0.037670 -0.055940 2.071200 
# 
# From -- ./inp_files/94304.got.cif
#   From: 2010.05.17/outbox.cif.g08.bks.cpg/sg2_48_cif.got.tgz:94304.got - 2010.06.03 11:33:40.
