data_PCOD9029467
_publ_section_title
;
Structure prediction by ZEFSAII (Michael W. Deem and Ramdas Pophale) SiO2 
 PCOD9029467
Probable space group: P -1
;
_chemical_formula_sum "Si O2"
_cell_formula_units_Z 15
_cell_length_a 13.016033
_cell_length_b 8.093523
_cell_length_c 16.607163
_cell_angle_alpha 39.014928
_cell_angle_beta 144.408205
_cell_angle_gamma 143.225224
_cell_volume 568.576460
_symmetry_space_group_name_H-M "P -1"
_symmetry_group_IT_number 2
_symmetry_cell_setting 'triclinic'
loop_
_space_group_symop_operation_xyz
x,y,z
-x,-y,-z
loop_
_atom_site_type_symbol
_atom_site_label
_atom_site_fract_x
_atom_site_fract_y
_atom_site_fract_z
Si Si1 0.325788 0.196713 0.656654
Si Si2 0.942339 0.670264 0.055930
Si Si3 0.298894 0.840708 0.120212
Si Si4 0.749186 0.892297 0.173568
Si Si5 0.023350 0.420339 0.356260
Si Si6 0.572906 0.720520 0.810569
Si Si7 0.915127 0.197518 0.612237
Si Si8 0.500000 0.000000 0.500000
O O1 0.314540 0.100551 0.778555
O O2 0.239585 0.436558 0.508102
O O3 0.545710 0.295060 0.727113
O O4 0.154324 0.905344 0.614086
O O5 0.010005 0.499375 0.226971
O O6 0.064702 0.677869 0.052680
O O7 0.707554 0.549738 0.950091
O O8 0.000000 0.000000 0.000000
O O9 0.376448 0.084247 0.150136
O O10 0.313240 0.966690 0.992278
O O11 0.646413 0.542855 0.221687
O O12 0.984578 0.994917 0.283398
O O13 0.999184 0.668782 0.296081
O O14 0.598041 0.895776 0.677459
O O15 0.681045 0.032731 0.539754
O O16 0.000000 0.500000 0.500000
#
# Coordination Sequence:
#
# PCOD9029467 Si02
#       8
#     2   2   2   2   2   2   2   1
#     4  11  25  41  66  95 138 184 225 275 336 427
#     4  10  22  42  67  95 132 173 225 291 338 397
#     4  11  23  40  65  96 133 179 226 275 353 403
#     4  12  23  42  66  98 132 182 233 278 336 407
#     4  11  23  45  66  97 134 176 227 277 346 413
#     4  11  22  41  68  98 133 174 228 294 337 395
#     4  12  22  42  69 100 133 175 229 287 340 389
#     4  12  24  38  68 108 134 156 230 286 342 406
#
# _framework density 26.381675999999999
#
# number of rings (size 3 to 8) (size 9 to 14) (size 15 to 20)
#    0.000    0.800    2.667    6.400    0.000    0.533 
#    0.000    5.333    0.000    0.000    0.000    0.000 
#    0.000    0.000    0.000    0.000    0.000    0.000 
#
# Total GULP energy -83698.725909 kJ/mol
# GULP energy per Si atom -5579.915061 kJ/mol
# Density = 2.632163 g / cm^3
# Si number density = 26.381676 Si / 1000 Ang^3
#
#
#
# Elastic Constant Matrix: (Units=GPa)
#
#
# Indices 1 2 3 4 5 6 
#
# 1 178.8224 20.1612 71.5351 6.7962 41.1542 14.0813
# 2 20.1612 50.3514 1.5629 -5.6795 5.6661 -11.7114
# 3 71.5351 1.5629 162.8618 -7.1457 4.4372 8.4781
# 4 6.7962 -5.6795 -7.1457 30.7596 8.3000 -1.6294
# 5 41.1542 5.6661 4.4372 8.3000 60.7614 12.0183
# 6 14.0813 -11.7114 8.4781 -1.6294 12.0183 38.9324
#
#
#
# Elastic Compliance Matrix: (Units=1/GPa)
#
#
# Indices 1 2 3 4 5 6 
#
# 1 0.008802 -0.003658 -0.003696 -0.002351 -0.004603 -0.002157
# 2 -0.003658 0.024603 0.001249 0.006890 -0.002745 0.009588
# 3 -0.003696 0.001249 0.007835 0.002428 0.001557 -0.000373
# 4 -0.002351 0.006890 0.002428 0.036599 -0.005329 0.005571
# 5 -0.004603 -0.002745 0.001557 -0.005329 0.021717 -0.006427
# 6 -0.002157 0.009588 -0.000373 0.005571 -0.006427 0.031648
#
#
# Mechanical properties :
#
#
# Convention : Reuss Voigt Hill
#
# Bulk Modulus (GPa) = 34.45005 64.28377 49.36691
# Shear Modulus (GPa) = 32.66029 46.00912 39.33470
#
# Velocity S-wave (km/s) = 3.52233 4.18063 3.86552
# Velocity P-wave (km/s) = 5.44326 6.90820 6.21902
#
# Compressibility (1/GPa) = 0.02902754
#
# Stress axis : x y z
#
# Youngs Moduli (GPa) = 113.61369 40.64599 127.62746
#
# Poissons Ratio (x) = 0.14870 0.47177
# Poissons Ratio (y) = 0.41565 -0.15938
# Poissons Ratio (z) = 0.41997 -0.05076
#
# Static dielectric constant tensor:
#      x y z
#    x 2.087170 0.196190 0.068700 
#    y 0.196190 2.359660 0.071910 
#    z 0.068700 0.071910 2.069310 
# 
# From -- ./inp_files/280300.got.cif
#   From: 2010.05.17/outbox.cif.g08.bks.cpg/sg2_141_cif.got.tgz:280300.got - 2010.06.03 11:33:40.
