data_PCOD9029545
_publ_section_title
;
Structure prediction by ZEFSAII (Michael W. Deem and Ramdas Pophale) SiO2 
 PCOD9029545
Probable space group: P -1
;
_chemical_formula_sum "Si O2"
_cell_formula_units_Z 12
_cell_length_a 9.525514
_cell_length_b 6.408477
_cell_length_c 11.176087
_cell_angle_alpha 109.517644
_cell_angle_beta 75.287470
_cell_angle_gamma 119.413975
_cell_volume 556.773721
_symmetry_space_group_name_H-M "P -1"
_symmetry_group_IT_number 2
_symmetry_cell_setting 'triclinic'
loop_
_space_group_symop_operation_xyz
x,y,z
-x,-y,-z
loop_
_atom_site_type_symbol
_atom_site_label
_atom_site_fract_x
_atom_site_fract_y
_atom_site_fract_z
Si Si1 0.838279 0.420194 0.218573
Si Si2 0.427802 0.762196 0.145240
Si Si3 0.632192 0.042661 0.378569
Si Si4 0.121617 0.264030 0.174273
Si Si5 0.713984 0.043922 0.970103
Si Si6 0.944919 0.977027 0.371470
O O1 0.751496 0.288639 0.088306
O O2 0.909987 0.712757 0.270443
O O3 0.979292 0.332258 0.180229
O O4 0.717627 0.299907 0.334583
O O5 0.535713 0.855466 0.257617
O O6 0.288973 0.494357 0.150760
O O7 0.558545 0.822657 0.022767
O O8 0.332338 0.915104 0.146116
O O9 0.779134 0.001802 0.394351
O O10 0.500000 0.000000 0.500000
O O11 0.084448 0.195501 0.308288
O O12 0.139806 0.030567 0.071571
O O13 0.000000 0.000000 0.500000
#
# Coordination Sequence:
#
# PCOD9029545 Si02
#       6
#     2   2   2   2   2   2
#     4  10  24  44  64  98 133 171 219 269 324 391
#     4  10  23  40  65 101 133 166 219 269 326 389
#     4  10  25  43  69  94 130 172 224 271 323 382
#     4  11  23  39  69  96 134 173 215 269 327 383
#     4  10  22  42  67  97 135 170 216 263 332 393
#     4  11  27  45  66  95 133 178 222 266 326 387
#
# _framework density 21.552741000000001
#
# number of rings (size 3 to 8) (size 9 to 14) (size 15 to 20)
#    0.000    1.667    0.000    2.000    7.000   12.667 
#    0.000    0.000    0.000    0.000    0.000    0.000 
#    0.000    0.000    0.000    0.000    0.000    0.000 
#
# Total GULP energy -66966.769712 kJ/mol
# GULP energy per Si atom -5580.564143 kJ/mol
# Density = 2.150369 g / cm^3
# Si number density = 21.552741 Si / 1000 Ang^3
#
#
#
# Elastic Constant Matrix: (Units=GPa)
#
#
# Indices 1 2 3 4 5 6 
#
# 1 89.9697 19.3408 48.2275 -6.2287 7.4573 -9.0537
# 2 19.3408 94.1013 47.5386 -20.1988 -0.1191 15.2942
# 3 48.2275 47.5386 75.1937 -17.1244 6.6980 3.5416
# 4 -6.2287 -20.1988 -17.1244 12.5073 -2.0873 -0.0012
# 5 7.4573 -0.1191 6.6980 -2.0873 41.7700 2.1035
# 6 -9.0537 15.2942 3.5416 -0.0012 2.1035 22.6710
#
#
#
# Elastic Compliance Matrix: (Units=1/GPa)
#
#
# Indices 1 2 3 4 5 6 
#
# 1 0.020135 -0.000910 -0.015700 -0.013323 -0.002316 0.011321
# 2 -0.000910 0.022626 -0.007240 0.026753 0.003471 -0.014817
# 3 -0.015700 -0.007240 0.034688 0.027805 -0.001053 -0.006705
# 4 -0.013323 0.026753 0.027805 0.155793 0.007210 -0.028373
# 5 -0.002316 0.003471 -0.001053 0.007210 0.025167 -0.005437
# 6 0.011321 -0.014817 -0.006705 -0.028373 -0.005437 0.060177
#
#
# Mechanical properties :
#
#
# Convention : Reuss Voigt Hill
#
# Bulk Modulus (GPa) = 33.61374 54.38650 44.00012
# Shear Modulus (GPa) = 13.29069 25.00017 19.14543
#
# Velocity S-wave (km/s) = 2.48596 3.40950 2.98368
# Velocity P-wave (km/s) = 4.88568 6.38659 5.68588
#
# Compressibility (1/GPa) = 0.02974974
#
# Stress axis : x y z
#
# Youngs Moduli (GPa) = 49.66405 44.19602 28.82845
#
# Poissons Ratio (x) = 0.04020 0.45262
# Poissons Ratio (y) = 0.04518 0.20872
# Poissons Ratio (z) = 0.77974 0.31998
#
# Static dielectric constant tensor:
#      x y z
#    x 1.802370 -0.005090 -0.018110 
#    y -0.005090 1.797400 0.003140 
#    z -0.018110 0.003140 1.771560 
# 
# From -- ./inp_files/17235.got.cif
#   From: 2010.05.17/outbox.cif.g08.bks.cpg/sg2_9_cif.got.tgz:17235.got - 2010.06.03 11:33:40.
