data_PCOD9029389
_publ_section_title
;
Structure prediction by ZEFSAII (Michael W. Deem and Ramdas Pophale) SiO2 
 PCOD9029389
Probable space group: P -1
;
_chemical_formula_sum "Si O2"
_cell_formula_units_Z 14
_cell_length_a 16.050231
_cell_length_b 9.301920
_cell_length_c 20.274472
_cell_angle_alpha 40.483753
_cell_angle_beta 20.292542
_cell_angle_gamma 54.869909
_cell_volume 538.662232
_symmetry_space_group_name_H-M "P -1"
_symmetry_group_IT_number 2
_symmetry_cell_setting 'triclinic'
loop_
_space_group_symop_operation_xyz
x,y,z
-x,-y,-z
loop_
_atom_site_type_symbol
_atom_site_label
_atom_site_fract_x
_atom_site_fract_y
_atom_site_fract_z
Si Si1 0.858608 0.262291 0.743472
Si Si2 0.822264 0.089699 0.140323
Si Si3 0.052111 0.165859 0.193209
Si Si4 0.179578 0.630986 0.613830
Si Si5 0.872196 0.616597 0.718119
Si Si6 0.318688 0.159122 0.127765
Si Si7 0.687376 0.544071 0.239142
O O1 0.000000 0.500000 0.500000
O O2 0.829089 0.365453 0.799139
O O3 0.027500 0.126142 0.669927
O O4 0.526191 0.070209 0.025057
O O5 0.022483 0.263136 0.995798
O O6 0.499217 0.792212 0.498460
O O7 0.875924 0.330952 0.969337
O O8 0.000000 0.000000 0.000000
O O9 0.293070 0.248540 0.043979
O O10 0.794044 0.162935 0.422509
O O11 0.205584 0.366791 0.946478
O O12 0.109657 0.695830 0.572672
O O13 0.454588 0.611981 0.409413
O O14 0.613117 0.601335 0.955963
O O15 0.995066 0.870157 0.487624
#
# Coordination Sequence:
#
# PCOD9029389 Si02
#       7
#     2   2   2   2   2   2   2
#     4  12  24  38  65  94 138 177 228 281 342 406
#     4  10  23  47  76 103 140 185 231 292 358 419
#     4  11  25  42  69 103 135 185 231 290 346 420
#     4  10  23  45  70 100 139 176 238 283 352 423
#     4  10  22  42  67  92 129 182 222 284 343 404
#     4  10  22  44  62  92 136 174 230 277 339 416
#     4  11  25  47  77 101 143 185 230 294 361 411
#
# _framework density 25.990314000000001
#
# number of rings (size 3 to 8) (size 9 to 14) (size 15 to 20)
#    0.000    1.429    1.429    3.429    6.000    1.143 
#    5.143    4.286    0.000    0.000    0.000    0.000 
#    0.000    0.000    0.000    0.000    0.000    0.000 
#
# Total GULP energy -78264.103213 kJ/mol
# GULP energy per Si atom -5590.293087 kJ/mol
# Density = 2.593116 g / cm^3
# Si number density = 25.990314 Si / 1000 Ang^3
#
#
#
# Elastic Constant Matrix: (Units=GPa)
#
#
# Indices 1 2 3 4 5 6 
#
# 1 142.1427 45.3823 74.8901 -12.1335 25.1531 19.4303
# 2 45.3823 156.9137 25.4174 17.1216 -2.8139 12.8446
# 3 74.8901 25.4174 89.3901 -7.5278 12.0279 6.7587
# 4 -12.1335 17.1216 -7.5278 41.8101 -0.7498 7.2953
# 5 25.1531 -2.8139 12.0279 -0.7498 41.3958 -1.8234
# 6 19.4303 12.8446 6.7587 7.2953 -1.8234 48.6756
#
#
#
# Elastic Compliance Matrix: (Units=1/GPa)
#
#
# Indices 1 2 3 4 5 6 
#
# 1 0.016090 -0.003121 -0.010873 0.004748 -0.006967 -0.005062
# 2 -0.003121 0.007817 -0.000275 -0.004100 0.002430 -0.000073
# 3 -0.010873 -0.000275 0.020173 0.000326 0.000802 0.001593
# 4 0.004748 -0.004100 0.000326 0.027878 -0.002980 -0.005149
# 5 -0.006967 0.002430 0.000802 -0.002980 0.028424 0.003540
# 6 -0.005062 -0.000073 0.001593 -0.005149 0.003540 0.023267
#
#
# Mechanical properties :
#
#
# Convention : Reuss Voigt Hill
#
# Bulk Modulus (GPa) = 64.33561 75.53622 69.93591
# Shear Modulus (GPa) = 31.77262 42.56009 37.16635
#
# Velocity S-wave (km/s) = 3.50019 4.05104 3.78565
# Velocity P-wave (km/s) = 6.41424 7.14196 6.78786
#
# Compressibility (1/GPa) = 0.01554349
#
# Stress axis : x y z
#
# Youngs Moduli (GPa) = 62.14937 127.92589 49.57095
#
# Poissons Ratio (x) = 0.39926 0.53897
# Poissons Ratio (y) = 0.19397 0.01361
# Poissons Ratio (z) = 0.67574 0.03513
#
# Static dielectric constant tensor:
#      x y z
#    x 2.289840 -0.353430 -1.086590 
#    y -0.353430 2.724920 1.523550 
#    z -1.086590 1.523550 5.973120 
# 
# From -- ./inp_files/562339.got.cif
#   From: 2010.05.17/outbox.cif.g08.bks.cpg/sg2_282_cif.got.tgz:562339.got - 2010.06.03 11:33:40.
