data_PCOD9029285
_publ_section_title
;
Structure prediction by ZEFSAII (Michael W. Deem and Ramdas Pophale) SiO2 
 PCOD9029285
Probable space group: P -1
;
_chemical_formula_sum "Si O2"
_cell_formula_units_Z 13
_cell_length_a 10.022925
_cell_length_b 11.758938
_cell_length_c 13.778494
_cell_angle_alpha 33.074355
_cell_angle_beta 36.956696
_cell_angle_gamma 56.097749
_cell_volume 500.898680
_symmetry_space_group_name_H-M "P -1"
_symmetry_group_IT_number 2
_symmetry_cell_setting 'triclinic'
loop_
_space_group_symop_operation_xyz
x,y,z
-x,-y,-z
loop_
_atom_site_type_symbol
_atom_site_label
_atom_site_fract_x
_atom_site_fract_y
_atom_site_fract_z
Si Si1 0.757525 0.681002 0.613685
Si Si2 0.162426 0.341221 0.955645
Si Si3 0.228457 0.207702 0.692490
Si Si4 0.500000 0.500000 0.500000
Si Si5 0.563565 0.755448 0.948815
Si Si6 0.746981 0.088490 0.848926
Si Si7 0.676585 0.065005 0.498494
O O1 0.811267 0.695306 0.456912
O O2 0.666151 0.875785 0.561564
O O3 0.023445 0.741686 0.457233
O O4 0.557648 0.446248 0.908532
O O5 0.305358 0.321783 0.984128
O O6 0.194595 0.138400 0.015572
O O7 0.288981 0.533595 0.669252
O O8 0.891875 0.278505 0.185708
O O9 0.315653 0.397107 0.588470
O O10 0.437622 0.112010 0.616127
O O11 0.000000 0.000000 0.000000
O O12 0.727087 0.960810 0.644765
O O13 0.343646 0.821108 0.069261
O O14 0.500000 0.000000 0.000000
#
# Coordination Sequence:
#
# PCOD9029285 Si02
#       7
#     2   2   2   1   2   2   2
#     4  11  22  41  65 100 141 177 232 285 343 419
#     4  10  22  42  66  99 137 179 233 287 339 416
#     4  12  26  47  70 100 141 187 235 289 350 418
#     4  12  24  46  70 100 134 184 240 278 346 412
#     4  11  20  40  65 102 134 178 230 281 344 421
#     4   9  20  38  67  94 136 180 225 282 346 403
#     4  11  24  43  68  97 142 181 224 289 360 405
#
# _framework density 25.953353
#
# number of rings (size 3 to 8) (size 9 to 14) (size 15 to 20)
#    0.000    1.231    1.538    5.538    0.000    0.615 
#    2.769    0.000    0.000    0.000    0.000    0.000 
#    0.000    0.000    0.000    0.000    0.000    0.000 
#
# Total GULP energy -72423.779642 kJ/mol
# GULP energy per Si atom -5571.059972 kJ/mol
# Density = 2.589428 g / cm^3
# Si number density = 25.953353 Si / 1000 Ang^3
#
#
#
# Elastic Constant Matrix: (Units=GPa)
#
#
# Indices 1 2 3 4 5 6 
#
# 1 89.0565 38.7151 48.0929 17.1296 -4.0994 8.0975
# 2 38.7151 112.7221 21.2164 9.1656 -20.9332 23.8731
# 3 48.0929 21.2164 74.5069 20.0781 -16.5192 -1.5381
# 4 17.1296 9.1656 20.0781 52.9670 1.3761 -6.9986
# 5 -4.0994 -20.9332 -16.5192 1.3761 43.3174 8.3926
# 6 8.0975 23.8731 -1.5381 -6.9986 8.3926 34.6962
#
#
#
# Elastic Compliance Matrix: (Units=1/GPa)
#
#
# Indices 1 2 3 4 5 6 
#
# 1 0.020329 -0.005482 -0.012562 -0.000773 -0.005419 -0.000375
# 2 -0.005482 0.015069 0.002176 -0.003525 0.010057 -0.012136
# 3 -0.012562 0.002176 0.024661 -0.006049 0.009659 -0.001029
# 4 -0.000773 -0.003525 -0.006049 0.023340 -0.006494 0.008616
# 5 -0.005419 0.010057 0.009659 -0.006494 0.034191 -0.014807
# 6 -0.000375 -0.012136 -0.001029 0.008616 -0.014807 0.042533
#
#
# Mechanical properties :
#
#
# Convention : Reuss Voigt Hill
#
# Bulk Modulus (GPa) = 35.30587 54.70382 45.00484
# Shear Modulus (GPa) = 24.83875 37.41351 31.12613
#
# Velocity S-wave (km/s) = 3.09698 3.80092 3.46686
# Velocity P-wave (km/s) = 5.14019 6.35501 5.77960
#
# Compressibility (1/GPa) = 0.02832390
#
# Stress axis : x y z
#
# Youngs Moduli (GPa) = 49.19102 66.36181 40.55044
#
# Poissons Ratio (x) = 0.36378 0.50939
# Poissons Ratio (y) = 0.26966 -0.08825
# Poissons Ratio (z) = 0.61793 -0.14443
#
# Static dielectric constant tensor:
#      x y z
#    x 2.106330 0.071510 0.036400 
#    y 0.071510 2.091380 -0.069390 
#    z 0.036400 -0.069390 2.319020 
# 
# From -- ./inp_files/230858.got.cif
#   From: 2010.05.17/outbox.cif.g08.bks.cpg/sg2_116_cif.got.tgz:230858.got - 2010.06.03 11:33:40.
