data_PCOD9029633
_publ_section_title
;
Structure prediction by ZEFSAII (Michael W. Deem and Ramdas Pophale) SiO2 
 PCOD9029633
Probable space group: P -1
;
_chemical_formula_sum "Si O2"
_cell_formula_units_Z 13
_cell_length_a 9.181355
_cell_length_b 15.307636
_cell_length_c 6.647190
_cell_angle_alpha 85.997746
_cell_angle_beta 90.507034
_cell_angle_gamma 139.638260
_cell_volume 602.118486
_symmetry_space_group_name_H-M "P -1"
_symmetry_group_IT_number 2
_symmetry_cell_setting 'triclinic'
loop_
_space_group_symop_operation_xyz
x,y,z
-x,-y,-z
loop_
_atom_site_type_symbol
_atom_site_label
_atom_site_fract_x
_atom_site_fract_y
_atom_site_fract_z
Si Si1 0.096895 0.965176 0.138190
Si Si2 0.508749 0.198553 0.390640
Si Si3 0.952125 0.388687 0.127426
Si Si4 0.620100 0.531540 0.787628
Si Si5 0.289535 0.274168 0.535557
Si Si6 0.500000 0.000000 0.500000
Si Si7 0.255569 0.875120 0.920828
O O1 0.940913 0.863503 0.339885
O O2 0.339174 0.101514 0.214909
O O3 0.114409 0.889732 0.004790
O O4 0.000000 0.000000 0.000000
O O5 0.763545 0.325321 0.299746
O O6 0.421255 0.246028 0.486033
O O7 0.490802 0.101682 0.533984
O O8 0.845956 0.265243 0.001043
O O9 0.178314 0.445670 0.196131
O O10 0.000000 0.500000 0.000000
O O11 0.570849 0.602526 0.326764
O O12 0.720565 0.666103 0.666488
O O13 0.500000 0.500000 0.000000
O O14 0.299050 0.890964 0.681315
O O15 0.500000 0.000000 0.000000
#
# Coordination Sequence:
#
# PCOD9029633 Si02
#       7
#     2   2   2   2   2   1   2
#     4  12  26  43  74 107 145 194 241 305 364 432
#     4  11  25  45  69 107 144 184 248 298 364 431
#     4  11  25  42  75 103 141 190 237 301 361 436
#     4  11  26  50  74 103 146 190 245 300 369 439
#     4  11  27  46  73 105 144 193 243 300 368 435
#     4  10  22  42  68 100 142 178 230 302 346 432
#     4  11  23  45  69 103 143 185 238 297 363 427
#
# _framework density 21.590433999999998
#
# number of rings (size 3 to 8) (size 9 to 14) (size 15 to 20)
#    0.000    0.923    3.077    3.231   10.769    3.077 
#    0.000    0.000    0.000    0.000    0.000    0.000 
#    0.000    0.000    0.000    0.000    0.000    0.000 
#
# Total GULP energy -72401.058401 kJ/mol
# GULP energy per Si atom -5569.312185 kJ/mol
# Density = 2.154129 g / cm^3
# Si number density = 21.590434 Si / 1000 Ang^3
#
#
#
# Elastic Constant Matrix: (Units=GPa)
#
#
# Indices 1 2 3 4 5 6 
#
# 1 146.4962 27.2435 61.2474 -32.0539 -20.7659 -29.1386
# 2 27.2435 70.5523 33.4348 -24.2307 9.2846 -16.5557
# 3 61.2474 33.4348 99.8078 -29.9161 -15.7265 -9.6958
# 4 -32.0539 -24.2307 -29.9161 46.3178 -12.5496 3.4380
# 5 -20.7659 9.2846 -15.7265 -12.5496 40.4486 -0.5599
# 6 -29.1386 -16.5557 -9.6958 3.4380 -0.5599 61.3874
#
#
#
# Elastic Compliance Matrix: (Units=1/GPa)
#
#
# Indices 1 2 3 4 5 6 
#
# 1 0.011888 -0.000273 -0.003339 0.007552 0.007276 0.004686
# 2 -0.000273 0.020339 -0.005547 0.005120 -0.005320 0.004144
# 3 -0.003339 -0.005547 0.018046 0.009029 0.009368 -0.000651
# 4 0.007552 0.005120 0.009029 0.040074 0.018706 0.004318
# 5 0.007276 -0.005320 0.009368 0.018706 0.039164 0.002808
# 6 0.004686 0.004144 -0.000651 0.004318 0.002808 0.019313
#
#
# Mechanical properties :
#
#
# Convention : Reuss Voigt Hill
#
# Bulk Modulus (GPa) = 31.29355 62.30084 46.79719
# Shear Modulus (GPa) = 28.12267 42.62614 35.37440
#
# Velocity S-wave (km/s) = 3.61300 4.44814 4.05214
# Velocity P-wave (km/s) = 5.65073 7.43637 6.60418
#
# Compressibility (1/GPa) = 0.03195547
#
# Stress axis : x y z
#
# Youngs Moduli (GPa) = 84.11588 49.16716 55.41490
#
# Poissons Ratio (x) = 0.01341 0.18502
# Poissons Ratio (y) = 0.02295 0.30739
# Poissons Ratio (z) = 0.28085 0.27273
#
# Static dielectric constant tensor:
#      x y z
#    x 1.710760 0.067400 -0.039320 
#    y 0.067400 1.791790 0.021980 
#    z -0.039320 0.021980 1.805650 
# 
# From -- ./inp_files/38068.got.cif
#   From: 2010.05.17/outbox.cif.g08.bks.cpg/sg2_20_cif.got.tgz:38068.got - 2010.06.03 11:33:40.
