data_PCOD9029610
_publ_section_title
;
Structure prediction by ZEFSAII (Michael W. Deem and Ramdas Pophale) SiO2 
 PCOD9029610
Probable space group: P -1
;
_chemical_formula_sum "Si O2"
_cell_formula_units_Z 11
_cell_length_a 10.206644
_cell_length_b 5.252361
_cell_length_c 9.020281
_cell_angle_alpha 96.770628
_cell_angle_beta 110.781239
_cell_angle_gamma 104.873639
_cell_volume 425.114963
_symmetry_space_group_name_H-M "P -1"
_symmetry_group_IT_number 2
_symmetry_cell_setting 'triclinic'
loop_
_space_group_symop_operation_xyz
x,y,z
-x,-y,-z
loop_
_atom_site_type_symbol
_atom_site_label
_atom_site_fract_x
_atom_site_fract_y
_atom_site_fract_z
Si Si1 0.724450 0.004382 0.581021
Si Si2 0.193774 0.590894 0.937871
Si Si3 0.911274 0.748279 0.846606
Si Si4 0.554161 0.297471 0.405379
Si Si5 0.500000 0.000000 0.000000
Si Si6 0.353715 0.342884 0.774989
O O1 0.836919 0.895104 0.708555
O O2 0.586646 0.962763 0.637576
O O3 0.695938 0.823445 0.407170
O O4 0.712296 0.281516 0.522134
O O5 0.224922 0.370872 0.826740
O O6 0.034607 0.617718 0.836043
O O7 0.191533 0.478131 0.097338
O O8 0.319714 0.870692 0.969918
O O9 0.000000 0.000000 0.000000
O O10 0.500000 0.500000 0.500000
O O11 0.562184 0.353552 0.236903
O O12 0.536634 0.776212 0.106669
#
# Coordination Sequence:
#
# PCOD9029610 Si02
#       6
#     2   2   2   2   1   2
#     4  10  22  42  67  99 139 181 229 284 345 410
#     4  11  26  45  70 102 137 184 232 285 348 411
#     4  11  26  47  69 100 142 186 229 283 351 416
#     4   9  20  37  64 101 135 175 224 282 343 405
#     4  12  24  44  70 102 138 174 228 286 344 410
#     4  11  23  41  68 101 135 177 232 289 341 407
#
# _framework density 25.875351999999999
#
# number of rings (size 3 to 8) (size 9 to 14) (size 15 to 20)
#    0.000    1.455    0.000    3.818    0.000   16.727 
#    0.000    6.364    0.000    0.000    0.000    0.000 
#    0.000    0.000    0.000    0.000    0.000    0.000 
#
# Total GULP energy -61278.884361 kJ/mol
# GULP energy per Si atom -5570.807669 kJ/mol
# Density = 2.581646 g / cm^3
# Si number density = 25.875352 Si / 1000 Ang^3
#
#
#
# Elastic Constant Matrix: (Units=GPa)
#
#
# Indices 1 2 3 4 5 6 
#
# 1 172.9802 43.7973 73.8922 -28.8457 -4.7868 -37.8342
# 2 43.7973 103.2660 25.8820 -38.1903 14.6126 -10.9706
# 3 73.8922 25.8820 183.6232 -51.1423 25.3691 -33.4324
# 4 -28.8457 -38.1903 -51.1423 54.8188 -16.4413 12.2250
# 5 -4.7868 14.6126 25.3691 -16.4413 37.9120 -13.8042
# 6 -37.8342 -10.9706 -33.4324 12.2250 -13.8042 63.6704
#
#
#
# Elastic Compliance Matrix: (Units=1/GPa)
#
#
# Indices 1 2 3 4 5 6 
#
# 1 0.009248 -0.003384 -0.003178 0.000466 0.006458 0.004554
# 2 -0.003384 0.014513 0.002336 0.009589 -0.003768 -0.000942
# 3 -0.003178 0.002336 0.009091 0.007010 -0.003950 0.001086
# 4 0.000466 0.009589 0.007010 0.033503 0.006407 0.000566
# 5 0.006458 -0.003768 -0.003950 0.006407 0.036940 0.007893
# 6 0.004554 -0.000942 0.001086 0.000566 0.007893 0.020423
#
#
# Mechanical properties :
#
#
# Convention : Reuss Voigt Hill
#
# Bulk Modulus (GPa) = 40.98232 83.00136 61.99184
# Shear Modulus (GPa) = 35.63746 52.36677 44.00211
#
# Velocity S-wave (km/s) = 3.71519 4.50356 4.12824
# Velocity P-wave (km/s) = 5.85459 7.69349 6.83615
#
# Compressibility (1/GPa) = 0.02440077
#
# Stress axis : x y z
#
# Youngs Moduli (GPa) = 108.13528 68.90468 109.99603
#
# Poissons Ratio (x) = 0.23314 0.34955
# Poissons Ratio (y) = 0.36588 -0.25694
# Poissons Ratio (z) = 0.34364 -0.16096
#
# Static dielectric constant tensor:
#      x y z
#    x 1.988290 0.115910 0.078030 
#    y 0.115910 2.132400 -0.158360 
#    z 0.078030 -0.158360 1.963050 
# 
# From -- ./inp_files/61408.got.cif
#   From: 2010.05.17/outbox.cif.g08.bks.cpg/sg2_31_cif.got.tgz:61408.got - 2010.06.03 11:33:40.
