data_PCOD9029840
_publ_section_title
;
Structure prediction by ZEFSAII (Michael W. Deem and Ramdas Pophale) SiO2 
 PCOD9029840
Probable space group: P -1
;
_chemical_formula_sum "Si O2"
_cell_formula_units_Z 14
_cell_length_a 12.127954
_cell_length_b 7.639162
_cell_length_c 22.957562
_cell_angle_alpha 127.281542
_cell_angle_beta 23.624089
_cell_angle_gamma 135.379861
_cell_volume 590.501124
_symmetry_space_group_name_H-M "P -1"
_symmetry_group_IT_number 2
_symmetry_cell_setting 'triclinic'
loop_
_space_group_symop_operation_xyz
x,y,z
-x,-y,-z
loop_
_atom_site_type_symbol
_atom_site_label
_atom_site_fract_x
_atom_site_fract_y
_atom_site_fract_z
Si Si1 0.084575 0.778989 0.903954
Si Si2 0.353166 0.971426 0.698826
Si Si3 0.025577 0.425307 0.608364
Si Si4 0.402194 0.286446 0.314673
Si Si5 0.523655 0.480020 0.790905
Si Si6 0.813397 0.777010 0.403363
Si Si7 0.728861 0.800529 0.322720
O O1 0.432666 0.875037 0.781108
O O2 0.124374 0.756957 0.811346
O O3 0.793782 0.554639 0.032955
O O4 0.000000 0.000000 0.000000
O O5 0.456407 0.236033 0.734793
O O6 0.190391 0.984484 0.720504
O O7 0.661238 0.946065 0.532913
O O8 0.107107 0.267929 0.488996
O O9 0.979029 0.273603 0.660228
O O10 0.362051 0.688499 0.497974
O O11 0.765735 0.490047 0.724093
O O12 0.356784 0.302084 0.271490
O O13 0.684335 0.556270 0.258846
O O14 0.500000 0.500000 0.500000
O O15 0.920370 0.847749 0.299043
#
# Coordination Sequence:
#
# PCOD9029840 Si02
#       7
#     2   2   2   2   2   2   2
#     4  10  19  32  46  73 103 137 163 192 240 306
#     4  10  18  31  49  75  99 131 165 200 246 293
#     4   9  18  32  51  76 100 127 163 207 254 276
#     4   9  17  33  51  72  96 133 165 196 246 288
#     4  10  20  31  51  75 107 125 164 203 248 297
#     4  10  17  32  51  72  99 128 170 206 241 289
#     4   8  18  30  55  73  95 128 170 208 237 289
#
# _framework density 23.708676000000001
#
# number of rings (size 3 to 8) (size 9 to 14) (size 15 to 20)
#    0.857    1.714    1.429    1.286    0.000    0.571 
#    0.000    0.000    0.000    8.571    0.000    0.000 
#    0.000    0.000    0.000    0.000    0.000    0.000 
#
# Total GULP energy -78081.948252 kJ/mol
# GULP energy per Si atom -5577.282018 kJ/mol
# Density = 2.365471 g / cm^3
# Si number density = 23.708676 Si / 1000 Ang^3
#
#
#
# Elastic Constant Matrix: (Units=GPa)
#
#
# Indices 1 2 3 4 5 6 
#
# 1 201.3482 32.7743 48.8352 -5.8753 -8.3807 -53.4244
# 2 32.7743 39.5203 15.9812 -0.0619 4.6535 -20.3740
# 3 48.8352 15.9812 97.6263 3.7217 -16.0303 -10.8406
# 4 -5.8753 -0.0619 3.7217 24.5213 -7.8321 2.8905
# 5 -8.3807 4.6535 -16.0303 -7.8321 23.6900 1.2226
# 6 -53.4244 -20.3740 -10.8406 2.8905 1.2226 40.4532
#
#
#
# Elastic Compliance Matrix: (Units=1/GPa)
#
#
# Indices 1 2 3 4 5 6 
#
# 1 0.008543 -0.001013 -0.002859 0.001752 0.001358 0.009840
# 2 -0.001013 0.039716 -0.006300 -0.006213 -0.015400 0.017885
# 3 -0.002859 -0.006300 0.013937 0.000838 0.010118 -0.003580
# 4 0.001752 -0.006213 0.000838 0.047446 0.018327 -0.004535
# 5 0.001358 -0.015400 0.010118 0.018327 0.058951 -0.006342
# 6 0.009840 0.017885 -0.003580 -0.004535 -0.006342 0.046279
#
#
# Mechanical properties :
#
#
# Convention : Reuss Voigt Hill
#
# Bulk Modulus (GPa) = 23.89453 59.29735 41.59594
# Shear Modulus (GPa) = 20.06682 33.79317 26.93000
#
# Velocity S-wave (km/s) = 2.91244 3.77948 3.37392
# Velocity P-wave (km/s) = 4.62709 6.64161 5.72368
#
# Compressibility (1/GPa) = 0.04185058
#
# Stress axis : x y z
#
# Youngs Moduli (GPa) = 117.04874 25.17904 71.75351
#
# Poissons Ratio (x) = 0.02552 0.20513
# Poissons Ratio (y) = 0.11861 0.45207
# Poissons Ratio (z) = 0.33462 0.15864
#
# Static dielectric constant tensor:
#      x y z
#    x 1.981000 0.012060 -0.009520 
#    y 0.012060 2.127640 -0.002780 
#    z -0.009520 -0.002780 1.876550 
# 
# From -- ./inp_files/330647.got.cif
#   From: 2010.05.17/outbox.cif.g08.bks.cpg/sg2_166_cif.got.tgz:330647.got - 2010.06.03 11:33:40.
