data_PCOD9029621
_publ_section_title
;
Structure prediction by ZEFSAII (Michael W. Deem and Ramdas Pophale) SiO2 
 PCOD9029621
Probable space group: P -1
;
_chemical_formula_sum "Si O2"
_cell_formula_units_Z 16
_cell_length_a 12.904418
_cell_length_b 23.268538
_cell_length_c 8.065890
_cell_angle_alpha 60.112183
_cell_angle_beta 147.797692
_cell_angle_gamma 140.688886
_cell_volume 724.655549
_symmetry_space_group_name_H-M "P -1"
_symmetry_group_IT_number 2
_symmetry_cell_setting 'triclinic'
loop_
_space_group_symop_operation_xyz
x,y,z
-x,-y,-z
loop_
_atom_site_type_symbol
_atom_site_label
_atom_site_fract_x
_atom_site_fract_y
_atom_site_fract_z
Si Si1 0.201294 0.208561 0.513875
Si Si2 0.401256 0.467008 0.100161
Si Si3 0.327456 0.604475 0.359519
Si Si4 0.811484 0.316238 0.696047
Si Si5 0.245638 0.951633 0.096571
Si Si6 0.907917 0.690981 0.605021
Si Si7 0.553244 0.868905 0.097253
Si Si8 0.766537 0.901955 0.707295
O O1 0.483485 0.305032 0.647710
O O2 0.170436 0.252118 0.557880
O O3 0.267007 0.147580 0.710170
O O4 0.885842 0.133045 0.094935
O O5 0.488874 0.415043 0.340323
O O6 0.610308 0.573628 0.325027
O O7 0.500000 0.500000 0.000000
O O8 0.052045 0.388654 0.774260
O O9 0.283335 0.639331 0.410308
O O10 0.000000 0.500000 0.000000
O O11 0.513958 0.197366 0.425153
O O12 0.979557 0.316334 0.064809
O O13 0.500000 0.000000 0.500000
O O14 0.954172 0.890343 0.901346
O O15 0.358225 0.044897 0.014133
O O16 0.196036 0.761979 0.771575
O O17 0.648519 0.903938 0.370945
O O18 0.000000 0.000000 0.000000
#
# Coordination Sequence:
#
# PCOD9029621 Si02
#       8
#     2   2   2   2   2   2   2   2
#     4  11  21  41  72  99 131 178 233 282 345 409
#     4  12  27  43  67 105 142 174 229 291 344 411
#     4  12  21  41  73  95 134 182 226 281 343 408
#     4  11  22  43  71  98 133 183 233 273 343 420
#     4  11  25  44  68 100 141 184 227 286 349 411
#     4  11  22  42  72 103 127 182 233 276 347 414
#     4  10  23  46  68 100 142 176 232 286 342 416
#     4  10  22  42  68 100 135 180 229 289 346 400
#
# _framework density 22.079456
#
# number of rings (size 3 to 8) (size 9 to 14) (size 15 to 20)
#    0.000    1.000    6.250    2.625    3.500    3.000 
#    2.250    1.250    0.000    0.000    0.000    0.000 
#    0.000    0.000    0.000    0.000    0.000    0.000 
#
# Total GULP energy -89412.850908 kJ/mol
# GULP energy per Si atom -5588.303182 kJ/mol
# Density = 2.202920 g / cm^3
# Si number density = 22.079456 Si / 1000 Ang^3
#
#
#
# Elastic Constant Matrix: (Units=GPa)
#
#
# Indices 1 2 3 4 5 6 
#
# 1 85.0222 34.9393 33.4951 9.5392 23.4643 -11.3318
# 2 34.9393 114.5650 57.4934 26.9638 -0.3403 -4.5407
# 3 33.4951 57.4934 86.5001 27.6397 9.0688 5.8345
# 4 9.5392 26.9638 27.6397 35.6773 2.2711 9.5374
# 5 23.4643 -0.3403 9.0688 2.2711 30.1376 11.8873
# 6 -11.3318 -4.5407 5.8345 9.5374 11.8873 40.5838
#
#
#
# Elastic Compliance Matrix: (Units=1/GPa)
#
#
# Indices 1 2 3 4 5 6 
#
# 1 0.023206 -0.003950 -0.004287 -0.002134 -0.022029 0.013608
# 2 -0.003950 0.014925 -0.007380 -0.005189 0.005350 0.001280
# 3 -0.004287 -0.007380 0.021340 -0.009038 -0.001487 -0.002531
# 4 -0.002134 -0.005189 -0.009038 0.042226 0.005660 -0.011458
# 5 -0.022029 0.005350 -0.001487 0.005660 0.059973 -0.024235
# 6 0.013608 0.001280 -0.002531 -0.011458 -0.024235 0.038739
#
#
# Mechanical properties :
#
#
# Convention : Reuss Voigt Hill
#
# Bulk Modulus (GPa) = 35.41324 59.77144 47.59234
# Shear Modulus (GPa) = 20.74219 31.95702 26.34961
#
# Velocity S-wave (km/s) = 3.06834 3.80855 3.45831
# Velocity P-wave (km/s) = 5.35040 6.81689 6.12767
#
# Compressibility (1/GPa) = 0.02823802
#
# Stress axis : x y z
#
# Youngs Moduli (GPa) = 43.09157 67.00387 46.85966
#
# Poissons Ratio (x) = 0.26464 0.20091
# Poissons Ratio (y) = 0.17020 0.34580
# Poissons Ratio (z) = 0.18475 0.49446
#
# Static dielectric constant tensor:
#      x y z
#    x 1.821340 0.033380 -0.026810 
#    y 0.033380 1.681060 -0.016780 
#    z -0.026810 -0.016780 1.873870 
# 
# From -- ./inp_files/320285.got.cif
#   From: 2010.05.17/outbox.cif.g08.bks.cpg/sg2_161_cif.got.tgz:320285.got - 2010.06.03 11:33:40.
