data_PCOD9029650
_publ_section_title
;
Structure prediction by ZEFSAII (Michael W. Deem and Ramdas Pophale) SiO2 
 PCOD9029650
Probable space group: P -1
;
_chemical_formula_sum "Si O2"
_cell_formula_units_Z 16
_cell_length_a 13.602127
_cell_length_b 8.583819
_cell_length_c 10.107169
_cell_angle_alpha 99.285529
_cell_angle_beta 148.578285
_cell_angle_gamma 73.926152
_cell_volume 584.522322
_symmetry_space_group_name_H-M "P -1"
_symmetry_group_IT_number 2
_symmetry_cell_setting 'triclinic'
loop_
_space_group_symop_operation_xyz
x,y,z
-x,-y,-z
loop_
_atom_site_type_symbol
_atom_site_label
_atom_site_fract_x
_atom_site_fract_y
_atom_site_fract_z
Si Si1 0.064483 0.073713 0.447708
Si Si2 0.903145 0.685243 0.859122
Si Si3 0.757690 0.260956 0.456097
Si Si4 0.697308 0.261903 0.675832
Si Si5 0.341671 0.233200 0.909194
Si Si6 0.508767 0.701003 0.294473
Si Si7 0.225652 0.601982 0.777255
Si Si8 0.377624 0.089882 0.216258
O O1 0.267912 0.120648 0.706700
O O2 0.912009 0.248339 0.277697
O O3 0.095832 0.917569 0.368644
O O4 0.000000 0.000000 0.500000
O O5 0.740499 0.678355 0.562672
O O6 0.773834 0.803472 0.838034
O O7 0.000000 0.500000 0.000000
O O8 0.077886 0.762420 0.028248
O O9 0.696316 0.339824 0.538340
O O10 0.828055 0.355780 0.431963
O O11 0.568146 0.226205 0.165229
O O12 0.570534 0.354519 0.665602
O O13 0.589292 0.119355 0.501661
O O14 0.220473 0.420543 0.778575
O O15 0.311121 0.171693 0.010953
O O16 0.406104 0.897274 0.205323
O O17 0.438076 0.614393 0.077098
#
# Coordination Sequence:
#
# PCOD9029650 Si02
#       8
#     2   2   2   2   2   2   2   2
#     4  10  22  42  68 101 139 186 235 290 354 431
#     4  11  26  43  73 106 146 193 243 296 362 441
#     4  10  23  45  72 104 138 189 238 296 353 440
#     4  10  24  45  74 100 147 187 242 286 370 415
#     4  11  23  44  71 103 145 191 230 299 367 419
#     4  11  26  49  71 110 147 190 242 301 362 431
#     4  11  25  44  72 105 147 183 237 300 363 424
#     4  10  24  45  71 103 147 188 240 302 354 428
#
# _framework density 27.372776000000002
#
# number of rings (size 3 to 8) (size 9 to 14) (size 15 to 20)
#    0.000    1.500    0.000    4.125   10.500    4.000 
#    4.500    0.000    0.000    0.000    0.000    0.000 
#    0.000    0.000    0.000    0.000    0.000    0.000 
#
# Total GULP energy -89629.358948 kJ/mol
# GULP energy per Si atom -5601.834934 kJ/mol
# Density = 2.731047 g / cm^3
# Si number density = 27.372776 Si / 1000 Ang^3
#
#
#
# Elastic Constant Matrix: (Units=GPa)
#
#
# Indices 1 2 3 4 5 6 
#
# 1 128.7732 58.3030 34.6090 -9.7929 -12.8342 1.0260
# 2 58.3030 191.3324 56.3526 -28.7418 2.8854 -17.2901
# 3 34.6090 56.3526 111.4417 6.4652 8.4644 8.0210
# 4 -9.7929 -28.7418 6.4652 69.0771 4.7163 9.7593
# 5 -12.8342 2.8854 8.4644 4.7163 58.4132 -3.6171
# 6 1.0260 -17.2901 8.0210 9.7593 -3.6171 28.8857
#
#
#
# Elastic Compliance Matrix: (Units=1/GPa)
#
#
# Indices 1 2 3 4 5 6 
#
# 1 0.009674 -0.002452 -0.001894 0.000528 0.002406 -0.001162
# 2 -0.002452 0.007915 -0.003726 0.002617 -0.000295 0.004938
# 3 -0.001894 -0.003726 0.012094 -0.002087 -0.002131 -0.005083
# 4 0.000528 0.002617 -0.002087 0.016427 -0.001259 -0.003581
# 5 0.002406 -0.000295 -0.002131 -0.001259 0.018262 0.003042
# 6 -0.001162 0.004938 -0.005083 -0.003581 0.003042 0.040618
#
#
# Mechanical properties :
#
#
# Convention : Reuss Voigt Hill
#
# Bulk Modulus (GPa) = 73.85769 81.11960 77.48864
# Shear Modulus (GPa) = 39.79401 50.09405 44.94403
#
# Velocity S-wave (km/s) = 3.81698 4.28257 4.05646
# Velocity P-wave (km/s) = 6.81664 7.35890 7.09295
#
# Compressibility (1/GPa) = 0.01353955
#
# Stress axis : x y z
#
# Youngs Moduli (GPa) = 103.36849 126.34690 82.68403
#
# Poissons Ratio (x) = 0.30980 0.15663
# Poissons Ratio (y) = 0.25345 0.30804
# Poissons Ratio (z) = 0.19581 0.47071
#
# Static dielectric constant tensor:
#      x y z
#    x 2.119710 0.026510 0.026780 
#    y 0.026510 2.091800 -0.041240 
#    z 0.026780 -0.041240 2.222600 
# 
# From -- ./inp_files/447405.got.cif
#   From: 2010.05.17/outbox.cif.g08.bks.cpg/sg2_224_cif.got.tgz:447405.got - 2010.06.03 11:33:40.
