data_PCOD9029314
_publ_section_title
;
Structure prediction by ZEFSAII (Michael W. Deem and Ramdas Pophale) SiO2 
 PCOD9029314
Probable space group: P -1
;
_chemical_formula_sum "Si O2"
_cell_formula_units_Z 16
_cell_length_a 22.310191
_cell_length_b 14.662575
_cell_length_c 16.510048
_cell_angle_alpha 30.800690
_cell_angle_beta 19.128536
_cell_angle_gamma 22.643100
_cell_volume 677.720870
_symmetry_space_group_name_H-M "P -1"
_symmetry_group_IT_number 2
_symmetry_cell_setting 'triclinic'
loop_
_space_group_symop_operation_xyz
x,y,z
-x,-y,-z
loop_
_atom_site_type_symbol
_atom_site_label
_atom_site_fract_x
_atom_site_fract_y
_atom_site_fract_z
Si Si1 0.332643 0.652143 0.777879
Si Si2 0.786019 0.174501 0.578495
Si Si3 0.145594 0.132923 0.688437
Si Si4 0.223116 0.110544 0.324600
Si Si5 0.796904 0.302223 0.848220
Si Si6 0.477357 0.809961 0.805920
Si Si7 0.302182 0.379713 0.907791
Si Si8 0.019371 0.317515 0.058977
O O1 0.535074 0.414704 0.752722
O O2 0.371352 0.533260 0.732658
O O3 0.346773 0.852211 0.623426
O O4 0.049046 0.799847 0.046935
O O5 0.863566 0.268964 0.340879
O O6 0.760567 0.008474 0.689179
O O7 0.000000 0.000000 0.500000
O O8 0.284598 0.216099 0.481191
O O9 0.965929 0.246958 0.751473
O O10 0.986090 0.210317 0.601877
O O11 0.471692 0.873574 0.228968
O O12 0.232282 0.307793 0.131738
O O13 0.575091 0.583288 0.907564
O O14 0.665165 0.193958 0.085095
O O15 0.279078 0.059120 0.912657
O O16 0.083865 0.550752 0.995235
O O17 0.000000 0.500000 0.000000
#
# Coordination Sequence:
#
# PCOD9029314 Si02
#       8
#     2   2   2   2   2   2   2   2
#     4  10  24  43  69 101 139 188 239 290 361 419
#     4  11  24  41  66  98 141 184 234 299 349 422
#     4  11  24  45  70 104 140 190 239 294 351 431
#     4  10  22  42  67 101 136 186 239 289 356 420
#     4  11  24  44  72 100 143 188 237 296 354 423
#     4  11  25  43  66 106 138 186 240 286 358 421
#     4  10  23  43  69 100 140 188 235 298 357 423
#     4  12  25  42  67 105 142 187 235 293 362 424
#
# _framework density 23.608540000000001
#
# number of rings (size 3 to 8) (size 9 to 14) (size 15 to 20)
#    0.000    1.250    1.250    3.375    5.250    1.000 
#    0.000   11.250    0.000    0.000    0.000    0.000 
#    0.000    0.000    0.000    0.000    0.000    0.000 
#
# Total GULP energy -89266.617586 kJ/mol
# GULP energy per Si atom -5579.163599 kJ/mol
# Density = 2.355481 g / cm^3
# Si number density = 23.608540 Si / 1000 Ang^3
#
#
#
# Elastic Constant Matrix: (Units=GPa)
#
#
# Indices 1 2 3 4 5 6 
#
# 1 48.0511 26.3078 28.8361 8.1926 -14.2219 -14.0245
# 2 26.3078 148.2880 16.6107 25.5082 -9.7549 -1.6454
# 3 28.8361 16.6107 96.5341 -2.3185 -25.6698 -2.9558
# 4 8.1926 25.5082 -2.3185 40.4012 3.0168 -12.0498
# 5 -14.2219 -9.7549 -25.6698 3.0168 28.2641 -4.5640
# 6 -14.0245 -1.6454 -2.9558 -12.0498 -4.5640 16.1622
#
#
#
# Elastic Compliance Matrix: (Units=1/GPa)
#
#
# Indices 1 2 3 4 5 6 
#
# 1 0.050864 -0.007683 -0.004776 0.009244 0.026812 0.056944
# 2 -0.007683 0.009209 -0.000446 -0.007762 -0.002239 -0.012231
# 3 -0.004776 -0.000446 0.015071 0.002311 0.011453 0.003523
# 4 0.009244 -0.007762 0.002311 0.038903 0.006117 0.038385
# 5 0.026812 -0.002239 0.011453 0.006117 0.065636 0.048228
# 6 0.056944 -0.012231 0.003523 0.038385 0.048228 0.152922
#
#
# Mechanical properties :
#
#
# Convention : Reuss Voigt Hill
#
# Bulk Modulus (GPa) = 20.27023 48.48695 34.37859
# Shear Modulus (GPa) = 13.33833 31.70675 22.52254
#
# Velocity S-wave (km/s) = 2.37951 3.66870 3.09204
# Velocity P-wave (km/s) = 4.01921 6.20712 5.22888
#
# Compressibility (1/GPa) = 0.04933344
#
# Stress axis : x y z
#
# Youngs Moduli (GPa) = 19.66038 108.59002 66.35074
#
# Poissons Ratio (x) = 0.83433 0.31691
# Poissons Ratio (y) = 0.15106 0.02958
# Poissons Ratio (z) = 0.09390 0.04841
#
# Static dielectric constant tensor:
#      x y z
#    x 1.923030 -0.041420 -0.025930 
#    y -0.041420 1.821370 0.052670 
#    z -0.025930 0.052670 1.948700 
# 
# From -- ./inp_files/579303.got.cif
#   From: 2010.05.17/outbox.cif.g08.bks.cpg/sg2_290_cif.got.tgz:579303.got - 2010.06.03 11:33:40.
