data_PCOD9029156
_publ_section_title
;
Structure prediction by ZEFSAII (Michael W. Deem and Ramdas Pophale) SiO2 
 PCOD9029156
Probable space group: P -1
;
_chemical_formula_sum "Si O2"
_cell_formula_units_Z 14
_cell_length_a 14.840202
_cell_length_b 15.779153
_cell_length_c 24.193536
_cell_angle_alpha 161.019770
_cell_angle_beta 160.959275
_cell_angle_gamma 27.534119
_cell_volume 599.758719
_symmetry_space_group_name_H-M "P -1"
_symmetry_group_IT_number 2
_symmetry_cell_setting 'triclinic'
loop_
_space_group_symop_operation_xyz
x,y,z
-x,-y,-z
loop_
_atom_site_type_symbol
_atom_site_label
_atom_site_fract_x
_atom_site_fract_y
_atom_site_fract_z
Si Si1 0.966481 0.293420 0.760078
Si Si2 0.929238 0.263684 0.516855
Si Si3 0.926689 0.760898 0.544195
Si Si4 0.932263 0.157082 0.002563
Si Si5 0.386808 0.598064 0.778060
Si Si6 0.661900 0.688822 0.753905
Si Si7 0.554363 0.153149 0.529237
O O1 0.866597 0.511016 0.795686
O O2 0.769701 0.302229 0.704656
O O3 0.938229 0.990276 0.537119
O O4 0.288835 0.336981 0.987955
O O5 0.596385 0.226059 0.307895
O O6 0.996149 0.268175 0.493142
O O7 0.041403 0.535980 0.777170
O O8 0.749597 0.511104 0.311952
O O9 0.197450 0.801615 0.764518
O O10 0.735735 0.003696 0.585749
O O11 0.154388 0.112696 0.055394
O O12 0.635653 0.055863 0.744674
O O13 0.000000 0.000000 0.000000
O O14 0.366197 0.352939 0.572684
O O15 0.500000 0.500000 0.500000
#
# Coordination Sequence:
#
# PCOD9029156 Si02
#       7
#     2   2   2   2   2   2   2
#     4  11  24  40  65  97 128 170 211 261 323 376
#     4  10  24  43  65  96 131 164 214 265 317 381
#     4  10  23  40  63  94 125 170 213 261 319 369
#     4  11  23  42  69  95 127 170 211 263 322 378
#     4  11  23  41  63  92 130 167 215 261 311 381
#     4  10  22  42  66  94 130 169 209 260 321 381
#     4  11  23  41  64  92 129 170 213 260 315 377
#
# _framework density 23.34272
#
# number of rings (size 3 to 8) (size 9 to 14) (size 15 to 20)
#    0.000    1.429    0.000    5.143    0.000   11.429 
#    0.000    2.857    0.000    0.000    0.000    0.000 
#    0.000    0.000    0.000    0.000    0.000    0.000 
#
# Total GULP energy -78332.825995 kJ/mol
# GULP energy per Si atom -5595.201857 kJ/mol
# Density = 2.328959 g / cm^3
# Si number density = 23.342720 Si / 1000 Ang^3
#
#
#
# Elastic Constant Matrix: (Units=GPa)
#
#
# Indices 1 2 3 4 5 6 
#
# 1 109.2393 35.0150 39.6307 0.9056 37.3091 -2.2723
# 2 35.0150 132.2829 18.2001 -7.9678 5.5006 11.9993
# 3 39.6307 18.2001 90.9622 -15.6987 13.8988 -3.0161
# 4 0.9056 -7.9678 -15.6987 40.4801 -12.0946 -1.2354
# 5 37.3091 5.5006 13.8988 -12.0946 37.0535 -0.0371
# 6 -2.2723 11.9993 -3.0161 -1.2354 -0.0371 34.8374
#
#
#
# Elastic Compliance Matrix: (Units=1/GPa)
#
#
# Indices 1 2 3 4 5 6 
#
# 1 0.019796 -0.004289 -0.006306 -0.009678 -0.020088 0.001858
# 2 -0.004289 0.009024 -0.000154 0.002901 0.003980 -0.003294
# 3 -0.006306 -0.000154 0.014488 0.006698 0.003125 0.001137
# 4 -0.009678 0.002901 0.006698 0.033381 0.017697 0.000152
# 5 -0.020088 0.003980 0.003125 0.017697 0.051226 -0.001728
# 6 0.001858 -0.003294 0.001137 0.000152 -0.001728 0.030063
#
#
# Mechanical properties :
#
#
# Convention : Reuss Voigt Hill
#
# Bulk Modulus (GPa) = 45.84781 57.57509 51.71145
# Shear Modulus (GPa) = 26.77464 38.45010 32.61237
#
# Velocity S-wave (km/s) = 3.39045 4.06297 3.74185
# Velocity P-wave (km/s) = 5.91698 6.83586 6.39295
#
# Compressibility (1/GPa) = 0.02181129
#
# Stress axis : x y z
#
# Youngs Moduli (GPa) = 50.51507 110.81646 69.02328
#
# Poissons Ratio (x) = 0.47524 0.43526
# Poissons Ratio (y) = 0.21663 0.01061
# Poissons Ratio (z) = 0.31855 0.01704
#
# Static dielectric constant tensor:
#      x y z
#    x 1.748520 -0.119790 -0.191150 
#    y -0.119790 1.798090 -0.104190 
#    z -0.191150 -0.104190 1.630220 
# 
# From -- ./inp_files/427077.got.cif
#   From: 2010.05.17/outbox.cif.g08.bks.cpg/sg2_214_cif.got.tgz:427077.got - 2010.06.03 11:33:40.
