data_PCOD9029974
_publ_section_title
;
Structure prediction by ZEFSAII (Michael W. Deem and Ramdas Pophale) SiO2 
 PCOD9029974
Probable space group: P -1
;
_chemical_formula_sum "Si O2"
_cell_formula_units_Z 14
_cell_length_a 17.761982
_cell_length_b 9.644573
_cell_length_c 7.683925
_cell_angle_alpha 131.609678
_cell_angle_beta 59.285237
_cell_angle_gamma 144.087594
_cell_volume 576.171438
_symmetry_space_group_name_H-M "P -1"
_symmetry_group_IT_number 2
_symmetry_cell_setting 'triclinic'
loop_
_space_group_symop_operation_xyz
x,y,z
-x,-y,-z
loop_
_atom_site_type_symbol
_atom_site_label
_atom_site_fract_x
_atom_site_fract_y
_atom_site_fract_z
Si Si1 0.325830 0.855479 0.756554
Si Si2 0.876725 0.729595 0.519762
Si Si3 0.185499 0.237543 0.010246
Si Si4 0.690949 0.906412 0.728009
Si Si5 0.532081 0.433207 0.075690
Si Si6 0.924983 0.188123 0.478401
Si Si7 0.750548 0.241743 0.634047
O O1 0.257907 0.555530 0.634576
O O2 0.309990 0.859499 0.571312
O O3 0.474183 0.134991 0.862954
O O4 0.260438 0.909176 0.002757
O O5 0.841490 0.804491 0.787292
O O6 0.940474 0.635007 0.439541
O O7 0.000000 0.000000 0.500000
O O8 0.316992 0.335017 0.888120
O O9 0.212226 0.491481 0.143996
O O10 0.079771 0.972620 0.800070
O O11 0.807011 0.962784 0.565955
O O12 0.665709 0.018361 0.699840
O O13 0.556049 0.618464 0.712015
O O14 0.500000 0.500000 0.000000
O O15 0.877948 0.311109 0.562277
#
# Coordination Sequence:
#
# PCOD9029974 Si02
#       7
#     2   2   2   2   2   2   2
#     4   9  21  44  64  99 135 175 227 278 337 396
#     4  11  26  41  69 101 133 185 228 281 341 408
#     4  11  24  42  69 102 133 182 229 279 348 398
#     4   8  22  42  65  99 131 182 219 271 351 388
#     4  10  22  42  69 102 138 175 228 283 338 411
#     4  10  23  43  65 100 136 177 228 280 337 407
#     4   9  21  42  66  95 137 177 222 278 339 396
#
# _framework density 24.298324000000001
#
# number of rings (size 3 to 8) (size 9 to 14) (size 15 to 20)
#    1.714    0.571    0.000    1.286    4.000    6.286 
#    0.000    1.429    0.000    0.000    0.000    0.000 
#    0.000    0.000    0.000    0.000    0.000    0.000 
#
# Total GULP energy -78054.482096 kJ/mol
# GULP energy per Si atom -5575.320150 kJ/mol
# Density = 2.424302 g / cm^3
# Si number density = 24.298324 Si / 1000 Ang^3
#
#
#
# Elastic Constant Matrix: (Units=GPa)
#
#
# Indices 1 2 3 4 5 6 
#
# 1 32.4314 0.5958 -0.8854 1.8856 -3.5984 2.9423
# 2 0.5958 124.7971 6.3231 -14.3155 8.4647 -0.4886
# 3 -0.8854 6.3231 92.7388 -1.6446 2.0363 0.5777
# 4 1.8856 -14.3155 -1.6446 47.5865 6.3238 -3.0477
# 5 -3.5984 8.4647 2.0363 6.3238 27.0899 2.2955
# 6 2.9423 -0.4886 0.5777 -3.0477 2.2955 33.0723
#
#
#
# Elastic Compliance Matrix: (Units=1/GPa)
#
#
# Indices 1 2 3 4 5 6 
#
# 1 0.031902 -0.000818 0.000222 -0.002433 0.005337 -0.003449
# 2 -0.000818 0.008646 -0.000468 0.003140 -0.003571 0.000746
# 3 0.000222 -0.000468 0.010839 0.000309 -0.000699 -0.000139
# 4 -0.002433 0.003140 0.000309 0.023178 -0.006982 0.002878
# 5 0.005337 -0.003571 -0.000699 -0.006982 0.040759 -0.003988
# 6 -0.003449 0.000746 -0.000139 0.002878 -0.003988 0.031099
#
#
# Mechanical properties :
#
#
# Convention : Reuss Voigt Hill
#
# Bulk Modulus (GPa) = 20.30139 29.11492 24.70815
# Shear Modulus (GPa) = 30.30840 37.81200 34.06020
#
# Velocity S-wave (km/s) = 3.53561 3.94909 3.74806
# Velocity P-wave (km/s) = 5.00406 5.72731 5.37786
#
# Compressibility (1/GPa) = 0.04925771
#
# Stress axis : x y z
#
# Youngs Moduli (GPa) = 31.34610 115.66179 92.26201
#
# Poissons Ratio (x) = 0.09462 -0.02044
# Poissons Ratio (y) = 0.02564 0.04317
# Poissons Ratio (z) = -0.00694 0.05411
#
# Static dielectric constant tensor:
#      x y z
#    x 2.000940 -0.016680 0.017780 
#    y -0.016680 2.044170 -0.007010 
#    z 0.017780 -0.007010 1.899090 
# 
# From -- ./inp_files/353248.got.cif
#   From: 2010.05.17/outbox.cif.g08.bks.cpg/sg2_177_cif.got.tgz:353248.got - 2010.06.03 11:33:40.
