data_PCOD9029831
_publ_section_title
;
Structure prediction by ZEFSAII (Michael W. Deem and Ramdas Pophale) SiO2 
 PCOD9029831
Probable space group: P -1
;
_chemical_formula_sum "Si O2"
_cell_formula_units_Z 16
_cell_length_a 16.162718
_cell_length_b 8.043506
_cell_length_c 9.730195
_cell_angle_alpha 110.887981
_cell_angle_beta 142.836239
_cell_angle_gamma 70.211558
_cell_volume 710.616793
_symmetry_space_group_name_H-M "P -1"
_symmetry_group_IT_number 2
_symmetry_cell_setting 'triclinic'
loop_
_space_group_symop_operation_xyz
x,y,z
-x,-y,-z
loop_
_atom_site_type_symbol
_atom_site_label
_atom_site_fract_x
_atom_site_fract_y
_atom_site_fract_z
Si Si1 0.682091 0.786856 0.736858
Si Si2 0.332320 0.524707 0.850034
Si Si3 0.816142 0.877489 0.205856
Si Si4 0.411073 0.514625 0.654983
Si Si5 0.093027 0.767329 0.673794
Si Si6 0.876414 0.077831 0.958479
Si Si7 0.392564 0.820591 0.498887
Si Si8 0.372048 0.104238 0.783075
O O1 0.679619 0.620582 0.582130
O O2 0.782846 0.923766 0.845390
O O3 0.518761 0.836780 0.566774
O O4 0.740493 0.761446 0.962264
O O5 0.341019 0.595519 0.726360
O O6 0.181889 0.579160 0.724359
O O7 0.374707 0.314288 0.828551
O O8 0.444053 0.581538 0.124314
O O9 0.751315 0.902994 0.276686
O O10 0.969534 0.791408 0.410298
O O11 0.811236 0.077431 0.197609
O O12 0.435697 0.666016 0.621351
O O13 0.056611 0.822962 0.797251
O O14 0.755008 0.211457 0.769728
O O15 0.000000 0.000000 0.000000
O O16 0.363374 0.003800 0.599233
O O17 0.500000 0.000000 0.000000
#
# Coordination Sequence:
#
# PCOD9029831 Si02
#       8
#     2   2   2   2   2   2   2   2
#     4  11  23  42  68 100 133 176 231 284 339 406
#     4  11  24  41  64 101 136 177 223 285 340 398
#     4  10  22  42  68  96 131 177 223 270 345 407
#     4  11  24  40  65 101 139 174 228 284 346 391
#     4  10  23  43  67  95 136 179 222 272 339 417
#     4  11  25  44  68  99 138 180 226 278 343 413
#     4  12  23  42  69  98 136 179 227 288 339 404
#     4  12  22  40  66 100 132 172 227 280 338 400
#
# _framework density 22.515653
#
# number of rings (size 3 to 8) (size 9 to 14) (size 15 to 20)
#    0.000    1.000    2.500    3.750    1.750    4.500 
#    0.000    3.750    0.000    0.000    0.000    0.000 
#    0.000    0.000    0.000    0.000    0.000    0.000 
#
# Total GULP energy -89339.397872 kJ/mol
# GULP energy per Si atom -5583.712367 kJ/mol
# Density = 2.246441 g / cm^3
# Si number density = 22.515653 Si / 1000 Ang^3
#
#
#
# Elastic Constant Matrix: (Units=GPa)
#
#
# Indices 1 2 3 4 5 6 
#
# 1 117.4918 25.6043 10.5348 -6.4378 0.7792 -6.2556
# 2 25.6043 73.2314 32.5900 -3.9789 -5.1524 -3.8412
# 3 10.5348 32.5900 108.2227 3.4644 -9.9854 -13.4508
# 4 -6.4378 -3.9789 3.4644 26.8696 -7.1342 -5.2354
# 5 0.7792 -5.1524 -9.9854 -7.1342 26.7346 1.3181
# 6 -6.2556 -3.8412 -13.4508 -5.2354 1.3181 29.1622
#
#
#
# Elastic Compliance Matrix: (Units=1/GPa)
#
#
# Indices 1 2 3 4 5 6 
#
# 1 0.009414 -0.003185 0.000202 0.002066 -0.000364 0.002080
# 2 -0.003185 0.017217 -0.004769 0.003014 0.002443 -0.000184
# 3 0.000202 -0.004769 0.011511 -0.000460 0.003030 0.004505
# 4 0.002066 0.003014 -0.000460 0.042755 0.011374 0.007790
# 5 -0.000364 0.002443 0.003030 0.011374 0.041965 0.001786
# 6 0.002080 -0.000184 0.004505 0.007790 0.001786 0.038108
#
#
# Mechanical properties :
#
#
# Convention : Reuss Voigt Hill
#
# Bulk Modulus (GPa) = 44.17538 48.48933 46.33235
# Shear Modulus (GPa) = 27.17089 31.90108 29.53599
#
# Velocity S-wave (km/s) = 3.47761 3.76818 3.62580
# Velocity P-wave (km/s) = 5.98226 6.36512 6.17666
#
# Compressibility (1/GPa) = 0.02263704
#
# Stress axis : x y z
#
# Youngs Moduli (GPa) = 106.22805 58.08137 86.87538
#
# Poissons Ratio (x) = 0.18501 -0.01752
# Poissons Ratio (y) = 0.33837 0.41428
# Poissons Ratio (z) = -0.02142 0.27697
#
# Static dielectric constant tensor:
#      x y z
#    x 1.970310 0.043490 -0.032900 
#    y 0.043490 1.878870 -0.012970 
#    z -0.032900 -0.012970 1.893720 
# 
# From -- ./inp_files/299390.got.cif
#   From: 2010.05.17/outbox.cif.g08.bks.cpg/sg2_150_cif.got.tgz:299390.got - 2010.06.03 11:33:40.
