data_PCOD9029706
_publ_section_title
;
Structure prediction by ZEFSAII (Michael W. Deem and Ramdas Pophale) SiO2 
 PCOD9029706
Probable space group: P -1
;
_chemical_formula_sum "Si O2"
_cell_formula_units_Z 16
_cell_length_a 13.171414
_cell_length_b 11.024346
_cell_length_c 6.504890
_cell_angle_alpha 82.880694
_cell_angle_beta 47.791088
_cell_angle_gamma 84.676232
_cell_volume 694.176471
_symmetry_space_group_name_H-M "P -1"
_symmetry_group_IT_number 2
_symmetry_cell_setting 'triclinic'
loop_
_space_group_symop_operation_xyz
x,y,z
-x,-y,-z
loop_
_atom_site_type_symbol
_atom_site_label
_atom_site_fract_x
_atom_site_fract_y
_atom_site_fract_z
Si Si1 0.101143 0.381901 0.388754
Si Si2 0.343692 0.368115 0.387806
Si Si3 0.947121 0.864793 0.652276
Si Si4 0.763784 0.482056 0.149075
Si Si5 0.154399 0.728327 0.668724
Si Si6 0.349627 0.681080 0.032615
Si Si7 0.332089 0.141628 0.746449
Si Si8 0.632483 0.130818 0.373767
O O1 0.222270 0.390531 0.387114
O O2 0.035879 0.246911 0.512249
O O3 0.000000 0.500000 0.500000
O O4 0.169145 0.399914 0.067915
O O5 0.339322 0.474412 0.543198
O O6 0.497266 0.353761 0.094928
O O7 0.311212 0.245280 0.583051
O O8 0.028951 0.811176 0.748315
O O9 0.787902 0.871915 0.924143
O O10 0.000000 0.000000 0.500000
O O11 0.872707 0.390534 0.129862
O O12 0.693278 0.409773 0.074222
O O13 0.256942 0.808883 0.645094
O O14 0.237989 0.685420 0.361768
O O15 0.354144 0.812097 0.884857
O O16 0.479020 0.165619 0.646073
O O17 0.348247 0.013062 0.634759
#
# Coordination Sequence:
#
# PCOD9029706 Si02
#       8
#     2   2   2   2   2   2   2   2
#     4  12  28  45  68 102 147 187 239 292 349 424
#     4  11  24  41  71 101 135 189 232 288 348 417
#     4  12  27  46  70 105 143 184 242 297 348 427
#     4  11  23  44  68 100 142 182 229 290 350 421
#     4  11  25  43  72 101 141 189 220 289 362 410
#     4  10  22  42  68 107 140 174 236 286 352 421
#     4  10  22  45  68 101 138 179 237 286 351 421
#     4   9  22  44  70  99 141 181 226 295 348 418
#
# _framework density 23.048893
#
# number of rings (size 3 to 8) (size 9 to 14) (size 15 to 20)
#    0.000    1.250    1.250    3.375    5.250    5.500 
#    0.000    2.500    0.000    0.000    0.000    0.000 
#    0.000    0.000    0.000    0.000    0.000    0.000 
#
# Total GULP energy -89502.560498 kJ/mol
# GULP energy per Si atom -5593.910031 kJ/mol
# Density = 2.299643 g / cm^3
# Si number density = 23.048893 Si / 1000 Ang^3
#
#
#
# Elastic Constant Matrix: (Units=GPa)
#
#
# Indices 1 2 3 4 5 6 
#
# 1 91.4255 24.3323 -16.5400 12.3011 8.8251 -5.3929
# 2 24.3323 125.4574 11.4230 -18.1050 7.2786 -9.4856
# 3 -16.5400 11.4230 36.3144 2.4367 -3.5240 -0.5281
# 4 12.3011 -18.1050 2.4367 30.3853 1.4168 -5.4325
# 5 8.8251 7.2786 -3.5240 1.4168 23.0993 1.0034
# 6 -5.3929 -9.4856 -0.5281 -5.4325 1.0034 29.9263
#
#
#
# Elastic Compliance Matrix: (Units=1/GPa)
#
#
# Indices 1 2 3 4 5 6 
#
# 1 0.015532 -0.005208 0.009165 -0.010101 -0.002256 -0.000448
# 2 -0.005208 0.011733 -0.007064 0.010679 -0.003645 0.004717
# 3 0.009165 -0.007064 0.035137 -0.011357 0.004877 -0.002193
# 4 -0.010101 0.010679 -0.011357 0.046256 -0.004506 0.009912
# 5 -0.002256 -0.003645 0.004877 -0.004506 0.046490 -0.003853
# 6 -0.000448 0.004717 -0.002193 0.009912 -0.003853 0.036720
#
#
# Mechanical properties :
#
#
# Convention : Reuss Voigt Hill
#
# Bulk Modulus (GPa) = 17.79726 32.40310 25.10018
# Shear Modulus (GPa) = 23.06147 32.28098 27.67123
#
# Velocity S-wave (km/s) = 3.16657 3.74644 3.46865
# Velocity P-wave (km/s) = 4.59433 5.72742 5.19188
#
# Compressibility (1/GPa) = 0.05618843
#
# Stress axis : x y z
#
# Youngs Moduli (GPa) = 64.38214 85.22742 28.45993
#
# Poissons Ratio (x) = 0.44383 -0.26083
# Poissons Ratio (y) = 0.33527 0.20105
# Poissons Ratio (z) = -0.59005 0.60208
#
# Static dielectric constant tensor:
#      x y z
#    x 1.856260 -0.002710 -0.038080 
#    y -0.002710 1.895010 0.010880 
#    z -0.038080 0.010880 1.914930 
# 
# From -- ./inp_files/69589.got.cif
#   From: 2010.05.17/outbox.cif.g08.bks.cpg/sg2_35_cif.got.tgz:69589.got - 2010.06.03 11:33:40.
