data_PCOD9029473
_publ_section_title
;
Structure prediction by ZEFSAII (Michael W. Deem and Ramdas Pophale) SiO2 
 PCOD9029473
Probable space group: P -1
;
_chemical_formula_sum "Si O2"
_cell_formula_units_Z 14
_cell_length_a 7.962759
_cell_length_b 12.548075
_cell_length_c 11.452110
_cell_angle_alpha 65.736652
_cell_angle_beta 143.513460
_cell_angle_gamma 115.359501
_cell_volume 610.113285
_symmetry_space_group_name_H-M "P -1"
_symmetry_group_IT_number 2
_symmetry_cell_setting 'triclinic'
loop_
_space_group_symop_operation_xyz
x,y,z
-x,-y,-z
loop_
_atom_site_type_symbol
_atom_site_label
_atom_site_fract_x
_atom_site_fract_y
_atom_site_fract_z
Si Si1 0.815873 0.595407 0.819884
Si Si2 0.280206 0.441137 0.686484
Si Si3 0.947587 0.832343 0.906797
Si Si4 0.880561 0.696449 0.570381
Si Si5 0.440536 0.265833 0.046477
Si Si6 0.855793 0.940413 0.583825
Si Si7 0.474921 0.982554 0.829203
O O1 0.527706 0.553735 0.748803
O O2 0.990522 0.721542 0.901375
O O3 0.767325 0.604143 0.651593
O O4 0.000000 0.500000 0.000000
O O5 0.265110 0.347839 0.612541
O O6 0.000000 0.500000 0.500000
O O7 0.337665 0.368745 0.866852
O O8 0.768034 0.777320 0.942195
O O9 0.780817 0.904655 0.690528
O O10 0.249293 0.914600 0.066910
O O11 0.827464 0.822326 0.537524
O O12 0.222444 0.697285 0.749933
O O13 0.436585 0.141812 0.031882
O O14 0.196358 0.994689 0.745126
O O15 0.663847 0.022590 0.376544
#
# Coordination Sequence:
#
# PCOD9029473 Si02
#       7
#     2   2   2   2   2   2   2
#     4  11  24  44  70  97 129 177 228 272 325 392
#     4  12  27  44  68  98 136 179 224 273 332 392
#     4  11  24  40  67  95 136 171 214 278 332 389
#     4  10  23  43  68  95 132 173 223 277 328 390
#     4  11  25  43  64 101 134 177 218 272 336 397
#     4   9  22  41  66 102 124 167 226 272 327 397
#     4  10  22  42  67  95 133 171 219 271 332 395
#
# _framework density 22.946558
#
# number of rings (size 3 to 8) (size 9 to 14) (size 15 to 20)
#    0.000    1.429    1.429    2.143    4.000    8.571 
#    0.000    0.000    0.000    0.000    0.000    0.000 
#    0.000    0.000    0.000    0.000    0.000    0.000 
#
# Total GULP energy -78236.419545 kJ/mol
# GULP energy per Si atom -5588.315682 kJ/mol
# Density = 2.289433 g / cm^3
# Si number density = 22.946558 Si / 1000 Ang^3
#
#
#
# Elastic Constant Matrix: (Units=GPa)
#
#
# Indices 1 2 3 4 5 6 
#
# 1 78.6699 21.5465 22.2498 -5.6490 -17.7296 28.4751
# 2 21.5465 85.9238 29.9914 6.2183 0.1056 24.2293
# 3 22.2498 29.9914 59.3887 -17.1449 -7.5132 8.2517
# 4 -5.6490 6.2183 -17.1449 44.4297 7.5805 -8.8388
# 5 -17.7296 0.1056 -7.5132 7.5805 39.9231 -8.1447
# 6 28.4751 24.2293 8.2517 -8.8388 -8.1447 40.4977
#
#
#
# Elastic Compliance Matrix: (Units=1/GPa)
#
#
# Indices 1 2 3 4 5 6 
#
# 1 0.020030 0.001314 -0.006722 -0.003822 0.005660 -0.013196
# 2 0.001314 0.019639 -0.011597 -0.009177 -0.002524 -0.012822
# 3 -0.006722 -0.011597 0.027930 0.013082 0.001688 0.009169
# 4 -0.003822 -0.009177 0.013082 0.031160 -0.002728 0.011764
# 5 0.005660 -0.002524 0.001688 -0.002728 0.028894 0.002402
# 6 -0.013196 -0.012822 0.009169 0.011764 0.002402 0.042825
#
#
# Mechanical properties :
#
#
# Convention : Reuss Voigt Hill
#
# Bulk Modulus (GPa) = 29.77146 41.28420 35.52783
# Shear Modulus (GPa) = 23.18203 34.98311 29.08257
#
# Velocity S-wave (km/s) = 3.18191 3.90878 3.56392
# Velocity P-wave (km/s) = 5.14799 6.19693 5.69666
#
# Compressibility (1/GPa) = 0.03358922
#
# Stress axis : x y z
#
# Youngs Moduli (GPa) = 49.92479 50.91795 35.80443
#
# Poissons Ratio (x) = -0.06691 0.24066
# Poissons Ratio (y) = -0.06561 0.41524
# Poissons Ratio (z) = 0.33557 0.59052
#
# Static dielectric constant tensor:
#      x y z
#    x 1.858920 -0.042010 -0.051540 
#    y -0.042010 1.863630 -0.018930 
#    z -0.051540 -0.018930 1.835990 
# 
# From -- ./inp_files/138498.got.cif
#   From: 2010.05.17/outbox.cif.g08.bks.cpg/sg2_70_cif.got.tgz:138498.got - 2010.06.03 11:33:40.
