data_PCOD9029884
_publ_section_title
;
Structure prediction by ZEFSAII (Michael W. Deem and Ramdas Pophale) SiO2 
 PCOD9029884
Probable space group: P -1
;
_chemical_formula_sum "Si O2"
_cell_formula_units_Z 16
_cell_length_a 8.265567
_cell_length_b 8.855165
_cell_length_c 20.849507
_cell_angle_alpha 48.614886
_cell_angle_beta 135.847641
_cell_angle_gamma 112.343924
_cell_volume 784.486463
_symmetry_space_group_name_H-M "P -1"
_symmetry_group_IT_number 2
_symmetry_cell_setting 'triclinic'
loop_
_space_group_symop_operation_xyz
x,y,z
-x,-y,-z
loop_
_atom_site_type_symbol
_atom_site_label
_atom_site_fract_x
_atom_site_fract_y
_atom_site_fract_z
Si Si1 0.912227 0.186153 0.969724
Si Si2 0.549512 0.295202 0.612705
Si Si3 0.366904 0.216278 0.836830
Si Si4 0.403298 0.560760 0.849540
Si Si5 0.121988 0.577202 0.897247
Si Si6 0.208969 0.311587 0.622580
Si Si7 0.996543 0.965771 0.826510
Si Si8 0.218396 0.990525 0.612761
O O1 0.640254 0.186044 0.905705
O O2 0.966153 0.400612 0.900218
O O3 0.042955 0.135937 0.088552
O O4 0.000000 0.000000 0.000000
O O5 0.500000 0.500000 0.500000
O O6 0.447687 0.339654 0.643830
O O7 0.395581 0.126334 0.594019
O O8 0.816820 0.179990 0.714287
O O9 0.327420 0.383410 0.834643
O O10 0.243864 0.284926 0.715076
O O11 0.258757 0.019217 0.881350
O O12 0.249008 0.592403 0.861423
O O13 0.352429 0.766647 0.734623
O O14 0.671886 0.490905 0.971146
O O15 0.978466 0.797238 0.815282
O O16 0.000000 0.500000 0.500000
O O17 0.144759 0.113193 0.623895
O O18 0.000000 0.000000 0.500000
#
# Coordination Sequence:
#
# PCOD9029884 Si02
#       8
#     2   2   2   2   2   2   2   2
#     4  12  26  41  65 104 138 181 228 283 346 414
#     4  10  24  42  70 100 136 180 226 287 343 406
#     4  12  25  41  70  97 136 184 232 275 350 412
#     4  11  24  43  71 100 138 184 231 286 350 415
#     4  11  26  44  69 101 145 177 234 287 350 410
#     4  10  22  42  68  98 131 176 226 281 339 405
#     4  12  24  44  68  97 142 183 227 284 349 411
#     4  10  23  43  72  98 135 177 230 282 349 404
#
# _framework density 20.395506999999998
#
# number of rings (size 3 to 8) (size 9 to 14) (size 15 to 20)
#    0.750    0.250    1.250    5.250    8.750    0.000 
#    0.000    0.000    0.000    3.000    0.000    0.000 
#    0.000    0.000    0.000    0.000    0.000    0.000 
#
# Total GULP energy -89352.465425 kJ/mol
# GULP energy per Si atom -5584.529089 kJ/mol
# Density = 2.034909 g / cm^3
# Si number density = 20.395507 Si / 1000 Ang^3
#
#
#
# Elastic Constant Matrix: (Units=GPa)
#
#
# Indices 1 2 3 4 5 6 
#
# 1 80.6049 36.0160 20.5169 -5.1248 -2.1025 -6.7529
# 2 36.0160 114.5902 16.4775 -9.9705 -3.1810 -1.7335
# 3 20.5169 16.4775 88.2934 -5.9918 -7.3873 -1.0573
# 4 -5.1248 -9.9705 -5.9918 39.7598 -4.6387 -5.5089
# 5 -2.1025 -3.1810 -7.3873 -4.6387 34.9822 -2.1880
# 6 -6.7529 -1.7335 -1.0573 -5.5089 -2.1880 51.3944
#
#
#
# Elastic Compliance Matrix: (Units=1/GPa)
#
#
# Indices 1 2 3 4 5 6 
#
# 1 0.015212 -0.004301 -0.002642 0.000768 0.000185 0.001890
# 2 -0.004301 0.010384 -0.000733 0.002036 0.000802 0.000022
# 3 -0.002642 -0.000733 0.012412 0.001677 0.002629 0.000175
# 4 0.000768 0.002036 0.001677 0.026978 0.004368 0.003282
# 5 0.000185 0.000802 0.002629 0.004368 0.029920 0.001847
# 6 0.001890 0.000022 0.000175 0.003282 0.001847 0.020140
#
#
# Mechanical properties :
#
#
# Convention : Reuss Voigt Hill
#
# Bulk Modulus (GPa) = 44.13672 47.72326 45.92999
# Shear Modulus (GPa) = 36.24492 39.25914 37.75203
#
# Velocity S-wave (km/s) = 4.22014 4.39212 4.30699
# Velocity P-wave (km/s) = 6.74044 7.01218 6.87765
#
# Compressibility (1/GPa) = 0.02265687
#
# Stress axis : x y z
#
# Youngs Moduli (GPa) = 65.73606 96.30519 80.56405
#
# Poissons Ratio (x) = 0.41420 0.21286
# Poissons Ratio (y) = 0.28272 0.05904
# Poissons Ratio (z) = 0.17368 0.07058
#
# Static dielectric constant tensor:
#      x y z
#    x 1.752360 -0.000130 0.005880 
#    y -0.000130 1.724250 -0.006660 
#    z 0.005880 -0.006660 1.779340 
# 
# From -- ./inp_files/587857.got.cif
#   From: 2010.05.17/outbox.cif.g08.bks.cpg/sg2_294_cif.got.tgz:587857.got - 2010.06.03 11:33:40.
