data_PCOD9029626
_publ_section_title
;
Structure prediction by ZEFSAII (Michael W. Deem and Ramdas Pophale) SiO2 
 PCOD9029626
Probable space group: P -1
;
_chemical_formula_sum "Si O2"
_cell_formula_units_Z 16
_cell_length_a 5.295590
_cell_length_b 17.306514
_cell_length_c 10.034508
_cell_angle_alpha 116.019209
_cell_angle_beta 58.741778
_cell_angle_gamma 117.320710
_cell_volume 673.670983
_symmetry_space_group_name_H-M "P -1"
_symmetry_group_IT_number 2
_symmetry_cell_setting 'triclinic'
loop_
_space_group_symop_operation_xyz
x,y,z
-x,-y,-z
loop_
_atom_site_type_symbol
_atom_site_label
_atom_site_fract_x
_atom_site_fract_y
_atom_site_fract_z
Si Si1 0.533719 0.754254 0.715867
Si Si2 0.369462 0.536838 0.938132
Si Si3 0.602209 0.272821 0.842093
Si Si4 0.159260 0.879148 0.607525
Si Si5 0.658328 0.571550 0.621630
Si Si6 0.088523 0.810587 0.081520
Si Si7 0.704726 0.303890 0.527280
Si Si8 0.726145 0.042955 0.647232
O O1 0.561982 0.664553 0.714612
O O2 0.557709 0.717164 0.529317
O O3 0.796048 0.851889 0.715177
O O4 0.251536 0.778654 0.886439
O O5 0.464810 0.643132 0.006944
O O6 0.500000 0.500000 0.000000
O O7 0.541570 0.518142 0.747771
O O8 0.000000 0.500000 0.000000
O O9 0.852593 0.249025 0.852555
O O10 0.679049 0.306860 0.694850
O O11 0.265382 0.199074 0.866371
O O12 0.217901 0.790376 0.582886
O O13 0.241696 0.888070 0.434117
O O14 0.394760 0.967907 0.671863
O O15 0.500000 0.500000 0.500000
O O16 0.025124 0.610786 0.532836
O O17 0.224509 0.908708 0.187200
O O18 0.000000 0.000000 0.500000
#
# Coordination Sequence:
#
# PCOD9029626 Si02
#       8
#     2   2   2   2   2   2   2   2
#     4  11  25  44  70 101 143 187 232 297 361 424
#     4  12  27  46  71 104 144 185 240 298 356 422
#     4  12  25  47  71 105 140 193 240 289 360 430
#     4  10  22  42  68 100 138 179 237 287 357 420
#     4  11  26  45  69 103 142 187 239 297 356 424
#     4  12  26  45  73 104 146 189 237 291 363 425
#     4  11  24  44  72 100 139 187 239 290 360 426
#     4  11  23  43  71 104 140 185 241 295 349 435
#
# _framework density 23.750464999999998
#
# number of rings (size 3 to 8) (size 9 to 14) (size 15 to 20)
#    0.000    0.750    2.500    4.500    8.750    1.000 
#    0.000    2.500    0.000    0.000    0.000    0.000 
#    0.000    0.000    0.000    0.000    0.000    0.000 
#
# Total GULP energy -89261.646543 kJ/mol
# GULP energy per Si atom -5578.852909 kJ/mol
# Density = 2.369641 g / cm^3
# Si number density = 23.750465 Si / 1000 Ang^3
#
#
#
# Elastic Constant Matrix: (Units=GPa)
#
#
# Indices 1 2 3 4 5 6 
#
# 1 70.0946 27.0832 21.8568 -16.0304 5.9549 12.1140
# 2 27.0832 96.1082 25.0991 -9.0286 6.2827 27.8102
# 3 21.8568 25.0991 128.9128 -12.7924 15.3880 5.7860
# 4 -16.0304 -9.0286 -12.7924 42.7700 0.9352 -1.7799
# 5 5.9549 6.2827 15.3880 0.9352 39.4019 -0.5206
# 6 12.1140 27.8102 5.7860 -1.7799 -0.5206 41.7413
#
#
#
# Elastic Compliance Matrix: (Units=1/GPa)
#
#
# Indices 1 2 3 4 5 6 
#
# 1 0.017847 -0.003253 -0.001524 0.005477 -0.001747 -0.002589
# 2 -0.003253 0.014341 -0.001610 0.001007 -0.001301 -0.008361
# 3 -0.001524 -0.001610 0.008854 0.001816 -0.003009 0.000328
# 4 0.005477 0.001007 0.001816 0.026181 -0.002338 -0.001425
# 5 -0.001747 -0.001301 -0.003009 -0.002338 0.027109 0.002029
# 6 -0.002589 -0.008361 0.000328 -0.001425 0.002029 0.030198
#
#
# Mechanical properties :
#
#
# Convention : Reuss Voigt Hill
#
# Bulk Modulus (GPa) = 35.37731 49.24375 42.31053
# Shear Modulus (GPa) = 34.07669 39.52107 36.79888
#
# Velocity S-wave (km/s) = 3.79196 4.08366 3.94051
# Velocity P-wave (km/s) = 5.83949 6.55849 6.20941
#
# Compressibility (1/GPa) = 0.02826670
#
# Stress axis : x y z
#
# Youngs Moduli (GPa) = 56.03107 69.72957 112.94479
#
# Poissons Ratio (x) = 0.22686 0.17215
# Poissons Ratio (y) = 0.18229 0.18186
# Poissons Ratio (z) = 0.08540 0.11228
#
# Static dielectric constant tensor:
#      x y z
#    x 2.194570 0.006040 0.023780 
#    y 0.006040 1.913940 0.010690 
#    z 0.023780 0.010690 1.920940 
# 
# From -- ./inp_files/46230.got.cif
#   From: 2010.05.17/outbox.cif.g08.bks.cpg/sg2_24_cif.got.tgz:46230.got - 2010.06.03 11:33:40.
