data_PCOD9029786
_publ_section_title
;
Structure prediction by ZEFSAII (Michael W. Deem and Ramdas Pophale) SiO2 
 PCOD9029786
Probable space group: P -1
;
_chemical_formula_sum "Si O2"
_cell_formula_units_Z 14
_cell_length_a 9.086591
_cell_length_b 13.887010
_cell_length_c 12.345921
_cell_angle_alpha 137.777546
_cell_angle_beta 73.075038
_cell_angle_gamma 136.985028
_cell_volume 598.299151
_symmetry_space_group_name_H-M "P -1"
_symmetry_group_IT_number 2
_symmetry_cell_setting 'triclinic'
loop_
_space_group_symop_operation_xyz
x,y,z
-x,-y,-z
loop_
_atom_site_type_symbol
_atom_site_label
_atom_site_fract_x
_atom_site_fract_y
_atom_site_fract_z
Si Si1 0.405082 0.586045 0.128533
Si Si2 0.092195 0.382267 0.688497
Si Si3 0.533990 0.830291 0.084425
Si Si4 0.163179 0.752017 0.982004
Si Si5 0.611504 0.807551 0.700526
Si Si6 0.216001 0.043353 0.460246
Si Si7 0.894153 0.739035 0.639243
O O1 0.488877 0.754119 0.154489
O O2 0.538691 0.732602 0.333173
O O3 0.500000 0.500000 0.000000
O O4 0.099095 0.367671 0.024880
O O5 0.049268 0.241424 0.483955
O O6 0.383333 0.597447 0.851955
O O7 0.065445 0.524976 0.769536
O O8 0.902646 0.195355 0.669795
O O9 0.367318 0.845840 0.105155
O O10 0.836062 0.068188 0.197183
O O11 0.327153 0.996763 0.090350
O O12 0.719295 0.901850 0.634028
O O13 0.755982 0.788818 0.717622
O O14 0.316854 0.540522 0.526667
O O15 0.000000 0.000000 0.500000
#
# Coordination Sequence:
#
# PCOD9029786 Si02
#       7
#     2   2   2   2   2   2   2
#     4  12  23  39  69 102 139 173 222 287 340 388
#     4  10  23  42  70  96 133 175 225 274 334 405
#     4  10  22  42  68  94 137 176 219 281 332 400
#     4  10  25  42  65 101 139 169 230 279 339 399
#     4  11  25  43  67 103 134 177 231 281 331 409
#     4  12  22  40  70 100 135 176 226 277 341 402
#     4  11  23  48  70  94 139 184 224 276 340 399
#
# _framework density 23.399664999999999
#
# number of rings (size 3 to 8) (size 9 to 14) (size 15 to 20)
#    0.857    0.286    2.857    3.857    2.000    2.857 
#    2.571    1.429    0.000    0.000    0.000    0.000 
#    0.000    0.000    0.000    0.000    0.000    0.000 
#
# Total GULP energy -78205.621949 kJ/mol
# GULP energy per Si atom -5586.115854 kJ/mol
# Density = 2.334641 g / cm^3
# Si number density = 23.399665 Si / 1000 Ang^3
#
#
#
# Elastic Constant Matrix: (Units=GPa)
#
#
# Indices 1 2 3 4 5 6 
#
# 1 100.0025 17.9388 54.4735 19.5703 11.3061 8.5355
# 2 17.9388 63.8727 25.2338 17.4478 8.9277 2.0137
# 3 54.4735 25.2338 125.6926 31.9275 25.6222 10.3495
# 4 19.5703 17.4478 31.9275 46.2284 1.9583 -0.3330
# 5 11.3061 8.9277 25.6222 1.9583 50.3433 14.9696
# 6 8.5355 2.0137 10.3495 -0.3330 14.9696 22.6776
#
#
#
# Elastic Compliance Matrix: (Units=1/GPa)
#
#
# Indices 1 2 3 4 5 6 
#
# 1 0.013516 -0.001325 -0.005028 -0.001806 0.000786 -0.003220
# 2 -0.001325 0.018310 -0.001356 -0.005308 -0.002337 0.000957
# 3 -0.005028 -0.001356 0.013010 -0.006150 -0.004752 -0.000879
# 4 -0.001806 -0.005308 -0.006150 0.028558 0.002569 0.002681
# 5 0.000786 -0.002337 -0.004752 0.002569 0.027112 -0.015779
# 6 -0.003220 0.000957 -0.000879 0.002681 -0.015779 0.056080
#
#
# Mechanical properties :
#
#
# Convention : Reuss Voigt Hill
#
# Bulk Modulus (GPa) = 33.99160 53.87331 43.93246
# Shear Modulus (GPa) = 27.50143 36.64464 32.07303
#
# Velocity S-wave (km/s) = 3.43197 3.96161 3.70626
# Velocity P-wave (km/s) = 5.50115 6.63316 6.09350
#
# Compressibility (1/GPa) = 0.02941903
#
# Stress axis : x y z
#
# Youngs Moduli (GPa) = 73.98881 54.61419 76.86173
#
# Poissons Ratio (x) = 0.07234 0.38646
# Poissons Ratio (y) = 0.09801 0.10422
# Poissons Ratio (z) = 0.37202 0.07405
#
# Static dielectric constant tensor:
#      x y z
#    x 1.886550 -0.004200 -0.053640 
#    y -0.004200 1.907220 0.007930 
#    z -0.053640 0.007930 1.930430 
# 
# From -- ./inp_files/220813.got.cif
#   From: 2010.05.17/outbox.cif.g08.bks.cpg/sg2_111_cif.got.tgz:220813.got - 2010.06.03 11:33:40.
