data_PCOD9029161
_publ_section_title
;
Structure prediction by ZEFSAII (Michael W. Deem and Ramdas Pophale) SiO2 
 PCOD9029161
Probable space group: P -1
;
_chemical_formula_sum "Si O2"
_cell_formula_units_Z 13
_cell_length_a 9.280139
_cell_length_b 9.930706
_cell_length_c 8.533110
_cell_angle_alpha 114.840647
_cell_angle_beta 97.802283
_cell_angle_gamma 117.227320
_cell_volume 579.793153
_symmetry_space_group_name_H-M "P -1"
_symmetry_group_IT_number 2
_symmetry_cell_setting 'triclinic'
loop_
_space_group_symop_operation_xyz
x,y,z
-x,-y,-z
loop_
_atom_site_type_symbol
_atom_site_label
_atom_site_fract_x
_atom_site_fract_y
_atom_site_fract_z
Si Si1 0.758522 0.005646 0.274166
Si Si2 0.354749 0.089812 0.286750
Si Si3 0.321707 0.597835 0.330215
Si Si4 0.879647 0.239846 0.716904
Si Si5 0.500000 0.000000 0.000000
Si Si6 0.785174 0.690673 0.046894
Si Si7 0.118776 0.229719 0.249499
O O1 0.728085 0.811546 0.171983
O O2 0.813709 0.096583 0.496658
O O3 0.595965 0.002947 0.179474
O O4 0.929695 0.139737 0.255812
O O5 0.510483 0.215479 0.493547
O O6 0.223764 0.154084 0.300991
O O7 0.241268 0.879202 0.212824
O O8 0.426410 0.107221 0.131182
O O9 0.166891 0.619887 0.266182
O O10 0.242558 0.448546 0.383872
O O11 0.356147 0.504968 0.145669
O O12 0.081641 0.320635 0.826981
O O13 0.892470 0.796017 0.953336
#
# Coordination Sequence:
#
# PCOD9029161 Si02
#       7
#     2   2   2   2   1   2   2
#     4  12  23  43  68 105 124 185 220 271 325 410
#     4  12  23  46  69  98 132 182 216 280 323 403
#     4  10  24  41  67 100 134 173 219 283 325 379
#     4  12  24  42  70  97 138 172 224 271 336 387
#     4  12  24  40  72  96 132 164 240 260 328 392
#     4  10  22  42  66  94 131 178 218 266 326 395
#     4  10  23  42  72  89 138 174 228 259 334 390
#
# _framework density 22.421787999999999
#
# number of rings (size 3 to 8) (size 9 to 14) (size 15 to 20)
#    0.923    0.000    4.615    3.231    0.000    0.615 
#    0.000    0.769    3.385    0.000    0.000    0.000 
#    0.000    0.000    0.000    0.000    0.000    0.000 
#
# Total GULP energy -72391.391906 kJ/mol
# GULP energy per Si atom -5568.568608 kJ/mol
# Density = 2.237076 g / cm^3
# Si number density = 22.421788 Si / 1000 Ang^3
#
#
#
# Elastic Constant Matrix: (Units=GPa)
#
#
# Indices 1 2 3 4 5 6 
#
# 1 62.8293 9.9205 -6.0075 -0.8186 9.4012 -12.2645
# 2 9.9205 36.6449 -18.2150 6.6282 -3.9237 1.5374
# 3 -6.0075 -18.2150 98.0464 4.9497 -1.1320 -0.1339
# 4 -0.8186 6.6282 4.9497 29.1794 -12.5487 4.4955
# 5 9.4012 -3.9237 -1.1320 -12.5487 38.5619 0.9951
# 6 -12.2645 1.5374 -0.1339 4.4955 0.9951 21.4585
#
#
#
# Elastic Compliance Matrix: (Units=1/GPa)
#
#
# Indices 1 2 3 4 5 6 
#
# 1 0.020470 -0.006183 0.000198 -0.003062 -0.006949 0.013107
# 2 -0.006183 0.033857 0.006289 -0.006931 0.003001 -0.004608
# 3 0.000198 0.006289 0.011558 -0.003563 -0.000241 0.000492
# 4 -0.003062 -0.006931 -0.003563 0.044412 0.014680 -0.011261
# 5 -0.006949 0.003001 -0.000241 0.014680 0.032928 -0.008790
# 6 0.013107 -0.004608 0.000492 -0.011261 -0.008790 0.057193
#
#
# Mechanical properties :
#
#
# Convention : Reuss Voigt Hill
#
# Bulk Modulus (GPa) = 15.03928 18.76850 16.90389
# Shear Modulus (GPa) = 22.52513 31.96146 27.24329
#
# Velocity S-wave (km/s) = 3.17300 3.77963 3.48952
# Velocity P-wave (km/s) = 4.48841 5.23796 4.87761
#
# Compressibility (1/GPa) = 0.06649256
#
# Stress axis : x y z
#
# Youngs Moduli (GPa) = 48.85244 29.53561 86.52326
#
# Poissons Ratio (x) = 0.18263 -0.01711
# Poissons Ratio (y) = 0.30207 -0.54418
# Poissons Ratio (z) = -0.00966 -0.18576
#
# Static dielectric constant tensor:
#      x y z
#    x 1.788610 -0.011910 -0.012610 
#    y -0.011910 1.788590 0.021780 
#    z -0.012610 0.021780 1.838390 
# 
# From -- ./inp_files/182731.got.cif
#   From: 2010.05.17/outbox.cif.g08.bks.cpg/sg2_92_cif.got.tgz:182731.got - 2010.06.03 11:33:40.
