data_PCOD9029949
_publ_section_title
;
Structure prediction by ZEFSAII (Michael W. Deem and Ramdas Pophale) SiO2 
 PCOD9029949
Probable space group: P -1
;
_chemical_formula_sum "Si O2"
_cell_formula_units_Z 12
_cell_length_a 15.577944
_cell_length_b 8.176332
_cell_length_c 6.434574
_cell_angle_alpha 100.047969
_cell_angle_beta 130.858531
_cell_angle_gamma 58.542844
_cell_volume 510.760362
_symmetry_space_group_name_H-M "P -1"
_symmetry_group_IT_number 2
_symmetry_cell_setting 'triclinic'
loop_
_space_group_symop_operation_xyz
x,y,z
-x,-y,-z
loop_
_atom_site_type_symbol
_atom_site_label
_atom_site_fract_x
_atom_site_fract_y
_atom_site_fract_z
Si Si1 0.915150 0.397313 0.313569
Si Si2 0.640450 0.940888 0.313843
Si Si3 0.293709 0.609626 0.753988
Si Si4 0.848383 0.641388 0.886708
Si Si5 0.437626 0.643931 0.627033
Si Si6 0.176214 0.053888 0.752256
O O1 0.819190 0.428250 0.358614
O O2 0.000000 0.500000 0.500000
O O3 0.028294 0.163165 0.433391
O O4 0.833352 0.504781 0.999810
O O5 0.723816 0.752080 0.553791
O O6 0.734187 0.914352 0.261716
O O7 0.614032 0.129891 0.445202
O O8 0.500000 0.000000 0.000000
O O9 0.321754 0.635868 0.566163
O O10 0.247176 0.820152 0.835563
O O11 0.436896 0.436601 0.032781
O O12 0.843239 0.820683 0.044736
O O13 0.000000 0.500000 0.000000
O O14 0.500000 0.500000 0.500000
#
# Coordination Sequence:
#
# PCOD9029949 Si02
#       6
#     2   2   2   2   2   2
#     4  10  22  42  69 100 140 183 229 290 355 413
#     4  11  25  43  71 103 140 186 238 293 355 419
#     4  10  22  44  68 101 140 185 231 290 354 424
#     4  11  23  43  69  99 141 186 235 288 351 425
#     4  10  23  46  71 100 138 187 239 289 351 420
#     4  10  22  43  68  99 144 180 234 291 355 417
#
# _framework density 23.494382000000002
#
# number of rings (size 3 to 8) (size 9 to 14) (size 15 to 20)
#    0.000    1.667    1.667    1.500    4.667    0.667 
#   15.000    0.833    0.000    0.000    0.000    0.000 
#    0.000    0.000    0.000    0.000    0.000    0.000 
#
# Total GULP energy -67075.008097 kJ/mol
# GULP energy per Si atom -5589.584008 kJ/mol
# Density = 2.344091 g / cm^3
# Si number density = 23.494382 Si / 1000 Ang^3
#
#
#
# Elastic Constant Matrix: (Units=GPa)
#
#
# Indices 1 2 3 4 5 6 
#
# 1 150.7492 37.8105 32.1280 0.9951 11.1075 -16.4382
# 2 37.8105 140.4113 45.2334 -9.8631 -14.3671 -29.0390
# 3 32.1280 45.2334 121.6002 -27.4631 7.6785 0.8981
# 4 0.9951 -9.8631 -27.4631 52.8664 -6.7039 -9.4726
# 5 11.1075 -14.3671 7.6785 -6.7039 21.9211 1.1782
# 6 -16.4382 -29.0390 0.8981 -9.4726 1.1782 35.3990
#
#
#
# Elastic Compliance Matrix: (Units=1/GPa)
#
#
# Indices 1 2 3 4 5 6 
#
# 1 0.008058 -0.001998 -0.001419 -0.001620 -0.005493 0.001888
# 2 -0.001998 0.012393 -0.004086 0.003403 0.011075 0.009884
# 3 -0.001419 -0.004086 0.011337 0.004029 -0.004533 -0.003069
# 4 -0.001620 0.003403 0.004029 0.024223 0.008610 0.008132
# 5 -0.005493 0.011075 -0.004533 0.008610 0.059506 0.006973
# 6 0.001888 0.009884 -0.003069 0.008132 0.006973 0.039256
#
#
# Mechanical properties :
#
#
# Convention : Reuss Voigt Hill
#
# Bulk Modulus (GPa) = 59.58494 71.45605 65.52049
# Shear Modulus (GPa) = 28.51067 41.87658 35.19362
#
# Velocity S-wave (km/s) = 3.48733 4.22644 3.87455
# Velocity P-wave (km/s) = 6.45226 7.36866 6.92563
#
# Compressibility (1/GPa) = 0.01678277
#
# Stress axis : x y z
#
# Youngs Moduli (GPa) = 124.09421 80.69353 88.20500
#
# Poissons Ratio (x) = 0.16125 0.12514
# Poissons Ratio (y) = 0.24797 0.36038
# Poissons Ratio (z) = 0.17605 0.32969
#
# Static dielectric constant tensor:
#      x y z
#    x 1.878340 0.006240 0.005180 
#    y 0.006240 1.920990 0.025100 
#    z 0.005180 0.025100 1.971020 
# 
# From -- ./inp_files/88996.got.cif
#   From: 2010.05.17/outbox.cif.g08.bks.cpg/sg2_45_cif.got.tgz:88996.got - 2010.06.03 11:33:40.
