data_PCOD9029151
_publ_section_title
;
Structure prediction by ZEFSAII (Michael W. Deem and Ramdas Pophale) SiO2 
 PCOD9029151
Probable space group: P -1
;
_chemical_formula_sum "Si O2"
_cell_formula_units_Z 13
_cell_length_a 10.733448
_cell_length_b 12.361491
_cell_length_c 12.010063
_cell_angle_alpha 33.903471
_cell_angle_beta 47.318090
_cell_angle_gamma 35.170340
_cell_volume 511.987275
_symmetry_space_group_name_H-M "P -1"
_symmetry_group_IT_number 2
_symmetry_cell_setting 'triclinic'
loop_
_space_group_symop_operation_xyz
x,y,z
-x,-y,-z
loop_
_atom_site_type_symbol
_atom_site_label
_atom_site_fract_x
_atom_site_fract_y
_atom_site_fract_z
Si Si1 0.811222 0.675804 0.159104
Si Si2 0.371173 0.990864 0.280798
Si Si3 0.500158 0.795830 0.612279
Si Si4 0.037976 0.683096 0.210125
Si Si5 0.244389 0.698743 0.509959
Si Si6 0.000000 0.500000 0.000000
Si Si7 0.962390 0.941086 0.252932
O O1 0.565526 0.878768 0.170049
O O2 0.828410 0.459391 0.260198
O O3 0.946521 0.583515 0.268551
O O4 0.915061 0.724288 0.956773
O O5 0.494275 0.855073 0.436130
O O6 0.232638 0.892956 0.428296
O O7 0.222515 0.284892 0.123427
O O8 0.706723 0.523877 0.753275
O O9 0.500000 0.000000 0.500000
O O10 0.275210 0.855436 0.729030
O O11 0.951882 0.775838 0.308126
O O12 0.967620 0.923066 0.977842
O O13 0.500000 0.500000 0.500000
O O14 0.122599 0.794707 0.384056
#
# Coordination Sequence:
#
# PCOD9029151 Si02
#       7
#     2   2   2   2   2   1   2
#     4  11  24  43  67  95 129 170 215 265 320 383
#     4  11  25  43  66  96 132 170 214 266 321 382
#     4  12  25  43  68  97 128 171 218 263 320 385
#     4  11  24  44  67  95 132 169 213 269 322 379
#     4  10  22  42  66  94 129 171 214 261 319 380
#     4  12  24  40  64  94 128 168 210 262 320 380
#     4  11  24  42  67  97 130 170 214 265 323 381
#
# _framework density 25.391257
#
# number of rings (size 3 to 8) (size 9 to 14) (size 15 to 20)
#    0.000    0.923    0.000    7.385    0.000    6.769 
#    0.000    7.692    0.000    0.000    0.000    0.000 
#    0.000    0.000    0.000    0.000    0.000    0.000 
#
# Total GULP energy -72558.425102 kJ/mol
# GULP energy per Si atom -5581.417316 kJ/mol
# Density = 2.533346 g / cm^3
# Si number density = 25.391257 Si / 1000 Ang^3
#
#
#
# Elastic Constant Matrix: (Units=GPa)
#
#
# Indices 1 2 3 4 5 6 
#
# 1 133.3752 15.8242 33.8040 -1.6432 18.1199 4.4244
# 2 15.8242 142.0441 -26.0493 4.0047 4.5396 -19.7271
# 3 33.8040 -26.0493 69.5820 -6.3542 12.8349 5.0080
# 4 -1.6432 4.0047 -6.3542 35.3359 6.8109 13.5353
# 5 18.1199 4.5396 12.8349 6.8109 29.7995 -6.3883
# 6 4.4244 -19.7271 5.0080 13.5353 -6.3883 49.6237
#
#
#
# Elastic Compliance Matrix: (Units=1/GPa)
#
#
# Indices 1 2 3 4 5 6 
#
# 1 0.009529 -0.002059 -0.004254 0.001651 -0.004512 -0.002270
# 2 -0.002059 0.008543 0.003909 -0.001601 -0.000607 0.003544
# 3 -0.004254 0.003909 0.020213 0.005718 -0.008617 -0.002775
# 4 0.001651 -0.001601 0.005718 0.037597 -0.014712 -0.013510
# 5 -0.004512 -0.000607 -0.008617 -0.014712 0.045813 0.010941
# 6 -0.002270 0.003544 -0.002775 -0.013510 0.010941 0.027136
#
#
# Mechanical properties :
#
#
# Convention : Reuss Voigt Hill
#
# Bulk Modulus (GPa) = 29.87046 43.57323 36.72184
# Shear Modulus (GPa) = 30.34037 44.37999 37.36018
#
# Velocity S-wave (km/s) = 3.46050 4.18526 3.84002
# Velocity P-wave (km/s) = 5.26843 6.36814 5.84421
#
# Compressibility (1/GPa) = 0.03347789
#
# Stress axis : x y z
#
# Youngs Moduli (GPa) = 104.94610 117.05298 49.47341
#
# Poissons Ratio (x) = 0.24104 0.21044
# Poissons Ratio (y) = 0.21610 -0.19341
# Poissons Ratio (z) = 0.44640 -0.45761
#
# Static dielectric constant tensor:
#      x y z
#    x 2.097060 0.082670 -0.140560 
#    y 0.082670 1.872850 -0.548040 
#    z -0.140560 -0.548040 2.567740 
# 
# From -- ./inp_files/277287.got.cif
#   From: 2010.05.17/outbox.cif.g08.bks.cpg/sg2_139_cif.got.tgz:277287.got - 2010.06.03 11:33:40.
