data_PCOD9029398
_publ_section_title
;
Structure prediction by ZEFSAII (Michael W. Deem and Ramdas Pophale) SiO2 
 PCOD9029398
Probable space group: P -1
;
_chemical_formula_sum "Si O2"
_cell_formula_units_Z 16
_cell_length_a 19.129925
_cell_length_b 10.677395
_cell_length_c 10.902117
_cell_angle_alpha 141.502950
_cell_angle_beta 141.015667
_cell_angle_gamma 26.364389
_cell_volume 591.785790
_symmetry_space_group_name_H-M "P -1"
_symmetry_group_IT_number 2
_symmetry_cell_setting 'triclinic'
loop_
_space_group_symop_operation_xyz
x,y,z
-x,-y,-z
loop_
_atom_site_type_symbol
_atom_site_label
_atom_site_fract_x
_atom_site_fract_y
_atom_site_fract_z
Si Si1 0.883312 0.464227 0.300018
Si Si2 0.023506 0.241774 0.072073
Si Si3 0.554100 0.035370 0.875727
Si Si4 0.831806 0.870540 0.254045
Si Si5 0.050579 0.899649 0.658573
Si Si6 0.434791 0.383560 0.752065
Si Si7 0.401074 0.881788 0.637882
Si Si8 0.375884 0.659966 0.215158
O O1 0.900933 0.348836 0.099105
O O2 0.944870 0.229397 0.304742
O O3 0.711022 0.801753 0.344477
O O4 0.000000 0.500000 0.500000
O O5 0.988949 0.522919 0.227025
O O6 0.201198 0.946467 0.139140
O O7 0.001123 0.180358 0.859967
O O8 0.431191 0.363931 0.025005
O O9 0.729427 0.916420 0.037986
O O10 0.510475 0.106321 0.726089
O O11 0.560324 0.814258 0.789711
O O12 0.699565 0.018900 0.298269
O O13 0.912049 0.982659 0.449728
O O14 0.239887 0.634853 0.677138
O O15 0.501002 0.340269 0.674999
O O16 0.500000 0.500000 0.000000
O O17 0.388959 0.690675 0.399794
#
# Coordination Sequence:
#
# PCOD9029398 Si02
#       8
#     2   2   2   2   2   2   2   2
#     4  11  18  35  60 100 126 151 212 267 305 371
#     4  11  21  37  66  91 129 160 211 259 315 374
#     4  11  24  43  63  93 134 166 203 265 319 364
#     4  11  26  41  61 101 135 156 206 263 323 387
#     4  12  20  40  66  89 126 172 206 262 318 358
#     4  10  22  42  67  93 120 166 226 259 294 373
#     4  11  21  39  64  95 131 163 204 257 321 379
#     4  11  22  42  69  92 121 169 225 253 299 380
#
# _framework density 27.036811
#
# number of rings (size 3 to 8) (size 9 to 14) (size 15 to 20)
#    0.000    1.000    7.500    0.750    0.000    5.000 
#    0.000    3.125    0.000    0.000    0.000    0.000 
#    0.000    0.000    0.000    0.000    0.000    0.000 
#
# Total GULP energy -89505.416093 kJ/mol
# GULP energy per Si atom -5594.088506 kJ/mol
# Density = 2.697527 g / cm^3
# Si number density = 27.036811 Si / 1000 Ang^3
#
#
#
# Elastic Constant Matrix: (Units=GPa)
#
#
# Indices 1 2 3 4 5 6 
#
# 1 83.1773 -3.0182 14.7927 -18.9971 20.0337 -3.7854
# 2 -3.0182 65.1313 16.8640 -19.6280 -10.9839 0.0452
# 3 14.7927 16.8640 118.4464 -15.9559 9.6765 -0.7395
# 4 -18.9971 -19.6280 -15.9559 39.0326 1.1114 1.6420
# 5 20.0337 -10.9839 9.6765 1.1114 37.6154 -10.6401
# 6 -3.7854 0.0452 -0.7395 1.6420 -10.6401 33.4993
#
#
#
# Elastic Compliance Matrix: (Units=1/GPa)
#
#
# Indices 1 2 3 4 5 6 
#
# 1 0.016266 0.002171 -0.000418 0.009138 -0.008572 -0.001345
# 2 0.002171 0.019922 -0.002190 0.009970 0.005317 0.001370
# 3 -0.000418 -0.002190 0.009423 0.002680 -0.003199 -0.000983
# 4 0.009138 0.009970 0.002680 0.036386 -0.004307 -0.002073
# 5 -0.008572 0.005317 -0.003199 -0.004307 0.036715 0.010826
# 6 -0.001345 0.001370 -0.000983 -0.002073 0.010826 0.033216
#
#
# Mechanical properties :
#
#
# Convention : Reuss Voigt Hill
#
# Bulk Modulus (GPa) = 22.35280 36.00357 29.17819
# Shear Modulus (GPa) = 29.81259 37.90389 33.85824
#
# Velocity S-wave (km/s) = 3.32425 3.74831 3.54263
# Velocity P-wave (km/s) = 4.79788 5.66379 5.24872
#
# Compressibility (1/GPa) = 0.04473712
#
# Stress axis : x y z
#
# Youngs Moduli (GPa) = 61.47719 50.19644 106.12582
#
# Poissons Ratio (x) = -0.10899 0.04432
# Poissons Ratio (y) = -0.13348 0.23245
# Poissons Ratio (z) = 0.02568 0.10995
#
# Static dielectric constant tensor:
#      x y z
#    x 2.474030 -0.210550 0.215380 
#    y -0.210550 2.291220 -0.219110 
#    z 0.215380 -0.219110 2.401840 
# 
# From -- ./inp_files/543071.got.cif
#   From: 2010.05.17/outbox.cif.g08.bks.cpg/sg2_272_cif.got.tgz:543071.got - 2010.06.03 11:33:40.
