data_PCOD9029500
_publ_section_title
;
Structure prediction by ZEFSAII (Michael W. Deem and Ramdas Pophale) SiO2 
 PCOD9029500
Probable space group: P -1
;
_chemical_formula_sum "Si O2"
_cell_formula_units_Z 16
_cell_length_a 14.936243
_cell_length_b 11.122567
_cell_length_c 13.756416
_cell_angle_alpha 135.618764
_cell_angle_beta 139.626966
_cell_angle_gamma 27.781811
_cell_volume 683.712719
_symmetry_space_group_name_H-M "P -1"
_symmetry_group_IT_number 2
_symmetry_cell_setting 'triclinic'
loop_
_space_group_symop_operation_xyz
x,y,z
-x,-y,-z
loop_
_atom_site_type_symbol
_atom_site_label
_atom_site_fract_x
_atom_site_fract_y
_atom_site_fract_z
Si Si1 0.284785 0.248616 0.520403
Si Si2 0.520418 0.330394 0.839751
Si Si3 0.104727 0.132542 0.005058
Si Si4 0.335067 0.511613 0.203322
Si Si5 0.706579 0.232347 0.237830
Si Si6 0.340676 0.900749 0.499651
Si Si7 0.786009 0.579389 0.757301
Si Si8 0.007564 0.739849 0.433329
O O1 0.352288 0.332125 0.703318
O O2 0.125466 0.482157 0.446781
O O3 0.500000 0.000000 0.500000
O O4 0.222173 0.133461 0.458331
O O5 0.467773 0.470325 0.776327
O O6 0.500000 0.500000 0.000000
O O7 0.749107 0.043434 0.883394
O O8 0.179590 0.952442 0.868885
O O9 0.863028 0.322941 0.936255
O O10 0.153336 0.280962 0.101121
O O11 0.556708 0.253665 0.190670
O O12 0.347350 0.695666 0.358201
O O13 0.265273 0.462397 0.208465
O O14 0.869358 0.197859 0.409515
O O15 0.575148 0.751365 0.619152
O O16 0.220132 0.030130 0.576468
O O17 0.969659 0.323815 0.697502
#
# Coordination Sequence:
#
# PCOD9029500 Si02
#       8
#     2   2   2   2   2   2   2   2
#     4  11  19  40  68  97 131 163 204 269 321 381
#     4   9  19  38  65  91 130 161 197 263 325 377
#     4  11  23  45  65  93 131 167 211 273 324 384
#     4  12  26  42  67  93 127 179 219 261 326 375
#     4  10  22  42  67  96 131 165 210 268 327 387
#     4  12  23  41  68  96 127 172 214 264 322 377
#     4  12  26  44  64  95 132 166 226 273 305 379
#     4  11  23  41  68  98 129 169 212 262 326 385
#
# _framework density 23.401641000000001
#
# number of rings (size 3 to 8) (size 9 to 14) (size 15 to 20)
#    0.000    1.000    5.000    1.875    0.000    3.500 
#    0.000    0.000    0.000    0.000    0.000    0.000 
#    0.000    0.000    0.000    0.000    0.000    0.000 
#
# Total GULP energy -89514.731880 kJ/mol
# GULP energy per Si atom -5594.670742 kJ/mol
# Density = 2.334838 g / cm^3
# Si number density = 23.401641 Si / 1000 Ang^3
#
#
#
# Elastic Constant Matrix: (Units=GPa)
#
#
# Indices 1 2 3 4 5 6 
#
# 1 59.3233 9.0339 -8.9131 -8.2516 9.7514 -18.4598
# 2 9.0339 57.5261 8.6992 -5.4953 10.8514 -8.9672
# 3 -8.9131 8.6992 51.3744 2.2008 17.0513 12.6642
# 4 -8.2516 -5.4953 2.2008 31.8873 3.6497 1.7496
# 5 9.7514 10.8514 17.0513 3.6497 32.4615 -2.1492
# 6 -18.4598 -8.9672 12.6642 1.7496 -2.1492 42.3603
#
#
#
# Elastic Compliance Matrix: (Units=1/GPa)
#
#
# Indices 1 2 3 4 5 6 
#
# 1 0.022381 -0.000808 0.005029 0.005963 -0.009278 0.007362
# 2 -0.000808 0.019958 -0.003136 0.003768 -0.004914 0.004406
# 3 0.005029 -0.003136 0.027948 0.001058 -0.015770 -0.007672
# 4 0.005963 0.003768 0.001058 0.034253 -0.007372 0.001291
# 5 -0.009278 -0.004914 -0.015770 -0.007372 0.044493 0.002193
# 6 0.007362 0.004406 -0.007672 0.001291 0.002193 0.030099
#
#
# Mechanical properties :
#
#
# Convention : Reuss Voigt Hill
#
# Bulk Modulus (GPa) = 13.80140 20.65153 17.22646
# Shear Modulus (GPa) = 24.86148 31.96873 28.41510
#
# Velocity S-wave (km/s) = 3.26296 3.70007 3.48837
# Velocity P-wave (km/s) = 4.48400 5.20558 4.85820
#
# Compressibility (1/GPa) = 0.07245640
#
# Stress axis : x y z
#
# Youngs Moduli (GPa) = 44.68163 50.10509 35.78041
#
# Poissons Ratio (x) = 0.04048 -0.17993
# Poissons Ratio (y) = 0.03610 0.11221
# Poissons Ratio (z) = -0.22469 0.15714
#
# Static dielectric constant tensor:
#      x y z
#    x 1.911070 0.043920 -0.040080 
#    y 0.043920 1.950660 -0.011070 
#    z -0.040080 -0.011070 1.857680 
# 
# From -- ./inp_files/532672.got.cif
#   From: 2010.05.17/outbox.cif.g08.bks.cpg/sg2_267_cif.got.tgz:532672.got - 2010.06.03 11:33:40.
