data_PCOD9029560
_publ_section_title
;
Structure prediction by ZEFSAII (Michael W. Deem and Ramdas Pophale) SiO2 
 PCOD9029560
Probable space group: P -1
;
_chemical_formula_sum "Si O2"
_cell_formula_units_Z 16
_cell_length_a 7.886083
_cell_length_b 28.052576
_cell_length_c 5.412470
_cell_angle_alpha 126.889410
_cell_angle_beta 51.097568
_cell_angle_gamma 135.912906
_cell_volume 623.214040
_symmetry_space_group_name_H-M "P -1"
_symmetry_group_IT_number 2
_symmetry_cell_setting 'triclinic'
loop_
_space_group_symop_operation_xyz
x,y,z
-x,-y,-z
loop_
_atom_site_type_symbol
_atom_site_label
_atom_site_fract_x
_atom_site_fract_y
_atom_site_fract_z
Si Si1 0.113088 0.287743 0.704010
Si Si2 0.130510 0.172650 0.126246
Si Si3 0.758126 0.919333 0.519374
Si Si4 0.084711 0.416192 0.239519
Si Si5 0.223369 0.546862 0.739123
Si Si6 0.424730 0.953293 0.666175
Si Si7 0.588059 0.323643 0.729633
Si Si8 0.439588 0.804457 0.808428
O O1 0.102930 0.239446 0.335503
O O2 0.368827 0.307697 0.683479
O O3 0.138966 0.362684 0.883879
O O4 0.850952 0.234686 0.937106
O O5 0.376482 0.193924 0.138206
O O6 0.875115 0.107537 0.285218
O O7 0.129845 0.130289 0.757945
O O8 0.569612 0.912733 0.453468
O O9 0.569852 0.883024 0.814991
O O10 0.000000 0.000000 0.500000
O O11 0.918058 0.434164 0.274914
O O12 0.881246 0.369939 0.497961
O O13 0.302581 0.493815 0.393393
O O14 0.429220 0.624182 0.901110
O O15 0.000000 0.500000 0.000000
O O16 0.500000 0.000000 0.500000
O O17 0.500000 0.000000 0.000000
O O18 0.564879 0.249350 0.566081
#
# Coordination Sequence:
#
# PCOD9029560 Si02
#       8
#     2   2   2   2   2   2   2   2
#     4  10  22  42  67  97 138 178 231 283 345 421
#     4  11  25  43  68  95 135 176 226 287 357 426
#     4  12  26  45  71  99 135 180 228 293 361 429
#     4   9  19  39  63  93 134 177 223 281 339 407
#     4   9  18  37  64  93 132 178 222 275 339 401
#     4  12  28  46  74 107 139 180 237 296 366 440
#     4   9  20  38  62  96 133 171 226 278 341 413
#     4  10  24  44  67  97 136 180 228 288 354 425
#
# _framework density 25.673365
#
# number of rings (size 3 to 8) (size 9 to 14) (size 15 to 20)
#    0.000    1.750    1.250    1.500    3.500    6.500 
#    0.000   15.625    0.000    0.000    0.000    0.000 
#    0.000    0.000    0.000    0.000    0.000    0.000 
#
# Total GULP energy -89262.653025 kJ/mol
# GULP energy per Si atom -5578.915814 kJ/mol
# Density = 2.561493 g / cm^3
# Si number density = 25.673365 Si / 1000 Ang^3
#
#
#
# Elastic Constant Matrix: (Units=GPa)
#
#
# Indices 1 2 3 4 5 6 
#
# 1 37.5068 -0.7031 9.2234 7.2326 0.4354 0.6324
# 2 -0.7031 143.3641 58.7018 21.7704 -0.8401 -10.2413
# 3 9.2234 58.7018 124.0215 60.3542 -17.0818 -9.8389
# 4 7.2326 21.7704 60.3542 52.3534 -7.2738 -1.0873
# 5 0.4354 -0.8401 -17.0818 -7.2738 33.0319 1.1823
# 6 0.6324 -10.2413 -9.8389 -1.0873 1.1823 44.4068
#
#
#
# Elastic Compliance Matrix: (Units=1/GPa)
#
#
# Indices 1 2 3 4 5 6 
#
# 1 0.027621 0.001130 -0.001497 -0.002808 -0.001710 -0.000488
# 2 0.001130 0.009034 -0.005816 0.002495 -0.002276 0.000900
# 3 -0.001497 -0.005816 0.023557 -0.023528 0.006761 0.003143
# 4 -0.002808 0.002495 -0.023528 0.045228 -0.001984 -0.003437
# 5 -0.001710 -0.002276 0.006761 -0.001984 0.033295 0.000062
# 6 -0.000488 0.000900 0.003143 -0.003437 0.000062 0.023344
#
#
# Mechanical properties :
#
#
# Convention : Reuss Voigt Hill
#
# Bulk Modulus (GPa) = 20.90022 48.81518 34.85770
# Shear Modulus (GPa) = 26.26127 41.80313 34.03220
#
# Velocity S-wave (km/s) = 3.20175 4.03956 3.64481
# Velocity P-wave (km/s) = 4.67191 6.38847 5.59640
#
# Compressibility (1/GPa) = 0.04784639
#
# Stress axis : x y z
#
# Youngs Moduli (GPa) = 36.20488 110.68724 42.44957
#
# Poissons Ratio (x) = -0.12506 0.06353
# Poissons Ratio (y) = -0.04090 0.24690
# Poissons Ratio (z) = 0.05418 0.64378
#
# Static dielectric constant tensor:
#      x y z
#    x 1.962840 0.025650 0.010890 
#    y 0.025650 2.128590 0.055780 
#    z 0.010890 0.055780 2.309470 
# 
# From -- ./inp_files/57012.got.cif
#   From: 2010.05.17/outbox.cif.g08.bks.cpg/sg2_29_cif.got.tgz:57012.got - 2010.06.03 11:33:40.
