data_PCOD9029854
_publ_section_title
;
Structure prediction by ZEFSAII (Michael W. Deem and Ramdas Pophale) SiO2 
 PCOD9029854
Probable space group: P -1
;
_chemical_formula_sum "Si O2"
_cell_formula_units_Z 12
_cell_length_a 9.045529
_cell_length_b 7.635591
_cell_length_c 9.227227
_cell_angle_alpha 107.542984
_cell_angle_beta 95.120918
_cell_angle_gamma 45.005158
_cell_volume 422.410751
_symmetry_space_group_name_H-M "P -1"
_symmetry_group_IT_number 2
_symmetry_cell_setting 'triclinic'
loop_
_space_group_symop_operation_xyz
x,y,z
-x,-y,-z
loop_
_atom_site_type_symbol
_atom_site_label
_atom_site_fract_x
_atom_site_fract_y
_atom_site_fract_z
Si Si1 0.635258 0.241964 0.296169
Si Si2 0.473527 0.039279 0.836937
Si Si3 0.056162 0.081151 0.210938
Si Si4 0.305697 0.517821 0.067050
Si Si5 0.928260 0.535441 0.756782
Si Si6 0.311007 0.010259 0.489997
O O1 0.466264 0.417602 0.192920
O O2 0.836371 0.193235 0.278204
O O3 0.692507 0.971763 0.211968
O O4 0.598101 0.241679 0.466570
O O5 0.692784 0.770696 0.722898
O O6 0.410550 0.306869 0.892819
O O7 0.500000 0.000000 0.000000
O O8 0.021611 0.295462 0.168310
O O9 0.205429 0.004925 0.340938
O O10 0.190825 0.802851 0.075362
O O11 0.132035 0.539813 0.133286
O O12 0.101054 0.300317 0.606086
O O13 0.500000 0.000000 0.500000
#
# Coordination Sequence:
#
# PCOD9029854 Si02
#       6
#     2   2   2   2   2   2
#     4  10  22  42  68  97 129 176 211 271 323 381
#     4   8  19  45  68  93 132 170 212 268 328 382
#     4  12  25  41  69 101 129 173 221 263 325 391
#     4  10  23  47  69  96 134 168 217 268 326 393
#     4  10  22  44  64  94 134 169 215 267 321 384
#     4  12  25  43  66  95 136 177 214 270 326 383
#
# _framework density 28.408370000000001
#
# number of rings (size 3 to 8) (size 9 to 14) (size 15 to 20)
#    0.000    2.000    1.667    3.000    2.333    2.000 
#    3.000    7.500    0.000    0.000    0.000    0.000 
#    0.000    0.000    0.000    0.000    0.000    0.000 
#
# Total GULP energy -66983.405408 kJ/mol
# GULP energy per Si atom -5581.950451 kJ/mol
# Density = 2.834371 g / cm^3
# Si number density = 28.408370 Si / 1000 Ang^3
#
#
#
# Elastic Constant Matrix: (Units=GPa)
#
#
# Indices 1 2 3 4 5 6 
#
# 1 234.4637 58.7346 22.9681 0.7919 -25.1667 -0.3670
# 2 58.7346 148.1027 50.7365 16.2174 -4.8106 -11.0096
# 3 22.9681 50.7365 58.4017 14.4182 -0.3886 -7.1264
# 4 0.7919 16.2174 14.4182 67.1430 -11.3538 10.1631
# 5 -25.1667 -4.8106 -0.3886 -11.3538 46.1901 5.0855
# 6 -0.3670 -11.0096 -7.1264 10.1631 5.0855 67.2033
#
#
#
# Elastic Compliance Matrix: (Units=1/GPa)
#
#
# Indices 1 2 3 4 5 6 
#
# 1 0.005117 -0.001857 -0.000760 0.001166 0.002958 -0.000757
# 2 -0.001857 0.010373 -0.007911 -0.001001 -0.000357 0.001029
# 3 -0.000760 -0.007911 0.025618 -0.004315 -0.002330 0.002245
# 4 0.001166 -0.001001 -0.004315 0.017479 0.005193 -0.003652
# 5 0.002958 -0.000357 -0.002330 0.005193 0.024806 -0.002952
# 6 -0.000757 0.001029 0.002245 -0.003652 -0.002952 0.016058
#
#
# Mechanical properties :
#
#
# Convention : Reuss Voigt Hill
#
# Bulk Modulus (GPa) = 49.86849 78.42741 64.14795
# Shear Modulus (GPa) = 39.31058 56.67587 47.99322
#
# Velocity S-wave (km/s) = 3.72394 4.47143 4.11470
# Velocity P-wave (km/s) = 6.00688 7.37058 6.72339
#
# Compressibility (1/GPa) = 0.02005274
#
# Stress axis : x y z
#
# Youngs Moduli (GPa) = 195.42484 96.40302 39.03456
#
# Poissons Ratio (x) = 0.17901 0.02966
# Poissons Ratio (y) = 0.36289 0.30881
# Poissons Ratio (z) = 0.14849 0.76266
#
# Static dielectric constant tensor:
#      x y z
#    x 2.294310 0.045920 -0.067540 
#    y 0.045920 2.381110 -0.129500 
#    z -0.067540 -0.129500 2.739170 
# 
# From -- ./inp_files/383257.got.cif
#   From: 2010.05.17/outbox.cif.g08.bks.cpg/sg2_192_cif.got.tgz:383257.got - 2010.06.03 11:33:40.
