data_PCOD9029229
_publ_section_title
;
Structure prediction by ZEFSAII (Michael W. Deem and Ramdas Pophale) SiO2 
 PCOD9029229
Probable space group: P -1
;
_chemical_formula_sum "Si O2"
_cell_formula_units_Z 12
_cell_length_a 9.156656
_cell_length_b 9.415205
_cell_length_c 13.004703
_cell_angle_alpha 129.030889
_cell_angle_beta 61.008508
_cell_angle_gamma 149.278490
_cell_volume 440.363051
_symmetry_space_group_name_H-M "P -1"
_symmetry_group_IT_number 2
_symmetry_cell_setting 'triclinic'
loop_
_space_group_symop_operation_xyz
x,y,z
-x,-y,-z
loop_
_atom_site_type_symbol
_atom_site_label
_atom_site_fract_x
_atom_site_fract_y
_atom_site_fract_z
Si Si1 0.541102 0.016832 0.814407
Si Si2 0.102738 0.331209 0.713399
Si Si3 0.337022 0.510042 0.935155
Si Si4 0.500000 0.500000 0.500000
Si Si5 0.000000 0.000000 0.000000
Si Si6 0.256138 0.892838 0.663110
Si Si7 0.663266 0.428482 0.607295
O O1 0.684865 0.287399 0.964543
O O2 0.756511 0.052613 0.713012
O O3 0.259510 0.667477 0.795270
O O4 0.454811 0.071966 0.775591
O O5 0.203821 0.319553 0.571638
O O6 0.211967 0.349106 0.792002
O O7 0.150400 0.254281 0.972045
O O8 0.668888 0.749556 0.948108
O O9 0.608611 0.537099 0.595951
O O10 0.253476 0.676431 0.536801
O O11 0.944542 0.695599 0.705569
O O12 0.395121 0.124436 0.627601
#
# Coordination Sequence:
#
# PCOD9029229 Si02
#       7
#     2   2   2   1   1   2   2
#     4  12  24  45  74 105 140 191 245 305 363 446
#     4  12  27  44  70 106 147 191 244 304 371 431
#     4  11  24  46  75 106 146 185 242 303 370 438
#     4  12  28  46  68 106 148 196 238 312 358 424
#     4  10  24  46  74 108 142 190 234 300 382 438
#     4  10  22  42  66  97 130 184 239 287 350 430
#     4  10  23  41  66  92 140 181 236 290 350 420
#
# _framework density 27.250243999999999
#
# number of rings (size 3 to 8) (size 9 to 14) (size 15 to 20)
#    0.000    1.000    1.667    4.000    4.667    6.667 
#    0.000    0.000    0.000    0.000    0.000    0.000 
#    0.000    0.000    0.000    0.000    0.000    0.000 
#
# Total GULP energy -66856.063204 kJ/mol
# GULP energy per Si atom -5571.338600 kJ/mol
# Density = 2.718822 g / cm^3
# Si number density = 27.250244 Si / 1000 Ang^3
#
#
#
# Elastic Constant Matrix: (Units=GPa)
#
#
# Indices 1 2 3 4 5 6 
#
# 1 122.1165 45.4480 16.7450 -12.7356 27.1856 2.3039
# 2 45.4480 169.5411 -4.8404 -22.5829 8.8484 8.3220
# 3 16.7450 -4.8404 36.2562 -20.5734 4.1475 -7.9340
# 4 -12.7356 -22.5829 -20.5734 32.8570 -8.3679 2.2514
# 5 27.1856 8.8484 4.1475 -8.3679 58.2952 1.6089
# 6 2.3039 8.3220 -7.9340 2.2514 1.6089 51.1128
#
#
#
# Elastic Compliance Matrix: (Units=1/GPa)
#
#
# Indices 1 2 3 4 5 6 
#
# 1 0.011133 -0.003419 -0.007389 -0.003798 -0.004671 -0.000778
# 2 -0.003419 0.008291 0.007952 0.009679 0.001172 -0.000425
# 3 -0.007389 0.007952 0.053755 0.036773 0.003537 0.005651
# 4 -0.003798 0.009679 0.036773 0.060140 0.006278 0.001457
# 5 -0.004671 0.001172 0.003537 0.006278 0.019813 -0.000331
# 6 -0.000778 -0.000425 0.005651 0.001457 -0.000331 0.020492
#
#
# Mechanical properties :
#
#
# Convention : Reuss Voigt Hill
#
# Bulk Modulus (GPa) = 14.82257 49.17988 32.00123
# Shear Modulus (GPa) = 24.77381 46.49041 35.63211
#
# Velocity S-wave (km/s) = 3.01844 4.13492 3.61998
# Velocity P-wave (km/s) = 4.19514 6.39402 5.40752
#
# Compressibility (1/GPa) = 0.06746467
#
# Stress axis : x y z
#
# Youngs Moduli (GPa) = 89.82223 120.61429 18.60309
#
# Poissons Ratio (x) = 0.41241 0.13746
# Poissons Ratio (y) = 0.30713 -0.14793
# Poissons Ratio (z) = 0.66372 -0.95908
#
# Static dielectric constant tensor:
#      x y z
#    x 2.490910 -0.733900 -1.895730 
#    y -0.733900 3.562980 3.915280 
#    z -1.895730 3.915280 11.193690 
# 
# From -- ./inp_files/236409.got.cif
#   From: 2010.05.17/outbox.cif.g08.bks.cpg/sg2_119_cif.got.tgz:236409.got - 2010.06.03 11:33:40.
