data_PCOD9029128
_publ_section_title
;
Structure prediction by ZEFSAII (Michael W. Deem and Ramdas Pophale) SiO2 
 PCOD9029128
Probable space group: P -1
;
_chemical_formula_sum "Si O2"
_cell_formula_units_Z 16
_cell_length_a 8.841503
_cell_length_b 25.853081
_cell_length_c 9.181850
_cell_angle_alpha 45.886950
_cell_angle_beta 132.730892
_cell_angle_gamma 150.889285
_cell_volume 718.039175
_symmetry_space_group_name_H-M "P -1"
_symmetry_group_IT_number 2
_symmetry_cell_setting 'triclinic'
loop_
_space_group_symop_operation_xyz
x,y,z
-x,-y,-z
loop_
_atom_site_type_symbol
_atom_site_label
_atom_site_fract_x
_atom_site_fract_y
_atom_site_fract_z
Si Si1 0.051328 0.186971 0.907822
Si Si2 0.820785 0.017963 0.548330
Si Si3 0.324411 0.555836 0.175749
Si Si4 0.209217 0.770286 0.130073
Si Si5 0.459913 0.416853 0.048696
Si Si6 0.656366 0.984451 0.828675
Si Si7 0.858153 0.382809 0.427141
Si Si8 0.338044 0.159026 0.378031
O O1 0.398936 0.313812 0.856801
O O2 0.840774 0.194819 0.824894
O O3 0.103171 0.143906 0.155911
O O4 0.888214 0.098898 0.845808
O O5 0.811273 0.001431 0.745594
O O6 0.621559 0.904195 0.556031
O O7 0.649824 0.048092 0.348708
O O8 0.161788 0.104345 0.524378
O O9 0.203759 0.485005 0.381865
O O10 0.462440 0.550993 0.135254
O O11 0.000000 0.500000 0.000000
O O12 0.176704 0.678194 0.336933
O O13 0.516737 0.881422 0.031973
O O14 0.905402 0.704921 0.956607
O O15 0.684532 0.413738 0.265757
O O16 0.500000 0.500000 0.000000
O O17 0.656220 0.287359 0.358695
#
# Coordination Sequence:
#
# PCOD9029128 Si02
#       8
#     2   2   2   2   2   2   2   2
#     4  11  21  39  70  95 133 173 219 277 320 391
#     4  10  24  40  65  92 137 175 216 268 329 394
#     4   9  19  42  66  92 123 172 221 263 323 393
#     4  11  23  41  67  98 135 176 218 272 333 396
#     4  10  22  42  66  93 132 170 217 282 326 385
#     4  11  23  43  62 101 132 171 224 273 324 389
#     4  11  22  42  69  94 125 177 224 262 331 399
#     4  11  21  41  66  94 128 179 212 265 334 391
#
# _framework density 22.282906000000001
#
# number of rings (size 3 to 8) (size 9 to 14) (size 15 to 20)
#    0.000    1.500    5.000    1.125    3.500    4.000 
#    0.000    5.000    0.000    0.000    0.000    0.000 
#    0.000    0.000    0.000    0.000    0.000    0.000 
#
# Total GULP energy -89407.044232 kJ/mol
# GULP energy per Si atom -5587.940264 kJ/mol
# Density = 2.223219 g / cm^3
# Si number density = 22.282906 Si / 1000 Ang^3
#
#
#
# Elastic Constant Matrix: (Units=GPa)
#
#
# Indices 1 2 3 4 5 6 
#
# 1 110.5351 59.8110 62.5378 -22.0469 -8.4651 -5.7986
# 2 59.8110 128.6141 45.7050 -26.7517 -35.6382 0.2487
# 3 62.5378 45.7050 142.5169 -23.4417 -7.2330 6.2569
# 4 -22.0469 -26.7517 -23.4417 34.4996 2.3726 5.5774
# 5 -8.4651 -35.6382 -7.2330 2.3726 34.9820 4.4199
# 6 -5.7986 0.2487 6.2569 5.5774 4.4199 21.3545
#
#
#
# Elastic Compliance Matrix: (Units=1/GPa)
#
#
# Indices 1 2 3 4 5 6 
#
# 1 0.015724 -0.006774 -0.005197 0.000515 -0.005063 0.006785
# 2 -0.006774 0.017434 0.000118 0.009420 0.016512 -0.007955
# 3 -0.005197 0.000118 0.010364 0.004679 0.001443 -0.005970
# 4 0.000515 0.009420 0.004679 0.041423 0.009669 -0.014161
# 5 -0.005063 0.016512 0.001443 0.009669 0.045588 -0.013951
# 6 0.006785 -0.007955 -0.005970 -0.014161 -0.013951 0.057099
#
#
# Mechanical properties :
#
#
# Convention : Reuss Voigt Hill
#
# Bulk Modulus (GPa) = 50.46575 79.75264 65.10919
# Shear Modulus (GPa) = 22.94171 32.40802 27.67486
#
# Velocity S-wave (km/s) = 3.21217 3.81778 3.52799
# Velocity P-wave (km/s) = 6.03774 7.43657 6.77336
#
# Compressibility (1/GPa) = 0.01981542
#
# Stress axis : x y z
#
# Youngs Moduli (GPa) = 63.59705 57.36051 96.48494
#
# Poissons Ratio (x) = 0.38857 0.50147
# Poissons Ratio (y) = 0.43082 -0.01143
# Poissons Ratio (z) = 0.33054 -0.00679
#
# Static dielectric constant tensor:
#      x y z
#    x 1.819180 0.040930 0.037220 
#    y 0.040930 1.816990 0.017100 
#    z 0.037220 0.017100 1.891750 
# 
# From -- ./inp_files/227411.got.cif
#   From: 2010.05.17/outbox.cif.g08.bks.cpg/sg2_114_cif.got.tgz:227411.got - 2010.06.03 11:33:40.
