data_PCOD9029604
_publ_section_title
;
Structure prediction by ZEFSAII (Michael W. Deem and Ramdas Pophale) SiO2 
 PCOD9029604
Probable space group: P -1
;
_chemical_formula_sum "Si O2"
_cell_formula_units_Z 14
_cell_length_a 5.562238
_cell_length_b 19.060871
_cell_length_c 8.797361
_cell_angle_alpha 143.202847
_cell_angle_beta 80.645728
_cell_angle_gamma 98.053805
_cell_volume 551.168473
_symmetry_space_group_name_H-M "P -1"
_symmetry_group_IT_number 2
_symmetry_cell_setting 'triclinic'
loop_
_space_group_symop_operation_xyz
x,y,z
-x,-y,-z
loop_
_atom_site_type_symbol
_atom_site_label
_atom_site_fract_x
_atom_site_fract_y
_atom_site_fract_z
Si Si1 0.101619 0.939275 0.127439
Si Si2 0.844450 0.327892 0.293957
Si Si3 0.383932 0.099928 0.578634
Si Si4 0.620825 0.648673 0.829080
Si Si5 0.034289 0.672780 0.381094
Si Si6 0.355157 0.511147 0.880573
Si Si7 0.254623 0.915958 0.750797
O O1 0.150207 0.038312 0.418456
O O2 0.119586 0.811685 0.973120
O O3 0.292098 0.939031 0.965805
O O4 0.852244 0.969938 0.121647
O O5 0.601770 0.358351 0.280311
O O6 0.817106 0.345045 0.507859
O O7 0.106950 0.381691 0.307456
O O8 0.541826 0.128393 0.460590
O O9 0.500000 0.000000 0.500000
O O10 0.361154 0.218533 0.879473
O O11 0.525923 0.566580 0.832142
O O12 0.050751 0.810460 0.586844
O O13 0.776377 0.613976 0.347243
O O14 0.142120 0.603781 0.106109
O O15 0.500000 0.500000 0.000000
#
# Coordination Sequence:
#
# PCOD9029604 Si02
#       7
#     2   2   2   2   2   2   2
#     4  10  23  41  67 100 144 180 244 273 358 423
#     4  11  27  49  71 110 144 192 230 294 355 435
#     4  12  23  38  65  99 142 183 228 288 348 419
#     4  12  28  46  74 104 149 185 240 291 364 412
#     4  10  25  48  73  99 145 184 246 292 360 420
#     4  11  27  47  74 107 135 189 244 303 352 425
#     4  10  22  42  67  99 134 194 228 296 344 425
#
# _framework density 25.400583000000001
#
# number of rings (size 3 to 8) (size 9 to 14) (size 15 to 20)
#    0.000    1.143    2.857    1.286   10.000    2.286 
#    5.143    0.000    0.000    0.000    0.000    0.000 
#    0.000    0.000    0.000    0.000    0.000    0.000 
#
# Total GULP energy -78358.028008 kJ/mol
# GULP energy per Si atom -5597.002001 kJ/mol
# Density = 2.534277 g / cm^3
# Si number density = 25.400583 Si / 1000 Ang^3
#
#
#
# Elastic Constant Matrix: (Units=GPa)
#
#
# Indices 1 2 3 4 5 6 
#
# 1 104.9440 49.7464 31.0762 -10.5343 7.2002 3.9187
# 2 49.7464 122.0083 32.8123 -3.4462 0.5865 2.1624
# 3 31.0762 32.8123 117.4856 -2.8896 5.3926 11.8585
# 4 -10.5343 -3.4462 -2.8896 44.8168 0.1903 -3.7500
# 5 7.2002 0.5865 5.3926 0.1903 42.5889 -12.6138
# 6 3.9187 2.1624 11.8585 -3.7500 -12.6138 50.4402
#
#
#
# Elastic Compliance Matrix: (Units=1/GPa)
#
#
# Indices 1 2 3 4 5 6 
#
# 1 0.012656 -0.004572 -0.001847 0.002456 -0.002057 -0.000685
# 2 -0.004572 0.010532 -0.001845 -0.000341 0.001032 0.000570
# 3 -0.001847 -0.001845 0.009842 -0.000145 -0.001653 -0.002515
# 4 0.002456 -0.000341 -0.000145 0.022985 -0.000033 0.001558
# 5 -0.002057 0.001032 -0.001653 -0.000033 0.026105 0.007030
# 6 -0.000685 0.000570 -0.002515 0.001558 0.007030 0.022319
#
#
# Mechanical properties :
#
#
# Convention : Reuss Voigt Hill
#
# Bulk Modulus (GPa) = 60.60184 63.52310 62.06247
# Shear Modulus (GPa) = 39.53521 42.95604 41.24562
#
# Velocity S-wave (km/s) = 3.94949 4.11681 4.03402
# Velocity P-wave (km/s) = 6.68642 6.90365 6.79590
#
# Compressibility (1/GPa) = 0.01650115
#
# Stress axis : x y z
#
# Youngs Moduli (GPa) = 79.01160 94.94852 101.60787
#
# Poissons Ratio (x) = 0.43413 0.18765
# Poissons Ratio (y) = 0.36127 0.18750
# Poissons Ratio (z) = 0.14592 0.17521
#
# Static dielectric constant tensor:
#      x y z
#    x 2.058470 0.031610 -0.024250 
#    y 0.031610 1.969210 -0.007440 
#    z -0.024250 -0.007440 2.006850 
# 
# From -- ./inp_files/36934.got.cif
#   From: 2010.05.17/outbox.cif.g08.bks.cpg/sg2_19_cif.got.tgz:36934.got - 2010.06.03 11:33:40.
