data_PCOD9029065
_publ_section_title
;
Structure prediction by ZEFSAII (Michael W. Deem and Ramdas Pophale) SiO2 
 PCOD9029065
Probable space group: P -1
;
_chemical_formula_sum "Si O2"
_cell_formula_units_Z 16
_cell_length_a 12.531099
_cell_length_b 14.699241
_cell_length_c 5.163442
_cell_angle_alpha 104.535622
_cell_angle_beta 79.959152
_cell_angle_gamma 53.570662
_cell_volume 673.871505
_symmetry_space_group_name_H-M "P -1"
_symmetry_group_IT_number 2
_symmetry_cell_setting 'triclinic'
loop_
_space_group_symop_operation_xyz
x,y,z
-x,-y,-z
loop_
_atom_site_type_symbol
_atom_site_label
_atom_site_fract_x
_atom_site_fract_y
_atom_site_fract_z
Si Si1 0.238131 0.469418 0.066348
Si Si2 0.238162 0.255189 0.959567
Si Si3 0.267488 0.604918 0.533302
Si Si4 0.123717 0.007050 0.468818
Si Si5 0.323102 0.867629 0.787824
Si Si6 0.424422 0.126981 0.284978
Si Si7 0.016668 0.734371 0.045389
Si Si8 0.508411 0.396297 0.655473
O O1 0.232400 0.521162 0.386340
O O2 0.127124 0.599310 0.045709
O O3 0.196189 0.385860 0.993701
O O4 0.409691 0.384320 0.861444
O O5 0.347920 0.154289 0.614721
O O6 0.108099 0.256200 0.022867
O O7 0.305683 0.228678 0.197131
O O8 0.382737 0.527266 0.659169
O O9 0.362569 0.611495 0.295596
O O10 0.116125 0.732171 0.792613
O O11 0.052677 0.150044 0.650420
O O12 0.227545 0.926075 0.611164
O O13 0.000000 0.000000 0.500000
O O14 0.221200 0.947744 0.129954
O O15 0.450537 0.869773 0.720734
O O16 0.402358 0.721258 0.663613
O O17 0.500000 0.000000 0.000000
#
# Coordination Sequence:
#
# PCOD9029065 Si02
#       8
#     2   2   2   2   2   2   2   2
#     4  11  24  42  71  99 143 186 238 295 357 422
#     4  12  26  45  72 105 146 183 246 289 356 425
#     4  10  23  41  70  96 142 183 238 296 355 422
#     4  12  28  46  72 104 142 189 235 289 359 427
#     4  12  25  45  74  99 141 179 236 294 353 418
#     4  12  25  46  73 104 141 189 236 296 353 414
#     4  11  27  45  66 104 142 191 240 290 361 428
#     4  10  22  42  66 106 132 183 241 296 358 416
#
# _framework density 23.743396000000001
#
# number of rings (size 3 to 8) (size 9 to 14) (size 15 to 20)
#    0.000    0.750    1.250    5.250    8.750    0.500 
#    0.000    0.000    0.000    0.000    0.000    0.000 
#    0.000    0.000    0.000    0.000    0.000    0.000 
#
# Total GULP energy -89499.134393 kJ/mol
# GULP energy per Si atom -5593.695900 kJ/mol
# Density = 2.368935 g / cm^3
# Si number density = 23.743396 Si / 1000 Ang^3
#
#
#
# Elastic Constant Matrix: (Units=GPa)
#
#
# Indices 1 2 3 4 5 6 
#
# 1 169.7622 39.1144 37.2221 0.0133 -4.8768 -32.2370
# 2 39.1144 69.3708 26.8257 1.8976 1.3536 -17.5086
# 3 37.2221 26.8257 151.7353 0.8185 -13.9546 -23.4427
# 4 0.0133 1.8976 0.8185 42.9342 2.0150 13.6514
# 5 -4.8768 1.3536 -13.9546 2.0150 46.4790 7.0771
# 6 -32.2370 -17.5086 -23.4427 13.6514 7.0771 33.5855
#
#
#
# Elastic Compliance Matrix: (Units=1/GPa)
#
#
# Indices 1 2 3 4 5 6 
#
# 1 0.007844 -0.002477 -0.000442 -0.002036 -0.000184 0.006795
# 2 -0.002477 0.018596 -0.001649 -0.003213 -0.002371 0.007971
# 3 -0.000442 -0.001649 0.007850 -0.001580 0.001746 0.004469
# 4 -0.002036 -0.003213 -0.001580 0.028690 0.000680 -0.016537
# 5 -0.000184 -0.002371 0.001746 0.000680 0.022865 -0.005288
# 6 0.006795 0.007971 0.004469 -0.016537 -0.005288 0.051408
#
#
# Mechanical properties :
#
#
# Convention : Reuss Voigt Hill
#
# Bulk Modulus (GPa) = 39.75806 66.35472 53.05639
# Shear Modulus (GPa) = 32.30519 43.78015 38.04267
#
# Velocity S-wave (km/s) = 3.69263 4.29871 4.00714
# Velocity P-wave (km/s) = 5.91286 7.25574 6.61845
#
# Compressibility (1/GPa) = 0.02515214
#
# Stress axis : x y z
#
# Youngs Moduli (GPa) = 127.49341 53.77576 127.38717
#
# Poissons Ratio (x) = 0.13321 0.05634
# Poissons Ratio (y) = 0.31583 0.21008
# Poissons Ratio (z) = 0.05639 0.08868
#
# Static dielectric constant tensor:
#      x y z
#    x 1.934380 0.034350 0.003130 
#    y 0.034350 1.979630 -0.060510 
#    z 0.003130 -0.060510 1.997400 
# 
# From -- ./inp_files/71667.got.cif
#   From: 2010.05.17/outbox.cif.g08.bks.cpg/sg2_36_cif.got.tgz:71667.got - 2010.06.03 11:33:40.
