data_PCOD9029209
_publ_section_title
;
Structure prediction by ZEFSAII (Michael W. Deem and Ramdas Pophale) SiO2 
 PCOD9029209
Probable space group: P -1
;
_chemical_formula_sum "Si O2"
_cell_formula_units_Z 16
_cell_length_a 14.606273
_cell_length_b 15.411989
_cell_length_c 9.416526
_cell_angle_alpha 50.113977
_cell_angle_beta 79.414202
_cell_angle_gamma 38.635561
_cell_volume 761.075915
_symmetry_space_group_name_H-M "P -1"
_symmetry_group_IT_number 2
_symmetry_cell_setting 'triclinic'
loop_
_space_group_symop_operation_xyz
x,y,z
-x,-y,-z
loop_
_atom_site_type_symbol
_atom_site_label
_atom_site_fract_x
_atom_site_fract_y
_atom_site_fract_z
Si Si1 0.627637 0.796067 0.063331
Si Si2 0.498824 0.070129 0.575244
Si Si3 0.505897 0.664327 0.790538
Si Si4 0.832370 0.138763 0.295682
Si Si5 0.857314 0.215888 0.630908
Si Si6 0.470526 0.729632 0.070011
Si Si7 0.069993 0.091699 0.953799
Si Si8 0.872407 0.526843 0.539187
O O1 0.509771 0.816813 0.012061
O O2 0.799495 0.569561 0.355746
O O3 0.500000 0.000000 0.000000
O O4 0.664980 0.840371 0.874118
O O5 0.507036 0.196663 0.416947
O O6 0.300941 0.262426 0.521720
O O7 0.500000 0.000000 0.500000
O O8 0.328069 0.772527 0.682399
O O9 0.706149 0.378195 0.015461
O O10 0.484195 0.702271 0.926496
O O11 0.000000 0.000000 0.500000
O O12 0.960067 0.936918 0.354097
O O13 0.650663 0.470919 0.360515
O O14 0.899138 0.217555 0.774433
O O15 0.875920 0.060641 0.788384
O O16 0.266210 0.904697 0.004741
O O17 0.994415 0.293131 0.813789
O O18 0.000000 0.500000 0.500000
#
# Coordination Sequence:
#
# PCOD9029209 Si02
#       8
#     2   2   2   2   2   2   2   2
#     4  10  22  42  66  96 133 176 221 276 339 400
#     4  11  23  44  69 103 137 173 232 283 336 414
#     4  11  24  41  68  96 135 184 218 281 346 400
#     4  11  23  44  63  92 137 178 222 273 340 406
#     4  11  23  40  63  97 127 170 225 275 325 403
#     4  12  21  42  68  94 135 174 223 280 344 402
#     4  11  23  40  65  94 131 168 224 276 329 398
#     4  11  24  45  68  97 138 179 225 279 342 404
#
# _framework density 21.022870999999999
#
# number of rings (size 3 to 8) (size 9 to 14) (size 15 to 20)
#    0.000    1.000    5.000    2.625    0.000    0.000 
#    9.000    0.625    0.000    0.000    0.000    0.000 
#    0.000    0.000    0.000    0.000    0.000    0.000 
#
# Total GULP energy -89322.016370 kJ/mol
# GULP energy per Si atom -5582.626023 kJ/mol
# Density = 2.097502 g / cm^3
# Si number density = 21.022871 Si / 1000 Ang^3
#
#
#
# Elastic Constant Matrix: (Units=GPa)
#
#
# Indices 1 2 3 4 5 6 
#
# 1 113.8559 13.1877 53.6208 -2.8705 -6.6087 -2.1391
# 2 13.1877 78.3054 24.7196 -2.2386 5.8214 1.0355
# 3 53.6208 24.7196 129.1659 -3.6809 -16.8359 -1.9910
# 4 -2.8705 -2.2386 -3.6809 31.8910 4.8662 -0.8520
# 5 -6.6087 5.8214 -16.8359 4.8662 43.3376 1.2139
# 6 -2.1391 1.0355 -1.9910 -0.8520 1.2139 26.6015
#
#
#
# Elastic Compliance Matrix: (Units=1/GPa)
#
#
# Indices 1 2 3 4 5 6 
#
# 1 0.010947 -0.000428 -0.004449 0.000468 -0.000071 0.000582
# 2 -0.000428 0.014034 -0.002902 0.001081 -0.003182 -0.000618
# 3 -0.004449 -0.002902 0.010651 0.000050 0.003833 0.000379
# 4 0.000468 0.001081 0.000050 0.032076 -0.003689 0.001195
# 5 -0.000071 -0.003182 0.003833 -0.003689 0.025419 -0.000873
# 6 0.000582 -0.000618 0.000379 0.001195 -0.000873 0.037769
#
#
# Mechanical properties :
#
#
# Convention : Reuss Voigt Hill
#
# Bulk Modulus (GPa) = 49.81526 56.04259 52.92892
# Shear Modulus (GPa) = 32.64880 35.68596 34.16738
#
# Velocity S-wave (km/s) = 3.94510 4.12452 4.03581
# Velocity P-wave (km/s) = 6.67076 7.02837 6.85190
#
# Compressibility (1/GPa) = 0.02007417
#
# Stress axis : x y z
#
# Youngs Moduli (GPa) = 91.35214 71.25463 93.88647
#
# Poissons Ratio (x) = 0.03050 0.41772
# Poissons Ratio (y) = 0.03911 0.27242
# Poissons Ratio (z) = 0.40645 0.20675
#
# Static dielectric constant tensor:
#      x y z
#    x 1.773230 0.022170 -0.002870 
#    y 0.022170 1.775400 0.001190 
#    z -0.002870 0.001190 1.819120 
# 
# From -- ./inp_files/314657.got.cif
#   From: 2010.05.17/outbox.cif.g08.bks.cpg/sg2_158_cif.got.tgz:314657.got - 2010.06.03 11:33:40.
