data_PCOD9029346
_publ_section_title
;
Structure prediction by ZEFSAII (Michael W. Deem and Ramdas Pophale) SiO2 
 PCOD9029346
Probable space group: P -1
;
_chemical_formula_sum "Si O2"
_cell_formula_units_Z 14
_cell_length_a 16.366209
_cell_length_b 11.030485
_cell_length_c 11.527523
_cell_angle_alpha 150.256991
_cell_angle_beta 140.651554
_cell_angle_gamma 33.356435
_cell_volume 558.786703
_symmetry_space_group_name_H-M "P -1"
_symmetry_group_IT_number 2
_symmetry_cell_setting 'triclinic'
loop_
_space_group_symop_operation_xyz
x,y,z
-x,-y,-z
loop_
_atom_site_type_symbol
_atom_site_label
_atom_site_fract_x
_atom_site_fract_y
_atom_site_fract_z
Si Si1 0.108307 0.717456 0.765187
Si Si2 0.351169 0.200874 0.928171
Si Si3 0.558241 0.244694 0.008541
Si Si4 0.198341 0.157284 0.519747
Si Si5 0.166291 0.752332 0.609429
Si Si6 0.889891 0.381522 0.804023
Si Si7 0.643959 0.127199 0.768725
O O1 0.123184 0.498558 0.699731
O O2 0.166103 0.592392 0.594238
O O3 0.929619 0.914584 0.710760
O O4 0.210562 0.848028 0.016989
O O5 0.270306 0.068977 0.652836
O O6 0.423746 0.287035 0.976001
O O7 0.226188 0.445886 0.076792
O O8 0.500000 0.000000 0.000000
O O9 0.710590 0.153722 0.168316
O O10 0.497676 0.563640 0.161960
O O11 0.598682 0.049558 0.776295
O O12 0.314511 0.040399 0.444259
O O13 0.193869 0.585105 0.381749
O O14 0.002449 0.043258 0.667647
O O15 0.000000 0.500000 0.000000
#
# Coordination Sequence:
#
# PCOD9029346 Si02
#       7
#     2   2   2   2   2   2   2
#     4  10  22  42  67 105 130 168 236 282 337 408
#     4  12  27  44  67 104 142 180 230 280 337 413
#     4  10  23  44  63 101 135 173 227 277 343 404
#     4  11  24  40  68 101 136 180 223 279 350 395
#     4  10  24  44  72  96 132 190 224 280 346 395
#     4  11  25  47  69  98 139 180 237 279 329 414
#     4  10  22  43  68  93 140 173 222 284 339 409
#
# _framework density 25.054283000000002
#
# number of rings (size 3 to 8) (size 9 to 14) (size 15 to 20)
#    0.000    1.429    1.429    2.143    4.000   10.286 
#    0.000    0.000    0.000    0.000    0.000    0.000 
#    0.000    0.000    0.000    0.000    0.000    0.000 
#
# Total GULP energy -78232.876888 kJ/mol
# GULP energy per Si atom -5588.062635 kJ/mol
# Density = 2.499726 g / cm^3
# Si number density = 25.054283 Si / 1000 Ang^3
#
#
#
# Elastic Constant Matrix: (Units=GPa)
#
#
# Indices 1 2 3 4 5 6 
#
# 1 147.4509 29.0915 47.3172 -7.6211 -35.6463 -30.6320
# 2 29.0915 111.1834 41.8067 -30.9967 -14.8597 -14.3398
# 3 47.3172 41.8067 87.9289 -26.0210 -41.4254 -14.2567
# 4 -7.6211 -30.9967 -26.0210 36.7945 -3.4594 3.4011
# 5 -35.6463 -14.8597 -41.4254 -3.4594 60.6883 -1.2034
# 6 -30.6320 -14.3398 -14.2567 3.4011 -1.2034 47.1261
#
#
#
# Elastic Compliance Matrix: (Units=1/GPa)
#
#
# Indices 1 2 3 4 5 6 
#
# 1 0.009766 -0.000447 -0.002047 0.000080 0.004347 0.005697
# 2 -0.000447 0.013098 -0.001368 0.009979 0.002631 0.002628
# 3 -0.002047 -0.001368 0.029742 0.020765 0.020072 0.006265
# 4 0.000080 0.009979 0.020765 0.051572 0.019726 0.006152
# 5 0.004347 0.002631 0.020072 0.019726 0.034682 0.009160
# 6 0.005697 0.002628 0.006265 0.006152 0.009160 0.027408
#
#
# Mechanical properties :
#
#
# Convention : Reuss Voigt Hill
#
# Bulk Modulus (GPa) = 22.28124 64.77713 43.52918
# Shear Modulus (GPa) = 26.46144 44.14496 35.30320
#
# Velocity S-wave (km/s) = 3.25339 4.20214 3.75783
# Velocity P-wave (km/s) = 4.79846 7.03241 6.01997
#
# Compressibility (1/GPa) = 0.04488081
#
# Stress axis : x y z
#
# Youngs Moduli (GPa) = 102.39927 76.34647 33.62196
#
# Poissons Ratio (x) = 0.03415 0.06883
# Poissons Ratio (y) = 0.04581 0.04600
# Poissons Ratio (z) = 0.20964 0.10445
#
# Static dielectric constant tensor:
#      x y z
#    x 2.016650 0.027510 0.029170 
#    y 0.027510 2.022160 0.006160 
#    z 0.029170 0.006160 2.049960 
# 
# From -- ./inp_files/72450.got.cif
#   From: 2010.05.17/outbox.cif.g08.bks.cpg/sg2_37_cif.got.tgz:72450.got - 2010.06.03 11:33:40.
