data_PCOD9029020
_publ_section_title
;
Structure prediction by ZEFSAII (Michael W. Deem and Ramdas Pophale) SiO2 
 PCOD9029020
Probable space group: P -1
;
_chemical_formula_sum "Si O2"
_cell_formula_units_Z 15
_cell_length_a 11.627720
_cell_length_b 5.468563
_cell_length_c 10.927421
_cell_angle_alpha 85.808699
_cell_angle_beta 76.392270
_cell_angle_gamma 61.245722
_cell_volume 591.405433
_symmetry_space_group_name_H-M "P -1"
_symmetry_group_IT_number 2
_symmetry_cell_setting 'triclinic'
loop_
_space_group_symop_operation_xyz
x,y,z
-x,-y,-z
loop_
_atom_site_type_symbol
_atom_site_label
_atom_site_fract_x
_atom_site_fract_y
_atom_site_fract_z
Si Si1 0.078300 0.996813 0.100575
Si Si2 0.963189 0.283093 0.629577
Si Si3 0.378605 0.043652 0.764581
Si Si4 0.500000 0.000000 0.000000
Si Si5 0.530128 0.395711 0.672044
Si Si6 0.213595 0.734971 0.521157
Si Si7 0.638596 0.428229 0.898439
Si Si8 0.101762 0.494372 0.743787
O O1 0.007781 0.322574 0.136987
O O2 0.236837 0.807114 0.052288
O O3 0.056468 0.854421 0.235172
O O4 0.000000 0.000000 0.000000
O O5 0.008036 0.500439 0.656505
O O6 0.831579 0.394701 0.575529
O O7 0.097234 0.053680 0.536427
O O8 0.454124 0.211662 0.685270
O O9 0.219096 0.198933 0.769662
O O10 0.404606 0.063813 0.901010
O O11 0.441195 0.727746 0.709731
O O12 0.626351 0.732507 0.899020
O O13 0.636465 0.327039 0.538929
O O14 0.621111 0.310363 0.777713
O O15 0.188600 0.629508 0.660066
O O16 0.500000 0.500000 0.000000
#
# Coordination Sequence:
#
# PCOD9029020 Si02
#       8
#     2   2   2   1   2   2   2   2
#     4  11  25  42  70 105 145 184 242 303 374 439
#     4  10  23  45  68 102 139 187 245 297 372 436
#     4  11  26  43  71 106 147 194 245 303 372 436
#     4  10  22  42  66 100 140 190 236 298 358 442
#     4  11  25  44  72 105 141 193 248 299 364 441
#     4  10  23  45  71  99 142 188 245 306 361 439
#     4  11  22  41  68  99 141 188 243 298 363 436
#     4  11  26  44  71 104 143 193 239 308 366 438
#
# _framework density 25.363309999999998
#
# number of rings (size 3 to 8) (size 9 to 14) (size 15 to 20)
#    0.000    1.333    2.667    1.200    5.600    4.800 
#    0.000    0.000    0.000    0.000    0.000    0.000 
#    0.000    0.000    0.000    0.000    0.000    0.000 
#
# Total GULP energy -83582.677153 kJ/mol
# GULP energy per Si atom -5572.178477 kJ/mol
# Density = 2.530558 g / cm^3
# Si number density = 25.363310 Si / 1000 Ang^3
#
#
#
# Elastic Constant Matrix: (Units=GPa)
#
#
# Indices 1 2 3 4 5 6 
#
# 1 116.2607 48.2349 17.7349 6.9710 0.6900 -26.9124
# 2 48.2349 95.0203 3.5522 -0.5504 -3.9146 -19.8450
# 3 17.7349 3.5522 49.2428 6.1632 0.8419 -5.1705
# 4 6.9710 -0.5504 6.1632 33.3934 -0.1473 4.9277
# 5 0.6900 -3.9146 0.8419 -0.1473 43.3269 -1.6055
# 6 -26.9124 -19.8450 -5.1705 4.9277 -1.6055 53.8053
#
#
#
# Elastic Compliance Matrix: (Units=1/GPa)
#
#
# Indices 1 2 3 4 5 6 
#
# 1 0.012464 -0.005367 -0.003319 -0.002695 -0.000474 0.004168
# 2 -0.005367 0.013788 0.001075 0.000791 0.001405 0.002473
# 3 -0.003319 0.001075 0.021992 -0.003522 -0.000246 0.001165
# 4 -0.002695 0.000791 -0.003522 0.031807 0.000131 -0.004304
# 5 -0.000474 0.001405 -0.000246 0.000131 0.023255 0.000939
# 6 0.004168 0.002473 0.001165 -0.004304 0.000939 0.022117
#
#
# Mechanical properties :
#
#
# Convention : Reuss Voigt Hill
#
# Bulk Modulus (GPa) = 30.28265 44.39642 37.33954
# Shear Modulus (GPa) = 32.97026 38.83858 35.90442
#
# Velocity S-wave (km/s) = 3.60935 3.91742 3.76653
# Velocity P-wave (km/s) = 5.41621 6.16472 5.80255
#
# Compressibility (1/GPa) = 0.03302221
#
# Stress axis : x y z
#
# Youngs Moduli (GPa) = 80.23252 72.52909 45.47015
#
# Poissons Ratio (x) = 0.38930 0.15090
# Poissons Ratio (y) = 0.43065 -0.04889
# Poissons Ratio (z) = 0.26626 -0.07799
#
# Static dielectric constant tensor:
#      x y z
#    x 2.047350 0.085200 -0.042290 
#    y 0.085200 2.092710 -0.091260 
#    z -0.042290 -0.091260 2.139160 
# 
# From -- ./inp_files/410509.got.cif
#   From: 2010.05.17/outbox.cif.g08.bks.cpg/sg2_206_cif.got.tgz:410509.got - 2010.06.03 11:33:40.
