data_PCOD9029813
_publ_section_title
;
Structure prediction by ZEFSAII (Michael W. Deem and Ramdas Pophale) SiO2 
 PCOD9029813
Probable space group: P -1
;
_chemical_formula_sum "Si O2"
_cell_formula_units_Z 14
_cell_length_a 8.165074
_cell_length_b 13.230374
_cell_length_c 5.760771
_cell_angle_alpha 103.641148
_cell_angle_beta 67.181359
_cell_angle_gamma 105.015130
_cell_volume 547.587531
_symmetry_space_group_name_H-M "P -1"
_symmetry_group_IT_number 2
_symmetry_cell_setting 'triclinic'
loop_
_space_group_symop_operation_xyz
x,y,z
-x,-y,-z
loop_
_atom_site_type_symbol
_atom_site_label
_atom_site_fract_x
_atom_site_fract_y
_atom_site_fract_z
Si Si1 0.214431 0.790370 0.784873
Si Si2 0.378566 0.144739 0.584406
Si Si3 0.103224 0.104395 0.118933
Si Si4 0.305868 0.966157 0.212822
Si Si5 0.629805 0.480144 0.131326
Si Si6 0.660803 0.663330 0.597600
Si Si7 0.054362 0.413439 0.259830
O O1 0.405086 0.812473 0.552304
O O2 0.115672 0.668294 0.789518
O O3 0.058946 0.831941 0.741228
O O4 0.233825 0.854110 0.058637
O O5 0.277164 0.154681 0.890846
O O6 0.343077 0.018269 0.477003
O O7 0.301187 0.227478 0.501666
O O8 0.176942 0.047454 0.260370
O O9 0.000000 0.000000 0.000000
O O10 0.500000 0.000000 0.000000
O O11 0.636194 0.568723 0.374197
O O12 0.538247 0.361329 0.189371
O O13 0.500000 0.500000 0.000000
O O14 0.830218 0.511929 0.950692
O O15 0.809189 0.645646 0.695776
O O16 0.000000 0.500000 0.500000
#
# Coordination Sequence:
#
# PCOD9029813 Si02
#       7
#     2   2   2   2   2   2   2
#     4  10  23  41  64  99 133 171 222 270 337 388
#     4  11  23  42  70  97 136 175 223 274 339 405
#     4  10  22  42  68  95 135 170 216 280 332 396
#     4   9  21  42  66  98 130 171 219 270 334 404
#     4   9  21  41  67  92 133 172 230 279 332 397
#     4  10  22  42  69  97 131 184 225 274 350 394
#     4  11  24  43  65  99 138 178 227 284 333 397
#
# _framework density 25.566687000000002
#
# number of rings (size 3 to 8) (size 9 to 14) (size 15 to 20)
#    0.000    2.000    0.000    1.714    6.000    9.143 
#    2.571    8.571    0.000    0.000    0.000    0.000 
#    0.000    0.000    0.000    0.000    0.000    0.000 
#
# Total GULP energy -77970.526929 kJ/mol
# GULP energy per Si atom -5569.323352 kJ/mol
# Density = 2.550850 g / cm^3
# Si number density = 25.566687 Si / 1000 Ang^3
#
#
#
# Elastic Constant Matrix: (Units=GPa)
#
#
# Indices 1 2 3 4 5 6 
#
# 1 138.4692 30.7484 26.5499 -2.5013 -5.8825 9.7470
# 2 30.7484 148.6352 36.7734 4.7095 0.9091 47.2840
# 3 26.5499 36.7734 67.5918 -2.6838 -30.0289 24.0435
# 4 -2.5013 4.7095 -2.6838 44.1775 7.5211 8.9845
# 5 -5.8825 0.9091 -30.0289 7.5211 44.0009 -2.1372
# 6 9.7470 47.2840 24.0435 8.9845 -2.1372 55.1320
#
#
#
# Elastic Compliance Matrix: (Units=1/GPa)
#
#
# Indices 1 2 3 4 5 6 
#
# 1 0.008011 -0.001107 -0.003410 0.000394 -0.001256 0.000907
# 2 -0.001107 0.010236 -0.004293 0.000637 -0.003736 -0.006959
# 3 -0.003410 -0.004293 0.030170 0.000395 0.019758 -0.008171
# 4 0.000394 0.000637 0.000395 0.024308 -0.004084 -0.004908
# 5 -0.001256 -0.003736 0.019758 -0.004084 0.036668 -0.003103
# 6 0.000907 -0.006959 -0.008171 -0.004908 -0.003103 0.028190
#
#
# Mechanical properties :
#
#
# Convention : Reuss Voigt Hill
#
# Bulk Modulus (GPa) = 32.47041 60.31551 46.39296
# Shear Modulus (GPa) = 30.21759 46.03704 38.12731
#
# Velocity S-wave (km/s) = 3.44163 4.24803 3.86591
# Velocity P-wave (km/s) = 5.34050 6.90678 6.17351
#
# Compressibility (1/GPa) = 0.03079727
#
# Stress axis : x y z
#
# Youngs Moduli (GPa) = 124.82319 97.69867 33.14581
#
# Poissons Ratio (x) = 0.10817 0.11302
# Poissons Ratio (y) = 0.13820 0.14229
# Poissons Ratio (z) = 0.42562 0.41940
#
# Static dielectric constant tensor:
#      x y z
#    x 21.086900 -4.609050 8.793810 
#    y -4.609050 3.099790 -2.169880 
#    z 8.793810 -2.169880 5.994800 
# 
# From -- ./inp_files/33185.got.cif
#   From: 2010.05.17/outbox.cif.g08.bks.cpg/sg2_17_cif.got.tgz:33185.got - 2010.06.03 11:33:40.
