data_PCOD9029807
_publ_section_title
;
Structure prediction by ZEFSAII (Michael W. Deem and Ramdas Pophale) SiO2 
 PCOD9029807
Probable space group: P -1
;
_chemical_formula_sum "Si O2"
_cell_formula_units_Z 16
_cell_length_a 11.883088
_cell_length_b 8.624652
_cell_length_c 9.109565
_cell_angle_alpha 76.059293
_cell_angle_beta 88.072208
_cell_angle_gamma 127.920474
_cell_volume 694.382784
_symmetry_space_group_name_H-M "P -1"
_symmetry_group_IT_number 2
_symmetry_cell_setting 'triclinic'
loop_
_space_group_symop_operation_xyz
x,y,z
-x,-y,-z
loop_
_atom_site_type_symbol
_atom_site_label
_atom_site_fract_x
_atom_site_fract_y
_atom_site_fract_z
Si Si1 0.993483 0.193566 0.092262
Si Si2 0.590361 0.315909 0.252424
Si Si3 0.637881 0.806160 0.495002
Si Si4 0.163230 0.716907 0.704441
Si Si5 0.689634 0.752828 0.181841
Si Si6 0.122183 0.091577 0.344332
Si Si7 0.937897 0.273710 0.764605
Si Si8 0.387991 0.022755 0.070842
O O1 0.927726 0.286234 0.159200
O O2 0.109250 0.215950 0.190982
O O3 0.862719 0.944071 0.144317
O O4 0.015287 0.270869 0.908111
O O5 0.515437 0.264633 0.426613
O O6 0.712020 0.291018 0.246777
O O7 0.653119 0.548333 0.164501
O O8 0.460632 0.150376 0.187328
O O9 0.628504 0.716864 0.357362
O O10 0.718263 0.765458 0.618707
O O11 0.751621 0.057457 0.421561
O O12 0.048177 0.513834 0.658156
O O13 0.630182 0.842815 0.066012
O O14 0.089225 0.894255 0.308926
O O15 0.000000 0.000000 0.500000
O O16 0.776778 0.188388 0.840486
O O17 0.500000 0.000000 0.000000
#
# Coordination Sequence:
#
# PCOD9029807 Si02
#       8
#     2   2   2   2   2   2   2   2
#     4  10  22  44  69  97 133 174 219 286 336 393
#     4  12  23  44  68  99 132 180 234 273 332 407
#     4  11  24  45  65  98 137 182 223 282 339 395
#     4  11  24  42  72  97 137 177 228 275 340 399
#     4  10  22  42  68  95 133 178 225 271 339 398
#     4  12  22  43  66  94 141 172 223 278 336 395
#     4  11  24  44  69 102 129 180 230 268 342 401
#     4  11  24  46  69 101 141 174 221 287 333 399
#
# _framework density 23.042045000000002
#
# number of rings (size 3 to 8) (size 9 to 14) (size 15 to 20)
#    0.000    1.000    3.750    4.875    0.000    1.500 
#    4.500    0.000    0.000    0.000    0.000    0.000 
#    0.000    0.000    0.000    0.000    0.000    0.000 
#
# Total GULP energy -89554.194645 kJ/mol
# GULP energy per Si atom -5597.137165 kJ/mol
# Density = 2.298960 g / cm^3
# Si number density = 23.042045 Si / 1000 Ang^3
#
#
#
# Elastic Constant Matrix: (Units=GPa)
#
#
# Indices 1 2 3 4 5 6 
#
# 1 119.4416 23.8989 2.6409 7.0301 9.8907 -8.0448
# 2 23.8989 66.2553 4.9591 -1.3919 7.4870 0.5316
# 3 2.6409 4.9591 42.1507 11.3475 6.5497 -0.7917
# 4 7.0301 -1.3919 11.3475 19.8936 5.4403 2.4968
# 5 9.8907 7.4870 6.5497 5.4403 36.4310 5.6126
# 6 -8.0448 0.5316 -0.7917 2.4968 5.6126 27.7638
#
#
#
# Elastic Compliance Matrix: (Units=1/GPa)
#
#
# Indices 1 2 3 4 5 6 
#
# 1 0.009723 -0.003495 0.001371 -0.004359 -0.002093 0.003738
# 2 -0.003495 0.016958 -0.002703 0.004832 -0.002567 -0.001330
# 3 0.001371 -0.002703 0.029023 -0.016823 -0.003047 0.003405
# 4 -0.004359 0.004832 -0.016823 0.064020 -0.005342 -0.006513
# 5 -0.002093 -0.002567 -0.003047 -0.005342 0.030877 -0.006406
# 6 0.003738 -0.001330 0.003405 -0.006513 -0.006406 0.039105
#
#
# Mechanical properties :
#
#
# Convention : Reuss Voigt Hill
#
# Bulk Modulus (GPa) = 21.71558 32.31617 27.01587
# Shear Modulus (GPa) = 23.28719 29.90760 26.59740
#
# Velocity S-wave (km/s) = 3.18250 3.60663 3.40118
# Velocity P-wave (km/s) = 4.79054 5.60348 5.21288
#
# Compressibility (1/GPa) = 0.04604989
#
# Stress axis : x y z
#
# Youngs Moduli (GPa) = 102.84957 58.96788 34.45564
#
# Poissons Ratio (x) = 0.20608 -0.04724
# Poissons Ratio (y) = 0.35944 0.09314
# Poissons Ratio (z) = -0.14101 0.15941
#
# Static dielectric constant tensor:
#      x y z
#    x 1.874720 0.004620 -0.010050 
#    y 0.004620 1.847750 -0.020500 
#    z -0.010050 -0.020500 1.894400 
# 
# From -- ./inp_files/243559.got.cif
#   From: 2010.05.17/outbox.cif.g08.bks.cpg/sg2_122_cif.got.tgz:243559.got - 2010.06.03 11:33:40.
