data_PCOD9029175
_publ_section_title
;
Structure prediction by ZEFSAII (Michael W. Deem and Ramdas Pophale) SiO2 
 PCOD9029175
Probable space group: P -1
;
_chemical_formula_sum "Si O2"
_cell_formula_units_Z 16
_cell_length_a 12.787621
_cell_length_b 5.012142
_cell_length_c 15.688561
_cell_angle_alpha 74.112228
_cell_angle_beta 49.499516
_cell_angle_gamma 95.968398
_cell_volume 678.628486
_symmetry_space_group_name_H-M "P -1"
_symmetry_group_IT_number 2
_symmetry_cell_setting 'triclinic'
loop_
_space_group_symop_operation_xyz
x,y,z
-x,-y,-z
loop_
_atom_site_type_symbol
_atom_site_label
_atom_site_fract_x
_atom_site_fract_y
_atom_site_fract_z
Si Si1 0.340625 0.332996 0.962536
Si Si2 0.086005 0.199569 0.517032
Si Si3 0.199905 0.797044 0.305763
Si Si4 0.066783 0.265306 0.023701
Si Si5 0.346384 0.753371 0.068321
Si Si6 0.594753 0.077394 0.357083
Si Si7 0.394538 0.211242 0.309037
Si Si8 0.205508 0.248179 0.781259
O O1 0.485888 0.464663 0.813412
O O2 0.209601 0.431302 0.990587
O O3 0.366874 0.493157 0.026530
O O4 0.287687 0.975929 0.028151
O O5 0.143047 0.547385 0.431283
O O6 0.244054 0.167799 0.445984
O O7 0.941333 0.130975 0.659017
O O8 0.000000 0.000000 0.500000
O O9 0.249550 0.648369 0.213704
O O10 0.331958 0.052005 0.264889
O O11 0.147917 0.148801 0.916483
O O12 0.944766 0.984316 0.162777
O O13 0.000000 0.500000 0.000000
O O14 0.500000 0.000000 0.000000
O O15 0.494134 0.100828 0.328730
O O16 0.732421 0.393381 0.276778
O O17 0.500000 0.000000 0.500000
O O18 0.661691 0.835214 0.316071
#
# Coordination Sequence:
#
# PCOD9029175 Si02
#       8
#     2   2   2   2   2   2   2   2
#     4  12  27  41  72 105 137 186 232 280 358 415
#     4   9  21  41  65  91 125 186 225 280 334 408
#     4  10  22  42  66  94 140 179 232 278 346 410
#     4  11  24  46  76 103 142 187 239 291 355 431
#     4  12  26  42  66 105 146 176 226 296 343 406
#     4  12  27  47  71 106 141 182 237 299 350 420
#     4  11  23  41  72  94 133 180 238 274 351 421
#     4  11  24  45  73  97 142 182 228 291 357 411
#
# _framework density 23.576964
#
# number of rings (size 3 to 8) (size 9 to 14) (size 15 to 20)
#    0.000    1.000    3.750    1.500   10.500    0.000 
#    2.250    2.500    0.000    0.000    0.000    0.000 
#    0.000    0.000    0.000    0.000    0.000    0.000 
#
# Total GULP energy -89150.542517 kJ/mol
# GULP energy per Si atom -5571.908907 kJ/mol
# Density = 2.352330 g / cm^3
# Si number density = 23.576964 Si / 1000 Ang^3
#
#
#
# Elastic Constant Matrix: (Units=GPa)
#
#
# Indices 1 2 3 4 5 6 
#
# 1 86.0453 7.3273 17.6704 1.3305 -14.6668 -2.5643
# 2 7.3273 91.7685 -0.1485 7.1242 0.9328 -0.2300
# 3 17.6704 -0.1485 71.5662 15.9327 -8.3300 6.6305
# 4 1.3305 7.1242 15.9327 44.8676 1.1526 -9.0519
# 5 -14.6668 0.9328 -8.3300 1.1526 29.0957 -5.7194
# 6 -2.5643 -0.2300 6.6305 -9.0519 -5.7194 21.9006
#
#
#
# Elastic Compliance Matrix: (Units=1/GPa)
#
#
# Indices 1 2 3 4 5 6 
#
# 1 0.013764 -0.001312 -0.003513 0.001933 0.006934 0.005271
# 2 -0.001312 0.011191 0.000897 -0.002340 -0.000971 -0.001528
# 3 -0.003513 0.000897 0.017661 -0.008093 0.001887 -0.008601
# 4 0.001933 -0.002340 -0.008093 0.028391 0.000459 0.014506
# 5 0.006934 -0.000971 0.001887 0.000459 0.040584 0.011019
# 6 0.005271 -0.001528 -0.008601 0.014506 0.011019 0.057739
#
#
# Mechanical properties :
#
#
# Convention : Reuss Voigt Hill
#
# Bulk Modulus (GPa) = 28.76938 33.23094 31.00016
# Shear Modulus (GPa) = 26.48698 34.14151 30.31424
#
# Velocity S-wave (km/s) = 3.35539 3.80950 3.58964
# Velocity P-wave (km/s) = 5.21923 5.78576 5.50978
#
# Compressibility (1/GPa) = 0.03475918
#
# Stress axis : x y z
#
# Youngs Moduli (GPa) = 72.65284 89.35853 56.62348
#
# Poissons Ratio (x) = 0.11724 0.19891
# Poissons Ratio (y) = 0.09532 -0.05077
# Poissons Ratio (z) = 0.25521 -0.08012
#
# Static dielectric constant tensor:
#      x y z
#    x 2.171610 0.057430 -0.008840 
#    y 0.057430 2.003750 -0.010180 
#    z -0.008840 -0.010180 1.985860 
# 
# From -- ./inp_files/510722.got.cif
#   From: 2010.05.17/outbox.cif.g08.bks.cpg/sg2_256_cif.got.tgz:510722.got - 2010.06.03 11:33:40.
