data_PCOD9029074
_publ_section_title
;
Structure prediction by ZEFSAII (Michael W. Deem and Ramdas Pophale) SiO2 
 PCOD9029074
Probable space group: P -1
;
_chemical_formula_sum "Si O2"
_cell_formula_units_Z 16
_cell_length_a 13.952607
_cell_length_b 12.446479
_cell_length_c 14.648010
_cell_angle_alpha 45.008492
_cell_angle_beta 152.262304
_cell_angle_gamma 115.255880
_cell_volume 666.755298
_symmetry_space_group_name_H-M "P -1"
_symmetry_group_IT_number 2
_symmetry_cell_setting 'triclinic'
loop_
_space_group_symop_operation_xyz
x,y,z
-x,-y,-z
loop_
_atom_site_type_symbol
_atom_site_label
_atom_site_fract_x
_atom_site_fract_y
_atom_site_fract_z
Si Si1 0.973886 0.347710 0.195704
Si Si2 0.220533 0.385833 0.538925
Si Si3 0.246796 0.643394 0.259765
Si Si4 0.342207 0.567957 0.677744
Si Si5 0.782520 0.215469 0.377012
Si Si6 0.483037 0.750411 0.533249
Si Si7 0.709289 0.909508 0.541615
Si Si8 0.209618 0.897187 0.817948
O O1 0.044881 0.340137 0.366748
O O2 0.226961 0.207138 0.430591
O O3 0.793791 0.282382 0.063004
O O4 0.780275 0.568154 0.872578
O O5 0.224724 0.508757 0.387964
O O6 0.185936 0.508680 0.524734
O O7 0.501529 0.186528 0.909115
O O8 0.500000 0.500000 0.500000
O O9 0.296415 0.767103 0.289538
O O10 0.986427 0.784084 0.900545
O O11 0.206913 0.686932 0.583201
O O12 0.407390 0.687837 0.597705
O O13 0.604512 0.373821 0.054878
O O14 0.650350 0.110817 0.348975
O O15 0.073470 0.045660 0.695215
O O16 0.504360 0.920379 0.430092
O O17 0.000000 0.000000 0.500000
#
# Coordination Sequence:
#
# PCOD9029074 Si02
#       8
#     2   2   2   2   2   2   2   2
#     4  11  20  34  61  94 128 156 200 260 310 362
#     4  11  21  35  64  93 116 165 207 248 309 372
#     4  11  18  33  59  91 127 164 200 249 317 370
#     4  10  22  43  66  85 123 177 207 243 324 374
#     4  10  22  42  66  87 127 168 204 260 311 371
#     4  11  20  36  63  92 124 167 207 253 307 372
#     4  11  22  35  62  98 126 157 211 263 308 360
#     4  11  20  39  62  93 121 157 207 258 305 358
#
# _framework density 23.99681
#
# number of rings (size 3 to 8) (size 9 to 14) (size 15 to 20)
#    0.000    1.250    6.250    1.875    0.000    1.000 
#    0.000    2.500   11.000    2.250    0.000    0.000 
#    0.000    0.000    0.000    0.000    0.000    0.000 
#
# Total GULP energy -89335.674965 kJ/mol
# GULP energy per Si atom -5583.479685 kJ/mol
# Density = 2.394219 g / cm^3
# Si number density = 23.996810 Si / 1000 Ang^3
#
#
#
# Elastic Constant Matrix: (Units=GPa)
#
#
# Indices 1 2 3 4 5 6 
#
# 1 58.6138 46.3436 15.9467 7.5189 -22.0846 -7.2726
# 2 46.3436 108.7222 32.2327 16.2472 0.2526 -22.3561
# 3 15.9467 32.2327 44.8432 16.3866 -10.2386 -2.1452
# 4 7.5189 16.2472 16.3866 31.8559 -3.9516 -5.5611
# 5 -22.0846 0.2526 -10.2386 -3.9516 26.5292 -4.0305
# 6 -7.2726 -22.3561 -2.1452 -5.5611 -4.0305 48.4686
#
#
#
# Elastic Compliance Matrix: (Units=1/GPa)
#
#
# Indices 1 2 3 4 5 6 
#
# 1 0.052768 -0.025734 0.010279 0.001520 0.048473 0.000708
# 2 -0.025734 0.025886 -0.014586 -0.002091 -0.026856 0.004960
# 3 0.010279 -0.014586 0.038446 -0.012694 0.021159 -0.003181
# 4 0.001520 -0.002091 -0.012694 0.039585 0.002810 0.003477
# 5 0.048473 -0.026856 0.021159 0.002810 0.087406 0.003413
# 6 0.000708 0.004960 -0.003181 0.003477 0.003413 0.023568
#
#
# Mechanical properties :
#
#
# Convention : Reuss Voigt Hill
#
# Bulk Modulus (GPa) = 17.53826 44.58058 31.05942
# Shear Modulus (GPa) = 14.41972 29.21450 21.81711
#
# Velocity S-wave (km/s) = 2.45399 3.49296 3.01851
# Velocity P-wave (km/s) = 3.91840 5.90641 5.01196
#
# Compressibility (1/GPa) = 0.05701820
#
# Stress axis : x y z
#
# Youngs Moduli (GPa) = 18.95084 38.63082 26.01021
#
# Poissons Ratio (x) = 0.99413 -0.26735
# Poissons Ratio (y) = 0.48768 0.37938
# Poissons Ratio (z) = -0.19479 0.56346
#
# Static dielectric constant tensor:
#      x y z
#    x 2.047900 0.052700 -0.018580 
#    y 0.052700 1.988550 -0.019110 
#    z -0.018580 -0.019110 1.888440 
# 
# From -- ./inp_files/532432.got.cif
#   From: 2010.05.17/outbox.cif.g08.bks.cpg/sg2_267_cif.got.tgz:532432.got - 2010.06.03 11:33:40.
