data_PCOD9029238
_publ_section_title
;
Structure prediction by ZEFSAII (Michael W. Deem and Ramdas Pophale) SiO2 
 PCOD9029238
Probable space group: P -1
;
_chemical_formula_sum "Si O2"
_cell_formula_units_Z 14
_cell_length_a 27.626562
_cell_length_b 12.021083
_cell_length_c 5.986527
_cell_angle_alpha 47.767923
_cell_angle_beta 139.811106
_cell_angle_gamma 154.046412
_cell_volume 560.713270
_symmetry_space_group_name_H-M "P -1"
_symmetry_group_IT_number 2
_symmetry_cell_setting 'triclinic'
loop_
_space_group_symop_operation_xyz
x,y,z
-x,-y,-z
loop_
_atom_site_type_symbol
_atom_site_label
_atom_site_fract_x
_atom_site_fract_y
_atom_site_fract_z
Si Si1 0.564615 0.207580 0.638266
Si Si2 0.247899 0.302642 0.654623
Si Si3 0.835535 0.974091 0.660212
Si Si4 0.638785 0.765582 0.540319
Si Si5 0.943272 0.536067 0.908110
Si Si6 0.135457 0.282800 0.660136
Si Si7 0.330581 0.888395 0.556311
O O1 0.637285 0.454072 0.423169
O O2 0.500000 0.000000 0.500000
O O3 0.453582 0.094467 0.554251
O O4 0.649766 0.240520 0.065499
O O5 0.144598 0.038855 0.507961
O O6 0.208157 0.387820 0.537292
O O7 0.283655 0.234263 0.050433
O O8 0.702916 0.845791 0.415303
O O9 0.814516 0.768431 0.944331
O O10 0.953129 0.246911 0.832019
O O11 0.500000 0.500000 0.500000
O O12 0.664191 0.975307 0.422331
O O13 0.902030 0.617127 0.513473
O O14 0.796235 0.271487 0.819544
O O15 0.000000 0.500000 0.000000
O O16 0.000000 0.000000 0.500000
#
# Coordination Sequence:
#
# PCOD9029238 Si02
#       7
#     2   2   2   2   2   2   2
#     4  11  24  43  69 101 135 178 234 285 342 404
#     4  11  23  42  70 104 131 177 239 281 341 416
#     4  10  22  42  66  97 137 179 227 283 339 413
#     4  11  23  41  67  97 135 180 225 287 346 403
#     4  11  21  41  67  95 135 184 223 272 346 409
#     4   9  21  40  68  92 135 179 223 274 341 406
#     4  11  24  43  67  97 140 179 225 284 343 404
#
# _framework density 24.9682
#
# number of rings (size 3 to 8) (size 9 to 14) (size 15 to 20)
#    0.000    1.429    1.429    3.429    0.000   10.286 
#    0.000    7.857    0.000    0.000    0.000    0.000 
#    0.000    0.000    0.000    0.000    0.000    0.000 
#
# Total GULP energy -77954.200291 kJ/mol
# GULP energy per Si atom -5568.157164 kJ/mol
# Density = 2.491137 g / cm^3
# Si number density = 24.968200 Si / 1000 Ang^3
#
#
#
# Elastic Constant Matrix: (Units=GPa)
#
#
# Indices 1 2 3 4 5 6 
#
# 1 138.6518 23.1254 56.5751 2.6965 35.6857 -5.9216
# 2 23.1254 66.4945 15.9036 0.9411 9.7677 0.1658
# 3 56.5751 15.9036 47.5309 6.2706 15.9536 -1.7999
# 4 2.6965 0.9411 6.2706 45.4434 -3.6940 -2.0370
# 5 35.6857 9.7677 15.9536 -3.6940 42.1139 -1.2276
# 6 -5.9216 0.1658 -1.7999 -2.0370 -1.2276 53.8271
#
#
#
# Elastic Compliance Matrix: (Units=1/GPa)
#
#
# Indices 1 2 3 4 5 6 
#
# 1 0.015797 -0.000578 -0.016340 0.000811 -0.006960 0.001065
# 2 -0.000578 0.016517 -0.004293 0.000132 -0.001712 -0.000292
# 3 -0.016340 -0.004293 0.043249 -0.005098 -0.002006 -0.000577
# 4 0.000811 0.000132 -0.005098 0.022961 0.003252 0.000861
# 5 -0.006960 -0.001712 -0.002006 0.003252 0.031085 0.000005
# 6 0.001065 -0.000292 -0.000577 0.000861 0.000005 0.018709
#
#
# Mechanical properties :
#
#
# Convention : Reuss Voigt Hill
#
# Bulk Modulus (GPa) = 30.17395 49.32058 39.74726
# Shear Modulus (GPa) = 24.77865 38.74845 31.76355
#
# Velocity S-wave (km/s) = 3.15367 3.94371 3.57060
# Velocity P-wave (km/s) = 5.03706 6.36658 5.74044
#
# Compressibility (1/GPa) = 0.03314117
#
# Stress axis : x y z
#
# Youngs Moduli (GPa) = 63.30281 60.54455 23.12194
#
# Poissons Ratio (x) = 0.03497 0.37782
# Poissons Ratio (y) = 0.03656 0.09926
# Poissons Ratio (z) = 1.03440 0.25991
#
# Static dielectric constant tensor:
#      x y z
#    x 2.310390 0.623260 -1.061890 
#    y 0.623260 3.594780 -2.418840 
#    z -1.061890 -2.418840 6.134530 
# 
# From -- ./inp_files/70408.got.cif
#   From: 2010.05.17/outbox.cif.g08.bks.cpg/sg2_36_cif.got.tgz:70408.got - 2010.06.03 11:33:40.
