data_PCOD9029587
_publ_section_title
;
Structure prediction by ZEFSAII (Michael W. Deem and Ramdas Pophale) SiO2 
 PCOD9029587
Probable space group: P -1
;
_chemical_formula_sum "Si O2"
_cell_formula_units_Z 14
_cell_length_a 11.228631
_cell_length_b 8.512257
_cell_length_c 18.804335
_cell_angle_alpha 142.726992
_cell_angle_beta 137.442040
_cell_angle_gamma 69.958771
_cell_volume 592.032126
_symmetry_space_group_name_H-M "P -1"
_symmetry_group_IT_number 2
_symmetry_cell_setting 'triclinic'
loop_
_space_group_symop_operation_xyz
x,y,z
-x,-y,-z
loop_
_atom_site_type_symbol
_atom_site_label
_atom_site_fract_x
_atom_site_fract_y
_atom_site_fract_z
Si Si1 0.942274 0.708250 0.667758
Si Si2 0.396806 0.236858 0.014480
Si Si3 0.255176 0.590442 0.994971
Si Si4 0.861375 0.605736 0.287497
Si Si5 0.540950 0.676522 0.657281
Si Si6 0.828810 0.142645 0.734744
Si Si7 0.599679 0.450264 0.735244
O O1 0.684614 0.437242 0.441521
O O2 0.994085 0.524723 0.679623
O O3 0.910107 0.991683 0.770781
O O4 0.151670 0.896718 0.773020
O O5 0.400282 0.505423 0.067864
O O6 0.640259 0.352217 0.145583
O O7 0.390709 0.302053 0.118429
O O8 0.341967 0.953567 0.170013
O O9 0.221699 0.474966 0.858197
O O10 0.026164 0.383685 0.858770
O O11 0.000000 0.000000 0.500000
O O12 0.500000 0.500000 0.500000
O O13 0.670557 0.602761 0.742417
O O14 0.724306 0.317555 0.778104
O O15 0.644280 0.863097 0.500820
#
# Coordination Sequence:
#
# PCOD9029587 Si02
#       7
#     2   2   2   2   2   2   2
#     4  10  24  43  65 100 132 180 228 274 343 406
#     4  11  24  43  71  98 139 186 230 278 335 417
#     4  11  25  42  68 103 138 175 236 280 350 395
#     4  12  25  46  73 100 137 181 233 291 341 395
#     4  11  26  42  67 106 145 176 221 286 347 412
#     4   9  22  41  66  97 135 179 224 282 337 418
#     4  10  22  42  67  98 138 180 230 269 354 410
#
# _framework density 23.647366000000002
#
# number of rings (size 3 to 8) (size 9 to 14) (size 15 to 20)
#    0.000    1.429    0.000    3.429   10.000    1.714 
#    0.000   10.714    0.000    0.000    0.000    0.000 
#    0.000    0.000    0.000    0.000    0.000    0.000 
#
# Total GULP energy -78010.319337 kJ/mol
# GULP energy per Si atom -5572.165667 kJ/mol
# Density = 2.359354 g / cm^3
# Si number density = 23.647366 Si / 1000 Ang^3
#
#
#
# Elastic Constant Matrix: (Units=GPa)
#
#
# Indices 1 2 3 4 5 6 
#
# 1 75.7345 32.7968 44.6291 -6.0060 6.5184 1.2184
# 2 32.7968 178.7720 82.9077 4.2774 2.6411 -4.6209
# 3 44.6291 82.9077 366.4365 8.9351 52.2270 22.2446
# 4 -6.0060 4.2774 8.9351 37.4628 7.5037 6.8407
# 5 6.5184 2.6411 52.2270 7.5037 53.2727 -5.7674
# 6 1.2184 -4.6209 22.2446 6.8407 -5.7674 38.2883
#
#
#
# Elastic Compliance Matrix: (Units=1/GPa)
#
#
# Indices 1 2 3 4 5 6 
#
# 1 0.015306 -0.002336 -0.001203 0.003392 -0.001147 -0.000849
# 2 -0.002336 0.006874 -0.001680 -0.001632 0.002091 0.002486
# 3 -0.001203 -0.001680 0.004028 0.000451 -0.004129 -0.003207
# 4 0.003392 -0.001632 0.000451 0.029683 -0.005685 -0.006726
# 5 -0.001147 0.002091 -0.004129 -0.005685 0.024456 0.007387
# 6 -0.000849 0.002486 -0.003207 -0.006726 0.007387 0.030622
#
#
# Mechanical properties :
#
#
# Convention : Reuss Voigt Hill
#
# Bulk Modulus (GPa) = 63.41507 104.62336 84.01921
# Shear Modulus (GPa) = 39.47444 56.51205 47.99325
#
# Velocity S-wave (km/s) = 4.09013 4.89384 4.50993
# Velocity P-wave (km/s) = 7.01290 8.73339 7.92000
#
# Compressibility (1/GPa) = 0.01576912
#
# Stress axis : x y z
#
# Youngs Moduli (GPa) = 65.33311 145.48083 248.27576
#
# Poissons Ratio (x) = 0.33986 0.29876
# Poissons Ratio (y) = 0.15263 0.41707
# Poissons Ratio (z) = 0.07862 0.24439
#
# Static dielectric constant tensor:
#      x y z
#    x 1.941150 -0.084050 0.047540 
#    y -0.084050 1.989640 0.007570 
#    z 0.047540 0.007570 1.939660 
# 
# From -- ./inp_files/594324.got.cif
#   From: 2010.05.17/outbox.cif.g08.bks.cpg/sg2_298_cif.got.tgz:594324.got - 2010.06.03 11:33:40.
