data_PCOD9029255
_publ_section_title
;
Structure prediction by ZEFSAII (Michael W. Deem and Ramdas Pophale) SiO2 
 PCOD9029255
Probable space group: P -1
;
_chemical_formula_sum "Si O2"
_cell_formula_units_Z 14
_cell_length_a 9.380792
_cell_length_b 8.940474
_cell_length_c 11.281851
_cell_angle_alpha 140.507270
_cell_angle_beta 86.774877
_cell_angle_gamma 94.154036
_cell_volume 600.180080
_symmetry_space_group_name_H-M "P -1"
_symmetry_group_IT_number 2
_symmetry_cell_setting 'triclinic'
loop_
_space_group_symop_operation_xyz
x,y,z
-x,-y,-z
loop_
_atom_site_type_symbol
_atom_site_label
_atom_site_fract_x
_atom_site_fract_y
_atom_site_fract_z
Si Si1 0.660285 0.518497 0.340327
Si Si2 0.406939 0.353579 0.009136
Si Si3 0.534502 0.161846 0.316115
Si Si4 0.970318 0.604245 0.439275
Si Si5 0.804458 0.578967 0.131522
Si Si6 0.900039 0.139486 0.721016
Si Si7 0.267598 0.699828 0.388134
O O1 0.572133 0.310568 0.286867
O O2 0.604192 0.741429 0.552609
O O3 0.826139 0.470288 0.323813
O O4 0.680615 0.573229 0.233322
O O5 0.256678 0.314128 0.921595
O O6 0.476644 0.110130 0.881850
O O7 0.500000 0.500000 0.000000
O O8 0.374741 0.512232 0.219655
O O9 0.658591 0.194749 0.432445
O O10 0.000000 0.500000 0.500000
O O11 0.117033 0.570051 0.343979
O O12 0.937450 0.881680 0.604939
O O13 0.949069 0.731540 0.250570
O O14 0.845224 0.315085 0.931854
O O15 0.780414 0.135506 0.618668
#
# Coordination Sequence:
#
# PCOD9029255 Si02
#       7
#     2   2   2   2   2   2   2
#     4  11  25  44  65  97 136 180 217 274 336 392
#     4  11  26  43  69 100 133 178 224 274 334 394
#     4  11  26  46  67  98 140 174 225 272 329 407
#     4  12  24  41  67  97 135 174 222 268 335 396
#     4  10  22  42  66  98 133 168 222 278 331 385
#     4  10  23  40  68 102 131 167 220 280 329 394
#     4  11  23  45  70 103 131 173 224 276 330 395
#
# _framework density 23.326333000000002
#
# number of rings (size 3 to 8) (size 9 to 14) (size 15 to 20)
#    0.000    1.143    2.857    2.143    6.000    2.286 
#    0.000    3.571    0.000    0.000    0.000    0.000 
#    0.000    0.000    0.000    0.000    0.000    0.000 
#
# Total GULP energy -78211.882048 kJ/mol
# GULP energy per Si atom -5586.563003 kJ/mol
# Density = 2.327324 g / cm^3
# Si number density = 23.326333 Si / 1000 Ang^3
#
#
#
# Elastic Constant Matrix: (Units=GPa)
#
#
# Indices 1 2 3 4 5 6 
#
# 1 90.6087 14.5735 6.3218 -10.1824 -12.0560 13.5020
# 2 14.5735 128.5634 54.3401 1.2993 -17.5127 7.4619
# 3 6.3218 54.3401 103.7796 3.9123 -39.8026 10.6335
# 4 -10.1824 1.2993 3.9123 26.8946 -11.1393 -4.6215
# 5 -12.0560 -17.5127 -39.8026 -11.1393 51.5611 -20.9301
# 6 13.5020 7.4619 10.6335 -4.6215 -20.9301 47.3383
#
#
#
# Elastic Compliance Matrix: (Units=1/GPa)
#
#
# Indices 1 2 3 4 5 6 
#
# 1 0.012663 -0.001514 0.001694 0.006392 0.004710 -0.001047
# 2 -0.001514 0.010236 -0.005927 -0.001217 -0.002075 -0.000887
# 3 0.001694 -0.005927 0.017637 0.004906 0.014414 0.003341
# 4 0.006392 -0.001217 0.004906 0.049035 0.019860 0.010835
# 5 0.004710 -0.002075 0.014414 0.019860 0.041764 0.016150
# 6 -0.001047 -0.000887 0.003341 0.010835 0.016150 0.029011
#
#
# Mechanical properties :
#
#
# Convention : Reuss Voigt Hill
#
# Bulk Modulus (GPa) = 34.43165 52.60251 43.51708
# Shear Modulus (GPa) = 27.54534 41.67324 34.60929
#
# Velocity S-wave (km/s) = 3.44011 4.23132 3.85606
# Velocity P-wave (km/s) = 5.52919 6.81702 6.20660
#
# Compressibility (1/GPa) = 0.02904305
#
# Stress axis : x y z
#
# Youngs Moduli (GPa) = 78.97157 97.69494 56.69962
#
# Poissons Ratio (x) = 0.14787 -0.09605
# Poissons Ratio (y) = 0.11953 0.33604
# Poissons Ratio (z) = -0.13378 0.57900
#
# Static dielectric constant tensor:
#      x y z
#    x -1.503660 1.668040 -2.853300 
#    y 1.668040 1.056420 1.396290 
#    z -2.853300 1.396290 -0.561920 
# 
# From -- ./inp_files/191114.got.cif
#   From: 2010.05.17/outbox.cif.g08.bks.cpg/sg2_96_cif.got.tgz:191114.got - 2010.06.03 11:33:40.
