data_PCOD9029832
_publ_section_title
;
Structure prediction by ZEFSAII (Michael W. Deem and Ramdas Pophale) SiO2 
 PCOD9029832
Probable space group: P -1
;
_chemical_formula_sum "Si O2"
_cell_formula_units_Z 14
_cell_length_a 15.434140
_cell_length_b 8.641144
_cell_length_c 12.081339
_cell_angle_alpha 64.670771
_cell_angle_beta 47.590076
_cell_angle_gamma 32.797577
_cell_volume 604.176214
_symmetry_space_group_name_H-M "P -1"
_symmetry_group_IT_number 2
_symmetry_cell_setting 'triclinic'
loop_
_space_group_symop_operation_xyz
x,y,z
-x,-y,-z
loop_
_atom_site_type_symbol
_atom_site_label
_atom_site_fract_x
_atom_site_fract_y
_atom_site_fract_z
Si Si1 0.534478 0.385150 0.629448
Si Si2 0.055793 0.210102 0.951204
Si Si3 0.737884 0.682692 0.272220
Si Si4 0.264943 0.178723 0.463654
Si Si5 0.902088 0.375748 0.706357
Si Si6 0.122494 0.806638 0.564383
Si Si7 0.217242 0.677745 0.997877
O O1 0.500000 0.500000 0.500000
O O2 0.644901 0.405452 0.591044
O O3 0.348240 0.547736 0.815107
O O4 0.672074 0.048969 0.605245
O O5 0.198834 0.197240 0.799623
O O6 0.177961 0.915915 0.003444
O O7 0.854950 0.506247 0.107223
O O8 0.982113 0.188862 0.915605
O O9 0.849204 0.419061 0.344334
O O10 0.487797 0.946764 0.402920
O O11 0.194160 0.430226 0.381398
O O12 0.050773 0.345918 0.639210
O O13 0.717661 0.528794 0.897629
O O14 0.032792 0.046153 0.662276
O O15 0.000000 0.000000 0.500000
#
# Coordination Sequence:
#
# PCOD9029832 Si02
#       7
#     2   2   2   2   2   2   2
#     4  11  22  42  71  96 130 185 226 269 333 416
#     4  10  23  36  68 103 130 172 224 283 332 392
#     4  11  21  44  66  97 138 177 224 279 337 404
#     4  10  22  42  68  96 131 179 226 274 340 397
#     4  10  24  43  67  96 139 171 228 291 330 398
#     4  11  24  44  66  97 138 180 222 280 344 396
#     4  11  22  43  66 100 131 178 227 278 336 401
#
# _framework density 23.172046999999999
#
# number of rings (size 3 to 8) (size 9 to 14) (size 15 to 20)
#    0.000    1.429    4.286    0.000    6.000    5.143 
#    5.143    3.571    0.000    0.000    0.000    0.000 
#    0.000    0.000    0.000    0.000    0.000    0.000 
#
# Total GULP energy -77969.468872 kJ/mol
# GULP energy per Si atom -5569.247777 kJ/mol
# Density = 2.311931 g / cm^3
# Si number density = 23.172047 Si / 1000 Ang^3
#
#
#
# Elastic Constant Matrix: (Units=GPa)
#
#
# Indices 1 2 3 4 5 6 
#
# 1 103.2458 28.8867 42.1850 -22.5191 -32.1713 -4.4310
# 2 28.8867 108.0274 58.6111 -32.7170 -19.6639 0.8244
# 3 42.1850 58.6111 145.4799 -39.9175 -30.0678 -8.4435
# 4 -22.5191 -32.7170 -39.9175 39.4086 12.9158 -4.3201
# 5 -32.1713 -19.6639 -30.0678 12.9158 33.1867 -5.3534
# 6 -4.4310 0.8244 -8.4435 -4.3201 -5.3534 39.6173
#
#
#
# Elastic Compliance Matrix: (Units=1/GPa)
#
#
# Indices 1 2 3 4 5 6 
#
# 1 0.015063 -0.000267 -0.000080 0.004377 0.013305 0.003948
# 2 -0.000267 0.013557 -0.002836 0.007492 0.002323 0.000214
# 3 -0.000080 -0.002836 0.011811 0.007882 0.006571 0.004315
# 4 0.004377 0.007492 0.007882 0.042725 0.000278 0.006710
# 5 0.013305 0.002323 0.006571 0.000278 0.051845 0.009876
# 6 0.003948 0.000214 0.004315 0.006710 0.009876 0.028664
#
#
# Mechanical properties :
#
#
# Convention : Reuss Voigt Hill
#
# Bulk Modulus (GPa) = 29.35662 68.45762 48.90712
# Shear Modulus (GPa) = 27.56529 37.58053 32.57291
#
# Velocity S-wave (km/s) = 3.45279 4.03153 3.75333
# Velocity P-wave (km/s) = 5.34716 7.16089 6.31943
#
# Compressibility (1/GPa) = 0.03406387
#
# Stress axis : x y z
#
# Youngs Moduli (GPa) = 66.38822 73.76018 84.66591
#
# Poissons Ratio (x) = 0.01970 0.00681
# Poissons Ratio (y) = 0.01773 0.24014
# Poissons Ratio (z) = 0.00534 0.20921
#
# Static dielectric constant tensor:
#      x y z
#    x 1.932050 -0.035630 0.034870 
#    y -0.035630 1.994200 -0.030140 
#    z 0.034870 -0.030140 2.028150 
# 
# From -- ./inp_files/445531.got.cif
#   From: 2010.05.17/outbox.cif.g08.bks.cpg/sg2_223_cif.got.tgz:445531.got - 2010.06.03 11:33:40.
