data_PCOD9029775
_publ_section_title
;
Structure prediction by ZEFSAII (Michael W. Deem and Ramdas Pophale) SiO2 
 PCOD9029775
Probable space group: P -1
;
_chemical_formula_sum "Si O2"
_cell_formula_units_Z 14
_cell_length_a 14.194965
_cell_length_b 14.193219
_cell_length_c 9.152052
_cell_angle_alpha 128.567219
_cell_angle_beta 105.118157
_cell_angle_gamma 32.676700
_cell_volume 607.438181
_symmetry_space_group_name_H-M "P -1"
_symmetry_group_IT_number 2
_symmetry_cell_setting 'triclinic'
loop_
_space_group_symop_operation_xyz
x,y,z
-x,-y,-z
loop_
_atom_site_type_symbol
_atom_site_label
_atom_site_fract_x
_atom_site_fract_y
_atom_site_fract_z
Si Si1 0.306867 0.378189 0.748640
Si Si2 0.606782 0.274544 0.731545
Si Si3 0.567049 0.710690 0.799023
Si Si4 0.642117 0.915264 0.681989
Si Si5 0.783922 0.244413 0.547650
Si Si6 0.150330 0.010081 0.895116
Si Si7 0.960672 0.784113 0.628689
O O1 0.449617 0.334074 0.714484
O O2 0.291278 0.292789 0.536428
O O3 0.439566 0.174893 0.741542
O O4 0.060805 0.698766 0.992695
O O5 0.638218 0.301035 0.614376
O O6 0.828420 0.988046 0.633529
O O7 0.500000 0.500000 0.000000
O O8 0.668508 0.501705 0.755500
O O9 0.778114 0.506982 0.587216
O O10 0.362523 0.858350 0.799531
O O11 0.455834 0.946761 0.065170
O O12 0.847117 0.779086 0.602451
O O13 0.823626 0.154792 0.312244
O O14 0.000000 0.000000 0.500000
O O15 0.096471 0.080767 0.114333
#
# Coordination Sequence:
#
# PCOD9029775 Si02
#       7
#     2   2   2   2   2   2   2
#     4  10  22  42  68  94 132 168 220 270 323 377
#     4  11  22  41  68  97 126 176 220 264 321 383
#     4  11  23  42  65  95 134 172 212 268 326 388
#     4   9  21  46  66  94 127 172 221 272 310 386
#     4  12  23  42  65  96 131 168 219 266 318 384
#     4  11  25  41  63 100 134 166 211 271 329 391
#     4  10  23  42  66  94 130 174 213 264 332 377
#
# _framework density 23.047613999999999
#
# number of rings (size 3 to 8) (size 9 to 14) (size 15 to 20)
#    0.000    1.429    1.429    4.714    2.000    2.857 
#    2.571    3.571    0.000    0.000    0.000    0.000 
#    0.000    0.000    0.000    0.000    0.000    0.000 
#
# Total GULP energy -78318.724782 kJ/mol
# GULP energy per Si atom -5594.194627 kJ/mol
# Density = 2.299516 g / cm^3
# Si number density = 23.047614 Si / 1000 Ang^3
#
#
#
# Elastic Constant Matrix: (Units=GPa)
#
#
# Indices 1 2 3 4 5 6 
#
# 1 70.4852 16.9148 39.9006 -6.6644 -8.6307 -1.1492
# 2 16.9148 55.5050 -1.9383 4.2724 -19.0051 -11.4041
# 3 39.9006 -1.9383 114.6611 -15.2117 1.2918 -17.7869
# 4 -6.6644 4.2724 -15.2117 44.3287 -12.0500 -0.3256
# 5 -8.6307 -19.0051 1.2918 -12.0500 46.0913 5.7074
# 6 -1.1492 -11.4041 -17.7869 -0.3256 5.7074 34.3234
#
#
#
# Elastic Compliance Matrix: (Units=1/GPa)
#
#
# Indices 1 2 3 4 5 6 
#
# 1 0.020912 -0.007281 -0.008195 0.001627 0.002354 -0.006342
# 2 -0.007281 0.024845 0.004273 0.000133 0.007688 0.008948
# 3 -0.008195 0.004273 0.013291 0.002868 -0.000402 0.008127
# 4 0.001627 0.000133 0.002868 0.025656 0.006902 0.000680
# 5 0.002354 0.007688 -0.000402 0.006902 0.027378 -0.002062
# 6 -0.006342 0.008948 0.008127 0.000680 -0.002062 0.036456
#
#
# Mechanical properties :
#
#
# Convention : Reuss Voigt Hill
#
# Bulk Modulus (GPa) = 27.29099 38.93394 33.11246
# Shear Modulus (GPa) = 27.29873 37.33363 32.31618
#
# Velocity S-wave (km/s) = 3.44532 4.02910 3.74859
# Velocity P-wave (km/s) = 5.26249 6.21083 5.75622
#
# Compressibility (1/GPa) = 0.03664214
#
# Stress axis : x y z
#
# Youngs Moduli (GPa) = 47.81878 40.24916 75.23953
#
# Poissons Ratio (x) = 0.29307 0.61657
# Poissons Ratio (y) = 0.34818 -0.32149
# Poissons Ratio (z) = 0.39186 -0.17198
#
# Static dielectric constant tensor:
#      x y z
#    x 1.864090 0.013980 -0.048280 
#    y 0.013980 1.914610 -0.068070 
#    z -0.048280 -0.068070 1.983280 
# 
# From -- ./inp_files/274527.got.cif
#   From: 2010.05.17/outbox.cif.g08.bks.cpg/sg2_138_cif.got.tgz:274527.got - 2010.06.03 11:33:40.
