data_PCOD9029896
_publ_section_title
;
Structure prediction by ZEFSAII (Michael W. Deem and Ramdas Pophale) SiO2 
 PCOD9029896
Probable space group: P -1
;
_chemical_formula_sum "Si O2"
_cell_formula_units_Z 15
_cell_length_a 17.247325
_cell_length_b 8.361505
_cell_length_c 5.574939
_cell_angle_alpha 61.233453
_cell_angle_beta 104.425312
_cell_angle_gamma 73.709516
_cell_volume 601.862249
_symmetry_space_group_name_H-M "P -1"
_symmetry_group_IT_number 2
_symmetry_cell_setting 'triclinic'
loop_
_space_group_symop_operation_xyz
x,y,z
-x,-y,-z
loop_
_atom_site_type_symbol
_atom_site_label
_atom_site_fract_x
_atom_site_fract_y
_atom_site_fract_z
Si Si1 0.183548 0.129454 0.904563
Si Si2 0.500000 0.500000 0.500000
Si Si3 0.071567 0.493265 0.868271
Si Si4 0.324961 0.935908 0.520677
Si Si5 0.028063 0.067556 0.723609
Si Si6 0.480281 0.230360 0.291002
Si Si7 0.327577 0.564320 0.634372
Si Si8 0.772979 0.626364 0.610160
O O1 0.122164 0.257904 0.986333
O O2 0.174068 0.302994 0.586806
O O3 0.135957 0.999936 0.862545
O O4 0.286541 0.020145 0.161593
O O5 0.480638 0.329200 0.471550
O O6 0.402591 0.582945 0.513343
O O7 0.022529 0.681186 0.511777
O O8 0.155093 0.513467 0.036369
O O9 0.000000 0.500000 0.000000
O O10 0.431403 0.790412 0.772070
O O11 0.284910 0.771843 0.618101
O O12 0.294991 0.146836 0.493639
O O13 0.000000 0.000000 0.500000
O O14 0.000000 0.000000 0.000000
O O15 0.500000 0.000000 0.500000
O O16 0.386820 0.371071 0.989622
O O17 0.267162 0.500112 0.471224
#
# Coordination Sequence:
#
# PCOD9029896 Si02
#       8
#     2   1   2   2   2   2   2   2
#     4  11  25  45  71 100 143 193 248 309 381 456
#     4  10  22  42  68  98 134 186 234 294 364 428
#     4  11  24  49  75 101 146 202 253 312 385 465
#     4  10  24  42  63 104 145 179 242 306 372 447
#     4  12  28  45  75 113 148 195 255 322 392 463
#     4  11  23  42  69  99 137 189 239 295 364 447
#     4  11  25  43  71 104 142 190 244 300 375 441
#     4  11  25  45  72 105 142 195 243 315 374 453
#
# _framework density 24.922646
#
# number of rings (size 3 to 8) (size 9 to 14) (size 15 to 20)
#    0.000    1.067    1.333    4.400    5.600    8.533 
#    0.000    1.333    0.000    0.000    0.000    0.000 
#    0.000    0.000    0.000    0.000    0.000    0.000 
#
# Total GULP energy -83531.391022 kJ/mol
# GULP energy per Si atom -5568.759401 kJ/mol
# Density = 2.486592 g / cm^3
# Si number density = 24.922646 Si / 1000 Ang^3
#
#
#
# Elastic Constant Matrix: (Units=GPa)
#
#
# Indices 1 2 3 4 5 6 
#
# 1 64.5101 19.5920 7.1954 11.5681 -1.5681 21.0025
# 2 19.5920 135.4451 33.8085 1.5146 10.5955 27.8230
# 3 7.1954 33.8085 96.6243 -10.2202 15.7116 17.3180
# 4 11.5681 1.5146 -10.2202 39.0884 7.4296 12.9640
# 5 -1.5681 10.5955 15.7116 7.4296 39.8366 9.5843
# 6 21.0025 27.8230 17.3180 12.9640 9.5843 52.9629
#
#
#
# Elastic Compliance Matrix: (Units=1/GPa)
#
#
# Indices 1 2 3 4 5 6 
#
# 1 0.018915 -0.001529 -0.000892 -0.004505 0.003784 -0.005988
# 2 -0.001529 0.008904 -0.002151 0.000850 -0.000918 -0.003410
# 3 -0.000892 -0.002151 0.013196 0.005856 -0.004949 -0.003369
# 4 -0.004505 0.000850 0.005856 0.032120 -0.006977 -0.007175
# 5 0.003784 -0.000918 -0.004949 -0.006977 0.029477 -0.003026
# 6 -0.005988 -0.003410 -0.003369 -0.007175 -0.003026 0.026452
#
#
# Mechanical properties :
#
#
# Convention : Reuss Voigt Hill
#
# Bulk Modulus (GPa) = 31.37712 46.41903 38.89808
# Shear Modulus (GPa) = 33.59483 42.10981 37.85232
#
# Velocity S-wave (km/s) = 3.67545 4.11496 3.90140
# Velocity P-wave (km/s) = 5.53435 6.42206 5.99466
#
# Compressibility (1/GPa) = 0.03187036
#
# Stress axis : x y z
#
# Youngs Moduli (GPa) = 52.86939 112.30975 75.77784
#
# Poissons Ratio (x) = 0.17171 0.06761
# Poissons Ratio (y) = 0.08083 0.16301
# Poissons Ratio (z) = 0.04717 0.24160
#
# Static dielectric constant tensor:
#      x y z
#    x 2.253110 -0.166540 -0.112750 
#    y -0.166540 2.110350 0.078320 
#    z -0.112750 0.078320 2.062890 
# 
# From -- ./inp_files/104599.got.cif
#   From: 2010.05.17/outbox.cif.g08.bks.cpg/sg2_53_cif.got.tgz:104599.got - 2010.06.03 11:33:40.
