data_PCOD9029696
_publ_section_title
;
Structure prediction by ZEFSAII (Michael W. Deem and Ramdas Pophale) SiO2 
 PCOD9029696
Probable space group: P -1
;
_chemical_formula_sum "Si O2"
_cell_formula_units_Z 16
_cell_length_a 5.210927
_cell_length_b 11.923193
_cell_length_c 20.713277
_cell_angle_alpha 35.888125
_cell_angle_beta 102.256293
_cell_angle_gamma 101.766363
_cell_volume 736.065503
_symmetry_space_group_name_H-M "P -1"
_symmetry_group_IT_number 2
_symmetry_cell_setting 'triclinic'
loop_
_space_group_symop_operation_xyz
x,y,z
-x,-y,-z
loop_
_atom_site_type_symbol
_atom_site_label
_atom_site_fract_x
_atom_site_fract_y
_atom_site_fract_z
Si Si1 0.328600 0.469269 0.800991
Si Si2 0.747751 0.002338 0.215505
Si Si3 0.767470 0.123920 0.455674
Si Si4 0.435286 0.709639 0.418449
Si Si5 0.553485 0.639384 0.999289
Si Si6 0.032599 0.025284 0.100439
Si Si7 0.772505 0.224680 0.881400
Si Si8 0.020046 0.165482 0.584935
O O1 0.277331 0.681635 0.675707
O O2 0.441440 0.466105 0.881951
O O3 0.533643 0.358825 0.819105
O O4 0.047805 0.351673 0.837146
O O5 0.896865 0.913452 0.204933
O O6 0.504910 0.863541 0.293199
O O7 0.931744 0.019156 0.281435
O O8 0.663640 0.204782 0.092385
O O9 0.844061 0.160135 0.516421
O O10 0.500000 0.000000 0.500000
O O11 0.000000 0.000000 0.500000
O O12 0.500000 0.500000 0.500000
O O13 0.684223 0.767923 0.451059
O O14 0.146987 0.713411 0.430385
O O15 0.500000 0.500000 0.000000
O O16 0.815386 0.784120 0.950818
O O17 0.809001 0.085709 0.009694
O O18 0.224721 0.903698 0.123213
#
# Coordination Sequence:
#
# PCOD9029696 Si02
#       8
#     2   2   2   2   2   2   2   2
#     4  11  25  47  69 110 134 188 239 288 359 422
#     4  10  23  41  69 101 144 176 239 278 366 411
#     4  12  27  48  74  98 140 189 242 295 347 419
#     4  10  22  43  69 102 142 182 229 285 345 424
#     4  11  25  43  71 105 144 182 236 294 355 429
#     4  10  22  42  68 105 140 191 225 290 367 417
#     4  10  23  43  72  99 150 176 236 289 351 439
#     4  10  24  44  66  99 140 179 237 279 353 402
#
# _framework density 21.737196000000001
#
# number of rings (size 3 to 8) (size 9 to 14) (size 15 to 20)
#    0.750    0.750    1.250    2.625    3.500    4.000 
#    4.500    0.000    0.000    0.000    0.000    0.000 
#    0.000    0.000    0.000    0.000    0.000    0.000 
#
# Total GULP energy -89211.480919 kJ/mol
# GULP energy per Si atom -5575.717557 kJ/mol
# Density = 2.168772 g / cm^3
# Si number density = 21.737196 Si / 1000 Ang^3
#
#
#
# Elastic Constant Matrix: (Units=GPa)
#
#
# Indices 1 2 3 4 5 6 
#
# 1 101.6916 25.4329 39.1741 -11.8593 12.0358 -19.9956
# 2 25.4329 108.0589 60.5380 7.1053 0.3026 -6.1235
# 3 39.1741 60.5380 147.1324 6.6599 24.9140 -3.7590
# 4 -11.8593 7.1053 6.6599 22.8074 2.4132 6.9345
# 5 12.0358 0.3026 24.9140 2.4132 33.3877 -0.3587
# 6 -19.9956 -6.1235 -3.7590 6.9345 -0.3587 43.4935
#
#
#
# Elastic Compliance Matrix: (Units=1/GPa)
#
#
# Indices 1 2 3 4 5 6 
#
# 1 0.013401 -0.002063 -0.002334 0.007308 -0.003550 0.004474
# 2 -0.002063 0.013162 -0.005490 -0.004465 0.005057 0.001184
# 3 -0.002334 -0.005490 0.010951 -0.001736 -0.007162 -0.000682
# 4 0.007308 -0.004465 -0.001736 0.051824 -0.005106 -0.005724
# 5 -0.003550 0.005057 -0.007162 -0.005106 0.036894 -0.000421
# 6 0.004474 0.001184 -0.000682 -0.005724 -0.000421 0.026066
#
#
# Mechanical properties :
#
#
# Convention : Reuss Voigt Hill
#
# Bulk Modulus (GPa) = 56.37429 67.46367 61.91898
# Shear Modulus (GPa) = 28.09198 35.38690 31.73944
#
# Velocity S-wave (km/s) = 3.59882 4.03915 3.82533
# Velocity P-wave (km/s) = 6.57719 7.27024 6.93238
#
# Compressibility (1/GPa) = 0.01773858
#
# Stress axis : x y z
#
# Youngs Moduli (GPa) = 74.61991 75.97571 91.31584
#
# Poissons Ratio (x) = 0.15677 0.21317
# Poissons Ratio (y) = 0.15397 0.50133
# Poissons Ratio (z) = 0.17419 0.41712
#
# Static dielectric constant tensor:
#      x y z
#    x 1.860850 0.003850 -0.005860 
#    y 0.003850 1.828200 0.010690 
#    z -0.005860 0.010690 1.824140 
# 
# From -- ./inp_files/583011.got.cif
#   From: 2010.05.17/outbox.cif.g08.bks.cpg/sg2_292_cif.got.tgz:583011.got - 2010.06.03 11:33:40.
