data_PCOD9029386
_publ_section_title
;
Structure prediction by ZEFSAII (Michael W. Deem and Ramdas Pophale) SiO2 
 PCOD9029386
Probable space group: P -1
;
_chemical_formula_sum "Si O2"
_cell_formula_units_Z 16
_cell_length_a 16.587088
_cell_length_b 8.633642
_cell_length_c 20.012872
_cell_angle_alpha 133.013442
_cell_angle_beta 20.014931
_cell_angle_gamma 124.461517
_cell_volume 684.175418
_symmetry_space_group_name_H-M "P -1"
_symmetry_group_IT_number 2
_symmetry_cell_setting 'triclinic'
loop_
_space_group_symop_operation_xyz
x,y,z
-x,-y,-z
loop_
_atom_site_type_symbol
_atom_site_label
_atom_site_fract_x
_atom_site_fract_y
_atom_site_fract_z
Si Si1 0.005535 0.841042 0.553150
Si Si2 0.747096 0.622946 0.797229
Si Si3 0.730503 0.261475 0.047270
Si Si4 0.765588 0.740583 0.156101
Si Si5 0.697683 0.298400 0.926175
Si Si6 0.506992 0.040094 0.789225
Si Si7 0.198500 0.946478 0.658676
Si Si8 0.068281 0.320122 0.133356
O O1 0.100547 0.622322 0.369318
O O2 0.223075 0.946148 0.430411
O O3 0.911832 0.743390 0.663000
O O4 0.794215 0.047850 0.749251
O O5 0.551782 0.584779 0.884368
O O6 0.606506 0.782119 0.011253
O O7 0.761921 0.497902 0.110881
O O8 0.526348 0.189848 0.227386
O O9 0.661815 0.272324 0.025663
O O10 0.990749 0.073351 0.805046
O O11 0.826894 0.882508 0.209677
O O12 0.482233 0.866794 0.392064
O O13 0.951775 0.704783 0.937915
O O14 0.880480 0.447739 0.823893
O O15 0.320685 0.130060 0.900502
O O16 0.131963 0.735811 0.680088
#
# Coordination Sequence:
#
# PCOD9029386 Si02
#       8
#     2   2   2   2   2   2   2   2
#     4  11  24  39  66  82 122 173 198 260 306 339
#     4  11  24  45  56  90 128 161 210 253 300 352
#     4  10  23  40  63  92 128 152 203 258 293 361
#     4  10  22  42  67  92 121 160 197 244 312 370
#     4  11  23  42  61  91 123 164 207 250 299 357
#     4  11  23  42  61  91 123 164 207 250 299 357
#     4  10  22  42  67  92 121 160 197 244 312 370
#     4  10  23  40  63  92 128 152 203 258 293 361
#
# _framework density 23.385814
#
# number of rings (size 3 to 8) (size 9 to 14) (size 15 to 20)
#    0.000    1.500    2.500    1.500    3.500    0.500 
#    2.250    0.000    0.000    7.500    0.000    0.000 
#    0.000    0.000    0.000    0.000    0.000    0.000 
#
# Total GULP energy -89539.779707 kJ/mol
# GULP energy per Si atom -5596.236232 kJ/mol
# Density = 2.333259 g / cm^3
# Si number density = 23.385814 Si / 1000 Ang^3
#
#
#
# Elastic Constant Matrix: (Units=GPa)
#
#
# Indices 1 2 3 4 5 6 
#
# 1 69.8653 27.1391 12.0925 -5.1195 9.7004 -3.1359
# 2 27.1391 126.0359 5.5119 17.7627 8.1847 -5.9541
# 3 12.0925 5.5119 42.0412 2.4445 -2.3397 -3.6703
# 4 -5.1195 17.7627 2.4445 40.2582 -0.3390 -1.8760
# 5 9.7004 8.1847 -2.3397 -0.3390 17.1295 -2.5533
# 6 -3.1359 -5.9541 -3.6703 -1.8760 -2.5533 25.3964
#
#
#
# Elastic Compliance Matrix: (Units=1/GPa)
#
#
# Indices 1 2 3 4 5 6 
#
# 1 0.018303 -0.003691 -0.005544 0.004213 -0.009279 -0.000028
# 2 -0.003691 0.009599 0.000047 -0.004671 -0.002401 0.001215
# 3 -0.005544 0.000047 0.026219 -0.002085 0.007207 0.003686
# 4 0.004213 -0.004671 -0.002085 0.027621 0.000285 0.001193
# 5 -0.009279 -0.002401 0.007207 0.000285 0.066674 0.006057
# 6 -0.000028 0.001215 0.003686 0.001193 0.006057 0.040887
#
#
# Mechanical properties :
#
#
# Convention : Reuss Voigt Hill
#
# Bulk Modulus (GPa) = 27.97702 36.38103 32.17903
# Shear Modulus (GPa) = 22.76943 29.43672 26.10308
#
# Velocity S-wave (km/s) = 3.12371 3.55173 3.34457
# Velocity P-wave (km/s) = 4.99993 5.69301 5.35769
#
# Compressibility (1/GPa) = 0.03574362
#
# Stress axis : x y z
#
# Youngs Moduli (GPa) = 54.63723 104.18204 38.14039
#
# Poissons Ratio (x) = 0.38455 0.21147
# Poissons Ratio (y) = 0.20167 -0.00180
# Poissons Ratio (z) = 0.30293 -0.00493
#
# Static dielectric constant tensor:
#      x y z
#    x 1.845770 -0.006900 0.009230 
#    y -0.006900 1.869650 -0.001030 
#    z 0.009230 -0.001030 1.902680 
# 
# From -- ./inp_files/599544.got.cif
#   From: 2010.05.17/outbox.cif.g08.bks.cpg/sg2_300_cif.got.tgz:599544.got - 2010.06.03 11:33:40.
