data_PCOD9029788
_publ_section_title
;
Structure prediction by ZEFSAII (Michael W. Deem and Ramdas Pophale) SiO2 
 PCOD9029788
Probable space group: P -1
;
_chemical_formula_sum "Si O2"
_cell_formula_units_Z 11
_cell_length_a 10.234297
_cell_length_b 8.174531
_cell_length_c 9.844830
_cell_angle_alpha 113.150261
_cell_angle_beta 141.455832
_cell_angle_gamma 65.286823
_cell_volume 463.015618
_symmetry_space_group_name_H-M "P -1"
_symmetry_group_IT_number 2
_symmetry_cell_setting 'triclinic'
loop_
_space_group_symop_operation_xyz
x,y,z
-x,-y,-z
loop_
_atom_site_type_symbol
_atom_site_label
_atom_site_fract_x
_atom_site_fract_y
_atom_site_fract_z
Si Si1 0.149375 0.880247 0.973439
Si Si2 0.913343 0.716363 0.488877
Si Si3 0.000000 0.500000 0.000000
Si Si4 0.588793 0.819182 0.720501
Si Si5 0.190033 0.704553 0.461582
Si Si6 0.536979 0.673084 0.335837
O O1 0.288438 0.703810 0.103460
O O2 0.308071 0.010420 0.102948
O O3 0.019308 0.814989 0.725952
O O4 0.000000 0.000000 0.000000
O O5 0.667700 0.732128 0.334667
O O6 0.000000 0.500000 0.500000
O O7 0.001016 0.773243 0.436444
O O8 0.236303 0.357942 0.155941
O O9 0.086442 0.636187 0.222343
O O10 0.559822 0.794862 0.526150
O O11 0.644682 0.168820 0.401329
O O12 0.347287 0.528964 0.598024
#
# Coordination Sequence:
#
# PCOD9029788 Si02
#       6
#     2   2   1   2   2   2
#     4  12  26  41  71  99 135 177 223 274 339 385
#     4  10  24  44  65 101 133 176 220 275 332 397
#     4  10  22  42  68  94 138 178 214 262 344 390
#     4  11  24  39  68 101 131 175 227 272 323 401
#     4  10  24  41  69 100 133 174 225 272 326 398
#     4  10  22  43  69  97 132 174 224 271 325 403
#
# _framework density 23.757300999999998
#
# number of rings (size 3 to 8) (size 9 to 14) (size 15 to 20)
#    0.000    1.455    1.818    2.727    5.091    5.091 
#    0.000    1.818    0.000    0.000    0.000    0.000 
#    0.000    0.000    0.000    0.000    0.000    0.000 
#
# Total GULP energy -61312.200922 kJ/mol
# GULP energy per Si atom -5573.836447 kJ/mol
# Density = 2.370323 g / cm^3
# Si number density = 23.757301 Si / 1000 Ang^3
#
#
#
# Elastic Constant Matrix: (Units=GPa)
#
#
# Indices 1 2 3 4 5 6 
#
# 1 133.4745 29.6503 11.0114 7.8603 8.0508 -17.3063
# 2 29.6503 54.7101 9.1388 -1.8714 -1.0734 -8.3924
# 3 11.0114 9.1388 66.0822 10.0187 6.9178 -11.8553
# 4 7.8603 -1.8714 10.0187 49.4156 -3.3356 9.2190
# 5 8.0508 -1.0734 6.9178 -3.3356 15.3622 -0.7040
# 6 -17.3063 -8.3924 -11.8553 9.2190 -0.7040 25.2329
#
#
#
# Elastic Compliance Matrix: (Units=1/GPa)
#
#
# Indices 1 2 3 4 5 6 
#
# 1 0.010022 -0.004856 0.001614 -0.003921 -0.006837 0.007259
# 2 -0.004856 0.021875 -0.002812 0.002199 0.005908 0.001985
# 3 0.001614 -0.002812 0.019600 -0.007261 -0.010907 0.011729
# 4 -0.003921 0.002199 -0.007261 0.025827 0.010421 -0.014515
# 5 -0.006837 0.005908 -0.010907 0.010421 0.075828 -0.009541
# 6 0.007259 0.001985 0.011729 -0.014515 -0.009541 0.055817
#
#
# Mechanical properties :
#
#
# Convention : Reuss Voigt Hill
#
# Bulk Modulus (GPa) = 25.38751 39.31864 32.35308
# Shear Modulus (GPa) = 21.34869 31.63322 26.49095
#
# Velocity S-wave (km/s) = 3.00094 3.65295 3.34288
# Velocity P-wave (km/s) = 4.76623 5.86329 5.34299
#
# Compressibility (1/GPa) = 0.03938945
#
# Stress axis : x y z
#
# Youngs Moduli (GPa) = 99.77947 45.71384 51.02164
#
# Poissons Ratio (x) = 0.22198 -0.08235
# Poissons Ratio (y) = 0.48452 0.14346
# Poissons Ratio (z) = -0.16104 0.12854
#
# Static dielectric constant tensor:
#      x y z
#    x 2.005850 0.055140 -0.004530 
#    y 0.055140 1.969370 -0.052860 
#    z -0.004530 -0.052860 1.808220 
# 
# From -- ./inp_files/449502.got.cif
#   From: 2010.05.17/outbox.cif.g08.bks.cpg/sg2_225_cif.got.tgz:449502.got - 2010.06.03 11:33:40.
