data_PCOD9029865
_publ_section_title
;
Structure prediction by ZEFSAII (Michael W. Deem and Ramdas Pophale) SiO2 
 PCOD9029865
Probable space group: P -1
;
_chemical_formula_sum "Si O2"
_cell_formula_units_Z 16
_cell_length_a 12.645114
_cell_length_b 7.087099
_cell_length_c 12.716070
_cell_angle_alpha 76.901461
_cell_angle_beta 128.579893
_cell_angle_gamma 127.778012
_cell_volume 681.489262
_symmetry_space_group_name_H-M "P -1"
_symmetry_group_IT_number 2
_symmetry_cell_setting 'triclinic'
loop_
_space_group_symop_operation_xyz
x,y,z
-x,-y,-z
loop_
_atom_site_type_symbol
_atom_site_label
_atom_site_fract_x
_atom_site_fract_y
_atom_site_fract_z
Si Si1 0.186102 0.257617 0.068352
Si Si2 0.245883 0.170166 0.682109
Si Si3 0.868169 0.471724 0.831395
Si Si4 0.929831 0.975339 0.628054
Si Si5 0.594207 0.074653 0.160618
Si Si6 0.507491 0.260562 0.274188
Si Si7 0.619588 0.417622 0.555465
Si Si8 0.083125 0.440305 0.797856
O O1 0.192147 0.393714 0.157559
O O2 0.329638 0.220692 0.160364
O O3 0.186724 0.390692 0.948023
O O4 0.000000 0.000000 0.000000
O O5 0.137442 0.024831 0.528803
O O6 0.335537 0.455848 0.695270
O O7 0.390074 0.137164 0.779879
O O8 0.120125 0.058140 0.717802
O O9 0.675016 0.285435 0.680990
O O10 0.983680 0.507634 0.798850
O O11 0.000000 0.500000 0.000000
O O12 0.801320 0.693061 0.617940
O O13 0.950162 0.179778 0.688479
O O14 0.507615 0.100709 0.203052
O O15 0.783409 0.335803 0.225138
O O16 0.500000 0.000000 0.000000
O O17 0.548711 0.268513 0.421532
O O18 0.500000 0.500000 0.500000
#
# Coordination Sequence:
#
# PCOD9029865 Si02
#       8
#     2   2   2   2   2   2   2   2
#     4  11  24  43  68  94 139 192 235 293 357 424
#     4  10  23  45  66  98 142 178 231 293 357 425
#     4  10  23  43  65 100 135 178 236 292 347 430
#     4  10  22  42  68  97 136 185 228 288 356 427
#     4  12  27  42  69 103 140 185 232 301 361 421
#     4  11  25  45  69 104 142 183 243 299 357 430
#     4  11  22  44  71 100 140 192 238 291 363 433
#     4  11  24  41  70 100 136 181 242 287 358 436
#
# _framework density 23.477992
#
# number of rings (size 3 to 8) (size 9 to 14) (size 15 to 20)
#    0.000    1.250    2.500    2.250    5.250    1.500 
#    2.250    0.625    0.000    0.000    0.000    0.000 
#    0.000    0.000    0.000    0.000    0.000    0.000 
#
# Total GULP energy -89165.985018 kJ/mol
# GULP energy per Si atom -5572.874064 kJ/mol
# Density = 2.342455 g / cm^3
# Si number density = 23.477992 Si / 1000 Ang^3
#
#
#
# Elastic Constant Matrix: (Units=GPa)
#
#
# Indices 1 2 3 4 5 6 
#
# 1 152.8307 17.8827 44.2712 1.2894 -3.4976 -29.3526
# 2 17.8827 42.4870 7.4608 13.2634 -9.1972 0.4529
# 3 44.2712 7.4608 118.3754 -10.6529 -2.0845 -18.1025
# 4 1.2894 13.2634 -10.6529 38.4674 -5.2762 8.6467
# 5 -3.4976 -9.1972 -2.0845 -5.2762 42.3504 4.4605
# 6 -29.3526 0.4529 -18.1025 8.6467 4.4605 35.9448
#
#
#
# Elastic Compliance Matrix: (Units=1/GPa)
#
#
# Indices 1 2 3 4 5 6 
#
# 1 0.008811 -0.003139 -0.002239 -0.001438 -0.000935 0.006570
# 2 -0.003139 0.029171 -0.001746 -0.009243 0.005072 -0.002216
# 3 -0.002239 -0.001746 0.010046 0.002887 0.000021 0.002556
# 4 -0.001438 -0.009243 0.002887 0.032147 0.002831 -0.007688
# 5 -0.000935 0.005072 0.000021 0.002831 0.025481 -0.004660
# 6 0.006570 -0.002216 0.002556 -0.007688 -0.004660 0.036928
#
#
# Mechanical properties :
#
#
# Convention : Reuss Voigt Hill
#
# Bulk Modulus (GPa) = 29.60234 50.32471 39.96353
# Shear Modulus (GPa) = 29.74537 39.62443 34.68490
#
# Velocity S-wave (km/s) = 3.56328 4.11265 3.84778
# Velocity P-wave (km/s) = 5.43739 6.63576 6.06624
#
# Compressibility (1/GPa) = 0.03378111
#
# Stress axis : x y z
#
# Youngs Moduli (GPa) = 113.48811 34.28024 99.54087
#
# Poissons Ratio (x) = 0.10761 0.22285
# Poissons Ratio (y) = 0.35626 0.17379
# Poissons Ratio (z) = 0.25408 0.05985
#
# Static dielectric constant tensor:
#      x y z
#    x 1.958400 0.230850 -0.039550 
#    y 0.230850 2.355450 -0.179250 
#    z -0.039550 -0.179250 2.091220 
# 
# From -- ./inp_files/511034.got.cif
#   From: 2010.05.17/outbox.cif.g08.bks.cpg/sg2_256_cif.got.tgz:511034.got - 2010.06.03 11:33:40.
