data_PCOD9029498
_publ_section_title
;
Structure prediction by ZEFSAII (Michael W. Deem and Ramdas Pophale) SiO2 
 PCOD9029498
Probable space group: P -1
;
_chemical_formula_sum "Si O2"
_cell_formula_units_Z 14
_cell_length_a 11.505357
_cell_length_b 8.436921
_cell_length_c 8.414893
_cell_angle_alpha 107.789689
_cell_angle_beta 88.376460
_cell_angle_gamma 49.428650
_cell_volume 560.931916
_symmetry_space_group_name_H-M "P -1"
_symmetry_group_IT_number 2
_symmetry_cell_setting 'triclinic'
loop_
_space_group_symop_operation_xyz
x,y,z
-x,-y,-z
loop_
_atom_site_type_symbol
_atom_site_label
_atom_site_fract_x
_atom_site_fract_y
_atom_site_fract_z
Si Si1 0.849732 0.073886 0.663952
Si Si2 0.451757 0.737121 0.107656
Si Si3 0.689448 0.911377 0.065758
Si Si4 0.854070 0.354038 0.292739
Si Si5 0.191300 0.543666 0.020229
Si Si6 0.261693 0.862485 0.651450
Si Si7 0.544080 0.818300 0.574504
O O1 0.837979 0.266047 0.810572
O O2 0.846561 0.083775 0.477097
O O3 0.684408 0.136823 0.718197
O O4 0.986261 0.832777 0.669845
O O5 0.625807 0.632849 0.110688
O O6 0.366776 0.911636 0.016745
O O7 0.500000 0.500000 0.000000
O O8 0.793588 0.913950 0.190919
O O9 0.518277 0.054115 0.212508
O O10 0.791997 0.645737 0.943349
O O11 0.761495 0.266318 0.265581
O O12 0.729511 0.593983 0.466183
O O13 0.901002 0.360361 0.114297
O O14 0.441307 0.745266 0.557909
O O15 0.500000 0.000000 0.500000
#
# Coordination Sequence:
#
# PCOD9029498 Si02
#       7
#     2   2   2   2   2   2   2
#     4  11  25  40  66 101 131 169 216 274 322 381
#     4  10  22  42  67  96 130 170 223 259 318 393
#     4  10  23  43  70  95 125 173 220 269 319 379
#     4  12  22  43  67  96 132 172 217 271 322 387
#     4  11  23  43  66  95 133 172 216 266 324 388
#     4  10  23  41  68  96 124 172 223 259 322 389
#     4  10  22  42  71  93 127 165 227 262 326 376
#
# _framework density 24.958468
#
# number of rings (size 3 to 8) (size 9 to 14) (size 15 to 20)
#    0.857    0.571    1.429    4.286    4.000    0.000 
#    0.000    7.143    0.000    0.000    0.000    0.000 
#    0.000    0.000    0.000    0.000    0.000    0.000 
#
# Total GULP energy -78121.522491 kJ/mol
# GULP energy per Si atom -5580.108749 kJ/mol
# Density = 2.490166 g / cm^3
# Si number density = 24.958468 Si / 1000 Ang^3
#
#
#
# Elastic Constant Matrix: (Units=GPa)
#
#
# Indices 1 2 3 4 5 6 
#
# 1 31.3191 12.8451 3.5806 7.2165 -0.4198 -3.1511
# 2 12.8451 155.5363 45.6335 3.3204 7.4872 10.0167
# 3 3.5806 45.6335 96.5182 -5.3731 -1.1923 -1.2994
# 4 7.2165 3.3204 -5.3731 46.4685 -0.5485 -7.1558
# 5 -0.4198 7.4872 -1.1923 -0.5485 40.8362 -2.8509
# 6 -3.1511 10.0167 -1.2994 -7.1558 -2.8509 31.8281
#
#
#
# Elastic Compliance Matrix: (Units=1/GPa)
#
#
# Indices 1 2 3 4 5 6 
#
# 1 0.034597 -0.003015 -0.000056 -0.004623 0.001084 0.003430
# 2 -0.003015 0.008152 -0.003874 -0.001115 -0.001894 -0.003442
# 3 -0.000056 -0.003874 0.012357 0.002083 0.001259 0.002299
# 4 -0.004623 -0.001115 0.002083 0.023388 0.000903 0.005317
# 5 0.001084 -0.001894 0.001259 0.000903 0.025119 0.003208
# 6 0.003430 -0.003442 0.002299 0.005317 0.003208 0.034418
#
#
# Mechanical properties :
#
#
# Convention : Reuss Voigt Hill
#
# Bulk Modulus (GPa) = 24.26248 45.27690 34.76969
# Shear Modulus (GPa) = 30.18231 38.58085 34.38158
#
# Velocity S-wave (km/s) = 3.48127 3.93593 3.71556
# Velocity P-wave (km/s) = 5.08933 6.23183 5.68933
#
# Compressibility (1/GPa) = 0.04121590
#
# Stress axis : x y z
#
# Youngs Moduli (GPa) = 28.90404 122.67431 80.92641
#
# Poissons Ratio (x) = 0.36990 0.00450
# Poissons Ratio (y) = 0.08715 0.31351
# Poissons Ratio (z) = 0.00161 0.47524
#
# Static dielectric constant tensor:
#      x y z
#    x 2.142610 0.023820 -0.059470 
#    y 0.023820 1.999890 -0.008610 
#    z -0.059470 -0.008610 1.973080 
# 
# From -- ./inp_files/243949.got.cif
#   From: 2010.05.17/outbox.cif.g08.bks.cpg/sg2_122_cif.got.tgz:243949.got - 2010.06.03 11:33:40.
