data_PCOD9029163
_publ_section_title
;
Structure prediction by ZEFSAII (Michael W. Deem and Ramdas Pophale) SiO2 
 PCOD9029163
Probable space group: P -1
;
_chemical_formula_sum "Si O2"
_cell_formula_units_Z 14
_cell_length_a 11.671662
_cell_length_b 13.576684
_cell_length_c 13.248174
_cell_angle_alpha 112.620280
_cell_angle_beta 150.068884
_cell_angle_gamma 91.230616
_cell_volume 616.529656
_symmetry_space_group_name_H-M "P -1"
_symmetry_group_IT_number 2
_symmetry_cell_setting 'triclinic'
loop_
_space_group_symop_operation_xyz
x,y,z
-x,-y,-z
loop_
_atom_site_type_symbol
_atom_site_label
_atom_site_fract_x
_atom_site_fract_y
_atom_site_fract_z
Si Si1 0.896010 0.136658 0.406259
Si Si2 0.084224 0.349718 0.310105
Si Si3 0.693748 0.177245 0.745203
Si Si4 0.041737 0.066904 0.687285
Si Si5 0.132144 0.667815 0.644173
Si Si6 0.675155 0.711252 0.823446
Si Si7 0.570593 0.332053 0.598884
O O1 0.033105 0.306584 0.554337
O O2 0.880069 0.094643 0.495000
O O3 0.097093 0.105498 0.496724
O O4 0.500000 0.000000 0.000000
O O5 0.325976 0.540744 0.547025
O O6 0.351282 0.348223 0.489591
O O7 0.935608 0.297441 0.287924
O O8 0.768744 0.226278 0.938408
O O9 0.481730 0.195084 0.538480
O O10 0.500000 0.000000 0.500000
O O11 0.086851 0.302114 0.042289
O O12 0.453454 0.200428 0.016116
O O13 0.086604 0.132223 0.857926
O O14 0.000000 0.500000 0.500000
O O15 0.543288 0.720716 0.625063
O O16 0.000000 0.500000 0.000000
#
# Coordination Sequence:
#
# PCOD9029163 Si02
#       7
#     2   2   2   2   2   2   2
#     4   9  22  43  63  91 134 173 213 264 325 383
#     4  11  23  42  64  96 133 165 220 269 316 393
#     4  11  25  41  65  99 129 164 216 273 326 380
#     4  10  22  42  66  94 132 172 214 267 323 386
#     4  11  23  40  63  98 130 168 218 267 319 384
#     4  11  22  41  68  97 126 170 222 258 324 397
#     4  11  21  42  69  89 125 174 208 264 330 379
#
# _framework density 22.707747999999999
#
# number of rings (size 3 to 8) (size 9 to 14) (size 15 to 20)
#    0.000    1.429    4.286    0.857    0.000   12.000 
#    2.571    0.000    0.000    0.000    0.000    0.000 
#    0.000    0.000    0.000    0.000    0.000    0.000 
#
# Total GULP energy -78168.831251 kJ/mol
# GULP energy per Si atom -5583.487946 kJ/mol
# Density = 2.265606 g / cm^3
# Si number density = 22.707748 Si / 1000 Ang^3
#
#
#
# Elastic Constant Matrix: (Units=GPa)
#
#
# Indices 1 2 3 4 5 6 
#
# 1 106.5545 20.5689 25.3764 -24.3926 -17.9193 7.5073
# 2 20.5689 177.6949 42.7520 -27.1105 -14.7598 -16.2888
# 3 25.3764 42.7520 75.4594 -23.1943 -18.2791 -2.2061
# 4 -24.3926 -27.1105 -23.1943 44.4240 8.8115 -3.7324
# 5 -17.9193 -14.7598 -18.2791 8.8115 39.2743 4.3533
# 6 7.5073 -16.2888 -2.2061 -3.7324 4.3533 24.1452
#
#
#
# Elastic Compliance Matrix: (Units=1/GPa)
#
#
# Indices 1 2 3 4 5 6 
#
# 1 0.011774 -0.000376 -0.001588 0.004269 0.003990 -0.004119
# 2 -0.000376 0.007343 -0.002908 0.003218 -0.000076 0.005316
# 3 -0.001588 -0.002908 0.018609 0.005997 0.005479 0.000172
# 4 0.004269 0.003218 0.005997 0.030827 -0.001684 0.006461
# 5 0.003990 -0.000076 0.005479 -0.001684 0.030916 -0.006626
# 6 -0.004119 0.005316 0.000172 0.006461 -0.006626 0.048492
#
#
# Mechanical properties :
#
#
# Convention : Reuss Voigt Hill
#
# Bulk Modulus (GPa) = 35.73588 59.67816 47.70702
# Shear Modulus (GPa) = 29.93444 39.63612 34.78528
#
# Velocity S-wave (km/s) = 3.63471 4.18244 3.91815
# Velocity P-wave (km/s) = 5.77809 7.04711 6.44391
#
# Compressibility (1/GPa) = 0.02798308
#
# Stress axis : x y z
#
# Youngs Moduli (GPa) = 84.93158 136.19151 53.73658
#
# Poissons Ratio (x) = 0.05115 0.08536
# Poissons Ratio (y) = 0.03190 0.15624
# Poissons Ratio (z) = 0.13491 0.39598
#
# Static dielectric constant tensor:
#      x y z
#    x 1.846410 -0.014570 0.001760 
#    y -0.014570 2.030490 0.101210 
#    z 0.001760 0.101210 1.902940 
# 
# From -- ./inp_files/26811.got.cif
#   From: 2010.05.17/outbox.cif.g08.bks.cpg/sg2_14_cif.got.tgz:26811.got - 2010.06.03 11:33:40.
