data_PCOD9029683
_publ_section_title
;
Structure prediction by ZEFSAII (Michael W. Deem and Ramdas Pophale) SiO2 
 PCOD9029683
Probable space group: P -1
;
_chemical_formula_sum "Si O2"
_cell_formula_units_Z 16
_cell_length_a 17.171615
_cell_length_b 6.355761
_cell_length_c 22.033994
_cell_angle_alpha 92.742270
_cell_angle_beta 159.985073
_cell_angle_gamma 100.207169
_cell_volume 624.873981
_symmetry_space_group_name_H-M "P -1"
_symmetry_group_IT_number 2
_symmetry_cell_setting 'triclinic'
loop_
_space_group_symop_operation_xyz
x,y,z
-x,-y,-z
loop_
_atom_site_type_symbol
_atom_site_label
_atom_site_fract_x
_atom_site_fract_y
_atom_site_fract_z
Si Si1 0.020587 0.371780 0.452552
Si Si2 0.564852 0.725458 0.597408
Si Si3 0.288848 0.523715 0.204132
Si Si4 0.100854 0.221684 0.938649
Si Si5 0.721607 0.135744 0.526472
Si Si6 0.680804 0.411127 0.104168
Si Si7 0.553943 0.937582 0.794972
Si Si8 0.545726 0.720706 0.192231
O O1 0.303815 0.618604 0.624373
O O2 0.154445 0.229134 0.571832
O O3 0.000000 0.500000 0.500000
O O4 0.759770 0.289729 0.213261
O O5 0.500000 0.500000 0.500000
O O6 0.728043 0.693778 0.769986
O O7 0.297780 0.695733 0.434150
O O8 0.766743 0.025787 0.716986
O O9 0.287138 0.443667 0.132360
O O10 0.600176 0.833431 0.453255
O O11 0.000000 0.500000 0.000000
O O12 0.147685 0.998586 0.966182
O O13 0.249505 0.403855 0.989253
O O14 0.456679 0.029334 0.283026
O O15 0.009365 0.320442 0.695863
O O16 0.500000 0.500000 0.000000
O O17 0.491399 0.226448 0.903756
O O18 0.475200 0.092040 0.777836
#
# Coordination Sequence:
#
# PCOD9029683 Si02
#       8
#     2   2   2   2   2   2   2   2
#     4  10  22  46  72 101 146 190 249 308 376 439
#     4  12  28  42  65 108 153 187 241 307 364 451
#     4  12  23  43  74 100 142 197 245 299 371 443
#     4  11  23  42  70 103 144 196 248 295 376 447
#     4  11  24  44  71 102 147 194 244 305 371 443
#     4  11  25  47  74 110 150 190 252 311 370 446
#     4  10  22  42  68 104 137 193 248 300 366 450
#     4  11  24  44  76 104 147 197 247 308 376 442
#
# _framework density 25.605163999999998
#
# number of rings (size 3 to 8) (size 9 to 14) (size 15 to 20)
#    0.000    1.000    5.000    1.125    3.500    1.000 
#    0.000    5.625    0.000    0.000    0.000    0.000 
#    0.000    0.000    0.000    0.000    0.000    0.000 
#
# Total GULP energy -89368.900630 kJ/mol
# GULP energy per Si atom -5585.556289 kJ/mol
# Density = 2.554689 g / cm^3
# Si number density = 25.605164 Si / 1000 Ang^3
#
#
#
# Elastic Constant Matrix: (Units=GPa)
#
#
# Indices 1 2 3 4 5 6 
#
# 1 173.1257 64.2097 45.6532 -24.2148 -10.1565 -6.9028
# 2 64.2097 121.7417 56.6035 -26.0201 -0.2153 3.9325
# 3 45.6532 56.6035 122.4376 -22.2456 20.0875 3.9037
# 4 -24.2148 -26.0201 -22.2456 55.5842 2.8241 0.0326
# 5 -10.1565 -0.2153 20.0875 2.8241 54.1225 -11.7357
# 6 -6.9028 3.9325 3.9037 0.0326 -11.7357 70.7443
#
#
#
# Elastic Compliance Matrix: (Units=1/GPa)
#
#
# Indices 1 2 3 4 5 6 
#
# 1 0.007710 -0.003094 -0.001660 0.001128 0.002294 0.001396
# 2 -0.003094 0.012398 -0.004180 0.002746 0.000738 -0.000639
# 3 -0.001660 -0.004180 0.012066 0.002417 -0.005251 -0.001468
# 4 0.001128 0.002746 0.002417 0.020830 -0.001869 -0.000496
# 5 0.002294 0.000738 -0.005251 -0.001869 0.021845 0.004097
# 6 0.001396 -0.000639 -0.001468 -0.000496 0.004097 0.015068
#
#
# Mechanical properties :
#
#
# Convention : Reuss Voigt Hill
#
# Bulk Modulus (GPa) = 69.90229 83.35974 76.63102
# Shear Modulus (GPa) = 44.42293 52.81276 48.61785
#
# Velocity S-wave (km/s) = 4.16976 4.54649 4.36219
# Velocity P-wave (km/s) = 7.10928 7.75805 7.44074
#
# Compressibility (1/GPa) = 0.01430568
#
# Stress axis : x y z
#
# Youngs Moduli (GPa) = 129.70802 80.65564 82.87627
#
# Poissons Ratio (x) = 0.24957 0.13758
# Poissons Ratio (y) = 0.40135 0.34641
# Poissons Ratio (z) = 0.21533 0.33713
#
# Static dielectric constant tensor:
#      x y z
#    x 2.000580 0.069020 -0.028100 
#    y 0.069020 2.065590 -0.000540 
#    z -0.028100 -0.000540 2.239450 
# 
# From -- ./inp_files/612663.got.cif
#   From: 2010.05.17/outbox.cif.g08.bks.cpg/sg2_307_cif.got.tgz:612663.got - 2010.06.03 11:33:40.
