data_PCOD9029806
_publ_section_title
;
Structure prediction by ZEFSAII (Michael W. Deem and Ramdas Pophale) SiO2 
 PCOD9029806
Probable space group: P -1
;
_chemical_formula_sum "Si O2"
_cell_formula_units_Z 16
_cell_length_a 11.634215
_cell_length_b 20.364470
_cell_length_c 15.329529
_cell_angle_alpha 150.961133
_cell_angle_beta 130.547460
_cell_angle_gamma 28.477321
_cell_volume 722.213729
_symmetry_space_group_name_H-M "P -1"
_symmetry_group_IT_number 2
_symmetry_cell_setting 'triclinic'
loop_
_space_group_symop_operation_xyz
x,y,z
-x,-y,-z
loop_
_atom_site_type_symbol
_atom_site_label
_atom_site_fract_x
_atom_site_fract_y
_atom_site_fract_z
Si Si1 0.225392 0.202212 0.826072
Si Si2 0.410984 0.420697 0.331242
Si Si3 0.387925 0.385727 0.947367
Si Si4 0.662490 0.667227 0.457951
Si Si5 0.895933 0.441900 0.500682
Si Si6 0.350585 0.873139 0.056474
Si Si7 0.760145 0.206710 0.694931
Si Si8 0.147953 0.092333 0.484513
O O1 0.395991 0.210091 0.916426
O O2 0.206772 0.143755 0.655236
O O3 0.408884 0.961991 0.695793
O O4 0.913883 0.451080 0.995045
O O5 0.500000 0.500000 0.500000
O O6 0.332889 0.386133 0.335482
O O7 0.124606 0.653826 0.405496
O O8 0.645232 0.192882 0.114138
O O9 0.553899 0.297372 0.016413
O O10 0.581809 0.128909 0.699249
O O11 0.318168 0.577579 0.086182
O O12 0.775072 0.528090 0.443358
O O13 0.520685 0.660646 0.320363
O O14 0.897100 0.583114 0.427710
O O15 0.079043 0.167317 0.284747
O O16 0.882175 0.037215 0.642055
O O17 0.000000 0.000000 0.500000
#
# Coordination Sequence:
#
# PCOD9029806 Si02
#       8
#     2   2   2   2   2   2   2   2
#     4  10  22  42  68  95 133 167 216 280 320 398
#     4  12  27  42  66  98 135 175 221 275 330 400
#     4  12  22  38  67  97 134 170 212 272 331 395
#     4   9  21  43  68  92 130 183 214 270 331 376
#     4  10  23  45  67  93 134 174 227 270 319 401
#     4  11  24  43  64 101 130 175 219 263 350 377
#     4  11  21  40  65  93 136 170 215 274 325 393
#     4  11  24  42  61 102 127 169 224 263 343 381
#
# _framework density 22.154107
#
# number of rings (size 3 to 8) (size 9 to 14) (size 15 to 20)
#    0.000    1.250    5.000    0.750    3.500    5.000 
#    0.000    8.125    0.000    0.000    0.000    0.000 
#    0.000    0.000    0.000    0.000    0.000    0.000 
#
# Total GULP energy -89444.698033 kJ/mol
# GULP energy per Si atom -5590.293627 kJ/mol
# Density = 2.210368 g / cm^3
# Si number density = 22.154107 Si / 1000 Ang^3
#
#
#
# Elastic Constant Matrix: (Units=GPa)
#
#
# Indices 1 2 3 4 5 6 
#
# 1 55.7615 8.7743 2.7099 -4.2406 -4.8522 14.3202
# 2 8.7743 50.1718 -7.3454 -1.7075 7.6969 0.3907
# 3 2.7099 -7.3454 58.3207 0.8347 -6.6006 -7.8047
# 4 -4.2406 -1.7075 0.8347 27.2502 -0.3246 7.4940
# 5 -4.8522 7.6969 -6.6006 -0.3246 40.4416 5.3442
# 6 14.3202 0.3907 -7.8047 7.4940 5.3442 30.7216
#
#
#
# Elastic Compliance Matrix: (Units=1/GPa)
#
#
# Indices 1 2 3 4 5 6 
#
# 1 0.023635 -0.005037 -0.003187 0.007513 0.005252 -0.014509
# 2 -0.005037 0.021934 0.002971 -0.000605 -0.004802 0.003807
# 3 -0.003187 0.002971 0.018735 -0.002700 0.001209 0.006656
# 4 0.007513 -0.000605 -0.002700 0.042054 0.002888 -0.014941
# 5 0.005252 -0.004802 0.001209 0.002888 0.027491 -0.007567
# 6 -0.014509 0.003807 0.006656 -0.014941 -0.007567 0.045917
#
#
# Mechanical properties :
#
#
# Convention : Reuss Voigt Hill
#
# Bulk Modulus (GPa) = 18.58820 19.17017 18.87918
# Shear Modulus (GPa) = 24.01470 30.35704 27.18587
#
# Velocity S-wave (km/s) = 3.29596 3.70573 3.50684
# Velocity P-wave (km/s) = 4.78468 5.19440 4.99374
#
# Compressibility (1/GPa) = 0.05379758
#
# Stress axis : x y z
#
# Youngs Moduli (GPa) = 42.30930 45.59155 53.37587
#
# Poissons Ratio (x) = 0.22965 0.17013
# Poissons Ratio (y) = 0.21312 -0.15859
# Poissons Ratio (z) = 0.13486 -0.13546
#
# Static dielectric constant tensor:
#      x y z
#    x 1.907330 0.041590 -0.039560 
#    y 0.041590 1.813720 -0.010050 
#    z -0.039560 -0.010050 1.825590 
# 
# From -- ./inp_files/523974.got.cif
#   From: 2010.05.17/outbox.cif.g08.bks.cpg/sg2_262_cif.got.tgz:523974.got - 2010.06.03 11:33:40.
