data_PCOD9029673
_publ_section_title
;
Structure prediction by ZEFSAII (Michael W. Deem and Ramdas Pophale) SiO2 
 PCOD9029673
Probable space group: P -1
;
_chemical_formula_sum "Si O2"
_cell_formula_units_Z 10
_cell_length_a 15.636555
_cell_length_b 5.464297
_cell_length_c 5.367845
_cell_angle_alpha 123.617863
_cell_angle_beta 67.815624
_cell_angle_gamma 108.055389
_cell_volume 350.621760
_symmetry_space_group_name_H-M "P -1"
_symmetry_group_IT_number 2
_symmetry_cell_setting 'triclinic'
loop_
_space_group_symop_operation_xyz
x,y,z
-x,-y,-z
loop_
_atom_site_type_symbol
_atom_site_label
_atom_site_fract_x
_atom_site_fract_y
_atom_site_fract_z
Si Si1 0.071090 0.057868 0.685493
Si Si2 0.533688 0.180969 0.813395
Si Si3 0.131317 0.639395 0.727450
Si Si4 0.255675 0.244778 0.076074
Si Si5 0.290314 0.075913 0.442341
O O1 0.094646 0.415748 0.861950
O O2 0.179016 0.991115 0.481194
O O3 0.052460 0.811988 0.787387
O O4 0.000000 0.000000 0.500000
O O5 0.500000 0.000000 0.500000
O O6 0.645870 0.172170 0.697521
O O7 0.500000 0.500000 0.000000
O O8 0.500000 0.000000 0.000000
O O9 0.175823 0.432030 0.362638
O O10 0.207194 0.903577 0.888452
O O11 0.320733 0.222926 0.229217
O O12 0.299084 0.307741 0.791691
#
# Coordination Sequence:
#
# PCOD9029673 Si02
#       5
#     2   2   2   2   2
#     4  10  22  42  68 103 141 187 235 288 351 424
#     4  12  28  49  76 109 144 188 242 299 362 429
#     4  10  23  42  65 101 142 189 238 289 344 419
#     4  10  23  43  72 103 140 191 237 290 358 421
#     4  10  24  46  73 104 145 187 236 296 357 423
#
# _framework density 28.520766999999999
#
# number of rings (size 3 to 8) (size 9 to 14) (size 15 to 20)
#    0.000    1.600    0.000    2.400    0.000   27.200 
#    0.000   33.000    0.000    0.000    0.000    0.000 
#    0.000    0.000    0.000    0.000    0.000    0.000 
#
# Total GULP energy -55917.579500 kJ/mol
# GULP energy per Si atom -5591.757950 kJ/mol
# Density = 2.845585 g / cm^3
# Si number density = 28.520767 Si / 1000 Ang^3
#
#
#
# Elastic Constant Matrix: (Units=GPa)
#
#
# Indices 1 2 3 4 5 6 
#
# 1 164.4045 57.0154 31.1327 21.5516 -25.5811 -49.4336
# 2 57.0154 222.8125 74.3681 3.7862 -5.9036 -49.0839
# 3 31.1327 74.3681 207.4669 8.7953 13.4796 -35.0403
# 4 21.5516 3.7862 8.7953 63.4692 -27.0357 -1.8354
# 5 -25.5811 -5.9036 13.4796 -27.0357 50.9298 1.7598
# 6 -49.4336 -49.0839 -35.0403 -1.8354 1.7598 73.7183
#
#
#
# Elastic Compliance Matrix: (Units=1/GPa)
#
#
# Indices 1 2 3 4 5 6 
#
# 1 0.008642 -0.000907 -0.000317 -0.001197 0.003514 0.004927
# 2 -0.000907 0.005822 -0.001615 0.000640 0.000900 0.002495
# 3 -0.000317 -0.001615 0.005984 -0.001841 -0.002963 0.001581
# 4 -0.001197 0.000640 -0.001841 0.021125 0.011209 -0.000994
# 5 0.003514 0.000900 -0.002963 0.011209 0.028198 0.001154
# 6 0.004927 0.002495 0.001581 -0.000994 0.001154 0.019230
#
#
# Mechanical properties :
#
#
# Convention : Reuss Voigt Hill
#
# Bulk Modulus (GPa) = 67.70378 102.19071 84.94725
# Shear Modulus (GPa) = 50.19941 66.43465 58.31703
#
# Velocity S-wave (km/s) = 4.19991 4.83156 4.52677
# Velocity P-wave (km/s) = 6.87815 8.18739 7.56116
#
# Compressibility (1/GPa) = 0.01477022
#
# Stress axis : x y z
#
# Youngs Moduli (GPa) = 115.71029 171.76898 167.10717
#
# Poissons Ratio (x) = 0.15575 0.05301
# Poissons Ratio (y) = 0.10492 0.26988
# Poissons Ratio (z) = 0.03671 0.27741
#
# Static dielectric constant tensor:
#      x y z
#    x 2.244270 0.111670 -0.102790 
#    y 0.111670 2.559270 -0.197030 
#    z -0.102790 -0.197030 2.322120 
# 
# From -- ./inp_files/102086.got.cif
#   From: 2010.05.17/outbox.cif.g08.bks.cpg/sg2_52_cif.got.tgz:102086.got - 2010.06.03 11:33:40.
