data_PCOD9029573
_publ_section_title
;
Structure prediction by ZEFSAII (Michael W. Deem and Ramdas Pophale) SiO2 
 PCOD9029573
Probable space group: P -1
;
_chemical_formula_sum "Si O2"
_cell_formula_units_Z 14
_cell_length_a 14.607210
_cell_length_b 16.927869
_cell_length_c 7.335976
_cell_angle_alpha 118.396253
_cell_angle_beta 123.802417
_cell_angle_gamma 23.045353
_cell_volume 586.359502
_symmetry_space_group_name_H-M "P -1"
_symmetry_group_IT_number 2
_symmetry_cell_setting 'triclinic'
loop_
_space_group_symop_operation_xyz
x,y,z
-x,-y,-z
loop_
_atom_site_type_symbol
_atom_site_label
_atom_site_fract_x
_atom_site_fract_y
_atom_site_fract_z
Si Si1 0.464209 0.079125 0.238976
Si Si2 0.608228 0.666677 0.681090
Si Si3 0.233869 0.630641 0.042356
Si Si4 0.920795 0.452558 0.201760
Si Si5 0.713850 0.395613 0.357398
Si Si6 0.085592 0.039647 0.666416
Si Si7 0.073488 0.359121 0.666779
O O1 0.710631 0.868534 0.383130
O O2 0.456200 0.191529 0.331498
O O3 0.209629 0.236700 0.226498
O O4 0.500000 0.000000 0.000000
O O5 0.590813 0.581288 0.474657
O O6 0.912699 0.453438 0.771043
O O7 0.382649 0.829238 0.753276
O O8 0.498721 0.478015 0.227197
O O9 0.020356 0.844324 0.136151
O O10 0.210900 0.654317 0.825361
O O11 0.207095 0.547483 0.984543
O O12 0.904117 0.479595 0.430513
O O13 0.819872 0.617900 0.180268
O O14 0.942722 0.202432 0.530200
O O15 0.000000 0.000000 0.500000
#
# Coordination Sequence:
#
# PCOD9029573 Si02
#       7
#     2   2   2   2   2   2   2
#     4  11  24  42  67 103 135 174 232 279 341 409
#     4  11  23  43  72  98 139 182 221 287 350 395
#     4  11  24  47  71 103 137 187 231 273 349 413
#     4  10  22  42  67  98 131 182 228 271 337 411
#     4  11  25  48  70 100 147 178 226 292 337 407
#     4  12  26  46  69 106 139 179 232 282 344 405
#     4  10  22  44  67  95 139 176 221 286 336 396
#
# _framework density 23.876135999999999
#
# number of rings (size 3 to 8) (size 9 to 14) (size 15 to 20)
#    0.000    1.143    2.857    2.571    0.000    4.000 
#    2.571    0.000    0.000    0.000    0.000    0.000 
#    0.000    0.000    0.000    0.000    0.000    0.000 
#
# Total GULP energy -78287.958265 kJ/mol
# GULP energy per Si atom -5591.997019 kJ/mol
# Density = 2.382179 g / cm^3
# Si number density = 23.876136 Si / 1000 Ang^3
#
#
#
# Elastic Constant Matrix: (Units=GPa)
#
#
# Indices 1 2 3 4 5 6 
#
# 1 123.0094 65.5100 40.0043 7.1715 39.4376 -18.8298
# 2 65.5100 157.9921 38.9595 26.7158 0.3368 -12.6753
# 3 40.0043 38.9595 90.8155 28.9392 9.4922 -5.6663
# 4 7.1715 26.7158 28.9392 38.9124 -1.4640 1.6058
# 5 39.4376 0.3368 9.4922 -1.4640 62.2040 9.2828
# 6 -18.8298 -12.6753 -5.6663 1.6058 9.2828 45.9828
#
#
#
# Elastic Compliance Matrix: (Units=1/GPa)
#
#
# Indices 1 2 3 4 5 6 
#
# 1 0.017299 -0.006083 -0.004580 0.003686 -0.011189 0.006972
# 2 -0.006083 0.009759 -0.000264 -0.005223 0.003783 -0.000415
# 3 -0.004580 -0.000264 0.016851 -0.011530 -0.000017 0.000534
# 4 0.003686 -0.005223 -0.011530 0.037324 0.000748 -0.002805
# 5 -0.011189 0.003783 -0.000017 0.000748 0.024438 -0.008501
# 6 0.006972 -0.000415 0.000534 -0.002805 -0.008501 0.026368
#
#
# Mechanical properties :
#
#
# Convention : Reuss Voigt Hill
#
# Bulk Modulus (GPa) = 45.34326 73.41828 59.38077
# Shear Modulus (GPa) = 31.00867 44.57605 37.79236
#
# Velocity S-wave (km/s) = 3.60770 4.32553 3.98282
# Velocity P-wave (km/s) = 6.03210 7.46749 6.78784
#
# Compressibility (1/GPa) = 0.02205400
#
# Stress axis : x y z
#
# Youngs Moduli (GPa) = 57.80842 102.47271 59.34244
#
# Poissons Ratio (x) = 0.62337 0.27181
# Poissons Ratio (y) = 0.35166 0.01564
# Poissons Ratio (z) = 0.26479 0.02701
#
# Static dielectric constant tensor:
#      x y z
#    x 1.944000 0.044560 -0.063820 
#    y 0.044560 1.908860 -0.099100 
#    z -0.063820 -0.099100 2.041060 
# 
# From -- ./inp_files/318105.got.cif
#   From: 2010.05.17/outbox.cif.g08.bks.cpg/sg2_160_cif.got.tgz:318105.got - 2010.06.03 11:33:40.
