data_PCOD9029441
_publ_section_title
;
Structure prediction by ZEFSAII (Michael W. Deem and Ramdas Pophale) SiO2 
 PCOD9029441
Probable space group: P -1
;
_chemical_formula_sum "Si O2"
_cell_formula_units_Z 14
_cell_length_a 10.835925
_cell_length_b 7.692316
_cell_length_c 15.161613
_cell_angle_alpha 110.780190
_cell_angle_beta 28.245757
_cell_angle_gamma 117.362497
_cell_volume 527.381495
_symmetry_space_group_name_H-M "P -1"
_symmetry_group_IT_number 2
_symmetry_cell_setting 'triclinic'
loop_
_space_group_symop_operation_xyz
x,y,z
-x,-y,-z
loop_
_atom_site_type_symbol
_atom_site_label
_atom_site_fract_x
_atom_site_fract_y
_atom_site_fract_z
Si Si1 0.971467 0.220772 0.565708
Si Si2 0.914919 0.962542 0.807277
Si Si3 0.402527 0.640717 0.832198
Si Si4 0.425112 0.876848 0.436483
Si Si5 0.665690 0.611386 0.332219
Si Si6 0.633574 0.355288 0.944804
Si Si7 0.383244 0.055357 0.850419
O O1 0.275362 0.345942 0.365878
O O2 0.692413 0.212496 0.688543
O O3 0.882284 0.301887 0.728893
O O4 0.000000 0.000000 0.500000
O O5 0.090863 0.193950 0.751812
O O6 0.618642 0.855345 0.930001
O O7 0.838609 0.887480 0.942639
O O8 0.119906 0.876916 0.610289
O O9 0.262846 0.525017 0.810511
O O10 0.292281 0.573806 0.988196
O O11 0.398295 0.861188 0.855231
O O12 0.458249 0.680175 0.414203
O O13 0.500000 0.000000 0.500000
O O14 0.646280 0.972179 0.239036
O O15 0.500000 0.500000 0.500000
O O16 0.500000 0.500000 0.000000
#
# Coordination Sequence:
#
# PCOD9029441 Si02
#       7
#     2   2   2   2   2   2   2
#     4   9  22  43  72 100 143 189 242 294 365 434
#     4  10  24  47  70  98 145 185 235 295 356 431
#     4  11  24  42  70 103 146 182 240 302 357 429
#     4  10  22  42  67  94 135 183 233 286 352 424
#     4  11  26  45  71 105 141 191 242 290 369 439
#     4  11  26  44  71 112 146 188 248 302 366 430
#     4  10  22  42  69 101 131 184 239 285 364 416
#
# _framework density 26.546249
#
# number of rings (size 3 to 8) (size 9 to 14) (size 15 to 20)
#    0.000    1.714    0.000    2.571    6.000   14.286 
#    0.000    0.000    0.000    0.000    0.000    0.000 
#    0.000    0.000    0.000    0.000    0.000    0.000 
#
# Total GULP energy -78088.767972 kJ/mol
# GULP energy per Si atom -5577.769141 kJ/mol
# Density = 2.648583 g / cm^3
# Si number density = 26.546249 Si / 1000 Ang^3
#
#
#
# Elastic Constant Matrix: (Units=GPa)
#
#
# Indices 1 2 3 4 5 6 
#
# 1 97.7372 35.7975 34.8935 -2.2201 37.7936 -3.7605
# 2 35.7975 107.5045 39.0516 -6.9554 5.1610 7.1078
# 3 34.8935 39.0516 204.3560 16.3491 37.3231 -1.5963
# 4 -2.2201 -6.9554 16.3491 26.8615 12.3305 8.0053
# 5 37.7936 5.1610 37.3231 12.3305 61.4736 0.3398
# 6 -3.7605 7.1078 -1.5963 8.0053 0.3398 34.6036
#
#
#
# Elastic Compliance Matrix: (Units=1/GPa)
#
#
# Indices 1 2 3 4 5 6 
#
# 1 0.016180 -0.004581 -0.000364 0.004572 -0.010268 0.001726
# 2 -0.004581 0.012117 -0.002346 0.004322 0.002379 -0.004118
# 3 -0.000364 -0.002346 0.006187 -0.003686 -0.002605 0.001606
# 4 0.004572 0.004322 -0.003686 0.049469 -0.010793 -0.011899
# 5 -0.010268 0.002379 -0.002605 -0.010793 0.026124 0.000516
# 6 0.001726 -0.004118 0.001606 -0.011899 0.000516 0.032754
#
#
# Mechanical properties :
#
#
# Convention : Reuss Voigt Hill
#
# Bulk Modulus (GPa) = 50.24444 69.89809 60.07126
# Shear Modulus (GPa) = 30.47898 44.57808 37.52853
#
# Velocity S-wave (km/s) = 3.39211 4.10232 3.76400
# Velocity P-wave (km/s) = 5.85748 6.98760 6.44735
#
# Compressibility (1/GPa) = 0.01990270
#
# Stress axis : x y z
#
# Youngs Moduli (GPa) = 61.80380 82.52805 161.62596
#
# Poissons Ratio (x) = 0.37804 0.05888
# Poissons Ratio (y) = 0.28311 0.37914
# Poissons Ratio (z) = 0.02252 0.19359
#
# Static dielectric constant tensor:
#      x y z
#    x 2.193390 -0.007070 -0.047180 
#    y -0.007070 2.104020 0.005060 
#    z -0.047180 0.005060 2.026630 
# 
# From -- ./inp_files/513412.got.cif
#   From: 2010.05.17/outbox.cif.g08.bks.cpg/sg2_257_cif.got.tgz:513412.got - 2010.06.03 11:33:40.
