data_PCOD9029544
_publ_section_title
;
Structure prediction by ZEFSAII (Michael W. Deem and Ramdas Pophale) SiO2 
 PCOD9029544
Probable space group: P -1
;
_chemical_formula_sum "Si O2"
_cell_formula_units_Z 15
_cell_length_a 7.269557
_cell_length_b 14.368231
_cell_length_c 20.235116
_cell_angle_alpha 24.380673
_cell_angle_beta 130.976598
_cell_angle_gamma 131.610552
_cell_volume 643.395229
_symmetry_space_group_name_H-M "P -1"
_symmetry_group_IT_number 2
_symmetry_cell_setting 'triclinic'
loop_
_space_group_symop_operation_xyz
x,y,z
-x,-y,-z
loop_
_atom_site_type_symbol
_atom_site_label
_atom_site_fract_x
_atom_site_fract_y
_atom_site_fract_z
Si Si1 0.434804 0.928285 0.752649
Si Si2 0.225240 0.661343 0.382165
Si Si3 0.500000 0.000000 0.000000
Si Si4 0.245440 0.935729 0.571082
Si Si5 0.137256 0.166188 0.708958
Si Si6 0.427173 0.489901 0.889662
Si Si7 0.899600 0.868439 0.721687
Si Si8 0.176608 0.240701 0.863252
O O1 0.149393 0.826260 0.772590
O O2 0.542122 0.124674 0.704589
O O3 0.442816 0.033166 0.612728
O O4 0.576574 0.718982 0.925687
O O5 0.303916 0.421611 0.568303
O O6 0.069981 0.759366 0.340183
O O7 0.024968 0.623245 0.300754
O O8 0.696534 0.988140 0.115946
O O9 0.637372 0.821601 0.106927
O O10 0.248865 0.021364 0.441377
O O11 0.250213 0.666116 0.749442
O O12 0.000000 0.000000 0.500000
O O13 0.999350 0.038569 0.695415
O O14 0.703288 0.645557 0.844809
O O15 0.330337 0.369744 0.876021
O O16 0.000000 0.000000 0.000000
#
# Coordination Sequence:
#
# PCOD9029544 Si02
#       8
#     2   2   1   2   2   2   2   2
#     4  11  23  42  64 102 136 175 233 284 347 416
#     4  10  22  42  67  97 135 178 226 289 347 413
#     4  10  24  44  68 104 142 174 234 296 338 434
#     4  10  24  43  63 100 138 178 231 283 345 416
#     4  10  22  42  67  97 133 181 225 287 351 409
#     4  12  23  43  73  96 139 186 227 290 348 419
#     4  11  24  43  66  98 136 182 229 279 350 426
#     4  11  23  45  68 102 139 180 236 283 356 416
#
# _framework density 23.313818999999999
#
# number of rings (size 3 to 8) (size 9 to 14) (size 15 to 20)
#    0.000    1.333    1.333    3.600    0.000    3.733 
#    9.600    0.000    0.000    0.000    0.000    0.000 
#    0.000    0.000    0.000    0.000    0.000    0.000 
#
# Total GULP energy -83538.187023 kJ/mol
# GULP energy per Si atom -5569.212468 kJ/mol
# Density = 2.326076 g / cm^3
# Si number density = 23.313819 Si / 1000 Ang^3
#
#
#
# Elastic Constant Matrix: (Units=GPa)
#
#
# Indices 1 2 3 4 5 6 
#
# 1 48.3992 34.3720 14.7165 2.2971 9.5138 3.6942
# 2 34.3720 140.8909 49.3001 10.3158 -5.4206 -4.1151
# 3 14.7165 49.3001 89.2679 13.2558 7.4304 15.4056
# 4 2.2971 10.3158 13.2558 45.0456 -0.5321 -7.5783
# 5 9.5138 -5.4206 7.4304 -0.5321 32.1017 3.2844
# 6 3.6942 -4.1151 15.4056 -7.5783 3.2844 32.0469
#
#
#
# Elastic Compliance Matrix: (Units=1/GPa)
#
#
# Indices 1 2 3 4 5 6 
#
# 1 0.027939 -0.007669 0.001233 -0.000820 -0.009462 -0.004022
# 2 -0.007669 0.011558 -0.006521 0.000584 0.005221 0.005106
# 3 0.001233 -0.006521 0.017572 -0.005521 -0.004575 -0.010264
# 4 -0.000820 0.000584 -0.005521 0.025204 0.001151 0.008666
# 5 -0.009462 0.005221 -0.004575 0.001151 0.035858 0.000558
# 6 -0.004022 0.005106 -0.010264 0.008666 0.000558 0.039250
#
#
# Mechanical properties :
#
#
# Convention : Reuss Voigt Hill
#
# Bulk Modulus (GPa) = 32.09808 52.81504 42.45656
# Shear Modulus (GPa) = 25.81574 33.85014 29.83294
#
# Velocity S-wave (km/s) = 3.33124 3.81456 3.58106
# Velocity P-wave (km/s) = 5.34733 6.48878 5.94551
#
# Compressibility (1/GPa) = 0.03115451
#
# Stress axis : x y z
#
# Youngs Moduli (GPa) = 35.79246 86.52200 56.90711
#
# Poissons Ratio (x) = 0.66353 -0.07016
# Poissons Ratio (y) = 0.27449 0.37110
# Poissons Ratio (z) = -0.04413 0.56423
#
# Static dielectric constant tensor:
#      x y z
#    x 1.998380 0.000020 -0.052620 
#    y 0.000020 1.942640 0.047580 
#    z -0.052620 0.047580 1.874520 
# 
# From -- ./inp_files/608064.got.cif
#   From: 2010.05.17/outbox.cif.g08.bks.cpg/sg2_305_cif.got.tgz:608064.got - 2010.06.03 11:33:40.
