data_PCOD9029652
_publ_section_title
;
Structure prediction by ZEFSAII (Michael W. Deem and Ramdas Pophale) SiO2 
 PCOD9029652
Probable space group: P -1
;
_chemical_formula_sum "Si O2"
_cell_formula_units_Z 14
_cell_length_a 9.905455
_cell_length_b 7.713095
_cell_length_c 23.704061
_cell_angle_alpha 36.195302
_cell_angle_beta 34.493757
_cell_angle_gamma 47.038419
_cell_volume 604.940111
_symmetry_space_group_name_H-M "P -1"
_symmetry_group_IT_number 2
_symmetry_cell_setting 'triclinic'
loop_
_space_group_symop_operation_xyz
x,y,z
-x,-y,-z
loop_
_atom_site_type_symbol
_atom_site_label
_atom_site_fract_x
_atom_site_fract_y
_atom_site_fract_z
Si Si1 0.504758 0.866659 0.261076
Si Si2 0.739508 0.362438 0.981426
Si Si3 0.077374 0.629439 0.203691
Si Si4 0.515447 0.787179 0.603390
Si Si5 0.973487 0.028177 0.434330
Si Si6 0.249815 0.863326 0.787316
Si Si7 0.400146 0.334778 0.946701
O O1 0.528865 0.534198 0.319833
O O2 0.220868 0.944030 0.339189
O O3 0.593223 0.951274 0.271103
O O4 0.664191 0.056918 0.114104
O O5 0.918653 0.350837 0.870776
O O6 0.500000 0.500000 0.000000
O O7 0.781513 0.574906 0.963721
O O8 0.915314 0.371619 0.348725
O O9 0.341631 0.533413 0.161140
O O10 0.001391 0.957159 0.164713
O O11 0.330078 0.884024 0.690431
O O12 0.500000 0.000000 0.500000
O O13 0.771396 0.821640 0.535886
O O14 0.000000 0.000000 0.500000
O O15 0.295575 0.523767 0.880516
O O16 0.500000 0.000000 0.000000
#
# Coordination Sequence:
#
# PCOD9029652 Si02
#       7
#     2   2   2   2   2   2   2
#     4  11  23  46  72 101 140 188 231 298 353 423
#     4   9  19  42  67  97 137 174 233 284 357 417
#     4  11  23  43  71 100 138 190 229 290 367 419
#     4  12  28  45  68 108 142 189 248 294 349 431
#     4  12  23  46  76  99 142 196 238 293 364 421
#     4  11  25  47  69 102 148 182 236 296 364 415
#     4  10  22  42  68 101 140 183 229 293 352 429
#
# _framework density 23.142785
#
# number of rings (size 3 to 8) (size 9 to 14) (size 15 to 20)
#    0.000    1.143    5.714    1.286    6.000    4.000 
#    7.714    0.000    0.000    0.000    0.000    0.000 
#    0.000    0.000    0.000    0.000    0.000    0.000 
#
# Total GULP energy -78211.761022 kJ/mol
# GULP energy per Si atom -5586.554359 kJ/mol
# Density = 2.309011 g / cm^3
# Si number density = 23.142785 Si / 1000 Ang^3
#
#
#
# Elastic Constant Matrix: (Units=GPa)
#
#
# Indices 1 2 3 4 5 6 
#
# 1 93.7299 44.0722 48.9942 -6.8543 23.1401 5.0643
# 2 44.0722 148.6928 80.6707 -20.1166 27.4338 14.0653
# 3 48.9942 80.6707 128.3916 -18.0407 35.8674 24.5012
# 4 -6.8543 -20.1166 -18.0407 43.7838 2.3310 -10.2243
# 5 23.1401 27.4338 35.8674 2.3310 55.3224 6.2443
# 6 5.0643 14.0653 24.5012 -10.2243 6.2443 46.0359
#
#
#
# Elastic Compliance Matrix: (Units=1/GPa)
#
#
# Indices 1 2 3 4 5 6 
#
# 1 0.014064 -0.001716 -0.003730 0.000356 -0.002788 0.001420
# 2 -0.001716 0.010738 -0.005496 0.002599 -0.001218 0.000576
# 3 -0.003730 -0.005496 0.015393 0.002377 -0.005245 -0.004863
# 4 0.000356 0.002599 0.002377 0.026334 -0.004582 0.004372
# 5 -0.002788 -0.001218 -0.005245 -0.004582 0.023523 -0.000738
# 6 0.001420 0.000576 -0.004863 0.004372 -0.000738 0.025049
#
#
# Mechanical properties :
#
#
# Convention : Reuss Voigt Hill
#
# Bulk Modulus (GPa) = 54.61905 79.80984 67.21444
# Shear Modulus (GPa) = 34.94339 42.16690 38.55515
#
# Velocity S-wave (km/s) = 3.88996 4.27316 4.08606
# Velocity P-wave (km/s) = 6.62026 7.67510 7.16712
#
# Compressibility (1/GPa) = 0.01830863
#
# Stress axis : x y z
#
# Youngs Moduli (GPa) = 71.10598 93.12933 64.96545
#
# Poissons Ratio (x) = 0.15984 0.24234
# Poissons Ratio (y) = 0.12204 0.35706
# Poissons Ratio (z) = 0.26524 0.51185
#
# Static dielectric constant tensor:
#      x y z
#    x 1.901100 -0.032390 -0.058950 
#    y -0.032390 1.870120 0.018040 
#    z -0.058950 0.018040 1.910610 
# 
# From -- ./inp_files/618190.got.cif
#   From: 2010.05.17/outbox.cif.g08.bks.cpg/sg2_310_cif.got.tgz:618190.got - 2010.06.03 11:33:40.
