data_PCOD9029443
_publ_section_title
;
Structure prediction by ZEFSAII (Michael W. Deem and Ramdas Pophale) SiO2 
 PCOD9029443
Probable space group: P -1
;
_chemical_formula_sum "Si O2"
_cell_formula_units_Z 14
_cell_length_a 19.991447
_cell_length_b 6.793135
_cell_length_c 5.861358
_cell_angle_alpha 68.828468
_cell_angle_beta 46.839091
_cell_angle_gamma 71.758981
_cell_volume 538.887693
_symmetry_space_group_name_H-M "P -1"
_symmetry_group_IT_number 2
_symmetry_cell_setting 'triclinic'
loop_
_space_group_symop_operation_xyz
x,y,z
-x,-y,-z
loop_
_atom_site_type_symbol
_atom_site_label
_atom_site_fract_x
_atom_site_fract_y
_atom_site_fract_z
Si Si1 0.804366 0.422306 0.750090
Si Si2 0.068355 0.299042 0.851940
Si Si3 0.936667 0.164090 0.859329
Si Si4 0.244331 0.806975 0.434690
Si Si5 0.355873 0.061048 0.376164
Si Si6 0.651320 0.567623 0.413196
Si Si7 0.503274 0.807247 0.389270
O O1 0.835012 0.601596 0.434802
O O2 0.898231 0.326264 0.690342
O O3 0.767561 0.222142 0.792219
O O4 0.729205 0.522754 0.058113
O O5 0.032077 0.215256 0.727719
O O6 0.000000 0.500000 0.000000
O O7 0.064783 0.084063 0.097056
O O8 0.856735 0.212847 0.217799
O O9 0.277395 0.000970 0.414036
O O10 0.325088 0.622797 0.385737
O O11 0.404993 0.849682 0.475594
O O12 0.332900 0.224576 0.564141
O O13 0.427554 0.156807 0.995706
O O14 0.550977 0.611514 0.509082
O O15 0.500000 0.000000 0.500000
#
# Coordination Sequence:
#
# PCOD9029443 Si02
#       7
#     2   2   2   2   2   2   2
#     4  11  24  45  69 102 138 183 226 279 346 400
#     4  11  23  47  70  96 140 177 228 284 332 409
#     4  10  25  44  66 102 133 179 229 277 343 403
#     4  11  24  42  63 104 133 170 228 280 333 406
#     4  10  22  42  67  94 138 175 223 282 328 405
#     4  10  23  42  65  97 134 177 229 271 339 396
#     4   9  20  41  67  97 128 181 225 270 340 396
#
# _framework density 25.979437999999998
#
# number of rings (size 3 to 8) (size 9 to 14) (size 15 to 20)
#    0.000    1.714    1.429    1.286    4.000    5.714 
#    2.571   10.000    0.000    0.000    0.000    0.000 
#    0.000    0.000    0.000    0.000    0.000    0.000 
#
# Total GULP energy -78260.233540 kJ/mol
# GULP energy per Si atom -5590.016681 kJ/mol
# Density = 2.592031 g / cm^3
# Si number density = 25.979438 Si / 1000 Ang^3
#
#
#
# Elastic Constant Matrix: (Units=GPa)
#
#
# Indices 1 2 3 4 5 6 
#
# 1 104.1268 14.7262 3.4664 5.8131 3.4270 13.0969
# 2 14.7262 145.4914 11.3495 20.0623 9.0914 -14.0023
# 3 3.4664 11.3495 79.9114 24.9866 1.5523 19.0590
# 4 5.8131 20.0623 24.9866 40.0631 5.7638 8.9544
# 5 3.4270 9.0914 1.5523 5.7638 16.5299 -0.8985
# 6 13.0969 -14.0023 19.0590 8.9544 -0.8985 60.9108
#
#
#
# Elastic Compliance Matrix: (Units=1/GPa)
#
#
# Indices 1 2 3 4 5 6 
#
# 1 0.010147 -0.001162 0.000494 -0.000408 -0.001508 -0.002566
# 2 -0.001162 0.007977 -0.000520 -0.003738 -0.002645 0.002757
# 3 0.000494 -0.000520 0.016420 -0.009414 0.001709 -0.003954
# 4 -0.000408 -0.003738 -0.009414 0.034784 -0.009272 -0.003076
# 5 -0.001508 -0.002645 0.001709 -0.009272 0.065418 0.001509
# 6 -0.002566 0.002757 -0.003954 -0.003076 0.001509 0.019315
#
#
# Mechanical properties :
#
#
# Convention : Reuss Voigt Hill
#
# Bulk Modulus (GPa) = 31.08779 43.17931 37.13355
# Shear Modulus (GPa) = 29.91138 43.49992 36.70565
#
# Velocity S-wave (km/s) = 3.39683 4.09638 3.76290
# Velocity P-wave (km/s) = 5.23230 6.24743 5.76226
#
# Compressibility (1/GPa) = 0.03216697
#
# Stress axis : x y z
#
# Youngs Moduli (GPa) = 98.55447 125.35393 60.90212
#
# Poissons Ratio (x) = 0.14566 -0.03006
# Poissons Ratio (y) = 0.11452 0.03167
# Poissons Ratio (z) = -0.04865 0.06520
#
# Static dielectric constant tensor:
#      x y z
#    x 2.074160 0.002430 -0.009980 
#    y 0.002430 2.090850 -0.036690 
#    z -0.009980 -0.036690 2.007470 
# 
# From -- ./inp_files/7735.got.cif
#   From: 2010.05.17/outbox.cif.g08.bks.cpg/sg2_4_cif.got.tgz:7735.got - 2010.06.03 11:33:40.
