data_PCOD9029117
_publ_section_title
;
Structure prediction by ZEFSAII (Michael W. Deem and Ramdas Pophale) SiO2 
 PCOD9029117
Probable space group: P -1
;
_chemical_formula_sum "Si O2"
_cell_formula_units_Z 16
_cell_length_a 8.982090
_cell_length_b 8.892491
_cell_length_c 14.933847
_cell_angle_alpha 66.361159
_cell_angle_beta 89.437099
_cell_angle_gamma 50.392996
_cell_volume 789.170023
_symmetry_space_group_name_H-M "P -1"
_symmetry_group_IT_number 2
_symmetry_cell_setting 'triclinic'
loop_
_space_group_symop_operation_xyz
x,y,z
-x,-y,-z
loop_
_atom_site_type_symbol
_atom_site_label
_atom_site_fract_x
_atom_site_fract_y
_atom_site_fract_z
Si Si1 0.734917 0.763798 0.534639
Si Si2 0.071479 0.044711 0.576934
Si Si3 0.673746 0.449145 0.572685
Si Si4 0.878329 0.920089 0.019067
Si Si5 0.493942 0.404691 0.261243
Si Si6 0.524728 0.614435 0.050955
Si Si7 0.156543 0.421984 0.226376
Si Si8 0.004738 0.331063 0.097431
O O1 0.852832 0.828995 0.477787
O O2 0.709487 0.615990 0.513392
O O3 0.851932 0.621216 0.659305
O O4 0.500000 0.000000 0.500000
O O5 0.884882 0.197031 0.610496
O O6 0.267010 0.807769 0.674539
O O7 0.000000 0.000000 0.500000
O O8 0.500000 0.500000 0.500000
O O9 0.607088 0.490440 0.666424
O O10 0.002654 0.683622 0.129916
O O11 0.882686 0.873918 0.924090
O O12 0.651544 0.112121 0.018281
O O13 0.000000 0.000000 0.000000
O O14 0.467088 0.573134 0.154286
O O15 0.382019 0.331534 0.236656
O O16 0.765321 0.474879 0.082705
O O17 0.500000 0.500000 0.000000
O O18 0.119702 0.290317 0.197619
O O19 0.000000 0.500000 0.000000
#
# Coordination Sequence:
#
# PCOD9029117 Si02
#       8
#     2   2   2   2   2   2   2   2
#     4  11  22  44  67  98 139 183 222 287 343 403
#     4  12  24  44  72  98 138 185 228 283 352 406
#     4  11  23  44  68  99 140 177 233 285 336 414
#     4  11  21  43  68  96 133 178 223 281 341 400
#     4  11  24  44  66 102 137 177 230 278 347 408
#     4  12  24  42  71 100 136 179 227 277 341 406
#     4  10  22  42  66  92 140 174 222 282 337 405
#     4  10  23  42  65  99 135 173 224 281 337 403
#
# _framework density 20.274467000000001
#
# number of rings (size 3 to 8) (size 9 to 14) (size 15 to 20)
#    0.000    1.000    6.250    1.125    1.750    5.000 
#    2.250    2.500    0.000    0.000    0.000    0.000 
#    0.000    0.000    0.000    0.000    0.000    0.000 
#
# Total GULP energy -89319.852262 kJ/mol
# GULP energy per Si atom -5582.490766 kJ/mol
# Density = 2.022832 g / cm^3
# Si number density = 20.274467 Si / 1000 Ang^3
#
#
#
# Elastic Constant Matrix: (Units=GPa)
#
#
# Indices 1 2 3 4 5 6 
#
# 1 106.6793 39.8480 25.5353 19.9480 25.8673 1.5878
# 2 39.8480 144.7622 25.5008 6.0129 28.1025 -13.9316
# 3 25.5353 25.5008 78.1247 -6.0794 15.4775 3.7294
# 4 19.9480 6.0129 -6.0794 25.8268 2.0845 6.6493
# 5 25.8673 28.1025 15.4775 2.0845 43.6735 1.0508
# 6 1.5878 -13.9316 3.7294 6.6493 1.0508 46.4625
#
#
#
# Elastic Compliance Matrix: (Units=1/GPa)
#
#
# Indices 1 2 3 4 5 6 
#
# 1 0.014435 -0.001589 -0.004052 -0.011577 -0.005566 0.001138
# 2 -0.001589 0.008845 -0.001848 -0.001761 -0.004089 0.003199
# 3 -0.004052 -0.001848 0.015979 0.008242 -0.002399 -0.002823
# 4 -0.011577 -0.001761 0.008242 0.051920 0.002790 -0.008287
# 5 -0.005566 -0.004089 -0.002399 0.002790 0.029588 -0.001912
# 6 0.001138 0.003199 -0.002823 -0.008287 -0.001912 0.023899
#
#
# Mechanical properties :
#
#
# Convention : Reuss Voigt Hill
#
# Bulk Modulus (GPa) = 41.18178 56.81493 48.99836
# Shear Modulus (GPa) = 29.80863 39.10468 34.45666
#
# Velocity S-wave (km/s) = 3.83855 4.39654 4.12698
# Velocity P-wave (km/s) = 6.32473 7.33869 6.85050
#
# Compressibility (1/GPa) = 0.02428258
#
# Stress axis : x y z
#
# Youngs Moduli (GPa) = 69.27786 113.05186 62.58204
#
# Poissons Ratio (x) = 0.17960 0.25358
# Poissons Ratio (y) = 0.11006 0.11563
# Poissons Ratio (z) = 0.28071 0.20889
#
# Static dielectric constant tensor:
#      x y z
#    x 1.748360 0.003730 -0.009150 
#    y 0.003730 1.777780 0.028020 
#    z -0.009150 0.028020 1.737700 
# 
# From -- ./inp_files/215056.got.cif
#   From: 2010.05.17/outbox.cif.g08.bks.cpg/sg2_108_cif.got.tgz:215056.got - 2010.06.03 11:33:40.
