data_PCOD9029045
_publ_section_title
;
Structure prediction by ZEFSAII (Michael W. Deem and Ramdas Pophale) SiO2 
 PCOD9029045
Probable space group: P -1
;
_chemical_formula_sum "Si O2"
_cell_formula_units_Z 12
_cell_length_a 9.105467
_cell_length_b 14.424336
_cell_length_c 9.486850
_cell_angle_alpha 119.003112
_cell_angle_beta 134.434905
_cell_angle_gamma 41.681392
_cell_volume 589.744515
_symmetry_space_group_name_H-M "P -1"
_symmetry_group_IT_number 2
_symmetry_cell_setting 'triclinic'
loop_
_space_group_symop_operation_xyz
x,y,z
-x,-y,-z
loop_
_atom_site_type_symbol
_atom_site_label
_atom_site_fract_x
_atom_site_fract_y
_atom_site_fract_z
Si Si1 0.731266 0.436894 0.726443
Si Si2 0.840281 0.155266 0.064437
Si Si3 0.666476 0.034699 0.212968
Si Si4 0.306517 0.991024 0.455087
Si Si5 0.340023 0.303440 0.018030
Si Si6 0.201980 0.794808 0.225780
O O1 0.500000 0.500000 0.500000
O O2 0.687936 0.562251 0.871691
O O3 0.705253 0.339866 0.730282
O O4 0.050215 0.343740 0.828426
O O5 0.540715 0.225939 0.963581
O O6 0.858418 0.221923 0.987719
O O7 0.010496 0.125448 0.296022
O O8 0.000000 0.000000 0.000000
O O9 0.680875 0.004975 0.365327
O O10 0.500138 0.196208 0.178762
O O11 0.955242 0.928287 0.250426
O O12 0.500000 0.000000 0.000000
O O13 0.379111 0.842246 0.364812
O O14 0.500000 0.000000 0.500000
#
# Coordination Sequence:
#
# PCOD9029045 Si02
#       6
#     2   2   2   2   2   2
#     4  11  26  45  68  99 138 186 230 276 338 420
#     4  10  22  42  66 102 138 170 221 291 342 393
#     4  12  22  39  71 101 128 178 228 286 342 398
#     4  11  24  36  64 106 137 168 225 287 342 402
#     4  11  24  44  71  98 140 179 229 278 349 402
#     4  11  23  42  68  97 136 175 227 279 344 404
#
# _framework density 20.347795000000001
#
# number of rings (size 3 to 8) (size 9 to 14) (size 15 to 20)
#    0.000    1.000    5.000    2.500    4.667    0.667 
#    0.000    0.833    0.000    0.000    0.000    0.000 
#    0.000    0.000    0.000    0.000    0.000    0.000 
#
# Total GULP energy -66883.909034 kJ/mol
# GULP energy per Si atom -5573.659086 kJ/mol
# Density = 2.030148 g / cm^3
# Si number density = 20.347795 Si / 1000 Ang^3
#
#
#
# Elastic Constant Matrix: (Units=GPa)
#
#
# Indices 1 2 3 4 5 6 
#
# 1 167.3186 71.5589 77.4164 -18.6127 -15.0998 12.6880
# 2 71.5589 102.1481 37.3109 -15.4188 -6.4848 20.4109
# 3 77.4164 37.3109 131.5511 -21.3689 -24.1830 10.8268
# 4 -18.6127 -15.4188 -21.3689 33.1439 12.5748 -3.4966
# 5 -15.0998 -6.4848 -24.1830 12.5748 42.7581 5.4944
# 6 12.6880 20.4109 10.8268 -3.4966 5.4944 48.4107
#
#
#
# Elastic Compliance Matrix: (Units=1/GPa)
#
#
# Indices 1 2 3 4 5 6 
#
# 1 0.010566 -0.005827 -0.004556 0.000331 0.000081 0.000721
# 2 -0.005827 0.015310 -0.000001 0.003410 -0.000140 -0.004665
# 3 -0.004556 -0.000001 0.011732 0.003194 0.004304 -0.001687
# 4 0.000331 0.003410 0.003194 0.037486 -0.008772 0.001464
# 5 0.000081 -0.000140 0.004304 -0.008772 0.029032 -0.004853
# 6 0.000721 -0.004665 -0.001687 0.001464 -0.004853 0.023468
#
#
# Mechanical properties :
#
#
# Convention : Reuss Voigt Hill
#
# Bulk Modulus (GPa) = 59.38175 85.95448 72.66812
# Shear Modulus (GPa) = 32.47258 39.17797 35.82528
#
# Velocity S-wave (km/s) = 3.99918 4.39272 4.20056
# Velocity P-wave (km/s) = 7.11135 8.24999 7.70174
#
# Compressibility (1/GPa) = 0.01684019
#
# Stress axis : x y z
#
# Youngs Moduli (GPa) = 94.64175 65.31605 85.23714
#
# Poissons Ratio (x) = 0.38059 0.38836
# Poissons Ratio (y) = 0.55146 0.00009
# Poissons Ratio (z) = 0.43121 0.00007
#
# Static dielectric constant tensor:
#      x y z
#    x 1.797180 -0.005170 0.028700 
#    y -0.005170 1.765720 -0.036940 
#    z 0.028700 -0.036940 1.858750 
# 
# From -- ./inp_files/179688.got.cif
#   From: 2010.05.17/outbox.cif.g08.bks.cpg/sg2_90_cif.got.tgz:179688.got - 2010.06.03 11:33:40.
