data_PCOD9029705
_publ_section_title
;
Structure prediction by ZEFSAII (Michael W. Deem and Ramdas Pophale) SiO2 
 PCOD9029705
Probable space group: P -1
;
_chemical_formula_sum "Si O2"
_cell_formula_units_Z 14
_cell_length_a 11.420833
_cell_length_b 14.018071
_cell_length_c 5.814971
_cell_angle_alpha 124.598256
_cell_angle_beta 114.980532
_cell_angle_gamma 50.837040
_cell_volume 591.206018
_symmetry_space_group_name_H-M "P -1"
_symmetry_group_IT_number 2
_symmetry_cell_setting 'triclinic'
loop_
_space_group_symop_operation_xyz
x,y,z
-x,-y,-z
loop_
_atom_site_type_symbol
_atom_site_label
_atom_site_fract_x
_atom_site_fract_y
_atom_site_fract_z
Si Si1 0.979344 0.445032 0.656699
Si Si2 0.081933 0.140161 0.264111
Si Si3 0.605445 0.385946 0.737929
Si Si4 0.209789 0.850424 0.155710
Si Si5 0.625840 0.936819 0.821177
Si Si6 0.655044 0.575229 0.703105
Si Si7 0.471024 0.205387 0.760845
O O1 0.801545 0.499936 0.569976
O O2 0.000000 0.500000 0.500000
O O3 0.062511 0.281204 0.521328
O O4 0.000000 0.500000 0.000000
O O5 0.199015 0.101093 0.088718
O O6 0.156311 0.009675 0.321096
O O7 0.918859 0.160019 0.100127
O O8 0.759261 0.243788 0.727243
O O9 0.647685 0.464998 0.701503
O O10 0.494433 0.349052 0.469668
O O11 0.500000 0.500000 0.000000
O O12 0.388119 0.772058 0.120217
O O13 0.613315 0.811285 0.547625
O O14 0.554532 0.060597 0.753280
O O15 0.500000 0.000000 0.000000
O O16 0.652728 0.682176 0.022415
#
# Coordination Sequence:
#
# PCOD9029705 Si02
#       7
#     2   2   2   2   2   2   2
#     4  12  30  51  80 113 164 218 264 327 399 481
#     4  10  24  49  74 114 156 199 260 324 402 474
#     4  11  23  42  74 109 149 196 256 325 387 471
#     4  10  22  46  77 108 158 196 259 328 404 462
#     4  10  23  42  70  98 144 192 249 303 385 457
#     4  11  26  43  75 108 149 199 265 316 391 467
#     4  10  22  42  68 106 139 189 250 310 372 464
#
# _framework density 23.680409999999998
#
# number of rings (size 3 to 8) (size 9 to 14) (size 15 to 20)
#    0.000    1.429    1.429    1.714   10.000    0.000 
#    0.000    1.429    0.000    0.000    0.000    0.000 
#    0.000    0.000    0.000    0.000    0.000    0.000 
#
# Total GULP energy -77974.140113 kJ/mol
# GULP energy per Si atom -5569.581437 kJ/mol
# Density = 2.362651 g / cm^3
# Si number density = 23.680410 Si / 1000 Ang^3
#
#
#
# Elastic Constant Matrix: (Units=GPa)
#
#
# Indices 1 2 3 4 5 6 
#
# 1 127.7430 14.2433 29.2936 7.5505 6.9022 -3.1842
# 2 14.2433 157.3016 39.3315 11.8743 13.8585 11.9954
# 3 29.2936 39.3315 98.7071 22.5668 -1.2270 13.4561
# 4 7.5505 11.8743 22.5668 34.7539 1.8895 1.4379
# 5 6.9022 13.8585 -1.2270 1.8895 21.7257 5.3235
# 6 -3.1842 11.9954 13.4561 1.4379 5.3235 32.5003
#
#
#
# Elastic Compliance Matrix: (Units=1/GPa)
#
#
# Indices 1 2 3 4 5 6 
#
# 1 0.008786 0.000085 -0.003093 0.000160 -0.003698 0.002709
# 2 0.000085 0.007591 -0.002904 -0.000433 -0.004803 -0.000785
# 3 -0.003093 -0.002904 0.014956 -0.008117 0.005862 -0.006024
# 4 0.000160 -0.000433 -0.008117 0.034258 -0.003862 0.002653
# 5 -0.003698 -0.004803 0.005862 -0.003862 0.053280 -0.009573
# 6 0.002709 -0.000785 -0.006024 0.002653 -0.009573 0.035269
#
#
# Mechanical properties :
#
#
# Convention : Reuss Voigt Hill
#
# Bulk Modulus (GPa) = 51.25715 61.05428 56.15571
# Shear Modulus (GPa) = 28.99122 37.85488 33.42305
#
# Velocity S-wave (km/s) = 3.50275 4.00255 3.76097
# Velocity P-wave (km/s) = 6.16858 6.87017 6.52880
#
# Compressibility (1/GPa) = 0.01950948
#
# Stress axis : x y z
#
# Youngs Moduli (GPa) = 113.81883 131.72936 66.86406
#
# Poissons Ratio (x) = -0.01120 0.20681
# Poissons Ratio (y) = -0.00967 0.19416
# Poissons Ratio (z) = 0.35204 0.38251
#
# Static dielectric constant tensor:
#      x y z
#    x 1.901470 0.106480 0.050650 
#    y 0.106480 1.899620 -0.045530 
#    z 0.050650 -0.045530 1.938390 
# 
# From -- ./inp_files/78827.got.cif
#   From: 2010.05.17/outbox.cif.g08.bks.cpg/sg2_40_cif.got.tgz:78827.got - 2010.06.03 11:33:40.
