data_PCOD9029218
_publ_section_title
;
Structure prediction by ZEFSAII (Michael W. Deem and Ramdas Pophale) SiO2 
 PCOD9029218
Probable space group: P -1
;
_chemical_formula_sum "Si O2"
_cell_formula_units_Z 16
_cell_length_a 7.644056
_cell_length_b 15.476307
_cell_length_c 11.867746
_cell_angle_alpha 153.474871
_cell_angle_beta 83.653760
_cell_angle_gamma 93.505414
_cell_volume 620.900516
_symmetry_space_group_name_H-M "P -1"
_symmetry_group_IT_number 2
_symmetry_cell_setting 'triclinic'
loop_
_space_group_symop_operation_xyz
x,y,z
-x,-y,-z
loop_
_atom_site_type_symbol
_atom_site_label
_atom_site_fract_x
_atom_site_fract_y
_atom_site_fract_z
Si Si1 0.494003 0.510453 0.803580
Si Si2 0.352090 0.926024 0.219031
Si Si3 0.807355 0.959151 0.417809
Si Si4 0.011037 0.697301 0.930080
Si Si5 0.595710 0.827077 0.720544
Si Si6 0.890782 0.588240 0.220320
Si Si7 0.789232 0.211978 0.519076
Si Si8 0.868228 0.882740 0.945083
O O1 0.485493 0.373651 0.533463
O O2 0.315613 0.459975 0.827357
O O3 0.672167 0.410956 0.732175
O O4 0.478294 0.736663 0.030910
O O5 0.309277 0.061409 0.488781
O O6 0.384892 0.067443 0.278507
O O7 0.178983 0.821797 0.074620
O O8 0.721467 0.131395 0.547599
O O9 0.000000 0.000000 0.500000
O O10 0.854725 0.790186 0.129699
O O11 0.066765 0.505240 0.769052
O O12 0.950754 0.718018 0.831186
O O13 0.500000 0.000000 0.000000
O O14 0.758236 0.784281 0.743090
O O15 0.001998 0.775182 0.453086
O O16 0.000000 0.500000 0.000000
O O17 0.778723 0.051023 0.233034
O O18 0.000000 0.000000 0.000000
#
# Coordination Sequence:
#
# PCOD9029218 Si02
#       8
#     2   2   2   2   2   2   2   2
#     4  11  26  45  66 105 138 177 238 278 349 419
#     4  10  22  42  66  96 138 176 221 293 345 405
#     4   9  19  38  68  96 132 174 218 280 347 410
#     4   9  20  38  65 101 128 175 231 275 352 416
#     4  12  25  44  66  95 136 185 228 286 347 396
#     4  11  24  41  70 105 139 182 221 287 357 414
#     4  11  23  44  68  98 140 180 224 289 346 408
#     4  11  21  42  67  91 129 181 235 282 335 408
#
# _framework density 25.769024000000002
#
# number of rings (size 3 to 8) (size 9 to 14) (size 15 to 20)
#    0.000    1.500    2.500    3.000    5.250    3.500 
#    2.250    2.500    0.000    0.000    0.000    0.000 
#    0.000    0.000    0.000    0.000    0.000    0.000 
#
# Total GULP energy -89269.271465 kJ/mol
# GULP energy per Si atom -5579.329467 kJ/mol
# Density = 2.571037 g / cm^3
# Si number density = 25.769024 Si / 1000 Ang^3
#
#
#
# Elastic Constant Matrix: (Units=GPa)
#
#
# Indices 1 2 3 4 5 6 
#
# 1 100.5789 20.1494 5.3079 -2.0035 -3.9434 -15.4103
# 2 20.1494 189.8368 12.8670 -13.7630 -11.7473 -23.5606
# 3 5.3079 12.8670 55.3271 -17.1216 -13.6026 -8.1132
# 4 -2.0035 -13.7630 -17.1216 42.0722 0.5306 -6.9936
# 5 -3.9434 -11.7473 -13.6026 0.5306 27.1671 6.7281
# 6 -15.4103 -23.5606 -8.1132 -6.9936 6.7281 31.8708
#
#
#
# Elastic Compliance Matrix: (Units=1/GPa)
#
#
# Indices 1 2 3 4 5 6 
#
# 1 0.010853 -0.000403 0.000312 0.001388 0.000221 0.005287
# 2 -0.000403 0.006197 0.000680 0.003074 0.001694 0.004877
# 3 0.000312 0.000680 0.025231 0.011583 0.010936 0.007310
# 4 0.001388 0.003074 0.011583 0.031504 0.003739 0.012016
# 5 0.000221 0.001694 0.010936 0.003739 0.044050 -0.004336
# 6 0.005287 0.004877 0.007310 0.012016 -0.004336 0.042951
#
#
# Mechanical properties :
#
#
# Convention : Reuss Voigt Hill
#
# Bulk Modulus (GPa) = 23.00936 46.93238 34.97087
# Shear Modulus (GPa) = 28.71982 40.71658 34.71820
#
# Velocity S-wave (km/s) = 3.34205 3.97931 3.67452
# Velocity P-wave (km/s) = 4.88271 6.27419 5.62167
#
# Compressibility (1/GPa) = 0.04346058
#
# Stress axis : x y z
#
# Youngs Moduli (GPa) = 92.13988 161.36080 39.63340
#
# Poissons Ratio (x) = 0.06496 -0.01235
# Poissons Ratio (y) = 0.03709 -0.02697
# Poissons Ratio (z) = -0.02871 -0.10980
#
# Static dielectric constant tensor:
#      x y z
#    x 1.978770 0.465940 0.052710 
#    y 0.465940 0.963680 -0.227800 
#    z 0.052710 -0.227800 1.948310 
# 
# From -- ./inp_files/399988.got.cif
#   From: 2010.05.17/outbox.cif.g08.bks.cpg/sg2_200_cif.got.tgz:399988.got - 2010.06.03 11:33:40.
