data_PCOD9029025
_publ_section_title
;
Structure prediction by ZEFSAII (Michael W. Deem and Ramdas Pophale) SiO2 
 PCOD9029025
Probable space group: P -1
;
_chemical_formula_sum "Si O2"
_cell_formula_units_Z 16
_cell_length_a 20.757036
_cell_length_b 9.001377
_cell_length_c 12.460078
_cell_angle_alpha 108.658028
_cell_angle_beta 143.194123
_cell_angle_gamma 42.807748
_cell_volume 714.518194
_symmetry_space_group_name_H-M "P -1"
_symmetry_group_IT_number 2
_symmetry_cell_setting 'triclinic'
loop_
_space_group_symop_operation_xyz
x,y,z
-x,-y,-z
loop_
_atom_site_type_symbol
_atom_site_label
_atom_site_fract_x
_atom_site_fract_y
_atom_site_fract_z
Si Si1 0.010454 0.313815 0.932332
Si Si2 0.691818 0.485959 0.905662
Si Si3 0.680786 0.147892 0.170318
Si Si4 0.850804 0.040920 0.585756
Si Si5 0.265747 0.884144 0.988678
Si Si6 0.216475 0.815519 0.236307
Si Si7 0.317101 0.438847 0.554909
Si Si8 0.491602 0.980819 0.111638
O O1 0.787010 0.518364 0.674640
O O2 0.000000 0.500000 0.000000
O O3 0.107884 0.173247 0.913806
O O4 0.161126 0.034247 0.143913
O O5 0.693267 0.335271 0.953370
O O6 0.651842 0.460608 0.727333
O O7 0.570527 0.781958 0.857161
O O8 0.919566 0.270127 0.156081
O O9 0.759157 0.048816 0.372818
O O10 0.500000 0.500000 0.000000
O O11 0.809981 0.044060 0.217387
O O12 0.642635 0.011889 0.062357
O O13 0.734493 0.195674 0.579511
O O14 0.832687 0.233812 0.551423
O O15 0.471777 0.734078 0.226646
O O16 0.000000 0.000000 0.000000
O O17 0.331120 0.305540 0.643651
O O18 0.500000 0.000000 0.000000
#
# Coordination Sequence:
#
# PCOD9029025 Si02
#       8
#     2   2   2   2   2   2   2   2
#     4  11  24  45  67 104 139 175 228 283 330 404
#     4  10  22  42  66 101 134 171 228 284 330 401
#     4  11  22  40  67  99 133 177 227 276 331 407
#     4  11  21  42  75  92 129 189 222 267 347 399
#     4  10  22  42  69  98 131 178 227 271 336 407
#     4   9  19  41  68  92 134 175 221 275 333 400
#     4  11  23  45  69  97 132 185 223 267 350 393
#     4  11  25  41  63 101 143 170 225 290 331 394
#
# _framework density 22.392710999999998
#
# number of rings (size 3 to 8) (size 9 to 14) (size 15 to 20)
#    0.000    1.500    6.250    0.750    0.000    7.500 
#    2.250    1.250    0.000    0.000    0.000    0.000 
#    0.000    0.000    0.000    0.000    0.000    0.000 
#
# Total GULP energy -89127.452738 kJ/mol
# GULP energy per Si atom -5570.465796 kJ/mol
# Density = 2.234174 g / cm^3
# Si number density = 22.392711 Si / 1000 Ang^3
#
#
#
# Elastic Constant Matrix: (Units=GPa)
#
#
# Indices 1 2 3 4 5 6 
#
# 1 95.3887 39.8725 16.1489 5.7086 -30.1599 -22.2846
# 2 39.8725 150.5026 19.4161 21.7653 -22.4423 -6.1590
# 3 16.1489 19.4161 85.7730 20.9560 -23.5426 -11.5921
# 4 5.7086 21.7653 20.9560 37.8862 -1.5154 -3.6214
# 5 -30.1599 -22.4423 -23.5426 -1.5154 41.6357 12.5014
# 6 -22.2846 -6.1590 -11.5921 -3.6214 12.5014 34.8734
#
#
#
# Elastic Compliance Matrix: (Units=1/GPa)
#
#
# Indices 1 2 3 4 5 6 
#
# 1 0.015732 -0.002705 0.000976 -0.000365 0.008422 0.006843
# 2 -0.002705 0.008380 0.000371 -0.004652 0.003116 -0.001725
# 3 0.000976 0.000371 0.016352 -0.008854 0.009265 0.001884
# 4 -0.000365 -0.004652 -0.008854 0.033934 -0.007173 0.002097
# 5 0.008422 0.003116 0.009265 -0.007173 0.038430 -0.005509
# 6 0.006843 -0.001725 0.001884 0.002097 -0.005509 0.035562
#
#
# Mechanical properties :
#
#
# Convention : Reuss Voigt Hill
#
# Bulk Modulus (GPa) = 26.49148 53.61551 40.05349
# Shear Modulus (GPa) = 30.54578 39.96083 35.25330
#
# Velocity S-wave (km/s) = 3.69737 4.22897 3.97208
# Velocity P-wave (km/s) = 5.48484 6.91671 6.24197
#
# Compressibility (1/GPa) = 0.03774798
#
# Stress axis : x y z
#
# Youngs Moduli (GPa) = 63.56378 119.33149 61.15510
#
# Poissons Ratio (x) = 0.32281 -0.05969
# Poissons Ratio (y) = 0.17195 -0.02269
# Poissons Ratio (z) = -0.06204 -0.04428
#
# Static dielectric constant tensor:
#      x y z
#    x 1.911890 -0.031340 0.007650 
#    y -0.031340 1.829680 0.054880 
#    z 0.007650 0.054880 2.033490 
# 
# From -- ./inp_files/470062.got.cif
#   From: 2010.05.17/outbox.cif.g08.bks.cpg/sg2_236_cif.got.tgz:470062.got - 2010.06.03 11:33:40.
