data_PCOD9029960
_publ_section_title
;
Structure prediction by ZEFSAII (Michael W. Deem and Ramdas Pophale) SiO2 
 PCOD9029960
Probable space group: P -1
;
_chemical_formula_sum "Si O2"
_cell_formula_units_Z 14
_cell_length_a 19.819169
_cell_length_b 11.571986
_cell_length_c 12.935604
_cell_angle_alpha 134.877505
_cell_angle_beta 146.707346
_cell_angle_gamma 22.574731
_cell_volume 593.469161
_symmetry_space_group_name_H-M "P -1"
_symmetry_group_IT_number 2
_symmetry_cell_setting 'triclinic'
loop_
_space_group_symop_operation_xyz
x,y,z
-x,-y,-z
loop_
_atom_site_type_symbol
_atom_site_label
_atom_site_fract_x
_atom_site_fract_y
_atom_site_fract_z
Si Si1 0.223638 0.856821 0.490894
Si Si2 0.750091 0.276302 0.790829
Si Si3 0.014287 0.537721 0.423266
Si Si4 0.794030 0.831734 0.003881
Si Si5 0.249055 0.762819 0.779271
Si Si6 0.585517 0.756578 0.382083
Si Si7 0.698864 0.711444 0.992854
O O1 0.493562 0.506354 0.653686
O O2 0.219255 0.854190 0.358881
O O3 0.168728 0.105994 0.605493
O O4 0.991407 0.016104 0.327176
O O5 0.691453 0.530036 0.846524
O O6 0.000000 0.000000 0.000000
O O7 0.257456 0.337348 0.566089
O O8 0.000000 0.500000 0.500000
O O9 0.945202 0.470202 0.216029
O O10 0.644349 0.041958 0.844109
O O11 0.687292 0.830337 0.950003
O O12 0.000000 0.500000 0.000000
O O13 0.815530 0.982551 0.183146
O O14 0.290080 0.557846 0.627734
O O15 0.500000 0.500000 0.000000
O O16 0.500000 0.000000 0.500000
O O17 0.500000 0.000000 0.000000
#
# Coordination Sequence:
#
# PCOD9029960 Si02
#       7
#     2   2   2   2   2   2   2
#     4  10  22  44  70 100 141 184 240 292 358 429
#     4  11  24  43  70 102 142 187 238 294 360 431
#     4  11  22  42  69 100 136 179 233 292 354 428
#     4  11  23  43  69  98 138 186 231 292 352 423
#     4   9  21  44  72  96 140 192 235 289 361 434
#     4  10  22  42  69 101 138 181 234 288 355 431
#     4  12  24  43  68 100 137 176 234 292 360 418
#
# _framework density 23.590105999999999
#
# number of rings (size 3 to 8) (size 9 to 14) (size 15 to 20)
#    0.000    1.429    1.429    3.429    0.000    3.429 
#    2.571    9.286    3.143    0.000    0.000    0.000 
#    0.000    0.000    0.000    0.000    0.000    0.000 
#
# Total GULP energy -78008.880352 kJ/mol
# GULP energy per Si atom -5572.062882 kJ/mol
# Density = 2.353641 g / cm^3
# Si number density = 23.590106 Si / 1000 Ang^3
#
#
#
# Elastic Constant Matrix: (Units=GPa)
#
#
# Indices 1 2 3 4 5 6 
#
# 1 95.0268 59.8778 7.7888 6.5847 13.3845 -5.2103
# 2 59.8778 153.1024 43.1528 14.5839 14.0064 -17.0769
# 3 7.7888 43.1528 114.1247 -8.2626 0.5294 6.0092
# 4 6.5847 14.5839 -8.2626 62.8895 -0.7002 6.2481
# 5 13.3845 14.0064 0.5294 -0.7002 41.4388 3.0647
# 6 -5.2103 -17.0769 6.0092 6.2481 3.0647 24.3921
#
#
#
# Elastic Compliance Matrix: (Units=1/GPa)
#
#
# Indices 1 2 3 4 5 6 
#
# 1 0.014441 -0.005917 0.001329 0.000114 -0.002599 -0.001088
# 2 -0.005917 0.011901 -0.004860 -0.003762 -0.002822 0.009584
# 3 0.001329 -0.004860 0.011091 0.003145 0.001632 -0.006862
# 4 0.000114 -0.003762 0.003145 0.018019 0.002110 -0.008265
# 5 -0.002599 -0.002822 0.001632 0.002110 0.026443 -0.006796
# 6 -0.001088 0.009584 -0.006862 -0.008265 -0.006796 0.052135
#
#
# Mechanical properties :
#
#
# Convention : Reuss Voigt Hill
#
# Bulk Modulus (GPa) = 53.94481 64.87696 59.41089
# Shear Modulus (GPa) = 31.42577 42.50638 36.96608
#
# Velocity S-wave (km/s) = 3.65383 4.24945 3.96285
# Velocity P-wave (km/s) = 6.38106 7.18600 6.79546
#
# Compressibility (1/GPa) = 0.01853747
#
# Stress axis : x y z
#
# Youngs Moduli (GPa) = 69.24561 84.02637 90.16535
#
# Poissons Ratio (x) = 0.49719 -0.11986
# Poissons Ratio (y) = 0.40973 0.43821
# Poissons Ratio (z) = -0.09205 0.40838
#
# Static dielectric constant tensor:
#      x y z
#    x 1.685630 0.185480 -0.135010 
#    y 0.185480 1.912980 0.079670 
#    z -0.135010 0.079670 1.880500 
# 
# From -- ./inp_files/189597.got.cif
#   From: 2010.05.17/outbox.cif.g08.bks.cpg/sg2_95_cif.got.tgz:189597.got - 2010.06.03 11:33:40.
