data_PCOD9029992
_publ_section_title
;
Structure prediction by ZEFSAII (Michael W. Deem and Ramdas Pophale) SiO2 
 PCOD9029992
Probable space group: P -1
;
_chemical_formula_sum "Si O2"
_cell_formula_units_Z 14
_cell_length_a 13.208651
_cell_length_b 16.069452
_cell_length_c 23.079188
_cell_angle_alpha 17.959997
_cell_angle_beta 152.615751
_cell_angle_gamma 152.883455
_cell_volume 658.205863
_symmetry_space_group_name_H-M "P -1"
_symmetry_group_IT_number 2
_symmetry_cell_setting 'triclinic'
loop_
_space_group_symop_operation_xyz
x,y,z
-x,-y,-z
loop_
_atom_site_type_symbol
_atom_site_label
_atom_site_fract_x
_atom_site_fract_y
_atom_site_fract_z
Si Si1 0.461724 0.557131 0.108565
Si Si2 0.409974 0.239198 0.172029
Si Si3 0.243946 0.463051 0.369890
Si Si4 0.537408 0.768326 0.215968
Si Si5 0.421704 0.288489 0.390208
Si Si6 0.930681 0.064317 0.986443
Si Si7 0.107166 0.888867 0.733653
O O1 0.433867 0.362683 0.166841
O O2 0.482858 0.396027 0.284827
O O3 0.246838 0.680502 0.922722
O O4 0.692428 0.826496 0.040062
O O5 0.549576 0.017161 0.383366
O O6 0.500000 0.500000 0.000000
O O7 0.142697 0.077409 0.127634
O O8 0.500000 0.500000 0.500000
O O9 0.308021 0.619534 0.237108
O O10 0.115774 0.634580 0.230015
O O11 0.115470 0.128323 0.531018
O O12 0.573273 0.515655 0.363090
O O13 0.748114 0.932052 0.256890
O O14 0.500000 0.000000 0.000000
O O15 0.155143 0.269255 0.277344
O O16 0.000000 0.000000 0.000000
#
# Coordination Sequence:
#
# PCOD9029992 Si02
#       7
#     2   2   2   2   2   2   2
#     4  12  26  48  69 105 143 182 237 290 357 411
#     4  12  29  46  72 103 142 192 237 278 354 432
#     4  10  22  42  69 104 134 179 236 289 345 412
#     4  11  23  42  71 107 139 176 240 286 359 409
#     4  12  28  46  71 106 142 189 233 293 352 421
#     4  12  25  46  73 100 145 186 231 296 346 417
#     4  11  25  44  74 102 144 181 234 301 344 414
#
# _framework density 21.269942
#
# number of rings (size 3 to 8) (size 9 to 14) (size 15 to 20)
#    0.000    0.571    5.714    1.714    8.000    2.286 
#    0.000    0.000    0.000    0.000    0.000    0.000 
#    0.000    0.000    0.000    0.000    0.000    0.000 
#
# Total GULP energy -78349.747465 kJ/mol
# GULP energy per Si atom -5596.410533 kJ/mol
# Density = 2.122153 g / cm^3
# Si number density = 21.269942 Si / 1000 Ang^3
#
#
#
# Elastic Constant Matrix: (Units=GPa)
#
#
# Indices 1 2 3 4 5 6 
#
# 1 94.7273 8.9922 49.1744 -3.1633 8.1091 -23.1880
# 2 8.9922 69.2684 3.7792 11.9855 12.4720 -19.8875
# 3 49.1744 3.7792 117.2563 -16.9872 7.4320 -2.8480
# 4 -3.1633 11.9855 -16.9872 26.9582 7.1910 10.4979
# 5 8.1091 12.4720 7.4320 7.1910 40.0653 -8.3264
# 6 -23.1880 -19.8875 -2.8480 10.4979 -8.3264 44.9978
#
#
#
# Elastic Compliance Matrix: (Units=1/GPa)
#
#
# Indices 1 2 3 4 5 6 
#
# 1 0.017302 0.003280 -0.008616 -0.010098 0.001475 0.012449
# 2 0.003280 0.021703 -0.004260 -0.017744 -0.000308 0.015095
# 3 -0.008616 -0.004260 0.014479 0.014927 -0.004308 -0.009686
# 4 -0.010098 -0.017744 0.014927 0.068908 -0.013962 -0.030761
# 5 0.001475 -0.000308 -0.004308 -0.013962 0.029964 0.009153
# 6 0.012449 0.015095 -0.009686 -0.030761 0.009153 0.043567
#
#
# Mechanical properties :
#
#
# Convention : Reuss Voigt Hill
#
# Bulk Modulus (GPa) = 29.16032 45.01596 37.08814
# Shear Modulus (GPa) = 22.07078 37.02468 29.54773
#
# Velocity S-wave (km/s) = 3.22475 4.17670 3.73121
# Velocity P-wave (km/s) = 5.25403 6.66857 6.00311
#
# Compressibility (1/GPa) = 0.03429317
#
# Stress axis : x y z
#
# Youngs Moduli (GPa) = 57.79806 46.07675 69.06461
#
# Poissons Ratio (x) = -0.15113 0.59504
# Poissons Ratio (y) = -0.18957 0.29418
# Poissons Ratio (z) = 0.49797 0.19627
#
# Static dielectric constant tensor:
#      x y z
#    x 1.777710 -0.017980 -0.018030 
#    y -0.017980 1.771130 -0.011720 
#    z -0.018030 -0.011720 1.757430 
# 
# From -- ./inp_files/183832.got.cif
#   From: 2010.05.17/outbox.cif.g08.bks.cpg/sg2_92_cif.got.tgz:183832.got - 2010.06.03 11:33:40.
