data_PCOD9029967
_publ_section_title
;
Structure prediction by ZEFSAII (Michael W. Deem and Ramdas Pophale) SiO2 
 PCOD9029967
Probable space group: P -1
;
_chemical_formula_sum "Si O2"
_cell_formula_units_Z 16
_cell_length_a 14.390472
_cell_length_b 9.868065
_cell_length_c 10.561619
_cell_angle_alpha 81.207714
_cell_angle_beta 124.840786
_cell_angle_gamma 141.408644
_cell_volume 628.924066
_symmetry_space_group_name_H-M "P -1"
_symmetry_group_IT_number 2
_symmetry_cell_setting 'triclinic'
loop_
_space_group_symop_operation_xyz
x,y,z
-x,-y,-z
loop_
_atom_site_type_symbol
_atom_site_label
_atom_site_fract_x
_atom_site_fract_y
_atom_site_fract_z
Si Si1 0.023865 0.425789 0.407283
Si Si2 0.099158 0.144286 0.751916
Si Si3 0.708590 0.606568 0.633319
Si Si4 0.548124 0.140178 0.640209
Si Si5 0.599369 0.388109 0.268162
Si Si6 0.756754 0.994157 0.438288
Si Si7 0.645471 0.630317 0.826110
Si Si8 0.340481 0.891986 0.006300
O O1 0.000000 0.500000 0.500000
O O2 0.251449 0.580888 0.567702
O O3 0.849968 0.128018 0.355991
O O4 0.907850 0.365451 0.202168
O O5 0.252735 0.343006 0.724984
O O6 0.253784 0.276398 0.970586
O O7 0.897506 0.827100 0.644457
O O8 0.950605 0.126441 0.649409
O O9 0.500000 0.500000 0.500000
O O10 0.809958 0.758111 0.825402
O O11 0.458710 0.324954 0.270716
O O12 0.660394 0.396952 0.643564
O O13 0.320611 0.957774 0.547518
O O14 0.654191 0.183065 0.843456
O O15 0.500000 0.000000 0.500000
O O16 0.437447 0.142250 0.080790
O O17 0.550631 0.683702 0.295474
O O18 0.500000 0.000000 0.000000
#
# Coordination Sequence:
#
# PCOD9029967 Si02
#       8
#     2   2   2   2   2   2   2   2
#     4  11  22  42  70 105 149 202 244 317 392 448
#     4  11  23  43  74 108 145 200 251 309 393 457
#     4  11  24  49  75 102 154 207 251 304 396 469
#     4  11  25  45  79 109 155 207 255 317 383 463
#     4  11  26  42  76 114 152 189 264 332 382 449
#     4  10  22  42  69 101 149 192 248 311 386 447
#     4  11  24  43  71 107 145 198 250 324 376 459
#     4  12  24  45  74 110 150 200 259 320 385 462
#
# _framework density 25.440273999999999
#
# number of rings (size 3 to 8) (size 9 to 14) (size 15 to 20)
#    0.000    1.000    5.000    1.500    3.500    3.000 
#    0.000    0.000    0.000    6.750    0.000    0.000 
#    0.000    0.000    0.000    0.000    0.000    0.000 
#
# Total GULP energy -89346.499418 kJ/mol
# GULP energy per Si atom -5584.156214 kJ/mol
# Density = 2.538237 g / cm^3
# Si number density = 25.440274 Si / 1000 Ang^3
#
#
#
# Elastic Constant Matrix: (Units=GPa)
#
#
# Indices 1 2 3 4 5 6 
#
# 1 165.3827 21.4954 67.6393 -3.6894 -26.4113 -1.8693
# 2 21.4954 115.4227 39.9209 -19.0469 -13.2341 -16.0727
# 3 67.6393 39.9209 178.2890 -2.8213 7.3997 -6.5357
# 4 -3.6894 -19.0469 -2.8213 44.4537 -2.7638 3.4316
# 5 -26.4113 -13.2341 7.3997 -2.7638 41.3275 -4.9226
# 6 -1.8693 -16.0727 -6.5357 3.4316 -4.9226 26.3500
#
#
#
# Elastic Compliance Matrix: (Units=1/GPa)
#
#
# Indices 1 2 3 4 5 6 
#
# 1 0.008509 0.000776 -0.003610 0.001120 0.006558 0.001261
# 2 0.000776 0.012010 -0.002895 0.004849 0.006037 0.007159
# 3 -0.003610 -0.002895 0.007776 -0.001282 -0.004810 -0.000825
# 4 0.001120 0.004849 -0.001282 0.024824 0.004190 0.000269
# 5 0.006558 0.006037 -0.004810 0.004190 0.032472 0.008475
# 6 0.001261 0.007159 -0.000825 0.000269 0.008475 0.043750
#
#
# Mechanical properties :
#
#
# Convention : Reuss Voigt Hill
#
# Bulk Modulus (GPa) = 59.39401 79.68954 69.54177
# Shear Modulus (GPa) = 34.15041 44.42884 39.28962
#
# Velocity S-wave (km/s) = 3.66782 4.18353 3.93413
# Velocity P-wave (km/s) = 6.42918 7.39784 6.93045
#
# Compressibility (1/GPa) = 0.01683672
#
# Stress axis : x y z
#
# Youngs Moduli (GPa) = 117.52762 83.26481 128.60385
#
# Poissons Ratio (x) = -0.06464 0.46427
# Poissons Ratio (y) = -0.09124 0.37232
# Poissons Ratio (z) = 0.42428 0.24106
#
# Static dielectric constant tensor:
#      x y z
#    x 2.010170 -0.030240 -0.004080 
#    y -0.030240 2.165770 -0.061840 
#    z -0.004080 -0.061840 2.182750 
# 
# From -- ./inp_files/318568.got.cif
#   From: 2010.05.17/outbox.cif.g08.bks.cpg/sg2_160_cif.got.tgz:318568.got - 2010.06.03 11:33:40.
