data_PCOD9029543
_publ_section_title
;
Structure prediction by ZEFSAII (Michael W. Deem and Ramdas Pophale) SiO2 
 PCOD9029543
Probable space group: P -1
;
_chemical_formula_sum "Si O2"
_cell_formula_units_Z 14
_cell_length_a 14.932230
_cell_length_b 7.621603
_cell_length_c 5.234511
_cell_angle_alpha 111.918903
_cell_angle_beta 90.207766
_cell_angle_gamma 94.121776
_cell_volume 550.935411
_symmetry_space_group_name_H-M "P -1"
_symmetry_group_IT_number 2
_symmetry_cell_setting 'triclinic'
loop_
_space_group_symop_operation_xyz
x,y,z
-x,-y,-z
loop_
_atom_site_type_symbol
_atom_site_label
_atom_site_fract_x
_atom_site_fract_y
_atom_site_fract_z
Si Si1 0.364826 0.347641 0.803066
Si Si2 0.398815 0.032481 0.270134
Si Si3 0.896849 0.028892 0.448657
Si Si4 0.908513 0.477299 0.649188
Si Si5 0.526310 0.309621 0.136677
Si Si6 0.817875 0.488612 0.155329
Si Si7 0.792902 0.027026 0.943203
O O1 0.367276 0.136849 0.578010
O O2 0.409343 0.507432 0.690986
O O3 0.268208 0.414975 0.892859
O O4 0.434809 0.370225 0.045659
O O5 0.490415 0.156750 0.262607
O O6 0.312380 0.040134 0.086911
O O7 0.422468 0.815410 0.137772
O O8 0.890646 0.253338 0.557292
O O9 0.835831 0.958413 0.645517
O O10 0.853851 0.964469 0.143031
O O11 0.000000 0.000000 0.500000
O O12 0.839148 0.547547 0.479329
O O13 0.000000 0.500000 0.500000
O O14 0.896374 0.544855 0.977402
O O15 0.800244 0.258779 0.048537
#
# Coordination Sequence:
#
# PCOD9029543 Si02
#       7
#     2   2   2   2   2   2   2
#     4  11  23  42  66  99 135 183 235 283 352 408
#     4  11  23  42  66  99 135 183 235 283 352 408
#     4  10  22  42  67  97 133 180 224 280 347 412
#     4  10  22  42  67  97 133 180 224 280 347 412
#     4  10  24  44  64  96 138 178 238 290 344 412
#     4  10  22  42  67  97 137 178 227 284 342 409
#     4  10  22  42  67  97 137 178 227 284 342 409
#
# _framework density 25.41133
#
# number of rings (size 3 to 8) (size 9 to 14) (size 15 to 20)
#    0.000    1.714    1.429    1.714    4.000    1.143 
#    0.000    0.000    0.000    0.000    0.000    0.000 
#    0.000    0.000    0.000    0.000    0.000    0.000 
#
# Total GULP energy -78245.086677 kJ/mol
# GULP energy per Si atom -5588.934763 kJ/mol
# Density = 2.535349 g / cm^3
# Si number density = 25.411330 Si / 1000 Ang^3
#
#
#
# Elastic Constant Matrix: (Units=GPa)
#
#
# Indices 1 2 3 4 5 6 
#
# 1 141.1995 31.1436 31.8521 -20.2380 -1.3847 -18.0127
# 2 31.1436 98.9832 44.8832 13.1701 -7.3236 -7.5562
# 3 31.8521 44.8832 103.6687 -33.5931 -4.7843 -3.2772
# 4 -20.2380 13.1701 -33.5931 37.4642 -3.2399 1.2475
# 5 -1.3847 -7.3236 -4.7843 -3.2399 30.1267 -2.8734
# 6 -18.0127 -7.5562 -3.2772 1.2475 -2.8734 47.5131
#
#
#
# Elastic Compliance Matrix: (Units=1/GPa)
#
#
# Indices 1 2 3 4 5 6 
#
# 1 0.009219 -0.004697 0.002064 0.008459 0.000778 0.002715
# 2 -0.004697 0.022476 -0.016405 -0.025188 0.000061 0.001327
# 3 0.002064 -0.016405 0.026207 0.030705 0.003512 -0.000613
# 4 0.008459 -0.025188 0.030705 0.068211 0.006470 -0.000081
# 5 0.000778 0.000061 0.003512 0.006470 0.034734 0.002478
# 6 0.002715 0.001327 -0.000613 -0.000081 0.002478 0.022397
#
#
# Mechanical properties :
#
#
# Convention : Reuss Voigt Hill
#
# Bulk Modulus (GPa) = 50.43903 62.17880 56.30891
# Shear Modulus (GPa) = 21.93661 38.75230 30.34445
#
# Velocity S-wave (km/s) = 2.94132 3.90936 3.45937
# Velocity P-wave (km/s) = 5.60600 6.70071 6.17765
#
# Compressibility (1/GPa) = 0.01982592
#
# Stress axis : x y z
#
# Youngs Moduli (GPa) = 108.47124 44.49092 38.15746
#
# Poissons Ratio (x) = 0.20897 -0.07875
# Poissons Ratio (y) = 0.50949 0.62598
# Poissons Ratio (z) = -0.22386 0.72988
#
# Static dielectric constant tensor:
#      x y z
#    x 0.851750 -0.422650 0.461710 
#    y -0.422650 1.877560 0.166100 
#    z 0.461710 0.166100 1.832090 
# 
# From -- ./inp_files/53311.got.cif
#   From: 2010.05.17/outbox.cif.g08.bks.cpg/sg2_27_cif.got.tgz:53311.got - 2010.06.03 11:33:40.
