data_PCOD9029137
_publ_section_title
;
Structure prediction by ZEFSAII (Michael W. Deem and Ramdas Pophale) SiO2 
 PCOD9029137
Probable space group: P -1
;
_chemical_formula_sum "Si O2"
_cell_formula_units_Z 16
_cell_length_a 9.382276
_cell_length_b 7.887974
_cell_length_c 15.532599
_cell_angle_alpha 103.017579
_cell_angle_beta 90.196291
_cell_angle_gamma 146.324171
_cell_volume 580.969230
_symmetry_space_group_name_H-M "P -1"
_symmetry_group_IT_number 2
_symmetry_cell_setting 'triclinic'
loop_
_space_group_symop_operation_xyz
x,y,z
-x,-y,-z
loop_
_atom_site_type_symbol
_atom_site_label
_atom_site_fract_x
_atom_site_fract_y
_atom_site_fract_z
Si Si1 0.325783 0.096469 0.369899
Si Si2 0.744495 0.124154 0.984675
Si Si3 0.384522 0.556290 0.244897
Si Si4 0.764997 0.335556 0.593321
Si Si5 0.509622 0.314071 0.918037
Si Si6 0.130754 0.227156 0.882048
Si Si7 0.860716 0.753622 0.550825
Si Si8 0.427633 0.617228 0.776148
O O1 0.562179 0.386627 0.472936
O O2 0.174053 0.125409 0.367047
O O3 0.487452 0.216298 0.296574
O O4 0.144638 0.748825 0.368378
O O5 0.669943 0.936340 0.877540
O O6 0.000000 0.500000 0.000000
O O7 0.500000 0.000000 0.000000
O O8 0.735627 0.005652 0.058465
O O9 0.331830 0.631373 0.329882
O O10 0.467068 0.749882 0.181633
O O11 0.586435 0.604976 0.272001
O O12 0.112332 0.161519 0.174164
O O13 0.964346 0.672052 0.576213
O O14 0.500000 0.000000 0.500000
O O15 0.412513 0.404126 0.900496
O O16 0.795525 0.616121 0.006455
O O17 0.173963 0.391164 0.815690
O O18 0.000000 0.000000 0.500000
#
# Coordination Sequence:
#
# PCOD9029137 Si02
#       8
#     2   2   2   2   2   2   2   2
#     4  10  22  42  66  93 140 171 227 290 356 427
#     4  11  27  44  65  98 148 189 236 300 364 431
#     4  11  21  39  71  92 136 176 237 287 354 435
#     4  10  23  42  64 100 136 178 227 298 355 429
#     4   9  21  39  61  95 128 177 227 286 347 419
#     4   9  20  37  64  96 126 171 229 286 345 424
#     4  10  22  43  68  94 128 177 227 291 362 426
#     4  10  23  40  65 100 129 183 229 287 354 435
#
# _framework density 27.540185999999999
#
# number of rings (size 3 to 8) (size 9 to 14) (size 15 to 20)
#    0.000    2.000    1.250    1.125    8.750    0.500 
#    0.000    5.000    0.000    0.000    0.000    0.000 
#    0.000    0.000    0.000    0.000    0.000    0.000 
#
# Total GULP energy -89295.456236 kJ/mol
# GULP energy per Si atom -5580.966015 kJ/mol
# Density = 2.747750 g / cm^3
# Si number density = 27.540186 Si / 1000 Ang^3
#
#
#
# Elastic Constant Matrix: (Units=GPa)
#
#
# Indices 1 2 3 4 5 6 
#
# 1 74.9747 38.8161 15.6683 4.6928 -7.1013 -29.5085
# 2 38.8161 205.9140 50.5874 -20.5844 -7.6589 -31.0450
# 3 15.6683 50.5874 135.3080 -15.8365 -22.3880 -11.8447
# 4 4.6928 -20.5844 -15.8365 54.4735 -3.7587 1.8288
# 5 -7.1013 -7.6589 -22.3880 -3.7587 34.4721 2.4322
# 6 -29.5085 -31.0450 -11.8447 1.8288 2.4322 51.1181
#
#
#
# Elastic Compliance Matrix: (Units=1/GPa)
#
#
# Indices 1 2 3 4 5 6 
#
# 1 0.018596 -0.002177 -0.000505 -0.002741 0.002064 0.009295
# 2 -0.002177 0.006176 -0.001663 0.001964 -0.000086 0.002043
# 3 -0.000505 -0.001663 0.009380 0.002530 0.005859 0.000503
# 4 -0.002741 0.001964 0.002530 0.020356 0.003784 -0.000712
# 5 0.002064 -0.000086 0.005859 0.003784 0.033579 0.000764
# 6 0.009295 0.002043 0.000503 -0.000712 0.000764 0.026275
#
#
# Mechanical properties :
#
#
# Convention : Reuss Voigt Hill
#
# Bulk Modulus (GPa) = 39.27254 69.59336 54.43295
# Shear Modulus (GPa) = 38.01134 48.75439 43.38287
#
# Velocity S-wave (km/s) = 3.71915 4.21206 3.97326
# Velocity P-wave (km/s) = 5.72135 6.99856 6.39194
#
# Compressibility (1/GPa) = 0.02546309
#
# Stress axis : x y z
#
# Youngs Moduli (GPa) = 53.77455 161.90773 106.60839
#
# Poissons Ratio (x) = 0.35251 0.05383
# Poissons Ratio (y) = 0.11708 0.17725
# Poissons Ratio (z) = 0.02715 0.26919
#
# Static dielectric constant tensor:
#      x y z
#    x 2.408110 0.025080 0.100100 
#    y 0.025080 2.238270 -0.094060 
#    z 0.100100 -0.094060 2.276320 
# 
# From -- ./inp_files/515925.got.cif
#   From: 2010.05.17/outbox.cif.g08.bks.cpg/sg2_258_cif.got.tgz:515925.got - 2010.06.03 11:33:40.
