data_PCOD9029720
_publ_section_title
;
Structure prediction by ZEFSAII (Michael W. Deem and Ramdas Pophale) SiO2 
 PCOD9029720
Probable space group: P -1
;
_chemical_formula_sum "Si O2"
_cell_formula_units_Z 16
_cell_length_a 8.650916
_cell_length_b 25.857505
_cell_length_c 25.696295
_cell_angle_alpha 168.739237
_cell_angle_beta 45.108139
_cell_angle_gamma 133.519405
_cell_volume 794.917865
_symmetry_space_group_name_H-M "P -1"
_symmetry_group_IT_number 2
_symmetry_cell_setting 'triclinic'
loop_
_space_group_symop_operation_xyz
x,y,z
-x,-y,-z
loop_
_atom_site_type_symbol
_atom_site_label
_atom_site_fract_x
_atom_site_fract_y
_atom_site_fract_z
Si Si1 0.450956 0.336731 0.135076
Si Si2 0.495349 0.519984 0.854230
Si Si3 0.540047 0.118890 0.163580
Si Si4 0.063378 0.462703 0.168140
Si Si5 0.994814 0.740067 0.779330
Si Si6 0.898942 0.007216 0.692291
Si Si7 0.368815 0.594296 0.735167
Si Si8 0.186726 0.032620 0.445457
O O1 0.445777 0.475090 0.216659
O O2 0.527830 0.508344 0.335858
O O3 0.210155 0.254240 0.127632
O O4 0.646611 0.112201 0.864247
O O5 0.707754 0.513008 0.833350
O O6 0.336004 0.280815 0.665772
O O7 0.352349 0.782684 0.158429
O O8 0.776693 0.246350 0.232284
O O9 0.391142 0.363719 0.460211
O O10 0.500000 0.000000 0.000000
O O11 0.497469 0.861616 0.955893
O O12 0.885146 0.349105 0.138548
O O13 0.973439 0.748507 0.451652
O O14 0.047085 0.251872 0.916803
O O15 0.000000 0.500000 0.500000
O O16 0.000000 0.000000 0.000000
O O17 0.915916 0.944579 0.565414
O O18 0.000000 0.000000 0.500000
#
# Coordination Sequence:
#
# PCOD9029720 Si02
#       8
#     2   2   2   2   2   2   2   2
#     4  10  22  42  68  90 127 169 228 264 323 380
#     4  11  25  42  69 103 129 166 223 267 311 380
#     4  12  25  41  57  87 124 164 214 268 341 386
#     4  11  23  42  66  96 133 167 218 266 317 379
#     4  12  24  41  63  89 123 166 224 276 323 380
#     4  10  22  42  68  93 131 177 212 255 331 386
#     4  11  22  41  62  84 121 172 209 265 327 385
#     4  11  23  45  71 101 135 172 211 259 314 387
#
# _framework density 20.127866999999998
#
# number of rings (size 3 to 8) (size 9 to 14) (size 15 to 20)
#    0.000    1.000    2.500    5.250    1.750    3.000 
#    2.250    3.750    0.000    0.000    0.000    0.000 
#    0.000    0.000    0.000    0.000    0.000    0.000 
#
# Total GULP energy -89361.829007 kJ/mol
# GULP energy per Si atom -5585.114313 kJ/mol
# Density = 2.008205 g / cm^3
# Si number density = 20.127867 Si / 1000 Ang^3
#
#
#
# Elastic Constant Matrix: (Units=GPa)
#
#
# Indices 1 2 3 4 5 6 
#
# 1 132.5933 66.3773 34.7896 8.3783 18.5568 18.8263
# 2 66.3773 162.0701 39.7493 5.7223 18.3353 12.3769
# 3 34.7896 39.7493 110.0911 23.0465 19.6642 11.5016
# 4 8.3783 5.7223 23.0465 28.5629 -2.1206 8.0699
# 5 18.5568 18.3353 19.6642 -2.1206 43.5305 7.8465
# 6 18.8263 12.3769 11.5016 8.0699 7.8465 22.2514
#
#
#
# Elastic Compliance Matrix: (Units=1/GPa)
#
#
# Indices 1 2 3 4 5 6 
#
# 1 0.010632 -0.003428 -0.001282 0.000191 -0.001419 -0.005995
# 2 -0.003428 0.008149 -0.001812 0.000959 -0.000980 -0.000698
# 3 -0.001282 -0.001812 0.013215 -0.010603 -0.005356 0.000996
# 4 0.000191 0.000959 -0.010603 0.048615 0.009598 -0.016231
# 5 -0.001419 -0.000980 -0.005356 0.009598 0.028503 -0.009017
# 6 -0.005995 -0.000698 0.000996 -0.016231 -0.009017 0.058952
#
#
# Mechanical properties :
#
#
# Convention : Reuss Voigt Hill
#
# Bulk Modulus (GPa) = 52.76652 76.28742 64.52697
# Shear Modulus (GPa) = 26.67683 36.45820 31.56751
#
# Velocity S-wave (km/s) = 3.64451 4.26059 3.96453
# Velocity P-wave (km/s) = 6.63193 7.88588 7.28593
#
# Compressibility (1/GPa) = 0.01895141
#
# Stress axis : x y z
#
# Youngs Moduli (GPa) = 94.05278 122.71508 75.67227
#
# Poissons Ratio (x) = 0.42073 0.09703
# Poissons Ratio (y) = 0.32246 0.13710
# Poissons Ratio (z) = 0.12059 0.22232
#
# Static dielectric constant tensor:
#      x y z
#    x 1.764890 -0.011500 -0.021480 
#    y -0.011500 1.725110 0.003800 
#    z -0.021480 0.003800 1.671380 
# 
# From -- ./inp_files/617700.got.cif
#   From: 2010.05.17/outbox.cif.g08.bks.cpg/sg2_309_cif.got.tgz:617700.got - 2010.06.03 11:33:40.
