data_PCOD9029420
_publ_section_title
;
Structure prediction by ZEFSAII (Michael W. Deem and Ramdas Pophale) SiO2 
 PCOD9029420
Probable space group: P -1
;
_chemical_formula_sum "Si O2"
_cell_formula_units_Z 14
_cell_length_a 23.765620
_cell_length_b 11.742941
_cell_length_c 7.915376
_cell_angle_alpha 143.953088
_cell_angle_beta 138.264721
_cell_angle_gamma 28.654675
_cell_volume 618.033995
_symmetry_space_group_name_H-M "P -1"
_symmetry_group_IT_number 2
_symmetry_cell_setting 'triclinic'
loop_
_space_group_symop_operation_xyz
x,y,z
-x,-y,-z
loop_
_atom_site_type_symbol
_atom_site_label
_atom_site_fract_x
_atom_site_fract_y
_atom_site_fract_z
Si Si1 0.224982 0.244199 0.061661
Si Si2 0.441486 0.173017 0.848401
Si Si3 0.030600 0.289332 0.552653
Si Si4 0.673220 0.874383 0.211527
Si Si5 0.841318 0.904852 0.750645
Si Si6 0.519724 0.252239 0.806319
Si Si7 0.902982 0.203179 0.385846
O O1 0.181119 0.495212 0.370678
O O2 0.349225 0.975954 0.093189
O O3 0.127519 0.231200 0.823708
O O4 0.243501 0.281986 0.953237
O O5 0.331109 0.291672 0.860714
O O6 0.432672 0.324609 0.849062
O O7 0.487214 0.896213 0.536725
O O8 0.542080 0.096420 0.105789
O O9 0.096194 0.156756 0.363141
O O10 0.926789 0.613559 0.684501
O O11 0.974303 0.184135 0.368396
O O12 0.718043 0.994699 0.548686
O O13 0.837207 0.111844 0.085207
O O14 0.500000 0.500000 0.000000
O O15 0.000000 0.000000 0.500000
#
# Coordination Sequence:
#
# PCOD9029420 Si02
#       7
#     2   2   2   2   2   2   2
#     4  10  22  43  68  96 136 174 218 274 329 392
#     4   9  20  44  68  94 132 166 225 278 326 391
#     4  10  22  43  63  97 137 174 223 268 321 405
#     4   9  20  43  68  92 130 180 212 276 330 387
#     4  10  22  42  67  93 135 177 221 269 330 393
#     4  10  22  44  71 102 131 169 220 279 331 389
#     4  12  24  40  65 100 135 177 219 272 331 389
#
# _framework density 22.652474999999999
#
# number of rings (size 3 to 8) (size 9 to 14) (size 15 to 20)
#    0.000    2.000    1.429    0.857    2.000    0.000 
#   15.429    9.286    0.000    0.000    0.000    0.000 
#    0.000    0.000    0.000    0.000    0.000    0.000 
#
# Total GULP energy -78338.506954 kJ/mol
# GULP energy per Si atom -5595.607640 kJ/mol
# Density = 2.260092 g / cm^3
# Si number density = 22.652475 Si / 1000 Ang^3
#
#
#
# Elastic Constant Matrix: (Units=GPa)
#
#
# Indices 1 2 3 4 5 6 
#
# 1 123.5201 31.8501 25.7672 -2.1679 23.3916 11.5598
# 2 31.8501 91.4065 57.5326 -11.9455 9.1433 4.7725
# 3 25.7672 57.5326 130.4687 -28.4923 21.2349 0.5454
# 4 -2.1679 -11.9455 -28.4923 39.9306 -1.1749 10.3977
# 5 23.3916 9.1433 21.2349 -1.1749 32.6288 -1.4352
# 6 11.5598 4.7725 0.5454 10.3977 -1.4352 23.2736
#
#
#
# Elastic Compliance Matrix: (Units=1/GPa)
#
#
# Indices 1 2 3 4 5 6 
#
# 1 0.010705 -0.002957 0.000788 0.001573 -0.007562 -0.005898
# 2 -0.002957 0.016182 -0.006784 0.000346 0.001937 -0.001726
# 3 0.000788 -0.006784 0.013535 0.008369 -0.007326 -0.003508
# 4 0.001573 0.000346 0.008369 0.035528 -0.006153 -0.017300
# 5 -0.007562 0.001937 -0.007326 -0.006153 0.040458 0.008774
# 6 -0.005898 -0.001726 -0.003508 -0.017300 0.008774 0.054603
#
#
# Mechanical properties :
#
#
# Convention : Reuss Voigt Hill
#
# Bulk Modulus (GPa) = 44.40915 63.96614 54.18765
# Shear Modulus (GPa) = 25.45519 34.51630 29.98575
#
# Velocity S-wave (km/s) = 3.35584 3.90774 3.64226
# Velocity P-wave (km/s) = 5.88750 6.97566 6.45455
#
# Compressibility (1/GPa) = 0.02251788
#
# Stress axis : x y z
#
# Youngs Moduli (GPa) = 93.41057 61.79675 73.88027
#
# Poissons Ratio (x) = 0.18270 -0.05824
# Poissons Ratio (y) = 0.27617 0.50123
# Poissons Ratio (z) = -0.07364 0.41925
#
# Static dielectric constant tensor:
#      x y z
#    x 1.609990 0.703130 0.028360 
#    y 0.703130 -0.017910 -0.150700 
#    z 0.028360 -0.150700 1.783100 
# 
# From -- ./inp_files/353873.got.cif
#   From: 2010.05.17/outbox.cif.g08.bks.cpg/sg2_177_cif.got.tgz:353873.got - 2010.06.03 11:33:40.
