data_PCOD9029516
_publ_section_title
;
Structure prediction by ZEFSAII (Michael W. Deem and Ramdas Pophale) SiO2 
 PCOD9029516
Probable space group: P -1
;
_chemical_formula_sum "Si O2"
_cell_formula_units_Z 12
_cell_length_a 8.236210
_cell_length_b 8.674735
_cell_length_c 13.236316
_cell_angle_alpha 65.415988
_cell_angle_beta 36.540268
_cell_angle_gamma 62.470372
_cell_volume 497.510621
_symmetry_space_group_name_H-M "P -1"
_symmetry_group_IT_number 2
_symmetry_cell_setting 'triclinic'
loop_
_space_group_symop_operation_xyz
x,y,z
-x,-y,-z
loop_
_atom_site_type_symbol
_atom_site_label
_atom_site_fract_x
_atom_site_fract_y
_atom_site_fract_z
Si Si1 0.072170 0.261705 0.443476
Si Si2 0.279070 0.896599 0.493599
Si Si3 0.416032 0.513625 0.264249
Si Si4 0.265265 0.041729 0.912936
Si Si5 0.920666 0.298286 0.183277
Si Si6 0.553310 0.677202 0.972314
O O1 0.960687 0.167797 0.431762
O O2 0.810352 0.419552 0.555398
O O3 0.327242 0.356480 0.292314
O O4 0.167610 0.101483 0.516358
O O5 0.540665 0.886436 0.286848
O O6 0.288594 0.792433 0.622012
O O7 0.719513 0.446469 0.178096
O O8 0.392445 0.678713 0.158808
O O9 0.445382 0.861963 0.921334
O O10 0.127185 0.169308 0.038271
O O11 0.000000 0.000000 0.000000
O O12 0.122523 0.361790 0.144739
O O13 0.500000 0.500000 0.000000
#
# Coordination Sequence:
#
# PCOD9029516 Si02
#       6
#     2   2   2   2   2   2
#     4  10  22  42  67  96 135 181 228 283 337 398
#     4  11  23  45  69  97 136 178 231 282 337 404
#     4  11  24  42  67 102 139 180 229 278 342 408
#     4  12  27  46  73 104 135 181 232 283 343 407
#     4  12  26  45  72 102 139 185 227 280 343 407
#     4  12  24  43  68  99 142 181 225 285 342 404
#
# _framework density 24.120087000000002
#
# number of rings (size 3 to 8) (size 9 to 14) (size 15 to 20)
#    0.000    0.667    0.000    9.000    0.000    7.333 
#    0.000    1.667    0.000    0.000    0.000    0.000 
#    0.000    0.000    0.000    0.000    0.000    0.000 
#
# Total GULP energy -66983.106201 kJ/mol
# GULP energy per Si atom -5581.925517 kJ/mol
# Density = 2.406519 g / cm^3
# Si number density = 24.120087 Si / 1000 Ang^3
#
#
#
# Elastic Constant Matrix: (Units=GPa)
#
#
# Indices 1 2 3 4 5 6 
#
# 1 87.1637 36.2629 82.3532 -5.8854 -23.1601 4.3753
# 2 36.2629 85.6210 48.5158 0.8350 11.1803 1.3118
# 3 82.3532 48.5158 135.8625 -19.3826 -1.2872 -9.6411
# 4 -5.8854 0.8350 -19.3826 38.7724 -2.4954 -7.4843
# 5 -23.1601 11.1803 -1.2872 -2.4954 45.9317 -9.1730
# 6 4.3753 1.3118 -9.6411 -7.4843 -9.1730 30.8851
#
#
#
# Elastic Compliance Matrix: (Units=1/GPa)
#
#
# Indices 1 2 3 4 5 6 
#
# 1 0.044292 -0.006622 -0.025887 -0.006545 0.020981 -0.009429
# 2 -0.006622 0.017655 -0.003345 -0.004516 -0.008892 -0.004591
# 3 -0.025887 -0.003345 0.026660 0.011318 -0.008405 0.012378
# 4 -0.006545 -0.004516 0.011318 0.033330 0.002625 0.013509
# 5 0.020981 -0.008892 -0.008405 0.002625 0.035620 0.005997
# 6 -0.009429 -0.004591 0.012378 0.013509 0.005997 0.042827
#
#
# Mechanical properties :
#
#
# Convention : Reuss Voigt Hill
#
# Bulk Modulus (GPa) = 59.17535 71.43455 65.30495
# Shear Modulus (GPa) = 18.00339 32.55220 25.27780
#
# Velocity S-wave (km/s) = 2.73501 3.67766 3.24079
# Velocity P-wave (km/s) = 5.87883 6.90754 6.41384
#
# Compressibility (1/GPa) = 0.01689893
#
# Stress axis : x y z
#
# Youngs Moduli (GPa) = 22.57730 56.64177 37.50954
#
# Poissons Ratio (x) = 0.37507 0.97102
# Poissons Ratio (y) = 0.14950 0.12547
# Poissons Ratio (z) = 0.58446 0.18947
#
# Static dielectric constant tensor:
#      x y z
#    x 1.980630 0.047620 0.101370 
#    y 0.047620 1.895310 -0.034330 
#    z 0.101370 -0.034330 2.067870 
# 
# From -- ./inp_files/152411.got.cif
#   From: 2010.05.17/outbox.cif.g08.bks.cpg/sg2_77_cif.got.tgz:152411.got - 2010.06.03 11:33:40.
