data_PCOD9029904
_publ_section_title
;
Structure prediction by ZEFSAII (Michael W. Deem and Ramdas Pophale) SiO2 
 PCOD9029904
Probable space group: P -1
;
_chemical_formula_sum "Si O2"
_cell_formula_units_Z 15
_cell_length_a 8.181326
_cell_length_b 15.504389
_cell_length_c 11.833155
_cell_angle_alpha 29.493936
_cell_angle_beta 98.814202
_cell_angle_gamma 107.576310
_cell_volume 685.006305
_symmetry_space_group_name_H-M "P -1"
_symmetry_group_IT_number 2
_symmetry_cell_setting 'triclinic'
loop_
_space_group_symop_operation_xyz
x,y,z
-x,-y,-z
loop_
_atom_site_type_symbol
_atom_site_label
_atom_site_fract_x
_atom_site_fract_y
_atom_site_fract_z
Si Si1 0.684459 0.569335 0.060098
Si Si2 0.346628 0.473794 0.284419
Si Si3 0.282533 0.580118 0.391322
Si Si4 0.053261 0.325760 0.836711
Si Si5 0.798779 0.366096 0.110280
Si Si6 0.500000 0.000000 0.000000
Si Si7 0.207669 0.030198 0.489306
Si Si8 0.221137 0.054698 0.726487
O O1 0.695399 0.772665 0.784875
O O2 0.519423 0.484509 0.220816
O O3 0.858758 0.602143 0.116298
O O4 0.687251 0.437750 0.106326
O O5 0.385031 0.540911 0.339768
O O6 0.218098 0.260368 0.512376
O O7 0.259327 0.597131 0.062719
O O8 0.202585 0.407887 0.664511
O O9 0.107444 0.605043 0.289530
O O10 0.395925 0.769905 0.248640
O O11 0.966266 0.102839 0.085863
O O12 0.771504 0.148841 0.364717
O O13 0.000000 0.500000 0.000000
O O14 0.366905 0.022097 0.859793
O O15 0.260611 0.036749 0.618968
O O16 0.000000 0.000000 0.500000
#
# Coordination Sequence:
#
# PCOD9029904 Si02
#       8
#     2   2   2   2   2   1   2   2
#     4  12  25  44  68 109 142 182 234 292 354 431
#     4  12  26  44  70 102 145 183 233 298 358 418
#     4  10  23  46  69  97 136 186 236 293 346 415
#     4  10  22  44  71  97 134 184 239 285 345 423
#     4  12  23  43  72 101 141 189 231 291 353 418
#     4  10  22  42  68  98 138 182 230 292 350 408
#     4  12  23  44  73 104 143 185 238 289 354 425
#     4  11  22  42  70  99 141 180 234 291 345 422
#
# _framework density 21.897608000000002
#
# number of rings (size 3 to 8) (size 9 to 14) (size 15 to 20)
#    0.000    0.800    4.000    3.600    0.000    3.200 
#    7.200    1.333    0.000    0.000    0.000    0.000 
#    0.000    0.000    0.000    0.000    0.000    0.000 
#
# Total GULP energy -83705.544051 kJ/mol
# GULP energy per Si atom -5580.369603 kJ/mol
# Density = 2.184777 g / cm^3
# Si number density = 21.897608 Si / 1000 Ang^3
#
#
#
# Elastic Constant Matrix: (Units=GPa)
#
#
# Indices 1 2 3 4 5 6 
#
# 1 52.7201 34.0185 22.6192 -0.1204 -14.0674 -6.8827
# 2 34.0185 124.1817 51.2503 6.1830 -13.2170 11.3434
# 3 22.6192 51.2503 147.6305 -13.6416 -13.7433 -18.8698
# 4 -0.1204 6.1830 -13.6416 38.0110 -0.0545 3.5821
# 5 -14.0674 -13.2170 -13.7433 -0.0545 36.6556 2.4358
# 6 -6.8827 11.3434 -18.8698 3.5821 2.4358 40.4049
#
#
#
# Elastic Compliance Matrix: (Units=1/GPa)
#
#
# Indices 1 2 3 4 5 6 
#
# 1 0.026150 -0.006914 -0.000141 0.000616 0.007102 0.005847
# 2 -0.006914 0.012557 -0.004347 -0.003010 0.000672 -0.006507
# 3 -0.000141 -0.004347 0.009449 0.003611 0.001582 0.005194
# 4 0.000616 -0.003010 0.003611 0.028086 0.000539 0.000114
# 5 0.007102 0.000672 0.001582 0.000539 0.030853 -0.000148
# 6 0.005847 -0.006507 0.005194 0.000114 -0.000148 0.029997
#
#
# Mechanical properties :
#
#
# Convention : Reuss Voigt Hill
#
# Bulk Modulus (GPa) = 39.44553 60.03426 49.73990
# Shear Modulus (GPa) = 29.70094 37.45727 33.57910
#
# Velocity S-wave (km/s) = 3.68687 4.14038 3.92019
# Velocity P-wave (km/s) = 6.01471 7.09454 6.57682
#
# Compressibility (1/GPa) = 0.02535141
#
# Stress axis : x y z
#
# Youngs Moduli (GPa) = 38.24108 79.63930 105.83114
#
# Poissons Ratio (x) = 0.55065 0.01490
# Poissons Ratio (y) = 0.26441 0.46004
# Poissons Ratio (z) = 0.00538 0.34619
#
# Static dielectric constant tensor:
#      x y z
#    x 1.827290 0.001570 0.015630 
#    y 0.001570 1.784310 0.010070 
#    z 0.015630 0.010070 1.796930 
# 
# From -- ./inp_files/398220.got.cif
#   From: 2010.05.17/outbox.cif.g08.bks.cpg/sg2_200_cif.got.tgz:398220.got - 2010.06.03 11:33:40.
