data_PCOD9029936
_publ_section_title
;
Structure prediction by ZEFSAII (Michael W. Deem and Ramdas Pophale) SiO2 
 PCOD9029936
Probable space group: P -1
;
_chemical_formula_sum "Si O2"
_cell_formula_units_Z 14
_cell_length_a 7.817085
_cell_length_b 11.862375
_cell_length_c 13.577264
_cell_angle_alpha 132.750067
_cell_angle_beta 123.190418
_cell_angle_gamma 35.910607
_cell_volume 542.241969
_symmetry_space_group_name_H-M "P -1"
_symmetry_group_IT_number 2
_symmetry_cell_setting 'triclinic'
loop_
_space_group_symop_operation_xyz
x,y,z
-x,-y,-z
loop_
_atom_site_type_symbol
_atom_site_label
_atom_site_fract_x
_atom_site_fract_y
_atom_site_fract_z
Si Si1 0.111516 0.596927 0.543985
Si Si2 0.841849 0.348066 0.017224
Si Si3 0.771580 0.042538 0.814066
Si Si4 0.988107 0.776630 0.205901
Si Si5 0.384705 0.077839 0.122860
Si Si6 0.781935 0.783682 0.347758
Si Si7 0.682891 0.177917 0.553888
O O1 0.457153 0.394229 0.546643
O O2 0.000000 0.500000 0.500000
O O3 0.987766 0.805144 0.690860
O O4 0.990295 0.663305 0.435144
O O5 0.925896 0.365705 0.946787
O O6 0.933867 0.117780 0.915659
O O7 0.500000 0.500000 0.000000
O O8 0.052466 0.315785 0.144107
O O9 0.664135 0.036906 0.883685
O O10 0.472022 0.200052 0.748908
O O11 0.968062 0.699795 0.256599
O O12 0.236850 0.771683 0.292986
O O13 0.658365 0.016834 0.224925
O O14 0.500000 0.000000 0.000000
O O15 0.606000 0.040779 0.460293
O O16 0.000000 0.000000 0.500000
#
# Coordination Sequence:
#
# PCOD9029936 Si02
#       7
#     2   2   2   2   2   2   2
#     4  12  25  39  72 103 139 183 219 278 343 405
#     4  11  24  42  72 100 129 172 238 296 334 389
#     4  11  23  42  70 102 138 176 230 285 343 398
#     4   9  21  42  68  91 135 181 214 278 340 402
#     4   9  21  45  67  92 133 180 226 281 338 400
#     4  10  22  44  66 101 145 176 223 272 337 429
#     4  10  22  42  68  99 144 171 229 267 339 419
#
# _framework density 25.818732000000001
#
# number of rings (size 3 to 8) (size 9 to 14) (size 15 to 20)
#    0.000    1.714    1.429    1.714    4.000    2.286 
#    0.000    7.857    9.429    0.000    0.000    0.000 
#    0.000    0.000    0.000    0.000    0.000    0.000 
#
# Total GULP energy -78189.981557 kJ/mol
# GULP energy per Si atom -5584.998683 kJ/mol
# Density = 2.575997 g / cm^3
# Si number density = 25.818732 Si / 1000 Ang^3
#
#
#
# Elastic Constant Matrix: (Units=GPa)
#
#
# Indices 1 2 3 4 5 6 
#
# 1 127.8691 43.1669 34.2056 -17.1475 -19.4901 2.3918
# 2 43.1669 176.8654 49.3883 -48.3507 -11.9815 -31.0457
# 3 34.2056 49.3883 99.4594 -34.4420 -3.6249 9.8948
# 4 -17.1475 -48.3507 -34.4420 52.8258 7.7026 4.4611
# 5 -19.4901 -11.9815 -3.6249 7.7026 42.1727 -5.3937
# 6 2.3918 -31.0457 9.8948 4.4611 -5.3937 42.1155
#
#
#
# Elastic Compliance Matrix: (Units=1/GPa)
#
#
# Indices 1 2 3 4 5 6 
#
# 1 0.009543 -0.001643 -0.002432 -0.000482 0.003739 -0.000652
# 2 -0.001643 0.009959 -0.003149 0.005611 0.001773 0.007807
# 3 -0.002432 -0.003149 0.015669 0.007570 -0.002956 -0.007045
# 4 -0.000482 0.005611 0.007570 0.029457 -0.003510 -0.001185
# 5 0.003739 0.001773 -0.002956 -0.003510 0.027050 0.005625
# 6 -0.000652 0.007807 -0.007045 -0.001185 0.005625 0.032038
#
#
# Mechanical properties :
#
#
# Convention : Reuss Voigt Hill
#
# Bulk Modulus (GPa) = 48.25581 73.07952 60.66766
# Shear Modulus (GPa) = 34.46575 45.91835 40.19205
#
# Velocity S-wave (km/s) = 3.65761 4.22179 3.94979
# Velocity P-wave (km/s) = 6.04717 7.22018 6.65955
#
# Compressibility (1/GPa) = 0.02072289
#
# Stress axis : x y z
#
# Youngs Moduli (GPa) = 104.78673 100.41410 63.81914
#
# Poissons Ratio (x) = 0.16496 0.15521
# Poissons Ratio (y) = 0.17215 0.20099
# Poissons Ratio (z) = 0.25484 0.31624
#
# Static dielectric constant tensor:
#      x y z
#    x 2.078980 -0.029320 0.041050 
#    y -0.029320 2.134510 0.073610 
#    z 0.041050 0.073610 2.213900 
# 
# From -- ./inp_files/499338.got.cif
#   From: 2010.05.17/outbox.cif.g08.bks.cpg/sg2_250_cif.got.tgz:499338.got - 2010.06.03 11:33:40.
