data_PCOD9029222
_publ_section_title
;
Structure prediction by ZEFSAII (Michael W. Deem and Ramdas Pophale) SiO2 
 PCOD9029222
Probable space group: P -1
;
_chemical_formula_sum "Si O2"
_cell_formula_units_Z 13
_cell_length_a 19.532125
_cell_length_b 5.599914
_cell_length_c 8.872186
_cell_angle_alpha 93.351346
_cell_angle_beta 135.323091
_cell_angle_gamma 109.704475
_cell_volume 573.478163
_symmetry_space_group_name_H-M "P -1"
_symmetry_group_IT_number 2
_symmetry_cell_setting 'triclinic'
loop_
_space_group_symop_operation_xyz
x,y,z
-x,-y,-z
loop_
_atom_site_type_symbol
_atom_site_label
_atom_site_fract_x
_atom_site_fract_y
_atom_site_fract_z
Si Si1 0.718029 0.995880 0.575104
Si Si2 0.383793 0.489674 0.357927
Si Si3 0.500000 0.500000 0.000000
Si Si4 0.314813 0.486989 0.919439
Si Si5 0.124130 0.105873 0.388158
Si Si6 0.915745 0.589104 0.939366
Si Si7 0.478647 0.924046 0.770680
O O1 0.597942 0.934334 0.311519
O O2 0.687923 0.760527 0.643587
O O3 0.793572 0.989432 0.557706
O O4 0.796928 0.304184 0.785861
O O5 0.500000 0.500000 0.500000
O O6 0.430594 0.784212 0.528249
O O7 0.314664 0.443810 0.095848
O O8 0.398134 0.402426 0.967118
O O9 0.449962 0.675294 0.831838
O O10 0.190895 0.308392 0.639696
O O11 0.388042 0.827869 0.022125
O O12 0.113690 0.277286 0.240450
O O13 0.994355 0.830953 0.193336
O O14 0.000000 0.500000 0.000000
#
# Coordination Sequence:
#
# PCOD9029222 Si02
#       7
#     2   2   1   2   2   2   2
#     4  11  22  41  67  91 126 171 207 256 318 372
#     4  12  24  42  57  90 134 173 209 247 311 386
#     4  12  24  38  58  90 126 158 216 260 302 374
#     4  12  24  38  62  92 128 167 206 259 311 374
#     4  10  22  42  66  97 123 159 215 268 311 369
#     4   9  20  41  68  92 124 161 209 265 322 363
#     4  12  24  40  60  89 129 170 208 257 318 371
#
# _framework density 22.668692
#
# number of rings (size 3 to 8) (size 9 to 14) (size 15 to 20)
#    0.000    0.923    3.077    4.615    0.000    3.692 
#    0.000    0.769    0.000   12.923    0.000    0.000 
#    0.000    0.000    0.000    0.000    0.000    0.000 
#
# Total GULP energy -72502.359053 kJ/mol
# GULP energy per Si atom -5577.104543 kJ/mol
# Density = 2.261710 g / cm^3
# Si number density = 22.668692 Si / 1000 Ang^3
#
#
#
# Elastic Constant Matrix: (Units=GPa)
#
#
# Indices 1 2 3 4 5 6 
#
# 1 25.5675 -9.6882 20.1562 -5.3540 -6.9392 1.8534
# 2 -9.6882 93.8171 57.0889 9.0863 -6.4771 15.2351
# 3 20.1562 57.0889 228.5413 27.8867 -18.6048 16.9669
# 4 -5.3540 9.0863 27.8867 47.5188 3.2768 12.8814
# 5 -6.9392 -6.4771 -18.6048 3.2768 36.2768 -8.9313
# 6 1.8534 15.2351 16.9669 12.8814 -8.9313 29.0233
#
#
#
# Elastic Compliance Matrix: (Units=1/GPa)
#
#
# Indices 1 2 3 4 5 6 
#
# 1 0.053313 0.010742 -0.007617 0.010038 0.005492 -0.007356
# 2 0.010742 0.015498 -0.004597 0.002894 0.000407 -0.007293
# 3 -0.007617 -0.004597 0.006795 -0.004525 0.001998 0.001550
# 4 0.010038 0.002894 -0.004525 0.028469 -0.005893 -0.013964
# 5 0.005492 0.000407 0.001998 -0.005893 0.032961 0.011026
# 6 -0.007356 -0.007293 0.001550 -0.013964 0.011026 0.047437
#
#
# Mechanical properties :
#
#
# Convention : Reuss Voigt Hill
#
# Bulk Modulus (GPa) = 13.76236 53.67108 33.71672
# Shear Modulus (GPa) = 23.62517 41.25504 32.44011
#
# Velocity S-wave (km/s) = 3.23181 4.27067 3.78703
# Velocity P-wave (km/s) = 4.47329 6.93151 5.83336
#
# Compressibility (1/GPa) = 0.07266195
#
# Stress axis : x y z
#
# Youngs Moduli (GPa) = 18.75711 64.52473 147.15812
#
# Poissons Ratio (x) = -0.69312 1.12090
# Poissons Ratio (y) = -0.20149 0.67652
# Poissons Ratio (z) = 0.14287 0.29663
#
# Static dielectric constant tensor:
#      x y z
#    x 1.775170 0.062780 0.088180 
#    y 0.062780 1.640820 -0.125270 
#    z 0.088180 -0.125270 1.749360 
# 
# From -- ./inp_files/41598.got.cif
#   From: 2010.05.17/outbox.cif.g08.bks.cpg/sg2_21_cif.got.tgz:41598.got - 2010.06.03 11:33:40.
