data_PCOD9029110
_publ_section_title
;
Structure prediction by ZEFSAII (Michael W. Deem and Ramdas Pophale) SiO2 
 PCOD9029110
Probable space group: P -1
;
_chemical_formula_sum "Si O2"
_cell_formula_units_Z 16
_cell_length_a 8.693138
_cell_length_b 16.855306
_cell_length_c 6.892808
_cell_angle_alpha 86.438235
_cell_angle_beta 124.099302
_cell_angle_gamma 118.556360
_cell_volume 704.543508
_symmetry_space_group_name_H-M "P -1"
_symmetry_group_IT_number 2
_symmetry_cell_setting 'triclinic'
loop_
_space_group_symop_operation_xyz
x,y,z
-x,-y,-z
loop_
_atom_site_type_symbol
_atom_site_label
_atom_site_fract_x
_atom_site_fract_y
_atom_site_fract_z
Si Si1 0.918842 0.066903 0.671012
Si Si2 0.724898 0.240552 0.102433
Si Si3 0.705720 0.768834 0.349009
Si Si4 0.598603 0.609235 0.016703
Si Si5 0.921241 0.296208 0.828715
Si Si6 0.178220 0.116232 0.228380
Si Si7 0.597647 0.114552 0.372602
Si Si8 0.810473 0.395539 0.444071
O O1 0.669257 0.039807 0.466211
O O2 0.081607 0.150267 0.629588
O O3 0.926237 0.973056 0.686339
O O4 0.009923 0.104691 0.946780
O O5 0.661648 0.148222 0.190907
O O6 0.821210 0.323312 0.316527
O O7 0.499669 0.224447 0.861659
O O8 0.887492 0.273257 0.033767
O O9 0.647211 0.668452 0.241534
O O10 0.737678 0.792491 0.595170
O O11 0.829015 0.655379 0.064955
O O12 0.500000 0.500000 0.000000
O O13 0.423923 0.618607 0.764147
O O14 0.767945 0.198994 0.621448
O O15 0.843148 0.365425 0.684780
O O16 0.369906 0.108159 0.258652
O O17 0.000000 0.500000 0.500000
#
# Coordination Sequence:
#
# PCOD9029110 Si02
#       8
#     2   2   2   2   2   2   2   2
#     4  11  24  43  68 102 136 176 223 280 329 404
#     4  10  23  41  66  93 131 179 220 269 333 399
#     4  11  22  44  68  96 135 181 218 276 341 391
#     4  11  23  44  69 100 133 170 229 279 325 399
#     4  11  22  43  66  93 133 177 217 271 337 391
#     4  11  24  44  69  98 139 176 223 274 341 396
#     4  11  22  43  67  97 135 174 222 273 332 398
#     4  10  22  42  66  92 133 170 214 280 336 390
#
# _framework density 22.70974
#
# number of rings (size 3 to 8) (size 9 to 14) (size 15 to 20)
#    0.000    1.250    5.000    0.750    0.000    1.500 
#    2.250    1.250    0.000    0.000    0.000    0.000 
#    0.000    0.000    0.000    0.000    0.000    0.000 
#
# Total GULP energy -89467.138443 kJ/mol
# GULP energy per Si atom -5591.696153 kJ/mol
# Density = 2.265805 g / cm^3
# Si number density = 22.709740 Si / 1000 Ang^3
#
#
#
# Elastic Constant Matrix: (Units=GPa)
#
#
# Indices 1 2 3 4 5 6 
#
# 1 84.8715 15.9661 45.9449 -2.1001 8.0857 0.8191
# 2 15.9661 51.7988 21.3908 0.3870 -5.7114 -8.6431
# 3 45.9449 21.3908 99.5671 -6.4111 -7.2318 -13.2893
# 4 -2.1001 0.3870 -6.4111 30.3845 4.3714 8.2371
# 5 8.0857 -5.7114 -7.2318 4.3714 30.9221 1.3113
# 6 0.8191 -8.6431 -13.2893 8.2371 1.3113 31.0061
#
#
#
# Elastic Compliance Matrix: (Units=1/GPa)
#
#
# Indices 1 2 3 4 5 6 
#
# 1 0.017965 -0.003717 -0.008628 0.002013 -0.007456 -0.005428
# 2 -0.003717 0.022991 -0.002255 -0.003424 0.004911 0.006243
# 3 -0.008628 -0.002255 0.015714 0.000368 0.005208 0.006017
# 4 0.002013 -0.003424 0.000368 0.036828 -0.005839 -0.010387
# 5 -0.007456 0.004911 0.005208 -0.005839 0.037079 0.003781
# 6 -0.005428 0.006243 0.006017 -0.010387 0.003781 0.039314
#
#
# Mechanical properties :
#
#
# Convention : Reuss Voigt Hill
#
# Bulk Modulus (GPa) = 36.40240 44.76010 40.58125
# Shear Modulus (GPa) = 24.00998 28.65823 26.33411
#
# Velocity S-wave (km/s) = 3.25507 3.55623 3.40898
# Velocity P-wave (km/s) = 5.49468 6.05101 5.77955
#
# Compressibility (1/GPa) = 0.02747071
#
# Stress axis : x y z
#
# Youngs Moduli (GPa) = 55.66379 43.49516 63.63745
#
# Poissons Ratio (x) = 0.16169 0.54904
# Poissons Ratio (y) = 0.20693 0.14347
# Poissons Ratio (z) = 0.48025 0.09806
#
# Static dielectric constant tensor:
#      x y z
#    x 1.899500 -0.022050 0.002130 
#    y -0.022050 1.887470 -0.020560 
#    z 0.002130 -0.020560 1.830100 
# 
# From -- ./inp_files/47570.got.cif
#   From: 2010.05.17/outbox.cif.g08.bks.cpg/sg2_24_cif.got.tgz:47570.got - 2010.06.03 11:33:40.
