data_PCOD9029805
_publ_section_title
;
Structure prediction by ZEFSAII (Michael W. Deem and Ramdas Pophale) SiO2 
 PCOD9029805
Probable space group: P -1
;
_chemical_formula_sum "Si O2"
_cell_formula_units_Z 16
_cell_length_a 20.229503
_cell_length_b 11.648029
_cell_length_c 9.274993
_cell_angle_alpha 126.141236
_cell_angle_beta 41.042278
_cell_angle_gamma 148.310644
_cell_volume 745.228117
_symmetry_space_group_name_H-M "P -1"
_symmetry_group_IT_number 2
_symmetry_cell_setting 'triclinic'
loop_
_space_group_symop_operation_xyz
x,y,z
-x,-y,-z
loop_
_atom_site_type_symbol
_atom_site_label
_atom_site_fract_x
_atom_site_fract_y
_atom_site_fract_z
Si Si1 0.105218 0.007653 0.530635
Si Si2 0.357405 0.162506 0.766376
Si Si3 0.419654 0.022748 0.038488
Si Si4 0.851848 0.305638 0.194236
Si Si5 0.056043 0.618729 0.344590
Si Si6 0.611948 0.287688 0.626307
Si Si7 0.370219 0.244104 0.480477
Si Si8 0.781703 0.753458 0.779311
O O1 0.054662 0.788086 0.458740
O O2 0.946919 0.927999 0.720907
O O3 0.220154 0.155505 0.586358
O O4 0.195757 0.141048 0.331674
O O5 0.509284 0.248419 0.640606
O O6 0.337061 0.135464 0.608692
O O7 0.212759 0.920249 0.893285
O O8 0.346647 0.308025 0.956628
O O9 0.418915 0.175134 0.234485
O O10 0.238451 0.781048 0.134099
O O11 0.508475 0.131258 0.819844
O O12 0.500000 0.000000 0.000000
O O13 0.708796 0.260371 0.385216
O O14 0.926611 0.408165 0.301903
O O15 0.000000 0.500000 0.000000
O O16 0.000000 0.500000 0.500000
O O17 0.729894 0.537807 0.670243
O O18 0.500000 0.500000 0.500000
#
# Coordination Sequence:
#
# PCOD9029805 Si02
#       8
#     2   2   2   2   2   2   2   2
#     4  10  22  42  68  95 132 182 231 272 328 415
#     4  12  25  41  66 104 135 173 219 289 338 395
#     4  11  24  43  69  97 130 181 233 275 327 412
#     4  12  25  42  66  99 134 172 223 283 339 389
#     4  11  22  44  68  94 135 182 226 272 329 408
#     4  12  24  45  70  97 135 182 230 273 342 413
#     4  11  23  43  64  96 138 169 220 280 345 391
#     4  11  23  42  72  96 134 180 232 273 337 412
#
# _framework density 21.469936000000001
#
# number of rings (size 3 to 8) (size 9 to 14) (size 15 to 20)
#    0.000    0.750    1.250    8.250    1.750    1.500 
#    2.250    0.000    0.000    0.000    0.000    0.000 
#    0.000    0.000    0.000    0.000    0.000    0.000 
#
# Total GULP energy -89460.359956 kJ/mol
# GULP energy per Si atom -5591.272497 kJ/mol
# Density = 2.142107 g / cm^3
# Si number density = 21.469936 Si / 1000 Ang^3
#
#
#
# Elastic Constant Matrix: (Units=GPa)
#
#
# Indices 1 2 3 4 5 6 
#
# 1 163.5303 15.0347 38.1590 -17.4369 2.5589 24.1727
# 2 15.0347 89.1828 -2.4773 -4.4752 -6.1827 4.5248
# 3 38.1590 -2.4773 80.6830 -15.1186 1.9491 -9.5704
# 4 -17.4369 -4.4752 -15.1186 34.8806 -4.1085 4.6292
# 5 2.5589 -6.1827 1.9491 -4.1085 31.1300 -5.3016
# 6 24.1727 4.5248 -9.5704 4.6292 -5.3016 46.0815
#
#
#
# Elastic Compliance Matrix: (Units=1/GPa)
#
#
# Indices 1 2 3 4 5 6 
#
# 1 0.008305 -0.001176 -0.004058 0.002829 -0.001227 -0.005509
# 2 -0.001176 0.011717 0.001160 0.001742 0.002551 -0.000174
# 3 -0.004058 0.001160 0.015738 0.004402 0.001004 0.004956
# 4 0.002829 0.001742 0.004402 0.033122 0.003587 -0.003655
# 5 -0.001227 0.002551 0.001004 0.003587 0.033846 0.004135
# 6 -0.005509 -0.000174 0.004956 -0.003655 0.004135 0.026480
#
#
# Mechanical properties :
#
#
# Convention : Reuss Voigt Hill
#
# Bulk Modulus (GPa) = 36.21732 48.31435 42.26584
# Shear Modulus (GPa) = 34.11586 41.26374 37.68980
#
# Velocity S-wave (km/s) = 3.99056 4.38874 4.19438
# Velocity P-wave (km/s) = 6.17561 6.94503 6.57159
#
# Compressibility (1/GPa) = 0.02761110
#
# Stress axis : x y z
#
# Youngs Moduli (GPa) = 120.40480 85.34926 63.54242
#
# Poissons Ratio (x) = 0.10041 0.25785
# Poissons Ratio (y) = 0.14165 -0.07372
# Poissons Ratio (z) = 0.48859 -0.09903
#
# Static dielectric constant tensor:
#      x y z
#    x 1.750350 0.004310 -0.020250 
#    y 0.004310 1.756190 -0.029160 
#    z -0.020250 -0.029160 1.736480 
# 
# From -- ./inp_files/208422.got.cif
#   From: 2010.05.17/outbox.cif.g08.bks.cpg/sg2_105_cif.got.tgz:208422.got - 2010.06.03 11:33:40.
