data_PCOD9029874
_publ_section_title
;
Structure prediction by ZEFSAII (Michael W. Deem and Ramdas Pophale) SiO2 
 PCOD9029874
Probable space group: P -1
;
_chemical_formula_sum "Si O2"
_cell_formula_units_Z 14
_cell_length_a 19.231563
_cell_length_b 9.028363
_cell_length_c 6.137915
_cell_angle_alpha 123.153671
_cell_angle_beta 133.356165
_cell_angle_gamma 58.460131
_cell_volume 629.371993
_symmetry_space_group_name_H-M "P -1"
_symmetry_group_IT_number 2
_symmetry_cell_setting 'triclinic'
loop_
_space_group_symop_operation_xyz
x,y,z
-x,-y,-z
loop_
_atom_site_type_symbol
_atom_site_label
_atom_site_fract_x
_atom_site_fract_y
_atom_site_fract_z
Si Si1 0.792242 0.401477 0.112145
Si Si2 0.351760 0.062236 0.798131
Si Si3 0.520346 0.797904 0.472049
Si Si4 0.014447 0.907170 0.705589
Si Si5 0.408059 0.674421 0.449726
Si Si6 0.696623 0.665596 0.478529
Si Si7 0.832190 0.737265 0.211811
O O1 0.874584 0.216262 0.155399
O O2 0.748770 0.487084 0.316306
O O3 0.835981 0.556996 0.217902
O O4 0.693956 0.375900 0.762272
O O5 0.332910 0.160732 0.605155
O O6 0.244457 0.094907 0.701271
O O7 0.407558 0.850913 0.738796
O O8 0.412931 0.181244 0.157734
O O9 0.420433 0.751154 0.295156
O O10 0.594036 0.657365 0.364232
O O11 0.500000 0.000000 0.500000
O O12 0.935627 0.783197 0.437182
O O13 0.000000 0.000000 0.500000
O O14 0.000000 0.000000 0.000000
O O15 0.500000 0.500000 0.500000
O O16 0.776108 0.705679 0.848147
#
# Coordination Sequence:
#
# PCOD9029874 Si02
#       7
#     2   2   2   2   2   2   2
#     4  11  27  46  71 108 149 189 245 309 369 451
#     4  10  22  42  68  97 142 187 246 304 367 439
#     4  11  23  40  66  95 134 199 248 298 366 436
#     4  12  30  51  83 116 149 194 247 310 383 450
#     4  12  24  41  66 101 146 187 242 304 366 442
#     4  10  22  43  70 100 137 195 243 295 376 432
#     4  10  24  48  77 100 143 189 245 303 377 450
#
# _framework density 22.244395999999998
#
# number of rings (size 3 to 8) (size 9 to 14) (size 15 to 20)
#    0.000    1.143    1.429    4.286   10.000    1.143 
#    5.143    0.000    0.000    0.000    0.000    0.000 
#    0.000    0.000    0.000    0.000    0.000    0.000 
#
# Total GULP energy -78098.733320 kJ/mol
# GULP energy per Si atom -5578.480951 kJ/mol
# Density = 2.219377 g / cm^3
# Si number density = 22.244396 Si / 1000 Ang^3
#
#
#
# Elastic Constant Matrix: (Units=GPa)
#
#
# Indices 1 2 3 4 5 6 
#
# 1 105.8988 45.5285 26.0144 10.3346 5.4567 -6.7678
# 2 45.5285 132.8457 23.8448 -1.7051 -9.8782 -29.3924
# 3 26.0144 23.8448 54.2097 -0.2003 -9.5767 -3.5221
# 4 10.3346 -1.7051 -0.2003 31.8573 -2.1186 -0.3393
# 5 5.4567 -9.8782 -9.5767 -2.1186 46.3062 7.7648
# 6 -6.7678 -29.3924 -3.5221 -0.3393 7.7648 43.6119
#
#
#
# Elastic Compliance Matrix: (Units=1/GPa)
#
#
# Indices 1 2 3 4 5 6 
#
# 1 0.013041 -0.003968 -0.005196 -0.004720 -0.003596 -0.000467
# 2 -0.003968 0.010791 -0.002188 0.002008 0.001360 0.006253
# 3 -0.005196 -0.002188 0.022736 0.002041 0.005167 -0.001349
# 4 -0.004720 0.002008 0.002041 0.033236 0.002837 0.000539
# 5 -0.003596 0.001360 0.005167 0.002837 0.024093 -0.003491
# 6 -0.000467 0.006253 -0.001349 0.000539 -0.003491 0.027588
#
#
# Mechanical properties :
#
#
# Convention : Reuss Voigt Hill
#
# Bulk Modulus (GPa) = 41.90538 53.74775 47.82657
# Shear Modulus (GPa) = 30.83679 37.52617 34.18148
#
# Velocity S-wave (km/s) = 3.72731 4.11176 3.92424
# Velocity P-wave (km/s) = 6.11582 6.83790 6.48692
#
# Compressibility (1/GPa) = 0.02386328
#
# Stress axis : x y z
#
# Youngs Moduli (GPa) = 76.67885 92.67215 43.98398
#
# Poissons Ratio (x) = 0.36773 0.22854
# Poissons Ratio (y) = 0.30427 0.09625
# Poissons Ratio (z) = 0.39842 0.20278
#
# Static dielectric constant tensor:
#      x y z
#    x 1.888460 0.027610 -0.057700 
#    y 0.027610 1.844820 -0.009920 
#    z -0.057700 -0.009920 1.873590 
# 
# From -- ./inp_files/55702.got.cif
#   From: 2010.05.17/outbox.cif.g08.bks.cpg/sg2_28_cif.got.tgz:55702.got - 2010.06.03 11:33:40.
