data_PCOD9029375
_publ_section_title
;
Structure prediction by ZEFSAII (Michael W. Deem and Ramdas Pophale) SiO2 
 PCOD9029375
Probable space group: P -1
;
_chemical_formula_sum "Si O2"
_cell_formula_units_Z 10
_cell_length_a 14.872668
_cell_length_b 4.911624
_cell_length_c 5.666874
_cell_angle_alpha 87.458329
_cell_angle_beta 78.839304
_cell_angle_gamma 109.056655
_cell_volume 381.282743
_symmetry_space_group_name_H-M "P -1"
_symmetry_group_IT_number 2
_symmetry_cell_setting 'triclinic'
loop_
_space_group_symop_operation_xyz
x,y,z
-x,-y,-z
loop_
_atom_site_type_symbol
_atom_site_label
_atom_site_fract_x
_atom_site_fract_y
_atom_site_fract_z
Si Si1 0.786208 0.597333 0.318974
Si Si2 0.072837 0.198115 0.147746
Si Si3 0.885228 0.198137 0.474991
Si Si4 0.426214 0.176272 0.037075
Si Si5 0.614107 0.037547 0.434455
O O1 0.839521 0.450127 0.485153
O O2 0.676966 0.377640 0.383721
O O3 0.816925 0.936109 0.351251
O O4 0.837697 0.579598 0.044720
O O5 0.995886 0.312827 0.315895
O O6 0.109641 0.981042 0.289405
O O7 0.000000 0.000000 0.000000
O O8 0.367831 0.093564 0.317027
O O9 0.500000 0.500000 0.000000
O O10 0.500000 0.000000 0.000000
O O11 0.370110 0.103571 0.817748
O O12 0.500000 0.000000 0.500000
#
# Coordination Sequence:
#
# PCOD9029375 Si02
#       5
#     2   2   2   2   2
#     4  11  24  40  65  97 132 172 224 274 333 401
#     4   9  21  42  66  94 131 172 214 276 337 404
#     4  10  23  41  65  96 131 170 221 272 340 401
#     4  10  22  42  67  91 127 173 226 274 333 391
#     4  10  24  45  68 100 136 183 226 281 338 401
#
# _framework density 26.227256000000001
#
# number of rings (size 3 to 8) (size 9 to 14) (size 15 to 20)
#    0.000    2.000    0.000    1.200    2.800   16.800 
#    3.600    0.000    0.000    0.000    0.000    0.000 
#    0.000    0.000    0.000    0.000    0.000    0.000 
#
# Total GULP energy -55978.094088 kJ/mol
# GULP energy per Si atom -5597.809409 kJ/mol
# Density = 2.616756 g / cm^3
# Si number density = 26.227256 Si / 1000 Ang^3
#
#
#
# Elastic Constant Matrix: (Units=GPa)
#
#
# Indices 1 2 3 4 5 6 
#
# 1 78.0735 18.5694 14.1730 -12.3745 -1.2556 12.0928
# 2 18.5694 145.2127 33.2014 -15.9055 -17.7042 6.6013
# 3 14.1730 33.2014 183.1076 -8.7395 17.7475 15.2047
# 4 -12.3745 -15.9055 -8.7395 49.4362 8.1145 -13.7692
# 5 -1.2556 -17.7042 17.7475 8.1145 37.1480 -8.1698
# 6 12.0928 6.6013 15.2047 -13.7692 -8.1698 58.8746
#
#
#
# Elastic Compliance Matrix: (Units=1/GPa)
#
#
# Indices 1 2 3 4 5 6 
#
# 1 0.013943 -0.001440 -0.000419 0.002525 -0.001039 -0.002148
# 2 -0.001440 0.008161 -0.001812 0.001421 0.004575 0.000816
# 3 -0.000419 -0.001812 0.006445 0.000679 -0.004510 -0.001842
# 4 0.002525 0.001421 0.000679 0.023178 -0.003734 0.004049
# 5 -0.001039 0.004575 -0.004510 -0.003734 0.033042 0.004577
# 6 -0.002148 0.000816 -0.001842 0.004049 0.004577 0.019393
#
#
# Mechanical properties :
#
#
# Convention : Reuss Voigt Hill
#
# Bulk Modulus (GPa) = 47.15009 59.80904 53.47957
# Shear Modulus (GPa) = 42.16866 51.78843 46.97855
#
# Velocity S-wave (km/s) = 4.01411 4.44847 4.23686
# Velocity P-wave (km/s) = 6.28496 7.01704 6.66106
#
# Compressibility (1/GPa) = 0.02120887
#
# Stress axis : x y z
#
# Youngs Moduli (GPa) = 71.72009 122.53077 155.16660
#
# Poissons Ratio (x) = 0.17641 0.06495
# Poissons Ratio (y) = 0.10326 0.28112
# Poissons Ratio (z) = 0.03002 0.22199
#
# Static dielectric constant tensor:
#      x y z
#    x 2.076710 -0.013420 -0.004330 
#    y -0.013420 1.978880 0.095060 
#    z -0.004330 0.095060 2.236230 
# 
# From -- ./inp_files/14343.got.cif
#   From: 2010.05.17/outbox.cif.g08.bks.cpg/sg2_8_cif.got.tgz:14343.got - 2010.06.03 11:33:40.
