data_PCOD9029219
_publ_section_title
;
Structure prediction by ZEFSAII (Michael W. Deem and Ramdas Pophale) SiO2 
 PCOD9029219
Probable space group: P -1
;
_chemical_formula_sum "Si O2"
_cell_formula_units_Z 16
_cell_length_a 11.582584
_cell_length_b 9.334999
_cell_length_c 13.498805
_cell_angle_alpha 83.422548
_cell_angle_beta 31.703061
_cell_angle_gamma 98.977706
_cell_volume 666.099626
_symmetry_space_group_name_H-M "P -1"
_symmetry_group_IT_number 2
_symmetry_cell_setting 'triclinic'
loop_
_space_group_symop_operation_xyz
x,y,z
-x,-y,-z
loop_
_atom_site_type_symbol
_atom_site_label
_atom_site_fract_x
_atom_site_fract_y
_atom_site_fract_z
Si Si1 0.199151 0.763931 0.300267
Si Si2 0.663554 0.894347 0.819894
Si Si3 0.306563 0.532868 0.385745
Si Si4 0.521135 0.002427 0.367122
Si Si5 0.276224 0.227984 0.830606
Si Si6 0.937556 0.802300 0.784977
Si Si7 0.343238 0.565817 0.969900
Si Si8 0.071723 0.649370 0.012596
O O1 0.302413 0.670250 0.303413
O O2 0.951781 0.626021 0.439170
O O3 0.200595 0.921487 0.338943
O O4 0.389744 0.848247 0.064721
O O5 0.827381 0.895472 0.792864
O O6 0.571606 0.727759 0.837615
O O7 0.428660 0.632761 0.388075
O O8 0.513821 0.477578 0.215118
O O9 0.700947 0.929490 0.206991
O O10 0.235766 0.892607 0.549039
O O11 0.500000 0.000000 0.500000
O O12 0.658376 0.192357 0.219875
O O13 0.140531 0.198774 0.041262
O O14 0.131941 0.289934 0.857995
O O15 0.803937 0.612916 0.854958
O O16 0.123226 0.595454 0.085475
O O17 0.000000 0.500000 0.000000
#
# Coordination Sequence:
#
# PCOD9029219 Si02
#       8
#     2   2   2   2   2   2   2   2
#     4  10  23  40  63  99 135 178 231 275 342 422
#     4  11  24  42  66 101 140 179 234 291 338 411
#     4  10  22  42  66  96 139 182 227 276 357 413
#     4  12  27  45  76 106 132 187 240 285 352 424
#     4  11  24  47  76  97 143 184 224 297 354 403
#     4  11  24  46  71 104 144 181 238 283 355 415
#     4  11  24  43  68  98 141 191 220 300 347 402
#     4  12  24  48  71 100 143 182 233 292 354 416
#
# _framework density 24.020430999999999
#
# number of rings (size 3 to 8) (size 9 to 14) (size 15 to 20)
#    0.000    1.000    6.250    0.750    5.250    1.500 
#    0.000    2.500    0.000    0.000    0.000    0.000 
#    0.000    0.000    0.000    0.000    0.000    0.000 
#
# Total GULP energy -89308.512687 kJ/mol
# GULP energy per Si atom -5581.782043 kJ/mol
# Density = 2.396576 g / cm^3
# Si number density = 24.020431 Si / 1000 Ang^3
#
#
#
# Elastic Constant Matrix: (Units=GPa)
#
#
# Indices 1 2 3 4 5 6 
#
# 1 99.1136 35.8776 22.7307 5.7370 -27.2767 -18.6559
# 2 35.8776 164.1065 42.9355 -18.0853 -7.5144 -1.3667
# 3 22.7307 42.9355 82.7241 -12.8985 -27.1901 -6.1833
# 4 5.7370 -18.0853 -12.8985 34.1321 5.5151 -3.5182
# 5 -27.2767 -7.5144 -27.1901 5.5151 36.8768 1.5626
# 6 -18.6559 -1.3667 -6.1833 -3.5182 1.5626 29.5379
#
#
#
# Elastic Compliance Matrix: (Units=1/GPa)
#
#
# Indices 1 2 3 4 5 6 
#
# 1 0.016979 -0.004077 0.001704 -0.005556 0.013412 0.009521
# 2 -0.004077 0.008332 -0.004427 0.004004 -0.005080 -0.002370
# 3 0.001704 -0.004427 0.019291 0.002867 0.013962 0.004513
# 4 -0.005556 0.004004 0.002867 0.034656 -0.006437 0.001745
# 5 0.013412 -0.005080 0.013962 -0.006437 0.046925 0.007910
# 6 0.009521 -0.002370 0.004513 0.001745 0.007910 0.040492
#
#
# Mechanical properties :
#
#
# Convention : Reuss Voigt Hill
#
# Bulk Modulus (GPa) = 32.25443 61.00353 46.62898
# Shear Modulus (GPa) = 26.23159 36.40270 31.31715
#
# Velocity S-wave (km/s) = 3.30821 3.89715 3.61469
# Velocity P-wave (km/s) = 5.29617 6.76033 6.07254
#
# Compressibility (1/GPa) = 0.03100349
#
# Stress axis : x y z
#
# Youngs Moduli (GPa) = 58.89589 120.01977 51.83669
#
# Poissons Ratio (x) = 0.48929 -0.08834
# Poissons Ratio (y) = 0.24010 0.22948
# Poissons Ratio (z) = -0.10037 0.53132
#
# Static dielectric constant tensor:
#      x y z
#    x 2.102460 -0.061720 0.128440 
#    y -0.061720 2.225880 -0.078770 
#    z 0.128440 -0.078770 2.034660 
# 
# From -- ./inp_files/515501.got.cif
#   From: 2010.05.17/outbox.cif.g08.bks.cpg/sg2_258_cif.got.tgz:515501.got - 2010.06.03 11:33:40.
