data_PCOD9029667
_publ_section_title
;
Structure prediction by ZEFSAII (Michael W. Deem and Ramdas Pophale) SiO2 
 PCOD9029667
Probable space group: P -1
;
_chemical_formula_sum "Si O2"
_cell_formula_units_Z 13
_cell_length_a 9.226666
_cell_length_b 11.587200
_cell_length_c 8.559551
_cell_angle_alpha 143.787019
_cell_angle_beta 77.082302
_cell_angle_gamma 104.169268
_cell_volume 523.647387
_symmetry_space_group_name_H-M "P -1"
_symmetry_group_IT_number 2
_symmetry_cell_setting 'triclinic'
loop_
_space_group_symop_operation_xyz
x,y,z
-x,-y,-z
loop_
_atom_site_type_symbol
_atom_site_label
_atom_site_fract_x
_atom_site_fract_y
_atom_site_fract_z
Si Si1 0.317416 0.759773 0.838696
Si Si2 0.502890 0.874051 0.648236
Si Si3 0.270895 0.177490 0.009659
Si Si4 0.962651 0.282304 0.698319
Si Si5 0.500000 0.500000 0.500000
Si Si6 0.973562 0.277645 0.322205
Si Si7 0.229991 0.102601 0.592305
O O1 0.341556 0.563971 0.707255
O O2 0.165036 0.789274 0.829484
O O3 0.446595 0.714701 0.622245
O O4 0.382695 0.962810 0.116729
O O5 0.600266 0.829612 0.429651
O O6 0.358939 0.983899 0.766795
O O7 0.388622 0.340100 0.236360
O O8 0.118841 0.170303 0.135839
O O9 0.217420 0.203572 0.873885
O O10 0.938612 0.282725 0.519049
O O11 0.109939 0.177140 0.586181
O O12 0.822784 0.133467 0.638646
O O13 0.000000 0.500000 0.000000
O O14 0.000000 0.500000 0.500000
#
# Coordination Sequence:
#
# PCOD9029667 Si02
#       7
#     2   2   2   2   1   2   2
#     4  10  23  41  68 103 138 189 245 292 367 427
#     4  10  24  43  70  99 146 189 240 301 362 433
#     4  11  24  44  71 105 140 192 240 300 367 426
#     4  11  28  46  72 113 149 194 244 301 373 437
#     4  10  22  42  68 102 142 180 248 302 344 442
#     4  12  25  43  76 105 145 190 248 308 357 440
#     4  11  26  48  72 105 155 193 243 303 369 443
#
# _framework density 24.825866999999999
#
# number of rings (size 3 to 8) (size 9 to 14) (size 15 to 20)
#    0.000    1.231    1.538    2.308   12.923    1.231 
#    0.000    0.769    0.000    0.000    0.000    0.000 
#    0.000    0.000    0.000    0.000    0.000    0.000 
#
# Total GULP energy -72501.613994 kJ/mol
# GULP energy per Si atom -5577.047230 kJ/mol
# Density = 2.476936 g / cm^3
# Si number density = 24.825867 Si / 1000 Ang^3
#
#
#
# Elastic Constant Matrix: (Units=GPa)
#
#
# Indices 1 2 3 4 5 6 
#
# 1 152.4170 16.6226 29.7458 8.7949 6.1466 -14.1895
# 2 16.6226 80.1817 13.0797 5.2471 -10.5523 -0.2413
# 3 29.7458 13.0797 82.0024 10.5305 1.5604 2.6644
# 4 8.7949 5.2471 10.5305 29.1027 -3.4174 -8.4832
# 5 6.1466 -10.5523 1.5604 -3.4174 44.5328 -5.6137
# 6 -14.1895 -0.2413 2.6644 -8.4832 -5.6137 39.1261
#
#
#
# Elastic Compliance Matrix: (Units=1/GPa)
#
#
# Indices 1 2 3 4 5 6 
#
# 1 0.007501 -0.001227 -0.002533 -0.000467 -0.000939 0.002649
# 2 -0.001227 0.013503 -0.001633 -0.001082 0.003342 -0.000005
# 3 -0.002533 -0.001633 0.014166 -0.005156 -0.001333 -0.003203
# 4 -0.000467 -0.001082 -0.005156 0.039803 0.004230 0.009412
# 5 -0.000939 0.003342 -0.001333 0.004230 0.024274 0.004171
# 6 0.002649 -0.000005 -0.003203 0.009412 0.004171 0.029376
#
#
# Mechanical properties :
#
#
# Convention : Reuss Voigt Hill
#
# Bulk Modulus (GPa) = 41.01283 48.16638 44.58960
# Shear Modulus (GPa) = 33.88983 39.56254 36.72618
#
# Velocity S-wave (km/s) = 3.69874 3.99632 3.85041
# Velocity P-wave (km/s) = 5.89889 6.38263 6.14552
#
# Compressibility (1/GPa) = 0.02438262
#
# Stress axis : x y z
#
# Youngs Moduli (GPa) = 133.32289 74.05709 70.59289
#
# Poissons Ratio (x) = 0.09085 0.17884
# Poissons Ratio (y) = 0.16356 0.11530
# Poissons Ratio (z) = 0.33775 0.12096
#
# Static dielectric constant tensor:
#      x y z
#    x 2.007250 -0.005820 -0.071880 
#    y -0.005820 2.179410 0.052600 
#    z -0.071880 0.052600 2.046280 
# 
# From -- ./inp_files/183519.got.cif
#   From: 2010.05.17/outbox.cif.g08.bks.cpg/sg2_92_cif.got.tgz:183519.got - 2010.06.03 11:33:40.
