data_PCOD9029308
_publ_section_title
;
Structure prediction by ZEFSAII (Michael W. Deem and Ramdas Pophale) SiO2 
 PCOD9029308
Probable space group: P -1
;
_chemical_formula_sum "Si O2"
_cell_formula_units_Z 14
_cell_length_a 18.482037
_cell_length_b 9.004431
_cell_length_c 17.935270
_cell_angle_alpha 37.877563
_cell_angle_beta 162.162001
_cell_angle_gamma 142.937716
_cell_volume 543.865818
_symmetry_space_group_name_H-M "P -1"
_symmetry_group_IT_number 2
_symmetry_cell_setting 'triclinic'
loop_
_space_group_symop_operation_xyz
x,y,z
-x,-y,-z
loop_
_atom_site_type_symbol
_atom_site_label
_atom_site_fract_x
_atom_site_fract_y
_atom_site_fract_z
Si Si1 0.215150 0.000823 0.416216
Si Si2 0.342773 0.739325 0.000188
Si Si3 0.325942 0.741164 0.289968
Si Si4 0.070260 0.735698 0.881024
Si Si5 0.144125 0.151266 0.012344
Si Si6 0.735096 0.487844 0.284891
Si Si7 0.808097 0.829767 0.367496
O O1 0.344176 0.787171 0.649109
O O2 0.022588 0.893867 0.206611
O O3 0.394878 0.247860 0.460134
O O4 0.083613 0.061103 0.337496
O O5 0.221058 0.447422 0.978045
O O6 0.268853 0.798742 0.987353
O O7 0.090409 0.857072 0.665049
O O8 0.626958 0.696298 0.304245
O O9 0.134079 0.520770 0.230132
O O10 0.201687 0.737917 0.088349
O O11 0.344509 0.997195 0.251958
O O12 0.000000 0.000000 0.000000
O O13 0.771358 0.686113 0.310575
O O14 0.000000 0.500000 0.500000
O O15 0.500000 0.500000 0.000000
O O16 0.500000 0.000000 0.000000
#
# Coordination Sequence:
#
# PCOD9029308 Si02
#       7
#     2   2   2   2   2   2   2
#     4  11  25  43  72 102 149 194 258 317 384 462
#     4  11  24  44  72 100 150 189 249 312 387 452
#     4  10  22  42  67 100 148 185 250 306 376 459
#     4  10  22  42  68 104 140 196 238 312 378 464
#     4  11  23  44  70 107 147 197 245 312 389 463
#     4  12  30  50  82 114 154 207 269 327 400 467
#     4  11  27  48  72 107 148 199 259 323 392 459
#
# _framework density 25.741643
#
# number of rings (size 3 to 8) (size 9 to 14) (size 15 to 20)
#    0.000    1.143    1.429    3.000   12.000    1.714 
#    2.571    0.000    0.000    0.000    0.000    0.000 
#    0.000    0.000    0.000    0.000    0.000    0.000 
#
# Total GULP energy -78088.713029 kJ/mol
# GULP energy per Si atom -5577.765216 kJ/mol
# Density = 2.568305 g / cm^3
# Si number density = 25.741643 Si / 1000 Ang^3
#
#
#
# Elastic Constant Matrix: (Units=GPa)
#
#
# Indices 1 2 3 4 5 6 
#
# 1 193.8798 78.2813 68.4914 8.4776 44.5609 -0.5758
# 2 78.2813 184.1644 69.9756 -7.8186 32.6648 -13.4521
# 3 68.4914 69.9756 91.3905 16.1341 16.1824 3.9974
# 4 8.4776 -7.8186 16.1341 47.7588 15.0733 7.6490
# 5 44.5609 32.6648 16.1824 15.0733 47.7868 10.0766
# 6 -0.5758 -13.4521 3.9974 7.6490 10.0766 43.0283
#
#
#
# Elastic Compliance Matrix: (Units=1/GPa)
#
#
# Indices 1 2 3 4 5 6 
#
# 1 0.008818 0.000045 -0.005841 0.002454 -0.007469 0.001988
# 2 0.000045 0.010253 -0.007843 0.005862 -0.007210 0.004581
# 3 -0.005841 -0.007843 0.021860 -0.009188 0.007280 -0.004633
# 4 0.002454 0.005862 -0.009188 0.028342 -0.012239 0.000547
# 5 -0.007469 -0.007210 0.007280 -0.012239 0.036182 -0.009328
# 6 0.001988 0.004581 -0.004633 0.000547 -0.009328 0.027217
#
#
# Mechanical properties :
#
#
# Convention : Reuss Voigt Hill
#
# Bulk Modulus (GPa) = 73.23857 100.32569 86.78213
# Shear Modulus (GPa) = 30.39496 44.56055 37.47776
#
# Velocity S-wave (km/s) = 3.43996 4.16513 3.81979
# Velocity P-wave (km/s) = 6.65514 7.88605 7.29660
#
# Compressibility (1/GPa) = 0.01365401
#
# Stress axis : x y z
#
# Youngs Moduli (GPa) = 113.39995 97.53265 45.74488
#
# Poissons Ratio (x) = -0.00441 0.26720
# Poissons Ratio (y) = -0.00513 0.35878
# Poissons Ratio (z) = 0.66238 0.76495
#
# Static dielectric constant tensor:
#      x y z
#    x 1.929440 0.046910 -0.082810 
#    y 0.046910 2.018300 0.011840 
#    z -0.082810 0.011840 1.907700 
# 
# From -- ./inp_files/575516.got.cif
#   From: 2010.05.17/outbox.cif.g08.bks.cpg/sg2_288_cif.got.tgz:575516.got - 2010.06.03 11:33:40.
