data_PCOD9029452
_publ_section_title
;
Structure prediction by ZEFSAII (Michael W. Deem and Ramdas Pophale) SiO2 
 PCOD9029452
Probable space group: P -1
;
_chemical_formula_sum "Si O2"
_cell_formula_units_Z 14
_cell_length_a 11.108218
_cell_length_b 11.609764
_cell_length_c 5.070184
_cell_angle_alpha 118.050675
_cell_angle_beta 107.909032
_cell_angle_gamma 74.263647
_cell_volume 542.824194
_symmetry_space_group_name_H-M "P -1"
_symmetry_group_IT_number 2
_symmetry_cell_setting 'triclinic'
loop_
_space_group_symop_operation_xyz
x,y,z
-x,-y,-z
loop_
_atom_site_type_symbol
_atom_site_label
_atom_site_fract_x
_atom_site_fract_y
_atom_site_fract_z
Si Si1 0.977027 0.089730 0.831161
Si Si2 0.870695 0.412772 0.506258
Si Si3 0.629280 0.965003 0.867153
Si Si4 0.694939 0.117529 0.547059
Si Si5 0.406531 0.584234 0.725835
Si Si6 0.966700 0.654415 0.961254
Si Si7 0.450195 0.299812 0.651346
O O1 0.828637 0.155817 0.777254
O O2 0.067656 0.200221 0.011905
O O3 0.000000 0.000000 0.500000
O O4 0.000000 0.000000 0.000000
O O5 0.737857 0.359757 0.381355
O O6 0.924003 0.409321 0.241505
O O7 0.859034 0.562020 0.770863
O O8 0.976504 0.339837 0.701335
O O9 0.633144 0.811422 0.613689
O O10 0.641494 0.039169 0.674714
O O11 0.500000 0.000000 0.000000
O O12 0.719667 0.023088 0.205088
O O13 0.587927 0.243939 0.546135
O O14 0.500000 0.500000 0.500000
O O15 0.387286 0.453790 0.752818
O O16 0.488817 0.691971 0.007556
#
# Coordination Sequence:
#
# PCOD9029452 Si02
#       7
#     2   2   2   2   2   2   2
#     4  12  26  43  66 102 135 170 230 283 344 395
#     4  10  23  44  73  95 134 175 230 274 335 396
#     4  10  22  42  67  95 127 175 228 263 324 409
#     4  11  24  42  71  93 132 183 219 278 335 403
#     4  11  26  38  64 103 137 172 217 277 337 400
#     4  10  23  47  70  98 127 184 225 276 334 401
#     4  10  24  42  60  97 132 177 215 266 334 403
#
# _framework density 25.791035999999998
#
# number of rings (size 3 to 8) (size 9 to 14) (size 15 to 20)
#    0.000    1.429    0.000    4.286   12.000    2.286 
#    0.000    0.000    0.000    0.000    0.000    0.000 
#    0.000    0.000    0.000    0.000    0.000    0.000 
#
# Total GULP energy -78101.851119 kJ/mol
# GULP energy per Si atom -5578.703651 kJ/mol
# Density = 2.573233 g / cm^3
# Si number density = 25.791036 Si / 1000 Ang^3
#
#
#
# Elastic Constant Matrix: (Units=GPa)
#
#
# Indices 1 2 3 4 5 6 
#
# 1 56.0484 -9.0611 16.8685 -10.7279 5.0202 -1.4852
# 2 -9.0611 83.3752 31.0064 5.8617 -1.9582 14.3235
# 3 16.8685 31.0064 169.5717 2.8829 -3.5456 4.4688
# 4 -10.7279 5.8617 2.8829 55.6868 2.3738 -2.1980
# 5 5.0202 -1.9582 -3.5456 2.3738 34.9631 -7.9069
# 6 -1.4852 14.3235 4.4688 -2.1980 -7.9069 40.2842
#
#
#
# Elastic Compliance Matrix: (Units=1/GPa)
#
#
# Indices 1 2 3 4 5 6 
#
# 1 0.020135 0.002905 -0.002658 0.003836 -0.003359 -0.000446
# 2 0.002905 0.014220 -0.002764 -0.000947 -0.000940 -0.004879
# 3 -0.002658 -0.002764 0.006690 -0.000599 0.001016 0.000309
# 4 0.003836 -0.000947 -0.000599 0.018948 -0.001668 0.001251
# 5 -0.003359 -0.000940 0.001016 -0.001668 0.030608 0.006014
# 6 -0.000446 -0.004879 0.000309 0.001251 0.006014 0.027756
#
#
# Mechanical properties :
#
#
# Convention : Reuss Voigt Hill
#
# Bulk Modulus (GPa) = 27.76981 42.95811 35.36396
# Shear Modulus (GPa) = 36.92909 44.19893 40.56401
#
# Velocity S-wave (km/s) = 3.78809 4.14422 3.97015
# Velocity P-wave (km/s) = 5.47024 6.29220 5.89556
#
# Compressibility (1/GPa) = 0.03601033
#
# Stress axis : x y z
#
# Youngs Moduli (GPa) = 49.66593 70.32267 149.47071
#
# Poissons Ratio (x) = -0.20425 0.39725
# Poissons Ratio (y) = -0.14426 0.41315
# Poissons Ratio (z) = 0.13200 0.19438
#
# Static dielectric constant tensor:
#      x y z
#    x 2.080690 -0.022750 0.014760 
#    y -0.022750 2.225830 0.030240 
#    z 0.014760 0.030240 2.149750 
# 
# From -- ./inp_files/72632.got.cif
#   From: 2010.05.17/outbox.cif.g08.bks.cpg/sg2_37_cif.got.tgz:72632.got - 2010.06.03 11:33:40.
