data_PCOD9029055
_publ_section_title
;
Structure prediction by ZEFSAII (Michael W. Deem and Ramdas Pophale) SiO2 
 PCOD9029055
Probable space group: P -1
;
_chemical_formula_sum "Si O2"
_cell_formula_units_Z 14
_cell_length_a 31.839352
_cell_length_b 30.649112
_cell_length_c 12.151652
_cell_angle_alpha 160.792943
_cell_angle_beta 20.292919
_cell_angle_gamma 170.938338
_cell_volume 611.094819
_symmetry_space_group_name_H-M "P -1"
_symmetry_group_IT_number 2
_symmetry_cell_setting 'triclinic'
loop_
_space_group_symop_operation_xyz
x,y,z
-x,-y,-z
loop_
_atom_site_type_symbol
_atom_site_label
_atom_site_fract_x
_atom_site_fract_y
_atom_site_fract_z
Si Si1 0.926876 0.452693 0.692750
Si Si2 0.809703 0.757765 0.177827
Si Si3 0.221612 0.288864 0.563232
Si Si4 0.715185 0.733102 0.119526
Si Si5 0.715086 0.202012 0.049527
Si Si6 0.854748 0.552906 0.717916
Si Si7 0.623893 0.942679 0.851879
O O1 0.000000 0.500000 0.500000
O O2 0.923284 0.317000 0.454332
O O3 0.662921 0.279343 0.943840
O O4 0.165558 0.770144 0.912083
O O5 0.516105 0.510227 0.359883
O O6 0.733249 0.658792 0.004143
O O7 0.929891 0.741803 0.897703
O O8 0.044341 0.097756 0.431751
O O9 0.268285 0.480281 0.957370
O O10 0.000000 0.000000 0.500000
O O11 0.654444 0.821178 0.519692
O O12 0.500000 0.500000 0.000000
O O13 0.000000 0.000000 0.000000
O O14 0.694743 0.293813 0.415372
O O15 0.000000 0.500000 0.000000
O O16 0.500000 0.000000 0.000000
O O17 0.685804 0.035866 0.793456
#
# Coordination Sequence:
#
# PCOD9029055 Si02
#       7
#     2   2   2   2   2   2   2
#     4  11  25  44  72 103 139 186 217 292 346 417
#     4  11  25  42  71 103 135 182 225 292 349 404
#     4  10  22  42  66 104 139 170 224 289 347 414
#     4  12  28  47  73 101 140 189 234 285 348 418
#     4  11  25  42  69  97 133 182 225 290 332 396
#     4  10  24  42  70  99 138 172 238 269 354 401
#     4  11  26  47  68 103 141 174 244 274 350 417
#
# _framework density 22.909701999999999
#
# number of rings (size 3 to 8) (size 9 to 14) (size 15 to 20)
#    0.000    1.143    0.000    5.571    8.000   10.286 
#    0.000    0.000    0.000    0.000    0.000    0.000 
#    0.000    0.000    0.000    0.000    0.000    0.000 
#
# Total GULP energy -78147.024289 kJ/mol
# GULP energy per Si atom -5581.930306 kJ/mol
# Density = 2.285756 g / cm^3
# Si number density = 22.909702 Si / 1000 Ang^3
#
#
#
# Elastic Constant Matrix: (Units=GPa)
#
#
# Indices 1 2 3 4 5 6 
#
# 1 138.6993 37.0931 18.9842 -2.6839 2.9769 30.3989
# 2 37.0931 166.6636 32.3984 -28.2857 9.3864 21.0932
# 3 18.9842 32.3984 87.1389 -11.4561 -7.8759 13.6025
# 4 -2.6839 -28.2857 -11.4561 37.5438 9.6276 10.8426
# 5 2.9769 9.3864 -7.8759 9.6276 32.8947 3.3617
# 6 30.3989 21.0932 13.6025 10.8426 3.3617 42.4082
#
#
#
# Elastic Compliance Matrix: (Units=1/GPa)
#
#
# Indices 1 2 3 4 5 6 
#
# 1 0.008904 -0.000726 -0.000490 0.001924 -0.000634 -0.006306
# 2 -0.000726 0.008960 -0.001603 0.009025 -0.004971 -0.005335
# 3 -0.000490 -0.001603 0.013579 0.003320 0.003222 -0.004311
# 4 0.001924 0.009025 0.003320 0.042716 -0.012735 -0.016845
# 5 -0.000634 -0.004971 0.003222 -0.012735 0.036141 0.002285
# 6 -0.006306 -0.005335 -0.004311 -0.016845 0.002285 0.036263
#
#
# Mechanical properties :
#
#
# Convention : Reuss Voigt Hill
#
# Bulk Modulus (GPa) = 38.75193 63.27257 51.01225
# Shear Modulus (GPa) = 31.09375 42.83775 36.96575
#
# Velocity S-wave (km/s) = 3.68806 4.32887 4.02125
# Velocity P-wave (km/s) = 5.92347 7.25697 6.62386
#
# Compressibility (1/GPa) = 0.02580517
#
# Stress axis : x y z
#
# Youngs Moduli (GPa) = 112.30931 111.60249 73.64122
#
# Poissons Ratio (x) = 0.08104 0.03608
# Poissons Ratio (y) = 0.08156 0.11806
# Poissons Ratio (z) = 0.05503 0.17892
#
# Static dielectric constant tensor:
#      x y z
#    x 1.805180 -0.067110 -0.001940 
#    y -0.067110 1.816910 0.054720 
#    z -0.001940 0.054720 1.911970 
# 
# From -- ./inp_files/477841.got.cif
#   From: 2010.05.17/outbox.cif.g08.bks.cpg/sg2_239_cif.got.tgz:477841.got - 2010.06.03 11:33:40.
