data_PCOD9029343
_publ_section_title
;
Structure prediction by ZEFSAII (Michael W. Deem and Ramdas Pophale) SiO2 
 PCOD9029343
Probable space group: P -1
;
_chemical_formula_sum "Si O2"
_cell_formula_units_Z 16
_cell_length_a 19.020651
_cell_length_b 5.209581
_cell_length_c 9.621927
_cell_angle_alpha 112.379773
_cell_angle_beta 58.594148
_cell_angle_gamma 116.147725
_cell_volume 716.126419
_symmetry_space_group_name_H-M "P -1"
_symmetry_group_IT_number 2
_symmetry_cell_setting 'triclinic'
loop_
_space_group_symop_operation_xyz
x,y,z
-x,-y,-z
loop_
_atom_site_type_symbol
_atom_site_label
_atom_site_fract_x
_atom_site_fract_y
_atom_site_fract_z
Si Si1 0.471264 0.151491 0.931417
Si Si2 0.269756 0.893535 0.010354
Si Si3 0.166428 0.362778 0.206336
Si Si4 0.131887 0.195727 0.808908
Si Si5 0.460606 0.149133 0.452883
Si Si6 0.872909 0.583096 0.419942
Si Si7 0.022211 0.371095 0.146370
Si Si8 0.734635 0.054269 0.296778
O O1 0.516020 0.014889 0.736863
O O2 0.500000 0.500000 0.000000
O O3 0.500000 0.000000 0.000000
O O4 0.368492 0.047325 0.986961
O O5 0.227848 0.638363 0.112813
O O6 0.211589 0.110850 0.116013
O O7 0.273772 0.836418 0.827969
O O8 0.146055 0.411010 0.397610
O O9 0.077426 0.289263 0.195669
O O10 0.138575 0.183005 0.633038
O O11 0.218386 0.196120 0.797936
O O12 0.089157 0.437114 0.961211
O O13 0.059737 0.899659 0.864841
O O14 0.500000 0.500000 0.500000
O O15 0.500000 0.000000 0.500000
O O16 0.358264 0.064918 0.562875
O O17 0.799081 0.305102 0.374778
O O18 0.972965 0.592900 0.295466
#
# Coordination Sequence:
#
# PCOD9029343 Si02
#       8
#     2   2   2   2   2   2   2   2
#     4  12  28  51  79 112 156 196 244 314 385 456
#     4  12  28  49  74 105 147 198 244 297 380 447
#     4  12  28  45  74 106 150 193 242 309 372 444
#     4  10  22  42  71 102 141 195 245 302 364 442
#     4  12  28  48  78 113 147 196 253 308 373 451
#     4  11  26  42  70 105 145 187 251 307 367 436
#     4  10  22  42  67 104 141 197 241 298 370 440
#     4  11  26  46  73 104 145 192 252 305 363 450
#
# _framework density 22.342423
#
# number of rings (size 3 to 8) (size 9 to 14) (size 15 to 20)
#    0.000    0.750    2.500    3.000   12.250    0.500 
#    0.000    0.000    0.000    0.000    0.000    0.000 
#    0.000    0.000    0.000    0.000    0.000    0.000 
#
# Total GULP energy -89321.601333 kJ/mol
# GULP energy per Si atom -5582.600083 kJ/mol
# Density = 2.229157 g / cm^3
# Si number density = 22.342423 Si / 1000 Ang^3
#
#
#
# Elastic Constant Matrix: (Units=GPa)
#
#
# Indices 1 2 3 4 5 6 
#
# 1 145.8386 35.0678 47.7742 -0.9304 7.3663 9.0382
# 2 35.0678 101.6229 39.8306 3.0969 -4.1564 -13.5336
# 3 47.7742 39.8306 158.7525 1.7300 30.2446 3.7594
# 4 -0.9304 3.0969 1.7300 25.1612 1.2053 1.4966
# 5 7.3663 -4.1564 30.2446 1.2053 50.4416 -13.1099
# 6 9.0382 -13.5336 3.7594 1.4966 -13.1099 39.4877
#
#
#
# Elastic Compliance Matrix: (Units=1/GPa)
#
#
# Indices 1 2 3 4 5 6 
#
# 1 0.008288 -0.002814 -0.001448 0.001014 -0.001440 -0.003240
# 2 -0.002814 0.013673 -0.003872 -0.002266 0.005928 0.007753
# 3 -0.001448 -0.003872 0.009057 0.000358 -0.006603 -0.004063
# 4 0.001014 -0.002266 0.000358 0.040350 -0.002388 -0.003365
# 5 -0.001440 0.005928 -0.006603 -0.002388 0.027733 0.012288
# 6 -0.003240 0.007753 -0.004063 -0.003365 0.012288 0.033317
#
#
# Mechanical properties :
#
#
# Convention : Reuss Voigt Hill
#
# Bulk Modulus (GPa) = 67.79847 72.39544 70.09696
# Shear Modulus (GPa) = 32.55165 41.92087 37.23626
#
# Velocity S-wave (km/s) = 3.82113 4.33632 4.08685
# Velocity P-wave (km/s) = 7.06252 7.58581 7.32884
#
# Compressibility (1/GPa) = 0.01474959
#
# Stress axis : x y z
#
# Youngs Moduli (GPa) = 120.65869 73.13745 110.41669
#
# Poissons Ratio (x) = 0.20578 0.15990
# Poissons Ratio (y) = 0.33949 0.42754
# Poissons Ratio (z) = 0.17473 0.28320
#
# Static dielectric constant tensor:
#      x y z
#    x 1.784130 -0.045400 -0.032040 
#    y -0.045400 1.930590 0.050700 
#    z -0.032040 0.050700 1.831610 
# 
# From -- ./inp_files/323968.got.cif
#   From: 2010.05.17/outbox.cif.g08.bks.cpg/sg2_162_cif.got.tgz:323968.got - 2010.06.03 11:33:40.
