data_PCOD9029021
_publ_section_title
;
Structure prediction by ZEFSAII (Michael W. Deem and Ramdas Pophale) SiO2 
 PCOD9029021
Probable space group: P -1
;
_chemical_formula_sum "Si O2"
_cell_formula_units_Z 12
_cell_length_a 5.200038
_cell_length_b 4.928127
_cell_length_c 23.162916
_cell_angle_alpha 92.712684
_cell_angle_beta 130.807828
_cell_angle_gamma 94.629402
_cell_volume 443.863595
_symmetry_space_group_name_H-M "P -1"
_symmetry_group_IT_number 2
_symmetry_cell_setting 'triclinic'
loop_
_space_group_symop_operation_xyz
x,y,z
-x,-y,-z
loop_
_atom_site_type_symbol
_atom_site_label
_atom_site_fract_x
_atom_site_fract_y
_atom_site_fract_z
Si Si1 0.736084 0.275029 0.520266
Si Si2 0.776688 0.117478 0.718232
Si Si3 0.277129 0.582742 0.851131
Si Si4 0.278688 0.051810 0.174937
Si Si5 0.225270 0.179502 0.986921
Si Si6 0.560615 0.443064 0.377977
O O1 0.500000 0.500000 0.500000
O O2 0.754934 0.285616 0.453512
O O3 0.103203 0.389448 0.602363
O O4 0.500000 0.000000 0.500000
O O5 0.655052 0.303512 0.651412
O O6 0.119823 0.294684 0.796342
O O7 0.557128 0.071076 0.746075
O O8 0.722237 0.806128 0.686147
O O9 0.470114 0.772000 0.830845
O O10 0.981159 0.745404 0.836030
O O11 0.558558 0.570883 0.943543
O O12 0.048598 0.804700 0.103761
O O13 0.500000 0.000000 0.000000
O O14 0.000000 0.000000 0.000000
#
# Coordination Sequence:
#
# PCOD9029021 Si02
#       6
#     2   2   2   2   2   2
#     4  11  24  47  76 102 134 179 224 281 339 420
#     4  12  24  44  66 102 144 188 226 294 356 428
#     4  10  22  42  66 100 140 190 242 296 354 415
#     4  10  22  42  66 100 140 190 242 296 354 415
#     4   8  16  35  64  92 131 183 245 296 342 408
#     4  11  26  46  68 107 136 176 232 277 350 426
#
# _framework density 27.035333000000001
#
# number of rings (size 3 to 8) (size 9 to 14) (size 15 to 20)
#    0.000    1.667    1.667    2.000    0.000    8.667 
#    6.000    0.000    0.000   12.000    0.000    0.000 
#    0.000    0.000    0.000    0.000    0.000    0.000 
#
# Total GULP energy -66958.110723 kJ/mol
# GULP energy per Si atom -5579.842560 kJ/mol
# Density = 2.697380 g / cm^3
# Si number density = 27.035333 Si / 1000 Ang^3
#
#
#
# Elastic Constant Matrix: (Units=GPa)
#
#
# Indices 1 2 3 4 5 6 
#
# 1 121.2139 44.2181 6.6125 7.4123 7.1858 26.0191
# 2 44.2181 224.6162 54.4474 36.4190 11.3549 24.4770
# 3 6.6125 54.4474 55.9213 5.8056 18.4543 10.6387
# 4 7.4123 36.4190 5.8056 65.5188 17.2997 3.3361
# 5 7.1858 11.3549 18.4543 17.2997 29.0344 -2.4274
# 6 26.0191 24.4770 10.6387 3.3361 -2.4274 35.8392
#
#
#
# Elastic Compliance Matrix: (Units=1/GPa)
#
#
# Indices 1 2 3 4 5 6 
#
# 1 0.010875 -0.002270 0.004397 0.001730 -0.006318 -0.008239
# 2 -0.002270 0.007381 -0.008292 -0.004605 0.005679 -0.000118
# 3 0.004397 -0.008292 0.035177 0.008423 -0.026102 -0.010523
# 4 0.001730 -0.004605 0.008423 0.021607 -0.017171 -0.003785
# 5 -0.006318 0.005679 -0.026102 -0.017171 0.061797 0.014240
# 6 -0.008239 -0.000118 -0.010523 -0.003785 0.014240 0.038406
#
#
# Mechanical properties :
#
#
# Convention : Reuss Voigt Hill
#
# Bulk Modulus (GPa) = 24.32840 68.03414 46.18127
# Shear Modulus (GPa) = 24.84165 45.84336 35.34251
#
# Velocity S-wave (km/s) = 3.03456 4.12233 3.61954
# Velocity P-wave (km/s) = 4.61479 6.91937 5.88107
#
# Compressibility (1/GPa) = 0.04110422
#
# Stress axis : x y z
#
# Youngs Moduli (GPa) = 91.94994 135.47671 28.42753
#
# Poissons Ratio (x) = 0.30753 -0.12500
# Poissons Ratio (y) = 0.20872 0.23572
# Poissons Ratio (z) = -0.40431 1.12337
#
# Static dielectric constant tensor:
#      x y z
#    x 2.136920 0.004570 -0.019810 
#    y 0.004570 2.074460 -0.010660 
#    z -0.019810 -0.010660 2.206020 
# 
# From -- ./inp_files/5021.got.cif
#   From: 2010.05.17/outbox.cif.g08.bks.cpg/sg2_3_cif.got.tgz:5021.got - 2010.06.03 11:33:40.
