data_PCOD9029170
_publ_section_title
;
Structure prediction by ZEFSAII (Michael W. Deem and Ramdas Pophale) SiO2 
 PCOD9029170
Probable space group: P -1
;
_chemical_formula_sum "Si O2"
_cell_formula_units_Z 16
_cell_length_a 11.978093
_cell_length_b 6.955577
_cell_length_c 8.463861
_cell_angle_alpha 106.885194
_cell_angle_beta 89.283657
_cell_angle_gamma 114.411697
_cell_volume 609.740461
_symmetry_space_group_name_H-M "P -1"
_symmetry_group_IT_number 2
_symmetry_cell_setting 'triclinic'
loop_
_space_group_symop_operation_xyz
x,y,z
-x,-y,-z
loop_
_atom_site_type_symbol
_atom_site_label
_atom_site_fract_x
_atom_site_fract_y
_atom_site_fract_z
Si Si1 0.036435 0.765693 0.564106
Si Si2 0.272094 0.942992 0.377177
Si Si3 0.408010 0.735070 0.146368
Si Si4 0.800587 0.589531 0.353440
Si Si5 0.796901 0.944954 0.912323
Si Si6 0.075317 0.178833 0.884257
Si Si7 0.555674 0.653033 0.382031
Si Si8 0.645684 0.156502 0.155979
O O1 0.148237 0.859460 0.460389
O O2 0.000000 0.500000 0.500000
O O3 0.902823 0.746063 0.508051
O O4 0.070926 0.950742 0.747577
O O5 0.295714 0.748627 0.246426
O O6 0.263716 0.094114 0.267210
O O7 0.394222 0.090072 0.508261
O O8 0.466581 0.603307 0.220057
O O9 0.517673 0.986778 0.189013
O O10 0.375963 0.699916 0.952431
O O11 0.878006 0.632326 0.201528
O O12 0.686957 0.650010 0.346729
O O13 0.736066 0.326768 0.322322
O O14 0.938215 0.129684 0.928756
O O15 0.713169 0.021089 0.041463
O O16 0.826128 0.763594 0.962354
O O17 0.500000 0.500000 0.500000
#
# Coordination Sequence:
#
# PCOD9029170 Si02
#       8
#     2   2   2   2   2   2   2   2
#     4  12  26  43  70 100 137 180 222 276 346 409
#     4  11  23  46  68  97 136 177 225 280 334 406
#     4  10  24  46  68  94 135 181 231 281 336 394
#     4  12  24  41  68 101 134 174 227 277 345 400
#     4  10  22  42  66  94 134 179 216 271 339 397
#     4  11  22  43  64  99 138 176 212 282 335 405
#     4  12  26  40  68  99 136 178 228 282 339 401
#     4  10  23  44  70  98 131 183 228 282 336 402
#
# _framework density 26.240672
#
# number of rings (size 3 to 8) (size 9 to 14) (size 15 to 20)
#    0.000    1.000    2.500    3.750    3.500    2.000 
#    9.000    0.000    0.000    0.000    0.000    0.000 
#    0.000    0.000    0.000    0.000    0.000    0.000 
#
# Total GULP energy -89459.151104 kJ/mol
# GULP energy per Si atom -5591.196944 kJ/mol
# Density = 2.618095 g / cm^3
# Si number density = 26.240672 Si / 1000 Ang^3
#
#
#
# Elastic Constant Matrix: (Units=GPa)
#
#
# Indices 1 2 3 4 5 6 
#
# 1 138.5554 9.4153 41.9403 -2.0898 -7.4986 8.9836
# 2 9.4153 96.9527 20.0584 11.4084 -6.6919 10.4402
# 3 41.9403 20.0584 83.9307 4.9170 17.0392 9.4146
# 4 -2.0898 11.4084 4.9170 32.2259 -0.3785 7.3105
# 5 -7.4986 -6.6919 17.0392 -0.3785 57.1768 -7.4960
# 6 8.9836 10.4402 9.4146 7.3105 -7.4960 27.8366
#
#
#
# Elastic Compliance Matrix: (Units=1/GPa)
#
#
# Indices 1 2 3 4 5 6 
#
# 1 0.008952 0.000282 -0.005044 0.001504 0.002591 -0.000986
# 2 0.000282 0.011620 -0.002894 -0.003151 0.001961 -0.002114
# 3 -0.005044 -0.002894 0.017058 -0.000937 -0.006695 -0.004612
# 4 0.001504 -0.003151 -0.000937 0.034233 -0.000737 -0.008176
# 5 0.002591 0.001961 -0.006695 -0.000737 0.020903 0.006515
# 6 -0.000986 -0.002114 -0.004612 -0.008176 0.006515 0.042497
#
#
# Mechanical properties :
#
#
# Convention : Reuss Voigt Hill
#
# Bulk Modulus (GPa) = 44.80878 51.36299 48.08588
# Shear Modulus (GPa) = 31.64262 39.98283 35.81272
#
# Velocity S-wave (km/s) = 3.47632 3.90769 3.69830
# Velocity P-wave (km/s) = 5.76422 6.32269 6.04990
#
# Compressibility (1/GPa) = 0.02231705
#
# Stress axis : x y z
#
# Youngs Moduli (GPa) = 111.70836 86.06181 58.62222
#
# Poissons Ratio (x) = -0.02429 0.29570
# Poissons Ratio (y) = -0.03153 0.16968
# Poissons Ratio (z) = 0.56348 0.24910
#
# Static dielectric constant tensor:
#      x y z
#    x 2.044360 -0.104940 0.057370 
#    y -0.104940 2.118150 -0.020690 
#    z 0.057370 -0.020690 2.090920 
# 
# From -- ./inp_files/239777.got.cif
#   From: 2010.05.17/outbox.cif.g08.bks.cpg/sg2_120_cif.got.tgz:239777.got - 2010.06.03 11:33:40.
