data_PCOD9029595
_publ_section_title
;
Structure prediction by ZEFSAII (Michael W. Deem and Ramdas Pophale) SiO2 
 PCOD9029595
Probable space group: P -1
;
_chemical_formula_sum "Si O2"
_cell_formula_units_Z 14
_cell_length_a 9.269784
_cell_length_b 15.058222
_cell_length_c 11.429498
_cell_angle_alpha 128.316636
_cell_angle_beta 29.841105
_cell_angle_gamma 117.688331
_cell_volume 611.838008
_symmetry_space_group_name_H-M "P -1"
_symmetry_group_IT_number 2
_symmetry_cell_setting 'triclinic'
loop_
_space_group_symop_operation_xyz
x,y,z
-x,-y,-z
loop_
_atom_site_type_symbol
_atom_site_label
_atom_site_fract_x
_atom_site_fract_y
_atom_site_fract_z
Si Si1 0.250095 0.510452 0.006671
Si Si2 0.336986 0.842586 0.920405
Si Si3 0.617788 0.598076 0.423969
Si Si4 0.858040 0.850485 0.922272
Si Si5 0.790586 0.595804 0.800591
Si Si6 0.654524 0.044213 0.766826
Si Si7 0.156626 0.019150 0.734326
O O1 0.385441 0.431536 0.736222
O O2 0.467002 0.588765 0.972270
O O3 0.189259 0.434495 0.099972
O O4 0.955108 0.586744 0.221994
O O5 0.432270 0.720679 0.693045
O O6 0.502865 0.937451 0.823259
O O7 0.421501 0.848825 0.001462
O O8 0.989761 0.899501 0.200460
O O9 0.500000 0.500000 0.500000
O O10 0.882233 0.716303 0.807683
O O11 0.511692 0.906306 0.192741
O O12 0.977868 0.900807 0.995512
O O13 0.034089 0.900501 0.735133
O O14 0.000000 0.500000 0.500000
O O15 0.000000 0.000000 0.500000
O O16 0.500000 0.000000 0.500000
#
# Coordination Sequence:
#
# PCOD9029595 Si02
#       7
#     2   2   2   2   2   2   2
#     4  10  26  45  68 104 136 187 230 280 360 400
#     4  10  24  41  68  98 133 174 227 282 340 406
#     4  11  25  46  70 102 140 181 234 287 342 417
#     4  10  24  41  67  99 132 175 226 279 342 410
#     4  11  25  46  69 103 139 179 232 287 344 418
#     4  10  22  42  67  99 130 174 221 282 344 408
#     4  10  22  45  65  99 134 178 223 283 344 408
#
# _framework density 22.881872000000001
#
# number of rings (size 3 to 8) (size 9 to 14) (size 15 to 20)
#    0.000    1.714    0.000    1.714   10.000    3.429 
#    5.143    0.000    0.000    0.000    0.000    0.000 
#    0.000    0.000    0.000    0.000    0.000    0.000 
#
# Total GULP energy -78210.472288 kJ/mol
# GULP energy per Si atom -5586.462306 kJ/mol
# Density = 2.282979 g / cm^3
# Si number density = 22.881872 Si / 1000 Ang^3
#
#
#
# Elastic Constant Matrix: (Units=GPa)
#
#
# Indices 1 2 3 4 5 6 
#
# 1 155.9011 34.3027 35.4500 9.4988 15.2193 -4.1626
# 2 34.3027 133.1235 49.0356 23.1943 7.0978 4.5305
# 3 35.4500 49.0356 87.7385 9.1273 -1.5091 2.1543
# 4 9.4988 23.1943 9.1273 31.5134 10.1757 -0.1210
# 5 15.2193 7.0978 -1.5091 10.1757 48.0643 -6.7802
# 6 -4.1626 4.5305 2.1543 -0.1210 -6.7802 22.0865
#
#
#
# Elastic Compliance Matrix: (Units=1/GPa)
#
#
# Indices 1 2 3 4 5 6 
#
# 1 0.007437 -0.000869 -0.002566 -0.000175 -0.002103 0.001183
# 2 -0.000869 0.010712 -0.004965 -0.006039 -0.000474 -0.002055
# 3 -0.002566 -0.004965 0.015327 -0.000701 0.002132 -0.000310
# 4 -0.000175 -0.006039 -0.000701 0.038821 -0.007404 -0.000786
# 5 -0.002103 -0.000474 0.002132 -0.007404 0.024144 0.006864
# 6 0.001183 -0.002055 -0.000310 -0.000786 0.006864 0.048054
#
#
# Mechanical properties :
#
#
# Convention : Reuss Voigt Hill
#
# Bulk Modulus (GPa) = 59.97026 68.25996 64.11511
# Shear Modulus (GPa) = 29.96648 37.53115 33.74882
#
# Velocity S-wave (km/s) = 3.62279 4.05435 3.84463
# Velocity P-wave (km/s) = 6.61551 7.19814 6.91297
#
# Compressibility (1/GPa) = 0.01667493
#
# Stress axis : x y z
#
# Youngs Moduli (GPa) = 134.47113 93.35331 65.24639
#
# Poissons Ratio (x) = 0.08108 0.16744
# Poissons Ratio (y) = 0.11679 0.32397
# Poissons Ratio (z) = 0.34508 0.46353
#
# Static dielectric constant tensor:
#      x y z
#    x 1.885050 -0.016910 0.020530 
#    y -0.016910 1.815540 -0.058070 
#    z 0.020530 -0.058070 1.954430 
# 
# From -- ./inp_files/399500.got.cif
#   From: 2010.05.17/outbox.cif.g08.bks.cpg/sg2_200_cif.got.tgz:399500.got - 2010.06.03 11:33:40.
