data_PCOD9029385
_publ_section_title
;
Structure prediction by ZEFSAII (Michael W. Deem and Ramdas Pophale) SiO2 
 PCOD9029385
Probable space group: P -1
;
_chemical_formula_sum "Si O2"
_cell_formula_units_Z 14
_cell_length_a 7.247249
_cell_length_b 15.809520
_cell_length_c 20.513188
_cell_angle_alpha 162.673657
_cell_angle_beta 104.719099
_cell_angle_gamma 78.429994
_cell_volume 669.753595
_symmetry_space_group_name_H-M "P -1"
_symmetry_group_IT_number 2
_symmetry_cell_setting 'triclinic'
loop_
_space_group_symop_operation_xyz
x,y,z
-x,-y,-z
loop_
_atom_site_type_symbol
_atom_site_label
_atom_site_fract_x
_atom_site_fract_y
_atom_site_fract_z
Si Si1 0.260915 0.103258 0.538721
Si Si2 0.634780 0.859370 0.709796
Si Si3 0.867918 0.320802 0.663696
Si Si4 0.084918 0.005552 0.828775
Si Si5 0.431630 0.817475 0.796500
Si Si6 0.603665 0.393529 0.867939
Si Si7 0.722824 0.992662 0.283290
O O1 0.446222 0.306200 0.732596
O O2 0.089463 0.281575 0.641947
O O3 0.196588 0.873898 0.422303
O O4 0.306318 0.901019 0.334238
O O5 0.574949 0.904251 0.812314
O O6 0.575875 0.520680 0.441418
O O7 0.860015 0.943439 0.778765
O O8 0.495243 0.021236 0.772251
O O9 0.850375 0.651431 0.913893
O O10 0.751714 0.185675 0.491590
O O11 0.138037 0.893726 0.680055
O O12 0.220156 0.872392 0.794321
O O13 0.500000 0.000000 0.000000
O O14 0.500000 0.500000 0.000000
O O15 0.755091 0.669654 0.066203
#
# Coordination Sequence:
#
# PCOD9029385 Si02
#       7
#     2   2   2   2   2   2   2
#     4  10  23  37  58  85 118 158 212 257 300 353
#     4  10  23  41  63  92 123 157 200 248 302 370
#     4  11  22  39  57  87 121 158 206 256 299 359
#     4  11  23  41  62  91 128 157 201 252 302 368
#     4  10  22  42  67  92 121 157 197 248 305 366
#     4  11  21  40  60  84 119 167 206 255 305 354
#     4  11  23  39  60  90 123 163 208 249 305 360
#
# _framework density 20.903212
#
# number of rings (size 3 to 8) (size 9 to 14) (size 15 to 20)
#    0.000    1.429    2.857    2.143    0.000    4.571 
#    0.000    0.000    0.000    0.000    0.000    0.000 
#    0.000    0.000    0.000    0.000    0.000    0.000 
#
# Total GULP energy -78252.858722 kJ/mol
# GULP energy per Si atom -5589.489909 kJ/mol
# Density = 2.085564 g / cm^3
# Si number density = 20.903212 Si / 1000 Ang^3
#
#
#
# Elastic Constant Matrix: (Units=GPa)
#
#
# Indices 1 2 3 4 5 6 
#
# 1 93.8998 -4.1812 -6.9959 -13.7789 -10.0936 4.5628
# 2 -4.1812 35.6026 25.1394 -10.7115 -5.5449 0.5663
# 3 -6.9959 25.1394 93.7720 -19.7701 -19.4295 9.7403
# 4 -13.7789 -10.7115 -19.7701 35.0826 1.1591 -11.1080
# 5 -10.0936 -5.5449 -19.4295 1.1591 30.1464 7.2945
# 6 4.5628 0.5663 9.7403 -11.1080 7.2945 16.6203
#
#
#
# Elastic Compliance Matrix: (Units=1/GPa)
#
#
# Indices 1 2 3 4 5 6 
#
# 1 0.013111 0.001828 0.004120 0.005871 0.008589 -0.005922
# 2 0.001828 0.037589 -0.009207 0.010685 -0.001590 0.011452
# 3 0.004120 -0.009207 0.019288 0.003924 0.015960 -0.016503
# 4 0.005871 0.010685 0.003924 0.044658 -0.001616 0.026280
# 5 0.008589 -0.001590 0.015960 -0.001616 0.055029 -0.036889
# 6 -0.005922 0.011452 -0.016503 0.026280 -0.036889 0.104829
#
#
# Mechanical properties :
#
#
# Convention : Reuss Voigt Hill
#
# Bulk Modulus (GPa) = 15.75525 27.91101 21.83313
# Shear Modulus (GPa) = 16.54660 30.32399 23.43530
#
# Velocity S-wave (km/s) = 2.81656 3.81292 3.35197
# Velocity P-wave (km/s) = 4.25804 5.72416 5.04465
#
# Compressibility (1/GPa) = 0.06347089
#
# Stress axis : x y z
#
# Youngs Moduli (GPa) = 76.27455 26.60385 51.84477
#
# Poissons Ratio (x) = -0.04864 -0.21362
# Poissons Ratio (y) = -0.13945 0.47734
# Poissons Ratio (z) = -0.31428 0.24494
#
# Static dielectric constant tensor:
#      x y z
#    x 1.763450 0.023140 -0.019650 
#    y 0.023140 1.745200 0.004100 
#    z -0.019650 0.004100 1.715130 
# 
# From -- ./inp_files/336933.got.cif
#   From: 2010.05.17/outbox.cif.g08.bks.cpg/sg2_169_cif.got.tgz:336933.got - 2010.06.03 11:33:40.
