data_PCOD9029059
_publ_section_title
;
Structure prediction by ZEFSAII (Michael W. Deem and Ramdas Pophale) SiO2 
 PCOD9029059
Probable space group: P -1
;
_chemical_formula_sum "Si O2"
_cell_formula_units_Z 16
_cell_length_a 5.173778
_cell_length_b 13.662981
_cell_length_c 14.724096
_cell_angle_alpha 45.062557
_cell_angle_beta 68.878899
_cell_angle_gamma 82.989296
_cell_volume 673.316664
_symmetry_space_group_name_H-M "P -1"
_symmetry_group_IT_number 2
_symmetry_cell_setting 'triclinic'
loop_
_space_group_symop_operation_xyz
x,y,z
-x,-y,-z
loop_
_atom_site_type_symbol
_atom_site_label
_atom_site_fract_x
_atom_site_fract_y
_atom_site_fract_z
Si Si1 0.520935 0.914987 0.144809
Si Si2 0.983937 0.508890 0.268446
Si Si3 0.337757 0.618849 0.973030
Si Si4 0.801405 0.176859 0.263972
Si Si5 0.062015 0.269392 0.712404
Si Si6 0.363564 0.337517 0.439614
Si Si7 0.329452 0.911413 0.481413
Si Si8 0.284885 0.080863 0.213493
O O1 0.789065 0.847085 0.180220
O O2 0.239723 0.793287 0.254161
O O3 0.477954 0.026946 0.152184
O O4 0.500000 0.000000 0.000000
O O5 0.984272 0.620470 0.276796
O O6 0.659485 0.448739 0.323902
O O7 0.137369 0.388494 0.369420
O O8 0.147403 0.573697 0.114901
O O9 0.188962 0.665775 0.871037
O O10 0.550577 0.766776 0.872654
O O11 0.500000 0.500000 0.000000
O O12 0.892656 0.159034 0.367975
O O13 0.980667 0.113647 0.206835
O O14 0.501078 0.069779 0.378502
O O15 0.258948 0.329690 0.562502
O O16 0.453014 0.191568 0.495596
O O17 0.202002 0.948162 0.378982
#
# Coordination Sequence:
#
# PCOD9029059 Si02
#       8
#     2   2   2   2   2   2   2   2
#     4  12  26  43  76 107 148 187 234 296 361 422
#     4  12  28  45  73 103 147 193 242 288 357 426
#     4  11  27  46  67 103 142 190 236 291 361 431
#     4  10  23  41  71  94 142 176 243 292 354 421
#     4  12  25  48  71 107 147 186 245 292 354 424
#     4  12  25  45  73 102 145 189 243 293 352 418
#     4  10  22  42  66 105 131 185 235 297 354 411
#     4  11  24  42  71 100 137 182 236 292 356 424
#
# _framework density 23.762964
#
# number of rings (size 3 to 8) (size 9 to 14) (size 15 to 20)
#    0.000    0.750    1.250    5.250    8.750    0.500 
#    0.000    0.000    0.000    0.000    0.000    0.000 
#    0.000    0.000    0.000    0.000    0.000    0.000 
#
# Total GULP energy -89436.724382 kJ/mol
# GULP energy per Si atom -5589.795274 kJ/mol
# Density = 2.370888 g / cm^3
# Si number density = 23.762964 Si / 1000 Ang^3
#
#
#
# Elastic Constant Matrix: (Units=GPa)
#
#
# Indices 1 2 3 4 5 6 
#
# 1 43.1411 -2.3056 -6.0125 -5.7500 -1.8726 -7.1281
# 2 -2.3056 143.0124 41.7248 -2.5296 -0.4396 -14.1734
# 3 -6.0125 41.7248 147.6680 10.0909 8.0221 -7.3424
# 4 -5.7500 -2.5296 10.0909 34.1283 -7.2967 2.5124
# 5 -1.8726 -0.4396 8.0221 -7.2967 41.2002 -12.5171
# 6 -7.1281 -14.1734 -7.3424 2.5124 -12.5171 36.8596
#
#
#
# Elastic Compliance Matrix: (Units=1/GPa)
#
#
# Indices 1 2 3 4 5 6 
#
# 1 0.025109 0.000958 0.000555 0.004475 0.003751 0.006304
# 2 0.000958 0.008037 -0.002275 0.001583 0.001870 0.003350
# 3 0.000555 -0.002275 0.007748 -0.002797 -0.001906 0.000319
# 4 0.004475 0.001583 -0.002797 0.032380 0.006810 0.001023
# 5 0.003751 0.001870 -0.001906 0.006810 0.029238 0.010530
# 6 0.006304 0.003350 0.000319 0.001023 0.010530 0.033207
#
#
# Mechanical properties :
#
#
# Convention : Reuss Voigt Hill
#
# Bulk Modulus (GPa) = 25.39921 44.51499 34.95710
# Shear Modulus (GPa) = 33.25193 42.46526 37.85860
#
# Velocity S-wave (km/s) = 3.74480 4.23192 3.99579
# Velocity P-wave (km/s) = 5.42308 6.53089 6.00260
#
# Compressibility (1/GPa) = 0.03937130
#
# Stress axis : x y z
#
# Youngs Moduli (GPa) = 39.82610 124.41801 129.06541
#
# Poissons Ratio (x) = -0.11921 -0.07169
# Poissons Ratio (y) = -0.03816 0.29366
# Poissons Ratio (z) = -0.02212 0.28308
#
# Static dielectric constant tensor:
#      x y z
#    x 2.003590 0.047510 0.015070 
#    y 0.047510 1.929820 0.053210 
#    z 0.015070 0.053210 1.913060 
# 
# From -- ./inp_files/484203.got.cif
#   From: 2010.05.17/outbox.cif.g08.bks.cpg/sg2_243_cif.got.tgz:484203.got - 2010.06.03 11:33:40.
