data_PCOD9029194
_publ_section_title
;
Structure prediction by ZEFSAII (Michael W. Deem and Ramdas Pophale) SiO2 
 PCOD9029194
Probable space group: P -1
;
_chemical_formula_sum "Si O2"
_cell_formula_units_Z 12
_cell_length_a 7.905536
_cell_length_b 11.897230
_cell_length_c 13.810596
_cell_angle_alpha 21.899143
_cell_angle_beta 90.612629
_cell_angle_gamma 91.439619
_cell_volume 484.040942
_symmetry_space_group_name_H-M "P -1"
_symmetry_group_IT_number 2
_symmetry_cell_setting 'triclinic'
loop_
_space_group_symop_operation_xyz
x,y,z
-x,-y,-z
loop_
_atom_site_type_symbol
_atom_site_label
_atom_site_fract_x
_atom_site_fract_y
_atom_site_fract_z
Si Si1 0.043004 0.061675 0.838553
Si Si2 0.850580 0.798512 0.465695
Si Si3 0.391292 0.265174 0.750405
Si Si4 0.453142 0.724163 0.536064
Si Si5 0.628172 0.586481 0.017509
Si Si6 0.995702 0.591482 0.066386
O O1 0.044522 0.297662 0.555423
O O2 0.244407 0.097107 0.823713
O O3 0.000000 0.000000 0.000000
O O4 0.945833 0.788023 0.003160
O O5 0.654770 0.690249 0.548139
O O6 0.928633 0.692286 0.652849
O O7 0.867005 0.162795 0.170837
O O8 0.500000 0.500000 0.500000
O O9 0.346933 0.482255 0.664643
O O10 0.500000 0.000000 0.000000
O O11 0.415385 0.638274 0.714918
O O12 0.404224 0.062861 0.240221
O O13 0.830451 0.559485 0.024992
O O14 0.500000 0.500000 0.000000
#
# Coordination Sequence:
#
# PCOD9029194 Si02
#       6
#     2   2   2   2   2   2
#     4  10  23  39  63  95 140 178 222 262 335 401
#     4  10  22  42  66  95 138 178 216 273 338 397
#     4  12  23  41  67 103 140 181 221 266 335 415
#     4  12  24  45  71 102 141 175 231 285 332 410
#     4  12  27  48  72  98 131 181 234 294 352 393
#     4  10  22  44  64  95 137 171 229 277 334 405
#
# _framework density 24.791291999999999
#
# number of rings (size 3 to 8) (size 9 to 14) (size 15 to 20)
#    1.000    0.000    1.667    5.500    0.000    0.667 
#    0.000    5.000    0.000    0.000    0.000    0.000 
#    0.000    0.000    0.000    0.000    0.000    0.000 
#
# Total GULP energy -66820.354030 kJ/mol
# GULP energy per Si atom -5568.362836 kJ/mol
# Density = 2.473487 g / cm^3
# Si number density = 24.791292 Si / 1000 Ang^3
#
#
#
# Elastic Constant Matrix: (Units=GPa)
#
#
# Indices 1 2 3 4 5 6 
#
# 1 77.1846 17.7970 25.2391 -11.1926 -6.6557 28.3419
# 2 17.7970 171.1597 -26.2741 -1.7416 -3.7799 -20.0238
# 3 25.2391 -26.2741 150.8846 -8.8484 14.4660 18.7130
# 4 -11.1926 -1.7416 -8.8484 16.8470 9.0649 5.8866
# 5 -6.6557 -3.7799 14.4660 9.0649 49.4476 22.4518
# 6 28.3419 -20.0238 18.7130 5.8866 22.4518 54.2388
#
#
#
# Elastic Compliance Matrix: (Units=1/GPa)
#
#
# Indices 1 2 3 4 5 6 
#
# 1 0.025844 -0.005092 -0.002635 0.017013 0.010039 -0.020477
# 2 -0.005092 0.007247 0.001470 -0.002469 -0.002984 0.006333
# 3 -0.002635 0.001470 0.007888 0.004328 -0.003406 0.000138
# 4 0.017013 -0.002469 0.004328 0.082190 -0.006224 -0.017639
# 5 0.010039 -0.002984 -0.003406 -0.006224 0.031434 -0.017509
# 6 -0.020477 0.006333 0.000138 -0.017639 -0.017509 0.040589
#
#
# Mechanical properties :
#
#
# Convention : Reuss Voigt Hill
#
# Bulk Modulus (GPa) = 35.13282 48.08365 41.60823
# Shear Modulus (GPa) = 23.02073 49.60449 36.31261
#
# Velocity S-wave (km/s) = 3.05057 4.47798 3.83133
# Velocity P-wave (km/s) = 5.15850 6.79513 6.03258
#
# Compressibility (1/GPa) = 0.02846341
#
# Stress axis : x y z
#
# Youngs Moduli (GPa) = 38.69413 137.97927 126.78275
#
# Poissons Ratio (x) = 0.70266 0.33406
# Poissons Ratio (y) = 0.19705 -0.18634
# Poissons Ratio (z) = 0.10196 -0.20280
#
# Static dielectric constant tensor:
#      x y z
#    x 2.007990 -0.169860 0.136700 
#    y -0.169860 2.156070 -0.194940 
#    z 0.136700 -0.194940 2.615780 
# 
# From -- ./inp_files/502473.got.cif
#   From: 2010.05.17/outbox.cif.g08.bks.cpg/sg2_252_cif.got.tgz:502473.got - 2010.06.03 11:33:40.
