data_PCOD9029086
_publ_section_title
;
Structure prediction by ZEFSAII (Michael W. Deem and Ramdas Pophale) SiO2 
 PCOD9029086
Probable space group: P -1
;
_chemical_formula_sum "Si O2"
_cell_formula_units_Z 16
_cell_length_a 6.883822
_cell_length_b 24.850207
_cell_length_c 10.631679
_cell_angle_alpha 148.364831
_cell_angle_beta 45.644995
_cell_angle_gamma 133.163086
_cell_volume 662.655620
_symmetry_space_group_name_H-M "P -1"
_symmetry_group_IT_number 2
_symmetry_cell_setting 'triclinic'
loop_
_space_group_symop_operation_xyz
x,y,z
-x,-y,-z
loop_
_atom_site_type_symbol
_atom_site_label
_atom_site_fract_x
_atom_site_fract_y
_atom_site_fract_z
Si Si1 0.786842 0.322644 0.865086
Si Si2 0.236919 0.052339 0.713321
Si Si3 0.876230 0.499752 0.764164
Si Si4 0.265284 0.100768 0.064739
Si Si5 0.090706 0.174357 0.536409
Si Si6 0.328768 0.718220 0.446669
Si Si7 0.132898 0.828741 0.990501
Si Si8 0.781763 0.612904 0.787674
O O1 0.817860 0.299937 0.658150
O O2 0.826492 0.224854 0.738433
O O3 0.489102 0.351206 0.065247
O O4 0.016148 0.419603 0.011590
O O5 0.500000 0.000000 0.500000
O O6 0.262470 0.126390 0.971536
O O7 0.989064 0.947284 0.633202
O O8 0.127421 0.116339 0.781519
O O9 0.699700 0.391657 0.686559
O O10 0.737440 0.552850 0.821074
O O11 0.131813 0.465564 0.508786
O O12 0.218077 0.181992 0.352671
O O13 0.583349 0.092638 0.931715
O O14 0.000000 0.000000 0.000000
O O15 0.342885 0.232413 0.624189
O O16 0.208407 0.794149 0.746786
O O17 0.038001 0.717826 0.886343
#
# Coordination Sequence:
#
# PCOD9029086 Si02
#       8
#     2   2   2   2   2   2   2   2
#     4  12  22  37  63  92 124 160 205 255 308 364
#     4  11  23  39  63  94 125 162 208 254 304 367
#     4  10  23  43  62  88 124 162 206 254 306 366
#     4   9  21  40  61  87 121 163 204 251 306 364
#     4  10  23  39  59  91 127 159 201 254 306 365
#     4  10  23  41  64  92 121 161 207 257 310 364
#     4  10  22  42  66  90 125 168 206 251 311 368
#     4  10  23  41  63  90 125 165 204 250 308 371
#
# _framework density 24.14527
#
# number of rings (size 3 to 8) (size 9 to 14) (size 15 to 20)
#    0.000    1.750    0.000    3.000    0.000   13.000 
#    0.000    5.000    0.000    0.000    0.000    0.000 
#    0.000    0.000    0.000    0.000    0.000    0.000 
#
# Total GULP energy -89386.837889 kJ/mol
# GULP energy per Si atom -5586.677368 kJ/mol
# Density = 2.409031 g / cm^3
# Si number density = 24.145270 Si / 1000 Ang^3
#
#
#
# Elastic Constant Matrix: (Units=GPa)
#
#
# Indices 1 2 3 4 5 6 
#
# 1 133.9301 37.6804 45.8611 12.1513 -0.8711 4.9153
# 2 37.6804 43.0466 4.7959 7.7007 9.7640 -4.2881
# 3 45.8611 4.7959 68.9850 3.1117 -2.0049 -3.0794
# 4 12.1513 7.7007 3.1117 35.8551 2.1213 -1.7451
# 5 -0.8711 9.7640 -2.0049 2.1213 51.3689 1.2245
# 6 4.9153 -4.2881 -3.0794 -1.7451 1.2245 29.4414
#
#
#
# Elastic Compliance Matrix: (Units=1/GPa)
#
#
# Indices 1 2 3 4 5 6 
#
# 1 0.014290 -0.012287 -0.008728 -0.001849 0.002440 -0.005299
# 2 -0.012287 0.036295 0.005954 -0.003346 -0.006928 0.008050
# 3 -0.008728 0.005954 0.020057 0.000192 -0.000611 0.004459
# 4 -0.001849 -0.003346 0.000192 0.029335 -0.000638 0.001607
# 5 0.002440 -0.006928 -0.000611 -0.000638 0.020885 -0.002387
# 6 -0.005299 0.008050 0.004459 0.001607 -0.002387 0.036684
#
#
# Mechanical properties :
#
#
# Convention : Reuss Voigt Hill
#
# Bulk Modulus (GPa) = 24.67935 46.95962 35.81948
# Shear Modulus (GPa) = 24.85409 33.84137 29.34773
#
# Velocity S-wave (km/s) = 3.21184 3.74782 3.49013
# Velocity P-wave (km/s) = 4.89877 6.18217 5.57751
#
# Compressibility (1/GPa) = 0.04051971
#
# Stress axis : x y z
#
# Youngs Moduli (GPa) = 69.97737 27.55227 49.85765
#
# Poissons Ratio (x) = 0.33854 0.43517
# Poissons Ratio (y) = 0.85981 -0.29686
# Poissons Ratio (z) = 0.61078 -0.16405
#
# Static dielectric constant tensor:
#      x y z
#    x 1.924030 0.033170 -0.006130 
#    y 0.033170 1.948420 -0.056910 
#    z -0.006130 -0.056910 1.974730 
# 
# From -- ./inp_files/371448.got.cif
#   From: 2010.05.17/outbox.cif.g08.bks.cpg/sg2_186_cif.got.tgz:371448.got - 2010.06.03 11:33:40.
