data_PCOD9029234
_publ_section_title
;
Structure prediction by ZEFSAII (Michael W. Deem and Ramdas Pophale) SiO2 
 PCOD9029234
Probable space group: P -1
;
_chemical_formula_sum "Si O2"
_cell_formula_units_Z 16
_cell_length_a 26.835125
_cell_length_b 5.295861
_cell_length_c 31.587978
_cell_angle_alpha 111.670234
_cell_angle_beta 170.718834
_cell_angle_gamma 68.523832
_cell_volume 672.792209
_symmetry_space_group_name_H-M "P -1"
_symmetry_group_IT_number 2
_symmetry_cell_setting 'triclinic'
loop_
_space_group_symop_operation_xyz
x,y,z
-x,-y,-z
loop_
_atom_site_type_symbol
_atom_site_label
_atom_site_fract_x
_atom_site_fract_y
_atom_site_fract_z
Si Si1 0.675881 0.480811 0.602116
Si Si2 0.201441 0.462717 0.529938
Si Si3 0.449918 0.108355 0.109130
Si Si4 0.266597 0.064618 0.861515
Si Si5 0.073052 0.764632 0.604466
Si Si6 0.304765 0.164959 0.436815
Si Si7 0.391361 0.508006 0.212899
Si Si8 0.637185 0.038598 0.878811
O O1 0.500000 0.500000 0.500000
O O2 0.554925 0.687798 0.477608
O O3 0.665086 0.163437 0.558840
O O4 0.029265 0.573662 0.910482
O O5 0.398554 0.473139 0.651955
O O6 0.289017 0.152427 0.595168
O O7 0.910424 0.665022 0.289353
O O8 0.393926 0.599655 0.738038
O O9 0.301006 0.065285 0.027711
O O10 0.746259 0.915821 0.340373
O O11 0.240390 0.066995 0.890409
O O12 0.187621 0.791467 0.751334
O O13 0.635427 0.098543 0.165499
O O14 0.000000 0.500000 0.500000
O O15 0.454523 0.312068 0.611285
O O16 0.934284 0.222382 0.131300
O O17 0.372449 0.180857 0.180458
#
# Coordination Sequence:
#
# PCOD9029234 Si02
#       8
#     2   2   2   2   2   2   2   2
#     4  11  25  46  70 104 146 185 236 290 338 408
#     4  10  22  42  66  97 133 173 221 285 341 414
#     4  10  23  43  65  97 131 173 223 285 347 419
#     4  10  23  45  66  91 132 170 224 283 345 412
#     4  10  23  44  63  94 124 175 222 284 342 419
#     4  11  25  43  73 102 139 192 229 285 352 410
#     4  10  24  43  68 102 136 179 230 279 342 415
#     4  10  23  46  66  98 144 174 227 289 346 414
#
# _framework density 23.781486999999998
#
# number of rings (size 3 to 8) (size 9 to 14) (size 15 to 20)
#    0.000    1.750    1.250    0.750    5.250    1.500 
#   11.250    0.000    0.000    0.000    0.000    0.000 
#    0.000    0.000    0.000    0.000    0.000    0.000 
#
# Total GULP energy -89179.788256 kJ/mol
# GULP energy per Si atom -5573.736766 kJ/mol
# Density = 2.372736 g / cm^3
# Si number density = 23.781487 Si / 1000 Ang^3
#
#
#
# Elastic Constant Matrix: (Units=GPa)
#
#
# Indices 1 2 3 4 5 6 
#
# 1 101.7826 21.7844 42.3154 18.3519 -16.3450 -16.2082
# 2 21.7844 73.9246 59.2051 22.6487 -27.5884 -21.0734
# 3 42.3154 59.2051 104.8212 40.7508 -27.1419 -18.5113
# 4 18.3519 22.6487 40.7508 41.6802 -15.8339 -13.3325
# 5 -16.3450 -27.5884 -27.1419 -15.8339 39.4282 1.0763
# 6 -16.2082 -21.0734 -18.5113 -13.3325 1.0763 36.7470
#
#
#
# Elastic Compliance Matrix: (Units=1/GPa)
#
#
# Indices 1 2 3 4 5 6 
#
# 1 0.012633 0.003206 -0.005418 0.001129 0.004068 0.004972
# 2 0.003206 0.033613 -0.016265 0.006984 0.016059 0.014560
# 3 -0.005418 -0.016265 0.025908 -0.016425 -0.002264 -0.004559
# 4 0.001129 0.006984 -0.016425 0.043839 0.011331 0.011802
# 5 0.004068 0.016059 -0.002264 0.011331 0.040929 0.012776
# 6 0.004972 0.014560 -0.004559 0.011802 0.012776 0.039367
#
#
# Mechanical properties :
#
#
# Convention : Reuss Voigt Hill
#
# Bulk Modulus (GPa) = 28.40883 58.57093 43.48988
# Shear Modulus (GPa) = 20.41010 34.05264 27.23137
#
# Velocity S-wave (km/s) = 2.93274 3.78815 3.38755
# Velocity P-wave (km/s) = 4.84145 6.61934 5.79894
#
# Compressibility (1/GPa) = 0.03520032
#
# Stress axis : x y z
#
# Youngs Moduli (GPa) = 79.16006 29.75022 38.59754
#
# Poissons Ratio (x) = -0.09539 0.20912
# Poissons Ratio (y) = -0.25381 0.62780
# Poissons Ratio (z) = 0.42889 0.48389
#
# Static dielectric constant tensor:
#      x y z
#    x 2.022330 0.159440 0.035500 
#    y 0.159440 2.155770 0.016370 
#    z 0.035500 0.016370 1.951620 
# 
# From -- ./inp_files/12739.got.cif
#   From: 2010.05.17/outbox.cif.g08.bks.cpg/sg2_7_cif.got.tgz:12739.got - 2010.06.03 11:33:40.
