data_PCOD9029228
_publ_section_title
;
Structure prediction by ZEFSAII (Michael W. Deem and Ramdas Pophale) SiO2 
 PCOD9029228
Probable space group: P -1
;
_chemical_formula_sum "Si O2"
_cell_formula_units_Z 16
_cell_length_a 8.753053
_cell_length_b 11.083373
_cell_length_c 11.059554
_cell_angle_alpha 119.078082
_cell_angle_beta 123.249480
_cell_angle_gamma 71.780861
_cell_volume 782.615536
_symmetry_space_group_name_H-M "P -1"
_symmetry_group_IT_number 2
_symmetry_cell_setting 'triclinic'
loop_
_space_group_symop_operation_xyz
x,y,z
-x,-y,-z
loop_
_atom_site_type_symbol
_atom_site_label
_atom_site_fract_x
_atom_site_fract_y
_atom_site_fract_z
Si Si1 0.970935 0.266685 0.917262
Si Si2 0.592174 0.269442 0.897450
Si Si3 0.289314 0.543959 0.541204
Si Si4 0.668865 0.685025 0.747475
Si Si5 0.108571 0.069843 0.684487
Si Si6 0.501116 0.984969 0.848196
Si Si7 0.690893 0.511042 0.212166
Si Si8 0.994651 0.637154 0.273895
O O1 0.021504 0.117492 0.799375
O O2 0.791244 0.257410 0.915028
O O3 0.929166 0.365819 0.830684
O O4 0.151002 0.315049 0.088689
O O5 0.446720 0.351201 0.783943
O O6 0.554210 0.121153 0.865305
O O7 0.588270 0.378803 0.059588
O O8 0.488568 0.607358 0.674595
O O9 0.293703 0.398324 0.400733
O O10 0.223999 0.518405 0.634858
O O11 0.155623 0.638330 0.442443
O O12 0.613034 0.846761 0.788577
O O13 0.135162 0.222178 0.716781
O O14 0.288517 0.973591 0.727160
O O15 0.000000 0.000000 0.500000
O O16 0.500000 0.000000 0.000000
O O17 0.856357 0.525215 0.196969
#
# Coordination Sequence:
#
# PCOD9029228 Si02
#       8
#     2   2   2   2   2   2   2   2
#     4  10  24  44  66 101 133 180 221 275 331 406
#     4  11  25  41  70 101 134 176 227 273 334 397
#     4  11  25  41  69 104 134 175 225 280 331 389
#     4  11  25  43  68 101 138 174 222 279 338 389
#     4  10  22  42  66  97 130 178 219 268 332 395
#     4  12  22  46  69  96 134 177 222 271 333 401
#     4  11  24  42  66 103 136 174 227 277 329 400
#     4  10  22  44  67  97 134 177 222 273 334 393
#
# _framework density 20.444267
#
# number of rings (size 3 to 8) (size 9 to 14) (size 15 to 20)
#    0.750    0.500    2.500    2.625    7.000    1.500 
#    2.250    1.250    0.000    0.000    0.000    0.000 
#    0.000    0.000    0.000    0.000    0.000    0.000 
#
# Total GULP energy -89114.751949 kJ/mol
# GULP energy per Si atom -5569.671997 kJ/mol
# Density = 2.039774 g / cm^3
# Si number density = 20.444267 Si / 1000 Ang^3
#
#
#
# Elastic Constant Matrix: (Units=GPa)
#
#
# Indices 1 2 3 4 5 6 
#
# 1 71.2445 27.6750 25.7276 -12.9152 5.3137 -3.4870
# 2 27.6750 97.3121 24.8044 -5.0871 -9.6881 -7.3126
# 3 25.7276 24.8044 98.3523 -20.0258 8.3640 7.8893
# 4 -12.9152 -5.0871 -20.0258 43.3958 -5.0040 6.0933
# 5 5.3137 -9.6881 8.3640 -5.0040 25.0782 -9.9711
# 6 -3.4870 -7.3126 7.8893 6.0933 -9.9711 22.9084
#
#
#
# Elastic Compliance Matrix: (Units=1/GPa)
#
#
# Indices 1 2 3 4 5 6 
#
# 1 0.017592 -0.004766 -0.002290 0.003223 -0.004510 -0.000875
# 2 -0.004766 0.014960 -0.005010 -0.002177 0.012760 0.011909
# 3 -0.002290 -0.005010 0.015354 0.006496 -0.010688 -0.013615
# 4 0.003223 -0.002177 0.006496 0.028000 -0.002461 -0.010961
# 5 -0.004510 0.012760 -0.010688 -0.002461 0.062767 0.035042
# 6 -0.000875 0.011909 -0.013615 -0.010961 0.035042 0.070177
#
#
# Mechanical properties :
#
#
# Convention : Reuss Voigt Hill
#
# Bulk Modulus (GPa) = 42.06157 47.03587 44.54872
# Shear Modulus (GPa) = 20.75493 30.85660 25.80577
#
# Velocity S-wave (km/s) = 3.18967 3.88919 3.55667
# Velocity P-wave (km/s) = 5.84669 6.57454 6.22127
#
# Compressibility (1/GPa) = 0.02377467
#
# Stress axis : x y z
#
# Youngs Moduli (GPa) = 56.84355 66.84487 65.13042
#
# Poissons Ratio (x) = 0.31856 0.14915
# Poissons Ratio (y) = 0.27089 0.32630
# Poissons Ratio (z) = 0.13017 0.33489
#
# Static dielectric constant tensor:
#      x y z
#    x 1.750860 0.055050 0.066700 
#    y 0.055050 1.941880 0.165710 
#    z 0.066700 0.165710 1.796790 
# 
# From -- ./inp_files/388305.got.cif
#   From: 2010.05.17/outbox.cif.g08.bks.cpg/sg2_195_cif.got.tgz:388305.got - 2010.06.03 11:33:40.
