data_PCOD9029918
_publ_section_title
;
Structure prediction by ZEFSAII (Michael W. Deem and Ramdas Pophale) SiO2 
 PCOD9029918
Probable space group: P -1
;
_chemical_formula_sum "Si O2"
_cell_formula_units_Z 16
_cell_length_a 16.582374
_cell_length_b 13.874943
_cell_length_c 5.228720
_cell_angle_alpha 74.199136
_cell_angle_beta 110.067027
_cell_angle_gamma 144.562638
_cell_volume 655.123068
_symmetry_space_group_name_H-M "P -1"
_symmetry_group_IT_number 2
_symmetry_cell_setting 'triclinic'
loop_
_space_group_symop_operation_xyz
x,y,z
-x,-y,-z
loop_
_atom_site_type_symbol
_atom_site_label
_atom_site_fract_x
_atom_site_fract_y
_atom_site_fract_z
Si Si1 0.965340 0.628423 0.297620
Si Si2 0.008023 0.119036 0.319569
Si Si3 0.531013 0.596669 0.215187
Si Si4 0.772180 0.844693 0.945319
Si Si5 0.245896 0.399595 0.104088
Si Si6 0.336297 0.877396 0.858887
Si Si7 0.780570 0.023139 0.466898
Si Si8 0.159425 0.646122 0.324574
O O1 0.848991 0.598412 0.099035
O O2 0.900959 0.520994 0.564137
O O3 0.119133 0.823567 0.337965
O O4 0.015417 0.579413 0.223428
O O5 0.905320 0.098906 0.364391
O O6 0.000000 0.000000 0.500000
O O7 0.170687 0.306646 0.361128
O O8 0.932549 0.032397 0.025692
O O9 0.500000 0.500000 0.500000
O O10 0.500000 0.500000 0.000000
O O11 0.686387 0.777329 0.167254
O O12 0.413055 0.573093 0.134049
O O13 0.709212 0.862824 0.653493
O O14 0.772332 0.728624 0.949863
O O15 0.317765 0.981779 0.753752
O O16 0.265142 0.769057 0.595355
O O17 0.246808 0.750176 0.090755
O O18 0.500000 0.000000 0.000000
#
# Coordination Sequence:
#
# PCOD9029918 Si02
#       8
#     2   2   2   2   2   2   2   2
#     4  10  22  42  68  99 132 172 225 286 347 396
#     4  12  21  35  66  94 134 174 225 276 331 398
#     4  10  24  43  60  85 133 181 218 269 328 392
#     4  11  23  41  61  95 140 175 224 278 339 401
#     4  11  21  40  63  97 131 178 229 275 335 412
#     4  11  25  47  72 100 136 178 229 278 345 415
#     4  11  24  40  68 100 134 177 225 289 343 403
#     4  10  24  46  70  99 136 172 222 293 343 398
#
# _framework density 24.422892999999998
#
# number of rings (size 3 to 8) (size 9 to 14) (size 15 to 20)
#    0.000    1.250    2.500    3.000    3.500    7.500 
#    2.250    0.000    0.000    0.000    0.000    0.000 
#    0.000    0.000    0.000    0.000    0.000    0.000 
#
# Total GULP energy -89285.140658 kJ/mol
# GULP energy per Si atom -5580.321291 kJ/mol
# Density = 2.436731 g / cm^3
# Si number density = 24.422893 Si / 1000 Ang^3
#
#
#
# Elastic Constant Matrix: (Units=GPa)
#
#
# Indices 1 2 3 4 5 6 
#
# 1 136.9283 40.1316 62.5215 -14.5073 32.0170 40.7621
# 2 40.1316 84.1576 35.1551 -15.0750 2.1809 27.4208
# 3 62.5215 35.1551 160.5991 -24.4259 11.9525 13.7522
# 4 -14.5073 -15.0750 -24.4259 41.5455 -1.5955 -0.3493
# 5 32.0170 2.1809 11.9525 -1.5955 55.8714 0.6279
# 6 40.7621 27.4208 13.7522 -0.3493 0.6279 51.2996
#
#
#
# Elastic Compliance Matrix: (Units=1/GPa)
#
#
# Indices 1 2 3 4 5 6 
#
# 1 0.013950 -0.001708 -0.003467 0.001866 -0.007030 -0.009143
# 2 -0.001708 0.016440 -0.001751 0.004316 0.000913 -0.006942
# 3 -0.003467 -0.001751 0.008268 0.003041 0.000356 0.001490
# 4 0.001866 0.004316 0.003041 0.027999 -0.001040 -0.004402
# 5 -0.007030 0.000913 0.000356 -0.001040 0.021732 0.004729
# 6 -0.009143 -0.006942 0.001490 -0.004402 0.004729 0.029982
#
#
# Mechanical properties :
#
#
# Convention : Reuss Voigt Hill
#
# Bulk Modulus (GPa) = 40.31255 73.03346 56.67300
# Shear Modulus (GPa) = 35.58937 46.00176 40.79557
#
# Velocity S-wave (km/s) = 3.82149 4.34470 4.09146
# Velocity P-wave (km/s) = 6.00113 7.42544 6.75095
#
# Compressibility (1/GPa) = 0.02480617
#
# Stress axis : x y z
#
# Youngs Moduli (GPa) = 71.68445 60.82724 120.94873
#
# Poissons Ratio (x) = 0.10392 0.41931
# Poissons Ratio (y) = 0.12247 0.21173
# Poissons Ratio (z) = 0.24852 0.10648
#
# Static dielectric constant tensor:
#      x y z
#    x 2.039350 -0.103380 -0.026080 
#    y -0.103380 2.276700 0.111510 
#    z -0.026080 0.111510 2.116350 
# 
# From -- ./inp_files/97603.got.cif
#   From: 2010.05.17/outbox.cif.g08.bks.cpg/sg2_49_cif.got.tgz:97603.got - 2010.06.03 11:33:40.
