data_PCOD9029454
_publ_section_title
;
Structure prediction by ZEFSAII (Michael W. Deem and Ramdas Pophale) SiO2 
 PCOD9029454
Probable space group: P -1
;
_chemical_formula_sum "Si O2"
_cell_formula_units_Z 16
_cell_length_a 15.796639
_cell_length_b 14.012833
_cell_length_c 7.818255
_cell_angle_alpha 85.164430
_cell_angle_beta 107.793686
_cell_angle_gamma 154.078153
_cell_volume 640.423764
_symmetry_space_group_name_H-M "P -1"
_symmetry_group_IT_number 2
_symmetry_cell_setting 'triclinic'
loop_
_space_group_symop_operation_xyz
x,y,z
-x,-y,-z
loop_
_atom_site_type_symbol
_atom_site_label
_atom_site_fract_x
_atom_site_fract_y
_atom_site_fract_z
Si Si1 0.819508 0.521254 0.684320
Si Si2 0.844599 0.283785 0.305414
Si Si3 0.421293 0.371614 0.147072
Si Si4 0.131436 0.952704 0.210574
Si Si5 0.516043 0.373792 0.665154
Si Si6 0.417336 0.064652 0.256392
Si Si7 0.377600 0.598405 0.912526
Si Si8 0.677740 0.227256 0.876566
O O1 0.741653 0.550555 0.687910
O O2 0.604927 0.268235 0.484183
O O3 0.032514 0.693549 0.679970
O O4 0.815755 0.453705 0.861766
O O5 0.000000 0.500000 0.500000
O O6 0.589760 0.010951 0.253671
O O7 0.789170 0.294894 0.105494
O O8 0.173135 0.081372 0.082997
O O9 0.465963 0.496607 0.296137
O O10 0.562289 0.412826 0.207741
O O11 0.500000 0.500000 0.000000
O O12 0.302326 0.143559 0.444998
O O13 0.220076 0.945363 0.176141
O O14 0.881210 0.683789 0.162817
O O15 0.492154 0.299302 0.847719
O O16 0.548541 0.224291 0.136853
O O17 0.321802 0.864198 0.232911
#
# Coordination Sequence:
#
# PCOD9029454 Si02
#       8
#     2   2   2   2   2   2   2   2
#     4  11  24  43  64  94 130 169 213 266 325 378
#     4  11  25  42  65  92 122 167 217 263 316 387
#     4   9  20  43  65  97 132 162 211 265 311 385
#     4  10  22  42  67  95 128 172 207 262 324 373
#     4  10  23  40  65  96 129 163 215 263 310 385
#     4  10  23  42  63  96 130 163 221 269 306 387
#     4  10  23  42  65  92 131 170 213 261 318 376
#     4  11  25  44  65  92 129 171 213 267 324 375
#
# _framework density 24.983454999999999
#
# number of rings (size 3 to 8) (size 9 to 14) (size 15 to 20)
#    0.000    1.750    1.250    1.125    5.250    5.500 
#    0.000    8.750    0.000    0.000    0.000    0.000 
#    0.000    0.000    0.000    0.000    0.000    0.000 
#
# Total GULP energy -89435.388656 kJ/mol
# GULP energy per Si atom -5589.711791 kJ/mol
# Density = 2.492659 g / cm^3
# Si number density = 24.983455 Si / 1000 Ang^3
#
#
#
# Elastic Constant Matrix: (Units=GPa)
#
#
# Indices 1 2 3 4 5 6 
#
# 1 149.2303 43.4298 27.5462 17.1817 -28.6204 21.0588
# 2 43.4298 119.6648 42.7974 22.1634 -0.2449 14.8280
# 3 27.5462 42.7974 114.9760 5.1594 -16.8995 -8.1112
# 4 17.1817 22.1634 5.1594 38.2214 -5.0892 0.6449
# 5 -28.6204 -0.2449 -16.8995 -5.0892 32.7849 -2.3622
# 6 21.0588 14.8280 -8.1112 0.6449 -2.3622 35.8722
#
#
#
# Elastic Compliance Matrix: (Units=1/GPa)
#
#
# Indices 1 2 3 4 5 6 
#
# 1 0.009812 -0.002495 -0.000515 -0.001798 0.007692 -0.004307
# 2 -0.002495 0.012975 -0.005228 -0.006426 -0.006160 -0.005371
# 3 -0.000515 -0.005228 0.012002 0.002411 0.006473 0.005560
# 4 -0.001798 -0.006426 0.002411 0.030933 0.004716 0.004011
# 5 0.007692 -0.006160 0.006473 0.004716 0.041394 0.002135
# 6 -0.004307 -0.005371 0.005560 0.004011 0.002135 0.033951
#
#
# Mechanical properties :
#
#
# Convention : Reuss Voigt Hill
#
# Bulk Modulus (GPa) = 54.60094 67.93532 61.26813
# Shear Modulus (GPa) = 30.55373 39.38222 34.96797
#
# Velocity S-wave (km/s) = 3.50088 3.97461 3.74524
# Velocity P-wave (km/s) = 6.18416 6.95087 6.57869
#
# Compressibility (1/GPa) = 0.01831470
#
# Stress axis : x y z
#
# Youngs Moduli (GPa) = 101.91511 77.07148 83.31730
#
# Poissons Ratio (x) = 0.19227 0.04288
# Poissons Ratio (y) = 0.25424 0.43558
# Poissons Ratio (z) = 0.05246 0.40293
#
# Static dielectric constant tensor:
#      x y z
#    x 2.031180 0.041770 0.021800 
#    y 0.041770 2.013110 -0.054060 
#    z 0.021800 -0.054060 2.003730 
# 
# From -- ./inp_files/336750.got.cif
#   From: 2010.05.17/outbox.cif.g08.bks.cpg/sg2_169_cif.got.tgz:336750.got - 2010.06.03 11:33:40.
