data_PCOD9029239
_publ_section_title
;
Structure prediction by ZEFSAII (Michael W. Deem and Ramdas Pophale) SiO2 
 PCOD9029239
Probable space group: P -1
;
_chemical_formula_sum "Si O2"
_cell_formula_units_Z 16
_cell_length_a 13.847751
_cell_length_b 8.357237
_cell_length_c 8.679713
_cell_angle_alpha 130.685515
_cell_angle_beta 88.490489
_cell_angle_gamma 64.292070
_cell_volume 612.046398
_symmetry_space_group_name_H-M "P -1"
_symmetry_group_IT_number 2
_symmetry_cell_setting 'triclinic'
loop_
_space_group_symop_operation_xyz
x,y,z
-x,-y,-z
loop_
_atom_site_type_symbol
_atom_site_label
_atom_site_fract_x
_atom_site_fract_y
_atom_site_fract_z
Si Si1 0.016268 0.169131 0.723120
Si Si2 0.523746 0.703323 0.562742
Si Si3 0.112193 0.435211 0.269220
Si Si4 0.271189 0.217671 0.386792
Si Si5 0.454345 0.623225 0.914391
Si Si6 0.219243 0.504412 0.849836
Si Si7 0.121082 0.940081 0.886312
Si Si8 0.349316 0.301287 0.020499
O O1 0.000686 0.367674 0.714750
O O2 0.906359 0.349836 0.960122
O O3 0.000000 0.000000 0.500000
O O4 0.118734 0.964257 0.713921
O O5 0.500000 0.500000 0.500000
O O6 0.632560 0.720604 0.612751
O O7 0.539614 0.600727 0.323249
O O8 0.410162 0.997056 0.791041
O O9 0.139247 0.431050 0.448308
O O10 0.132284 0.164604 0.075506
O O11 0.226106 0.415220 0.185314
O O12 0.255146 0.248622 0.591733
O O13 0.334511 0.923139 0.134270
O O14 0.500000 0.500000 0.000000
O O15 0.556206 0.663601 0.882505
O O16 0.308243 0.442036 0.944959
O O17 0.211256 0.687459 0.828921
O O18 0.000000 0.000000 0.000000
#
# Coordination Sequence:
#
# PCOD9029239 Si02
#       8
#     2   2   2   2   2   2   2   2
#     4  10  22  46  69  98 131 170 217 282 351 405
#     4  11  23  40  65  95 145 183 225 275 328 387
#     4  11  23  42  71  98 136 173 228 280 329 413
#     4  11  24  40  65 104 136 181 229 272 327 397
#     4  11  23  40  66  93 146 185 223 273 333 384
#     4  10  22  42  66  97 138 168 227 278 323 413
#     4  10  23  44  71  97 131 173 217 281 352 407
#     4  10  23  42  61 104 136 182 233 274 324 396
#
# _framework density 26.14181
#
# number of rings (size 3 to 8) (size 9 to 14) (size 15 to 20)
#    0.000    1.500    0.000    4.125    5.250    4.000 
#    4.500   13.750    0.000    0.000    0.000    0.000 
#    0.000    0.000    0.000    0.000    0.000    0.000 
#
# Total GULP energy -89202.368287 kJ/mol
# GULP energy per Si atom -5575.148018 kJ/mol
# Density = 2.608231 g / cm^3
# Si number density = 26.141810 Si / 1000 Ang^3
#
#
#
# Elastic Constant Matrix: (Units=GPa)
#
#
# Indices 1 2 3 4 5 6 
#
# 1 70.6875 3.6581 18.8852 0.7116 23.1923 -11.4413
# 2 3.6581 129.7806 4.1981 -4.0576 23.8482 -26.6933
# 3 18.8852 4.1981 89.5363 -3.6435 28.1145 -6.9456
# 4 0.7116 -4.0576 -3.6435 54.8419 -4.0354 5.9801
# 5 23.1923 23.8482 28.1145 -4.0354 47.6002 -9.6221
# 6 -11.4413 -26.6933 -6.9456 5.9801 -9.6221 31.3677
#
#
#
# Elastic Compliance Matrix: (Units=1/GPa)
#
#
# Indices 1 2 3 4 5 6 
#
# 1 0.017958 0.002224 -0.000896 -0.001387 -0.008243 0.005980
# 2 0.002224 0.010284 0.001371 -0.000480 -0.005409 0.008299
# 3 -0.000896 0.001371 0.013990 0.000290 -0.008213 0.001363
# 4 -0.001387 -0.000480 0.000290 0.018781 0.001537 -0.003959
# 5 -0.008243 -0.005409 -0.008213 0.001537 0.032784 0.000335
# 6 0.005980 0.008299 0.001363 -0.003959 0.000335 0.042282
#
#
# Mechanical properties :
#
#
# Convention : Reuss Voigt Hill
#
# Bulk Modulus (GPa) = 20.99485 38.16524 29.58005
# Shear Modulus (GPa) = 34.11655 44.31283 39.21469
#
# Velocity S-wave (km/s) = 3.61648 4.12162 3.87728
# Velocity P-wave (km/s) = 5.04848 6.10584 5.60216
#
# Compressibility (1/GPa) = 0.04763073
#
# Stress axis : x y z
#
# Youngs Moduli (GPa) = 55.68690 97.23712 71.48025
#
# Poissons Ratio (x) = -0.21628 0.06405
# Poissons Ratio (y) = -0.12386 -0.09803
# Poissons Ratio (z) = 0.04990 -0.13335
#
# Static dielectric constant tensor:
#      x y z
#    x 2.210340 -0.060490 0.118600 
#    y -0.060490 2.216750 -0.005790 
#    z 0.118600 -0.005790 2.214160 
# 
# From -- ./inp_files/328045.got.cif
#   From: 2010.05.17/outbox.cif.g08.bks.cpg/sg2_165_cif.got.tgz:328045.got - 2010.06.03 11:33:40.
