data_PCOD9029794
_publ_section_title
;
Structure prediction by ZEFSAII (Michael W. Deem and Ramdas Pophale) SiO2 
 PCOD9029794
Probable space group: P -1
;
_chemical_formula_sum "Si O2"
_cell_formula_units_Z 12
_cell_length_a 7.878928
_cell_length_b 8.337047
_cell_length_c 10.943697
_cell_angle_alpha 51.751784
_cell_angle_beta 112.513818
_cell_angle_gamma 81.709017
_cell_volume 443.703951
_symmetry_space_group_name_H-M "P -1"
_symmetry_group_IT_number 2
_symmetry_cell_setting 'triclinic'
loop_
_space_group_symop_operation_xyz
x,y,z
-x,-y,-z
loop_
_atom_site_type_symbol
_atom_site_label
_atom_site_fract_x
_atom_site_fract_y
_atom_site_fract_z
Si Si1 0.778549 0.919688 0.233392
Si Si2 0.321983 0.774637 0.180083
Si Si3 0.151880 0.257813 0.254544
Si Si4 0.251953 0.535241 0.641521
Si Si5 0.587487 0.202026 0.295695
Si Si6 0.060854 0.255625 0.968292
O O1 0.742583 0.716460 0.254161
O O2 0.023254 0.752994 0.429916
O O3 0.639285 0.079239 0.235383
O O4 0.722868 0.113554 0.021308
O O5 0.549046 0.531789 0.365150
O O6 0.282293 0.004835 0.134577
O O7 0.120849 0.745149 0.163274
O O8 0.349321 0.283131 0.243709
O O9 0.022911 0.260943 0.099870
O O10 0.255678 0.014988 0.469291
O O11 0.988871 0.478976 0.191723
O O12 0.339129 0.607050 0.751037
#
# Coordination Sequence:
#
# PCOD9029794 Si02
#       6
#     2   2   2   2   2   2
#     4  11  26  43  66 100 133 174 217 270 328 385
#     4  11  23  45  66  99 130 172 219 270 327 390
#     4  10  22  42  68  95 130 170 218 271 326 387
#     4  11  24  43  64 100 131 174 218 260 335 382
#     4  11  23  45  66  99 130 172 219 270 327 390
#     4  10  22  42  68  95 130 170 218 271 326 387
#
# _framework density 27.045058000000001
#
# number of rings (size 3 to 8) (size 9 to 14) (size 15 to 20)
#    0.000    1.333    1.667    3.000    4.667    0.667 
#    6.000    4.167    0.000    0.000    0.000    0.000 
#    0.000    0.000    0.000    0.000    0.000    0.000 
#
# Total GULP energy -67055.143628 kJ/mol
# GULP energy per Si atom -5587.928636 kJ/mol
# Density = 2.698350 g / cm^3
# Si number density = 27.045058 Si / 1000 Ang^3
#
#
#
# Elastic Constant Matrix: (Units=GPa)
#
#
# Indices 1 2 3 4 5 6 
#
# 1 84.8658 73.3482 -3.0943 -4.7248 -1.5473 17.8648
# 2 73.3482 202.6248 24.2055 -21.9004 17.6797 10.2708
# 3 -3.0943 24.2055 58.0311 -16.5985 -3.1849 4.2636
# 4 -4.7248 -21.9004 -16.5985 32.8817 -8.0597 17.0329
# 5 -1.5473 17.6797 -3.1849 -8.0597 27.1722 0.5393
# 6 17.8648 10.2708 4.2636 17.0329 0.5393 38.2819
#
#
#
# Elastic Compliance Matrix: (Units=1/GPa)
#
#
# Indices 1 2 3 4 5 6 
#
# 1 0.024883 -0.008955 0.011779 0.016230 0.013794 -0.017937
# 2 -0.008955 0.009184 -0.005282 -0.001205 -0.007521 0.002945
# 3 0.011779 -0.005282 0.030456 0.028011 0.016386 -0.020166
# 4 0.016230 -0.001205 0.028011 0.076206 0.028483 -0.044678
# 5 0.013794 -0.007521 0.016386 0.028483 0.053241 -0.019667
# 6 -0.017937 0.002945 -0.020166 -0.044678 -0.019667 0.056104
#
#
# Mechanical properties :
#
#
# Convention : Reuss Voigt Hill
#
# Bulk Modulus (GPa) = 16.77626 59.38228 38.07927
# Shear Modulus (GPa) = 18.19102 36.40464 27.29783
#
# Velocity S-wave (km/s) = 2.59630 3.67287 3.18047
# Velocity P-wave (km/s) = 3.89926 6.32385 5.25335
#
# Compressibility (1/GPa) = 0.05960804
#
# Stress axis : x y z
#
# Youngs Moduli (GPa) = 40.18774 108.87921 32.83385
#
# Poissons Ratio (x) = 0.97499 -0.38675
# Poissons Ratio (y) = 0.35987 0.17344
# Poissons Ratio (z) = -0.47338 0.57513
#
# Static dielectric constant tensor:
#      x y z
#    x 2.236630 0.013510 -0.022370 
#    y 0.013510 2.133150 -0.031710 
#    z -0.022370 -0.031710 1.992790 
# 
# From -- ./inp_files/149858.got.cif
#   From: 2010.05.17/outbox.cif.g08.bks.cpg/sg2_75_cif.got.tgz:149858.got - 2010.06.03 11:33:40.
