data_PCOD9029660
_publ_section_title
;
Structure prediction by ZEFSAII (Michael W. Deem and Ramdas Pophale) SiO2 
 PCOD9029660
Probable space group: P -1
;
_chemical_formula_sum "Si O2"
_cell_formula_units_Z 13
_cell_length_a 11.694965
_cell_length_b 10.754628
_cell_length_c 11.790753
_cell_angle_alpha 120.475540
_cell_angle_beta 23.950319
_cell_angle_gamma 115.453977
_cell_volume 516.423293
_symmetry_space_group_name_H-M "P -1"
_symmetry_group_IT_number 2
_symmetry_cell_setting 'triclinic'
loop_
_space_group_symop_operation_xyz
x,y,z
-x,-y,-z
loop_
_atom_site_type_symbol
_atom_site_label
_atom_site_fract_x
_atom_site_fract_y
_atom_site_fract_z
Si Si1 0.237180 0.761509 0.854840
Si Si2 0.684077 0.939782 0.978037
Si Si3 0.000000 0.500000 0.500000
Si Si4 0.108830 0.597432 0.107271
Si Si5 0.340141 0.283348 0.270220
Si Si6 0.319109 0.269894 0.759415
Si Si7 0.731947 0.208817 0.560874
O O1 0.158346 0.632128 0.947318
O O2 0.479452 0.715996 0.524533
O O3 0.947636 0.812637 0.073645
O O4 0.325518 0.890651 0.913601
O O5 0.712093 0.877465 0.796612
O O6 0.954526 0.869719 0.771911
O O7 0.413769 0.872211 0.243430
O O8 0.824460 0.614296 0.626775
O O9 0.773235 0.376384 0.622888
O O10 0.336976 0.683710 0.006127
O O11 0.179309 0.429320 0.996174
O O12 0.803517 0.661791 0.456529
O O13 0.522353 0.201597 0.641290
#
# Coordination Sequence:
#
# PCOD9029660 Si02
#       7
#     2   2   1   2   2   2   2
#     4  12  27  46  68  92 150 181 231 265 330 407
#     4  11  26  45  65 107 135 186 214 280 339 417
#     4  10  22  42  68 102 134 166 208 298 332 396
#     4  12  25  44  69 104 129 182 227 286 328 398
#     4  11  24  40  71 100 136 167 227 280 351 387
#     4  12  25  44  71 101 131 187 224 288 325 398
#     4  11  24  42  72 101 139 168 233 275 350 393
#
# _framework density 25.173148000000001
#
# number of rings (size 3 to 8) (size 9 to 14) (size 15 to 20)
#    0.000    0.615    1.538    6.462    4.308    8.000 
#    0.000    0.000    0.000    0.000    0.000    0.000 
#    0.000    0.000    0.000    0.000    0.000    0.000 
#
# Total GULP energy -72622.536394 kJ/mol
# GULP energy per Si atom -5586.348953 kJ/mol
# Density = 2.511585 g / cm^3
# Si number density = 25.173148 Si / 1000 Ang^3
#
#
#
# Elastic Constant Matrix: (Units=GPa)
#
#
# Indices 1 2 3 4 5 6 
#
# 1 51.9578 -6.2467 -17.3488 -0.8595 -16.8419 6.1944
# 2 -6.2467 96.8321 38.8540 2.0921 13.4654 23.8829
# 3 -17.3488 38.8540 24.7246 -26.6160 -15.8634 -13.0114
# 4 -0.8595 2.0921 -26.6160 19.8472 4.9911 -16.5278
# 5 -16.8419 13.4654 -15.8634 4.9911 32.8725 -6.5855
# 6 6.1944 23.8829 -13.0114 -16.5278 -6.5855 34.4382
#
#
#
# Elastic Compliance Matrix: (Units=1/GPa)
#
#
# Indices 1 2 3 4 5 6 
#
# 1 0.023695 0.003399 -0.000857 -0.011967 0.009992 -0.010775
# 2 0.003399 0.006458 0.007063 0.011307 0.001445 0.003281
# 3 -0.000857 0.007063 -0.004399 -0.019107 -0.005900 -0.016704
# 4 -0.011967 0.011307 -0.019107 0.024315 -0.024876 -0.005996
# 5 0.009992 0.001445 -0.005900 -0.024876 0.033773 -0.010509
# 6 -0.010775 0.003281 -0.016704 -0.005996 -0.010509 0.017502
#
#
# Mechanical properties :
#
#
# Convention : Reuss Voigt Hill
#
# Bulk Modulus (GPa) = 22.23999 22.67016 22.45508
# Shear Modulus (GPa) = 51.48198 27.98198 39.73198
#
# Velocity S-wave (km/s) = 4.52720 3.33765 3.97715
# Velocity P-wave (km/s) = 6.01510 4.88656 5.47996
#
# Compressibility (1/GPa) = 0.04496405
#
# Stress axis : x y z
#
# Youngs Moduli (GPa) = 42.20369 154.84921 -227.34993
#
# Poissons Ratio (x) = -0.52632 -0.19475
# Poissons Ratio (y) = -0.14345 1.60572
# Poissons Ratio (z) = 0.03615 -1.09366
#
# Static dielectric constant tensor:
#      x y z
#    x 2.033950 0.005170 0.041850 
#    y 0.005170 1.921520 0.006170 
#    z 0.041850 0.006170 1.925520 
# 
# From -- ./inp_files/64343.got.cif
#   From: 2010.05.17/outbox.cif.g08.bks.cpg/sg2_33_cif.got.tgz:64343.got - 2010.06.03 11:33:40.
