data_PCOD9029905
_publ_section_title
;
Structure prediction by ZEFSAII (Michael W. Deem and Ramdas Pophale) SiO2 
 PCOD9029905
Probable space group: P -1
;
_chemical_formula_sum "Si O2"
_cell_formula_units_Z 16
_cell_length_a 5.252760
_cell_length_b 10.072595
_cell_length_c 16.975985
_cell_angle_alpha 61.045691
_cell_angle_beta 98.120177
_cell_angle_gamma 116.316127
_cell_volume 701.374154
_symmetry_space_group_name_H-M "P -1"
_symmetry_group_IT_number 2
_symmetry_cell_setting 'triclinic'
loop_
_space_group_symop_operation_xyz
x,y,z
-x,-y,-z
loop_
_atom_site_type_symbol
_atom_site_label
_atom_site_fract_x
_atom_site_fract_y
_atom_site_fract_z
Si Si1 0.231246 0.393455 0.805295
Si Si2 0.417574 0.750717 0.243365
Si Si3 0.310199 0.040375 0.417214
Si Si4 0.922014 0.760467 0.579812
Si Si5 0.681236 0.230525 0.264617
Si Si6 0.738023 0.452160 0.561849
Si Si7 0.639436 0.686365 0.992465
Si Si8 0.768180 0.147093 0.118961
O O1 0.425270 0.353641 0.761226
O O2 0.316147 0.589566 0.771730
O O3 0.902459 0.309658 0.786901
O O4 0.274894 0.322322 0.911340
O O5 0.396403 0.721961 0.346100
O O6 0.600697 0.946019 0.174238
O O7 0.341351 0.217418 0.402668
O O8 0.377355 0.076531 0.318512
O O9 0.500000 0.000000 0.500000
O O10 0.013812 0.885422 0.472190
O O11 0.872732 0.581359 0.601539
O O12 0.131125 0.803257 0.650578
O O13 0.795137 0.218356 0.188278
O O14 0.500000 0.500000 0.500000
O O15 0.000000 0.500000 0.500000
O O16 0.419082 0.770049 0.955331
O O17 0.925539 0.794347 0.924710
O O18 0.500000 0.500000 0.000000
#
# Coordination Sequence:
#
# PCOD9029905 Si02
#       8
#     2   2   2   2   2   2   2   2
#     4  12  26  48  80 100 148 199 242 302 366 453
#     4  12  28  50  73 112 149 196 248 292 373 445
#     4   9  21  38  65  99 133 177 242 306 342 416
#     4  10  22  42  68  98 138 193 250 290 360 426
#     4  11  24  41  75 101 142 191 247 297 360 432
#     4  12  28  44  71 101 150 194 240 295 360 425
#     4  12  27  49  78 115 145 184 248 309 377 428
#     4  12  29  47  76 114 150 186 242 316 367 435
#
# _framework density 22.812360999999999
#
# number of rings (size 3 to 8) (size 9 to 14) (size 15 to 20)
#    0.000    0.750    2.500    3.375    8.750    5.000 
#    0.000    0.000    0.000    0.000    0.000    0.000 
#    0.000    0.000    0.000    0.000    0.000    0.000 
#
# Total GULP energy -89346.329192 kJ/mol
# GULP energy per Si atom -5584.145574 kJ/mol
# Density = 2.276044 g / cm^3
# Si number density = 22.812361 Si / 1000 Ang^3
#
#
#
# Elastic Constant Matrix: (Units=GPa)
#
#
# Indices 1 2 3 4 5 6 
#
# 1 92.2148 16.8353 21.3632 7.1478 -6.2647 -1.6591
# 2 16.8353 70.8915 18.8019 -10.9737 -2.4914 -10.8874
# 3 21.3632 18.8019 119.5260 -4.0875 -6.3259 14.9401
# 4 7.1478 -10.9737 -4.0875 24.9761 0.1735 0.9347
# 5 -6.2647 -2.4914 -6.3259 0.1735 45.1753 -1.0830
# 6 -1.6591 -10.8874 14.9401 0.9347 -1.0830 36.6745
#
#
#
# Elastic Compliance Matrix: (Units=1/GPa)
#
#
# Indices 1 2 3 4 5 6 
#
# 1 0.012358 -0.003106 -0.001903 -0.005244 0.001310 0.000585
# 2 -0.003106 0.017736 -0.002699 0.008012 0.000283 0.006028
# 3 -0.001903 -0.002699 0.009827 0.001144 0.000841 -0.004895
# 4 -0.005244 0.008012 0.001144 0.045229 -0.000286 0.000514
# 5 0.001310 0.000283 0.000841 -0.000286 0.022464 0.000471
# 6 0.000585 0.006028 -0.004895 0.000514 0.000471 0.031078
#
#
# Mechanical properties :
#
#
# Convention : Reuss Voigt Hill
#
# Bulk Modulus (GPa) = 40.81064 44.07035 42.44049
# Shear Modulus (GPa) = 30.81174 36.40730 33.60952
#
# Velocity S-wave (km/s) = 3.67912 3.99926 3.84253
# Velocity P-wave (km/s) = 5.99804 6.37856 6.19122
#
# Compressibility (1/GPa) = 0.02450342
#
# Stress axis : x y z
#
# Youngs Moduli (GPa) = 80.91791 56.38393 101.76393
#
# Poissons Ratio (x) = 0.17512 0.19369
# Poissons Ratio (y) = 0.25132 0.27469
# Poissons Ratio (z) = 0.15401 0.15220
#
# Static dielectric constant tensor:
#      x y z
#    x 1.988970 0.031340 -0.048090 
#    y 0.031340 1.906310 -0.047850 
#    z -0.048090 -0.047850 1.936430 
# 
# From -- ./inp_files/482094.got.cif
#   From: 2010.05.17/outbox.cif.g08.bks.cpg/sg2_242_cif.got.tgz:482094.got - 2010.06.03 11:33:40.
