data_PCOD9029897
_publ_section_title
;
Structure prediction by ZEFSAII (Michael W. Deem and Ramdas Pophale) SiO2 
 PCOD9029897
Probable space group: P -1
;
_chemical_formula_sum "Si O2"
_cell_formula_units_Z 16
_cell_length_a 20.037542
_cell_length_b 9.094231
_cell_length_c 14.380845
_cell_angle_alpha 130.125078
_cell_angle_beta 20.379683
_cell_angle_gamma 129.762955
_cell_volume 691.570997
_symmetry_space_group_name_H-M "P -1"
_symmetry_group_IT_number 2
_symmetry_cell_setting 'triclinic'
loop_
_space_group_symop_operation_xyz
x,y,z
-x,-y,-z
loop_
_atom_site_type_symbol
_atom_site_label
_atom_site_fract_x
_atom_site_fract_y
_atom_site_fract_z
Si Si1 0.299423 0.887495 0.249660
Si Si2 0.782346 0.408776 0.276732
Si Si3 0.050060 0.941069 0.306518
Si Si4 0.979000 0.218426 0.094823
Si Si5 0.663767 0.704309 0.983422
Si Si6 0.249843 0.580968 0.874614
Si Si7 0.592532 0.459744 0.146952
Si Si8 0.260020 0.643001 0.379604
O O1 0.303051 0.818579 0.322347
O O2 0.293647 0.694229 0.116713
O O3 0.124375 0.006383 0.507327
O O4 0.500000 0.000000 0.000000
O O5 0.820775 0.245097 0.233239
O O6 0.640975 0.550838 0.562976
O O7 0.677301 0.339154 0.288917
O O8 0.000000 0.500000 0.000000
O O9 0.084951 0.718490 0.166438
O O10 0.239997 0.081372 0.081168
O O11 0.000000 0.000000 0.500000
O O12 0.917281 0.321790 0.310787
O O13 0.172781 0.354116 0.866845
O O14 0.000000 0.000000 0.000000
O O15 0.771562 0.553443 0.719802
O O16 0.666088 0.654265 0.069890
O O17 0.446468 0.652730 0.206790
O O18 0.373124 0.579762 0.805893
#
# Coordination Sequence:
#
# PCOD9029897 Si02
#       8
#     2   2   2   2   2   2   2   2
#     4  11  26  38  70 104 138 178 222 278 341 414
#     4  10  24  46  69  95 131 182 228 281 331 398
#     4  12  24  44  67 105 140 174 221 278 349 406
#     4  11  25  45  69  97 131 182 231 278 334 405
#     4  10  23  42  71  99 137 176 220 279 347 403
#     4  11  26  43  70  98 137 177 225 281 338 400
#     4  11  23  46  66 103 136 177 225 280 337 407
#     4  10  22  42  68  98 135 178 223 277 335 409
#
# _framework density 23.135731
#
# number of rings (size 3 to 8) (size 9 to 14) (size 15 to 20)
#    0.000    1.250    2.500    1.875    7.000    2.000 
#    2.250    1.250    0.000    0.000    0.000    0.000 
#    0.000    0.000    0.000    0.000    0.000    0.000 
#
# Total GULP energy -89309.114327 kJ/mol
# GULP energy per Si atom -5581.819645 kJ/mol
# Density = 2.308307 g / cm^3
# Si number density = 23.135731 Si / 1000 Ang^3
#
#
#
# Elastic Constant Matrix: (Units=GPa)
#
#
# Indices 1 2 3 4 5 6 
#
# 1 138.5958 21.1278 14.8246 11.1162 0.7812 -39.7610
# 2 21.1278 101.7251 15.8324 13.3088 -8.9120 -22.1918
# 3 14.8246 15.8324 76.2268 21.6438 -7.0254 -10.2264
# 4 11.1162 13.3088 21.6438 37.8913 -12.8027 -4.2689
# 5 0.7812 -8.9120 -7.0254 -12.8027 34.6118 1.0614
# 6 -39.7610 -22.1918 -10.2264 -4.2689 1.0614 30.4574
#
#
#
# Elastic Compliance Matrix: (Units=1/GPa)
#
#
# Indices 1 2 3 4 5 6 
#
# 1 0.011853 0.001253 0.000240 -0.002707 -0.001392 0.016136
# 2 0.001253 0.012341 -0.000544 -0.002675 0.001742 0.010010
# 3 0.000240 -0.000544 0.016202 -0.008741 -0.000217 0.004139
# 4 -0.002707 -0.002675 -0.008741 0.036489 0.011208 -0.003694
# 5 -0.001392 0.001742 -0.000217 0.011208 0.033481 -0.000217
# 6 0.016136 0.010010 0.004139 -0.003694 -0.000217 0.062070
#
#
# Mechanical properties :
#
#
# Convention : Reuss Voigt Hill
#
# Bulk Modulus (GPa) = 23.64404 46.67970 35.16187
# Shear Modulus (GPa) = 27.08028 38.24295 32.66161
#
# Velocity S-wave (km/s) = 3.42496 4.07010 3.76139
# Velocity P-wave (km/s) = 5.08747 6.50445 5.83910
#
# Compressibility (1/GPa) = 0.04229395
#
# Stress axis : x y z
#
# Youngs Moduli (GPa) = 84.36925 81.03011 61.71941
#
# Poissons Ratio (x) = -0.10155 -0.01479
# Poissons Ratio (y) = -0.10574 0.03357
# Poissons Ratio (z) = -0.02021 0.04408
#
# Static dielectric constant tensor:
#      x y z
#    x 1.862790 -0.254390 -0.193980 
#    y -0.254390 0.813870 -0.851340 
#    z -0.193980 -0.851340 1.281540 
# 
# From -- ./inp_files/356627.got.cif
#   From: 2010.05.17/outbox.cif.g08.bks.cpg/sg2_179_cif.got.tgz:356627.got - 2010.06.03 11:33:40.
