data_PCOD9029165
_publ_section_title
;
Structure prediction by ZEFSAII (Michael W. Deem and Ramdas Pophale) SiO2 
 PCOD9029165
Probable space group: P -1
;
_chemical_formula_sum "Si O2"
_cell_formula_units_Z 16
_cell_length_a 14.876411
_cell_length_b 8.788515
_cell_length_c 11.633080
_cell_angle_alpha 108.873199
_cell_angle_beta 114.519785
_cell_angle_gamma 127.663320
_cell_volume 655.473216
_symmetry_space_group_name_H-M "P -1"
_symmetry_group_IT_number 2
_symmetry_cell_setting 'triclinic'
loop_
_space_group_symop_operation_xyz
x,y,z
-x,-y,-z
loop_
_atom_site_type_symbol
_atom_site_label
_atom_site_fract_x
_atom_site_fract_y
_atom_site_fract_z
Si Si1 0.941029 0.590094 0.039880
Si Si2 0.603292 0.820981 0.209167
Si Si3 0.986490 0.808808 0.504983
Si Si4 0.120838 0.512952 0.416877
Si Si5 0.512094 0.397228 0.165823
Si Si6 0.799108 0.302247 0.143321
Si Si7 0.328059 0.350708 0.439406
Si Si8 0.164347 0.369241 0.198260
O O1 0.881364 0.482882 0.112478
O O2 0.780861 0.466434 0.851112
O O3 0.133835 0.971092 0.226650
O O4 0.000000 0.500000 0.000000
O O5 0.466323 0.523995 0.150733
O O6 0.680539 0.105428 0.357946
O O7 0.499125 0.674780 0.993353
O O8 0.803334 0.988017 0.354071
O O9 0.934584 0.715164 0.587821
O O10 0.796892 0.453583 0.260147
O O11 0.000000 0.000000 0.500000
O O12 0.090397 0.413856 0.246753
O O13 0.949635 0.401464 0.318127
O O14 0.655659 0.611097 0.404580
O O15 0.373867 0.063192 0.061752
O O16 0.500000 0.500000 0.500000
O O17 0.316323 0.500240 0.398098
O O18 0.000000 0.000000 0.000000
#
# Coordination Sequence:
#
# PCOD9029165 Si02
#       8
#     2   2   2   2   2   2   2   2
#     4  11  22  43  72  97 126 178 233 275 329 399
#     4  10  22  42  66  94 132 180 220 272 335 401
#     4  11  23  37  65 100 130 174 231 274 319 397
#     4  11  20  42  70  92 132 171 235 266 324 405
#     4  11  22  41  66  94 134 175 221 271 345 392
#     4  11  21  42  67  95 131 180 228 267 329 407
#     4  11  25  44  67  97 138 174 217 284 347 396
#     4  10  25  41  68 100 128 176 229 276 330 406
#
# _framework density 24.409846999999999
#
# number of rings (size 3 to 8) (size 9 to 14) (size 15 to 20)
#    0.000    1.250    3.750    3.000    7.000    0.000 
#    0.000    6.250    0.000    0.000    0.000    0.000 
#    0.000    0.000    0.000    0.000    0.000    0.000 
#
# Total GULP energy -89151.587358 kJ/mol
# GULP energy per Si atom -5571.974210 kJ/mol
# Density = 2.435429 g / cm^3
# Si number density = 24.409847 Si / 1000 Ang^3
#
#
#
# Elastic Constant Matrix: (Units=GPa)
#
#
# Indices 1 2 3 4 5 6 
#
# 1 33.0663 19.0362 22.1966 -8.8825 2.9820 -16.7109
# 2 19.0362 161.7443 33.4179 -24.0337 8.9787 -22.0745
# 3 22.1966 33.4179 100.0371 -10.9373 -27.4639 -16.0330
# 4 -8.8825 -24.0337 -10.9373 61.6735 -15.5022 -5.5136
# 5 2.9820 8.9787 -27.4639 -15.5022 25.8981 0.5524
# 6 -16.7109 -22.0745 -16.0330 -5.5136 0.5524 33.1894
#
#
#
# Elastic Compliance Matrix: (Units=1/GPa)
#
#
# Indices 1 2 3 4 5 6 
#
# 1 0.051819 0.001032 -0.013736 0.002272 -0.019975 0.020851
# 2 0.001032 0.007972 -0.003656 0.001504 -0.005953 0.004404
# 3 -0.013736 -0.003656 0.026577 0.011192 0.037632 0.004724
# 4 0.002272 0.001504 0.011192 0.026923 0.026954 0.011575
# 5 -0.019975 -0.005953 0.037632 0.026954 0.098869 0.006994
# 6 0.020851 0.004404 0.004724 0.011575 0.006994 0.047647
#
#
# Mechanical properties :
#
#
# Convention : Reuss Voigt Hill
#
# Bulk Modulus (GPa) = 18.64029 49.34989 33.99509
# Shear Modulus (GPa) = 16.10778 38.83199 27.46989
#
# Velocity S-wave (km/s) = 2.57162 3.99285 3.35828
# Velocity P-wave (km/s) = 4.05840 6.44347 5.38465
#
# Compressibility (1/GPa) = 0.05364724
#
# Stress axis : x y z
#
# Youngs Moduli (GPa) = 19.29808 125.44612 37.62583
#
# Poissons Ratio (x) = -0.12940 0.51683
# Poissons Ratio (y) = -0.01991 0.13755
# Poissons Ratio (z) = 0.26508 0.45860
#
# Static dielectric constant tensor:
#      x y z
#    x 2.251760 -0.057290 0.078840 
#    y -0.057290 2.027040 0.042740 
#    z 0.078840 0.042740 2.004790 
# 
# From -- ./inp_files/462232.got.cif
#   From: 2010.05.17/outbox.cif.g08.bks.cpg/sg2_232_cif.got.tgz:462232.got - 2010.06.03 11:33:40.
