data_PCOD9029088
_publ_section_title
;
Structure prediction by ZEFSAII (Michael W. Deem and Ramdas Pophale) SiO2 
 PCOD9029088
Probable space group: P -1
;
_chemical_formula_sum "Si O2"
_cell_formula_units_Z 15
_cell_length_a 13.888600
_cell_length_b 9.939507
_cell_length_c 23.788249
_cell_angle_alpha 149.349312
_cell_angle_beta 25.065148
_cell_angle_gamma 133.846719
_cell_volume 649.810924
_symmetry_space_group_name_H-M "P -1"
_symmetry_group_IT_number 2
_symmetry_cell_setting 'triclinic'
loop_
_space_group_symop_operation_xyz
x,y,z
-x,-y,-z
loop_
_atom_site_type_symbol
_atom_site_label
_atom_site_fract_x
_atom_site_fract_y
_atom_site_fract_z
Si Si1 0.293129 0.064680 0.583813
Si Si2 0.769501 0.449981 0.631497
Si Si3 0.128791 0.955771 0.048535
Si Si4 0.498840 0.083188 0.257501
Si Si5 0.245060 0.596057 0.960591
Si Si6 0.395761 0.932738 0.675068
Si Si7 0.923169 0.447382 0.671484
Si Si8 0.500000 0.500000 0.000000
O O1 0.011999 0.237304 0.812380
O O2 0.500000 0.000000 0.500000
O O3 0.280464 0.770214 0.462667
O O4 0.379468 0.210464 0.538914
O O5 0.853739 0.344332 0.612086
O O6 0.000000 0.500000 0.500000
O O7 0.483351 0.678475 0.873460
O O8 0.153355 0.206774 0.164256
O O9 0.172836 0.678811 0.963738
O O10 0.322324 0.858966 0.860885
O O11 0.850937 0.102780 0.225207
O O12 0.545057 0.136164 0.316400
O O13 0.552879 0.750044 0.097203
O O14 0.214525 0.277075 0.463591
O O15 0.327338 0.271139 0.821317
O O16 0.764548 0.408046 0.792458
#
# Coordination Sequence:
#
# PCOD9029088 Si02
#       8
#     2   2   2   2   2   2   2   1
#     4  11  24  41  68  99 134 179 229 280 345 410
#     4  11  25  41  65 101 136 179 229 276 349 408
#     4  11  24  42  68  98 139 178 230 280 354 402
#     4  11  25  44  70  98 138 178 228 288 342 413
#     4  11  24  44  72  98 141 183 227 293 340 411
#     4  11  25  43  69 104 133 184 233 281 346 414
#     4  11  25  43  66  99 139 179 225 287 339 416
#     4  10  22  42  66  90 128 172 224 268 344 396
#
# _framework density 23.083639999999999
#
# number of rings (size 3 to 8) (size 9 to 14) (size 15 to 20)
#    0.000    1.067    1.333    4.400    1.867   11.200 
#    0.000    0.000    0.000    0.000    0.000    0.000 
#    0.000    0.000    0.000    0.000    0.000    0.000 
#
# Total GULP energy -83553.730086 kJ/mol
# GULP energy per Si atom -5570.248672 kJ/mol
# Density = 2.303110 g / cm^3
# Si number density = 23.083640 Si / 1000 Ang^3
#
#
#
# Elastic Constant Matrix: (Units=GPa)
#
#
# Indices 1 2 3 4 5 6 
#
# 1 129.1730 25.3475 46.1917 -12.6749 -9.1706 -3.3804
# 2 25.3475 58.4417 51.0274 -36.8199 6.5467 -0.7792
# 3 46.1917 51.0274 134.0515 -66.2339 -6.3950 -4.8655
# 4 -12.6749 -36.8199 -66.2339 61.0675 -0.7822 6.1249
# 5 -9.1706 6.5467 -6.3950 -0.7822 35.2826 -5.9940
# 6 -3.3804 -0.7792 -4.8655 6.1249 -5.9940 33.9806
#
#
#
# Elastic Compliance Matrix: (Units=1/GPa)
#
#
# Indices 1 2 3 4 5 6 
#
# 1 0.009754 -0.004108 -0.004084 -0.005015 0.002731 0.001677
# 2 -0.004108 0.032750 -0.004550 0.014289 -0.008394 -0.004365
# 3 -0.004084 -0.004550 0.019447 0.017573 0.003655 -0.000249
# 4 -0.005015 0.014289 0.017573 0.043566 -0.000762 -0.005642
# 5 0.002731 -0.008394 0.003655 -0.000762 0.032351 0.006446
# 6 0.001677 -0.004365 -0.000249 -0.005642 0.006446 0.031614
#
#
# Mechanical properties :
#
#
# Convention : Reuss Voigt Hill
#
# Bulk Modulus (GPa) = 27.42124 62.97772 45.19948
# Shear Modulus (GPa) = 24.14061 39.33945 31.74003
#
# Velocity S-wave (km/s) = 3.23737 4.13269 3.71212
# Velocity P-wave (km/s) = 5.08714 7.07911 6.16412
#
# Compressibility (1/GPa) = 0.03646808
#
# Stress axis : x y z
#
# Youngs Moduli (GPa) = 102.52495 30.53454 51.42133
#
# Poissons Ratio (x) = 0.12542 0.21001
# Poissons Ratio (y) = 0.42113 0.23394
# Poissons Ratio (z) = 0.41873 0.13892
#
# Static dielectric constant tensor:
#      x y z
#    x 1.876220 0.033490 0.043490 
#    y 0.033490 1.917750 0.014300 
#    z 0.043490 0.014300 1.923340 
# 
# From -- ./inp_files/283423.got.cif
#   From: 2010.05.17/outbox.cif.g08.bks.cpg/sg2_142_cif.got.tgz:283423.got - 2010.06.03 11:33:40.
