data_PCOD9029388
_publ_section_title
;
Structure prediction by ZEFSAII (Michael W. Deem and Ramdas Pophale) SiO2 
 PCOD9029388
Probable space group: P -1
;
_chemical_formula_sum "Si O2"
_cell_formula_units_Z 16
_cell_length_a 9.675224
_cell_length_b 9.080471
_cell_length_c 12.267608
_cell_angle_alpha 110.985043
_cell_angle_beta 74.305753
_cell_angle_gamma 133.510299
_cell_volume 729.358497
_symmetry_space_group_name_H-M "P -1"
_symmetry_group_IT_number 2
_symmetry_cell_setting 'triclinic'
loop_
_space_group_symop_operation_xyz
x,y,z
-x,-y,-z
loop_
_atom_site_type_symbol
_atom_site_label
_atom_site_fract_x
_atom_site_fract_y
_atom_site_fract_z
Si Si1 0.564162 0.152949 0.922589
Si Si2 0.148467 0.345441 0.990600
Si Si3 0.828056 0.077101 0.834104
Si Si4 0.058039 0.877725 0.407104
Si Si5 0.573873 0.878109 0.466616
Si Si6 0.773060 0.681201 0.795267
Si Si7 0.370111 0.216300 0.802688
Si Si8 0.147047 0.459740 0.467799
O O1 0.688235 0.108734 0.825283
O O2 0.410098 0.115169 0.861967
O O3 0.700547 0.401668 0.986904
O O4 0.500000 0.000000 0.000000
O O5 0.228667 0.245895 0.887932
O O6 0.949131 0.239619 0.948516
O O7 0.117684 0.278859 0.105733
O O8 0.962801 0.137555 0.720467
O O9 0.745789 0.848913 0.828661
O O10 0.917796 0.655552 0.434478
O O11 0.272472 0.011529 0.441170
O O12 0.000000 0.000000 0.500000
O O13 0.668669 0.887179 0.335148
O O14 0.375015 0.647377 0.472143
O O15 0.500000 0.000000 0.500000
O O16 0.569703 0.452318 0.800842
O O17 0.872277 0.671726 0.667118
O O18 0.000000 0.500000 0.500000
#
# Coordination Sequence:
#
# PCOD9029388 Si02
#       8
#     2   2   2   2   2   2   2   2
#     4  11  23  42  63  95 132 165 213 272 328 382
#     4  11  23  42  66  95 126 174 216 261 329 398
#     4  12  24  42  63  97 134 164 211 278 331 382
#     4  12  25  45  65 101 140 168 222 281 335 388
#     4  11  23  44  70  99 129 181 229 266 331 399
#     4  10  22  42  67  92 128 173 219 265 323 405
#     4  10  22  42  68  91 126 171 224 264 320 405
#     4  11  24  44  71  99 131 179 226 273 329 400
#
# _framework density 21.937083999999999
#
# number of rings (size 3 to 8) (size 9 to 14) (size 15 to 20)
#    0.000    1.000    2.500    5.250    3.500    0.500 
#    6.750    0.000    0.000    0.000    0.000    0.000 
#    0.000    0.000    0.000    0.000    0.000    0.000 
#
# Total GULP energy -89334.609088 kJ/mol
# GULP energy per Si atom -5583.413068 kJ/mol
# Density = 2.188715 g / cm^3
# Si number density = 21.937084 Si / 1000 Ang^3
#
#
#
# Elastic Constant Matrix: (Units=GPa)
#
#
# Indices 1 2 3 4 5 6 
#
# 1 97.7280 20.6214 12.0346 3.7194 2.1904 -10.0850
# 2 20.6214 88.2065 28.8963 -14.7796 11.6901 -11.9944
# 3 12.0346 28.8963 102.3070 1.9754 11.1420 -1.1951
# 4 3.7194 -14.7796 1.9754 30.7367 -6.1739 2.1741
# 5 2.1904 11.6901 11.1420 -6.1739 35.2705 1.6613
# 6 -10.0850 -11.9944 -1.1951 2.1741 1.6613 40.0752
#
#
#
# Elastic Compliance Matrix: (Units=1/GPa)
#
#
# Indices 1 2 3 4 5 6 
#
# 1 0.011174 -0.002589 -0.000474 -0.002776 -0.000275 0.002185
# 2 -0.002589 0.015198 -0.003801 0.007095 -0.002599 0.003507
# 3 -0.000474 -0.003801 0.011255 -0.003003 -0.002762 -0.000644
# 4 -0.002776 0.007095 -0.003003 0.037625 0.005399 -0.000930
# 5 -0.000275 -0.002599 -0.002762 0.005399 0.031167 -0.002514
# 6 0.002185 0.003507 -0.000644 -0.000930 -0.002514 0.026688
#
#
# Mechanical properties :
#
#
# Convention : Reuss Voigt Hill
#
# Bulk Modulus (GPa) = 41.84226 45.70513 43.77369
# Shear Modulus (GPa) = 32.29951 36.32909 34.31430
#
# Velocity S-wave (km/s) = 3.84131 4.07388 3.95931
# Velocity P-wave (km/s) = 6.22811 6.55809 6.39523
#
# Compressibility (1/GPa) = 0.02389929
#
# Stress axis : x y z
#
# Youngs Moduli (GPa) = 89.49000 65.80014 88.84882
#
# Poissons Ratio (x) = 0.17033 0.04213
# Poissons Ratio (y) = 0.23166 0.33771
# Poissons Ratio (z) = 0.04244 0.25011
#
# Static dielectric constant tensor:
#      x y z
#    x 1.832370 0.011720 -0.077070 
#    y 0.011720 1.623170 0.066750 
#    z -0.077070 0.066750 1.792320 
# 
# From -- ./inp_files/348836.got.cif
#   From: 2010.05.17/outbox.cif.g08.bks.cpg/sg2_175_cif.got.tgz:348836.got - 2010.06.03 11:33:40.
