data_PCOD9029852
_publ_section_title
;
Structure prediction by ZEFSAII (Michael W. Deem and Ramdas Pophale) SiO2 
 PCOD9029852
Probable space group: P -1
;
_chemical_formula_sum "Si O2"
_cell_formula_units_Z 16
_cell_length_a 14.300386
_cell_length_b 9.539441
_cell_length_c 8.209173
_cell_angle_alpha 42.071974
_cell_angle_beta 69.704717
_cell_angle_gamma 74.276458
_cell_volume 703.639508
_symmetry_space_group_name_H-M "P -1"
_symmetry_group_IT_number 2
_symmetry_cell_setting 'triclinic'
loop_
_space_group_symop_operation_xyz
x,y,z
-x,-y,-z
loop_
_atom_site_type_symbol
_atom_site_label
_atom_site_fract_x
_atom_site_fract_y
_atom_site_fract_z
Si Si1 0.148562 0.865182 0.656569
Si Si2 0.847960 0.322294 0.532868
Si Si3 0.660750 0.861956 0.787688
Si Si4 0.286605 0.569739 0.996420
Si Si5 0.037113 0.141827 0.710095
Si Si6 0.663163 0.050499 0.976392
Si Si7 0.754066 0.692102 0.435027
Si Si8 0.535180 0.268180 0.119186
O O1 0.131393 0.741929 0.608059
O O2 0.241587 0.018170 0.434678
O O3 0.055718 0.997690 0.664746
O O4 0.184747 0.693435 0.915176
O O5 0.791457 0.542756 0.395610
O O6 0.951829 0.312481 0.574661
O O7 0.771024 0.154978 0.797629
O O8 0.689756 0.613056 0.990359
O O9 0.634384 0.958238 0.897451
O O10 0.564836 0.863571 0.723795
O O11 0.286464 0.450139 0.272102
O O12 0.370202 0.746350 0.805032
O O13 0.145841 0.215151 0.630778
O O14 0.000000 0.000000 0.000000
O O15 0.678874 0.865519 0.258629
O O16 0.585776 0.219544 0.953927
O O17 0.500000 0.500000 0.000000
#
# Coordination Sequence:
#
# PCOD9029852 Si02
#       8
#     2   2   2   2   2   2   2   2
#     4  11  24  43  65  94 134 169 213 265 321 376
#     4  11  24  42  65  96 131 169 213 266 318 381
#     4  10  23  42  65  95 130 173 207 265 322 372
#     4  11  22  42  64  94 131 166 218 262 313 383
#     4  12  23  43  67  95 127 170 219 263 316 385
#     4  11  22  43  66  93 134 166 215 261 321 383
#     4  12  23  42  68  94 128 171 210 268 320 372
#     4  10  22  42  68  97 128 167 219 262 313 384
#
# _framework density 22.738916
#
# number of rings (size 3 to 8) (size 9 to 14) (size 15 to 20)
#    0.000    1.000    3.750    3.375    0.000    0.500 
#    4.500    1.875    0.000    0.000    0.000    0.000 
#    0.000    0.000    0.000    0.000    0.000    0.000 
#
# Total GULP energy -89331.707813 kJ/mol
# GULP energy per Si atom -5583.231738 kJ/mol
# Density = 2.268716 g / cm^3
# Si number density = 22.738916 Si / 1000 Ang^3
#
#
#
# Elastic Constant Matrix: (Units=GPa)
#
#
# Indices 1 2 3 4 5 6 
#
# 1 69.3105 19.8736 12.9853 1.5155 -1.7417 8.8366
# 2 19.8736 177.9741 29.6794 0.3568 -10.9753 5.2180
# 3 12.9853 29.6794 63.2031 7.8167 1.9998 4.8280
# 4 1.5155 0.3568 7.8167 21.5450 -2.2565 -7.4005
# 5 -1.7417 -10.9753 1.9998 -2.2565 20.5466 -5.0206
# 6 8.8366 5.2180 4.8280 -7.4005 -5.0206 37.0854
#
#
#
# Elastic Compliance Matrix: (Units=1/GPa)
#
#
# Indices 1 2 3 4 5 6 
#
# 1 0.015691 -0.001300 -0.002135 -0.001574 -0.000214 -0.003621
# 2 -0.001300 0.006524 -0.003205 0.001820 0.004063 0.000722
# 3 -0.002135 -0.003205 0.019353 -0.008828 -0.005748 -0.004100
# 4 -0.001574 0.001820 -0.008828 0.055642 0.011203 0.013888
# 5 -0.000214 0.004063 -0.005748 0.011203 0.055034 0.009914
# 6 -0.003621 0.000722 -0.004100 0.013888 0.009914 0.032373
#
#
# Mechanical properties :
#
#
# Convention : Reuss Voigt Hill
#
# Bulk Modulus (GPa) = 35.35220 48.39605 41.87413
# Shear Modulus (GPa) = 24.11631 32.36537 28.24084
#
# Velocity S-wave (km/s) = 3.26018 3.77682 3.52797
# Velocity P-wave (km/s) = 5.45458 6.35206 5.92035
#
# Compressibility (1/GPa) = 0.02828678
#
# Stress axis : x y z
#
# Youngs Moduli (GPa) = 63.72953 153.27434 51.67186
#
# Poissons Ratio (x) = 0.19925 0.11034
# Poissons Ratio (y) = 0.08285 0.16563
# Poissons Ratio (z) = 0.13609 0.49132
#
# Static dielectric constant tensor:
#      x y z
#    x 1.866890 -0.000950 -0.043580 
#    y -0.000950 1.870750 -0.005730 
#    z -0.043580 -0.005730 1.852140 
# 
# From -- ./inp_files/83113.got.cif
#   From: 2010.05.17/outbox.cif.g08.bks.cpg/sg2_42_cif.got.tgz:83113.got - 2010.06.03 11:33:40.
