data_PCOD9029752
_publ_section_title
;
Structure prediction by ZEFSAII (Michael W. Deem and Ramdas Pophale) SiO2 
 PCOD9029752
Probable space group: P -1
;
_chemical_formula_sum "Si O2"
_cell_formula_units_Z 14
_cell_length_a 11.468832
_cell_length_b 8.476529
_cell_length_c 18.219244
_cell_angle_alpha 130.006357
_cell_angle_beta 149.721567
_cell_angle_gamma 38.056185
_cell_volume 546.562103
_symmetry_space_group_name_H-M "P -1"
_symmetry_group_IT_number 2
_symmetry_cell_setting 'triclinic'
loop_
_space_group_symop_operation_xyz
x,y,z
-x,-y,-z
loop_
_atom_site_type_symbol
_atom_site_label
_atom_site_fract_x
_atom_site_fract_y
_atom_site_fract_z
Si Si1 0.821097 0.031819 0.262041
Si Si2 0.266403 0.361626 0.694303
Si Si3 0.320297 0.762717 0.909903
Si Si4 0.536620 0.271459 0.499210
Si Si5 0.161731 0.077680 0.058555
Si Si6 0.643978 0.510700 0.376718
Si Si7 0.037138 0.517858 0.820880
O O1 0.884893 0.762015 0.233041
O O2 0.137611 0.973182 0.413094
O O3 0.678955 0.116084 0.130231
O O4 0.632156 0.271631 0.285643
O O5 0.192362 0.613361 0.770920
O O6 0.400679 0.356851 0.686927
O O7 0.971750 0.397568 0.539722
O O8 0.504108 0.109605 0.792514
O O9 0.656378 0.539449 0.046618
O O10 0.154451 0.990793 0.947036
O O11 0.500000 0.500000 0.500000
O O12 0.530946 0.322302 0.597909
O O13 0.259300 0.285883 0.327435
O O14 0.036491 0.364592 0.101467
O O15 0.000000 0.000000 0.000000
#
# Coordination Sequence:
#
# PCOD9029752 Si02
#       7
#     2   2   2   2   2   2   2
#     4  10  24  43  66  97 124 169 216 261 324 374
#     4  10  22  43  64  98 128 172 212 259 329 378
#     4  11  24  42  66  94 129 167 212 265 317 381
#     4  10  23  40  65  95 128 168 215 262 319 380
#     4  12  25  38  62  93 129 167 209 258 318 378
#     4  10  22  42  68  92 133 166 212 270 317 386
#     4  11  24  42  64  95 128 166 214 261 321 381
#
# _framework density 25.614657999999999
#
# number of rings (size 3 to 8) (size 9 to 14) (size 15 to 20)
#    0.000    1.429    1.429    2.571    4.000    5.143 
#    0.000    2.857    0.000    0.000    0.000    0.000 
#    0.000    0.000    0.000    0.000    0.000    0.000 
#
# Total GULP energy -78339.353201 kJ/mol
# GULP energy per Si atom -5595.668086 kJ/mol
# Density = 2.555636 g / cm^3
# Si number density = 25.614658 Si / 1000 Ang^3
#
#
#
# Elastic Constant Matrix: (Units=GPa)
#
#
# Indices 1 2 3 4 5 6 
#
# 1 65.9419 11.2126 34.0891 13.1558 -12.3473 -28.7066
# 2 11.2126 77.1373 18.4067 29.9030 -2.6813 -20.3101
# 3 34.0891 18.4067 108.0579 11.0513 -8.4310 -10.1726
# 4 13.1558 29.9030 11.0513 47.2788 -6.5854 -15.0205
# 5 -12.3473 -2.6813 -8.4310 -6.5854 40.7770 8.6131
# 6 -28.7066 -20.3101 -10.1726 -15.0205 8.6131 36.6881
#
#
#
# Elastic Compliance Matrix: (Units=1/GPa)
#
#
# Indices 1 2 3 4 5 6 
#
# 1 0.028121 0.003822 -0.007193 -0.001566 0.002618 0.020869
# 2 0.003822 0.019281 -0.002738 -0.009918 -0.001695 0.009242
# 3 -0.007193 -0.002738 0.011687 -0.000207 0.000912 -0.004202
# 4 -0.001566 -0.009918 -0.000207 0.029803 0.002628 0.004812
# 5 0.002618 -0.001695 0.000912 0.002628 0.026623 -0.003811
# 6 0.020869 0.009242 -0.004202 0.004812 -0.003811 0.050401
#
#
# Mechanical properties :
#
#
# Convention : Reuss Voigt Hill
#
# Bulk Modulus (GPa) = 21.33572 42.06156 31.69864
# Shear Modulus (GPa) = 25.80534 37.44403 31.62468
#
# Velocity S-wave (km/s) = 3.17747 3.82752 3.51755
# Velocity P-wave (km/s) = 4.67005 5.99915 5.37583
#
# Compressibility (1/GPa) = 0.04686976
#
# Stress axis : x y z
#
# Youngs Moduli (GPa) = 35.56045 51.86422 85.56785
#
# Poissons Ratio (x) = -0.19820 0.61552
# Poissons Ratio (y) = -0.13590 0.23427
# Poissons Ratio (z) = 0.25580 0.14199
#
# Static dielectric constant tensor:
#      x y z
#    x 2.068610 0.022740 -0.006120 
#    y 0.022740 1.974770 0.001700 
#    z -0.006120 0.001700 2.061040 
# 
# From -- ./inp_files/77264.got.cif
#   From: 2010.05.17/outbox.cif.g08.bks.cpg/sg2_39_cif.got.tgz:77264.got - 2010.06.03 11:33:40.
