data_PCOD9029627
_publ_section_title
;
Structure prediction by ZEFSAII (Michael W. Deem and Ramdas Pophale) SiO2 
 PCOD9029627
Probable space group: P -1
;
_chemical_formula_sum "Si O2"
_cell_formula_units_Z 16
_cell_length_a 9.478605
_cell_length_b 12.051761
_cell_length_c 17.332575
_cell_angle_alpha 31.111398
_cell_angle_beta 42.898191
_cell_angle_gamma 38.708574
_cell_volume 626.915288
_symmetry_space_group_name_H-M "P -1"
_symmetry_group_IT_number 2
_symmetry_cell_setting 'triclinic'
loop_
_space_group_symop_operation_xyz
x,y,z
-x,-y,-z
loop_
_atom_site_type_symbol
_atom_site_label
_atom_site_fract_x
_atom_site_fract_y
_atom_site_fract_z
Si Si1 0.250432 0.803054 0.240408
Si Si2 0.972929 0.778045 0.231182
Si Si3 0.639335 0.593338 0.106458
Si Si4 0.253697 0.657764 0.045351
Si Si5 0.642553 0.083915 0.449599
Si Si6 0.134724 0.938458 0.365135
Si Si7 0.446948 0.321898 0.539747
Si Si8 0.069253 0.427426 0.139020
O O1 0.050028 0.766304 0.296775
O O2 0.412123 0.808338 0.103491
O O3 0.179467 0.989063 0.227820
O O4 0.399686 0.564624 0.370621
O O5 0.163790 0.938791 0.898478
O O6 0.634328 0.334195 0.271846
O O7 0.796328 0.669786 0.345029
O O8 0.199348 0.651316 0.161699
O O9 0.844279 0.572435 0.093233
O O10 0.710921 0.622512 0.974230
O O11 0.086088 0.568105 0.121882
O O12 0.500000 0.500000 0.000000
O O13 0.908350 0.899370 0.465606
O O14 0.500000 0.000000 0.500000
O O15 0.534358 0.128751 0.550989
O O16 0.358334 0.749727 0.430734
O O17 0.064917 0.174963 0.303488
#
# Coordination Sequence:
#
# PCOD9029627 Si02
#       8
#     2   2   2   2   2   2   2   2
#     4  11  24  44  66 100 144 179 242 295 358 431
#     4  11  26  45  74 107 140 192 241 295 368 425
#     4   9  22  40  66 100 137 179 233 288 362 414
#     4  11  25  47  72 104 149 184 239 296 362 437
#     4  10  22  42  70 100 139 188 236 292 354 433
#     4  11  24  43  69 104 140 191 240 291 366 425
#     4  11  24  45  66  99 144 183 241 298 360 424
#     4  10  22  42  68 100 138 180 234 295 350 431
#
# _framework density 25.521789999999999
#
# number of rings (size 3 to 8) (size 9 to 14) (size 15 to 20)
#    0.000    1.500    0.000    3.375    8.750    2.500 
#   11.250    0.000    0.000    0.000    0.000    0.000 
#    0.000    0.000    0.000    0.000    0.000    0.000 
#
# Total GULP energy -89516.120069 kJ/mol
# GULP energy per Si atom -5594.757504 kJ/mol
# Density = 2.546370 g / cm^3
# Si number density = 25.521790 Si / 1000 Ang^3
#
#
#
# Elastic Constant Matrix: (Units=GPa)
#
#
# Indices 1 2 3 4 5 6 
#
# 1 142.5656 25.6006 41.4331 13.5819 7.2525 7.8592
# 2 25.6006 92.6533 26.3312 15.7819 -5.5172 1.5310
# 3 41.4331 26.3312 56.6762 18.0116 -2.7343 0.2131
# 4 13.5819 15.7819 18.0116 40.4080 0.3262 2.8405
# 5 7.2525 -5.5172 -2.7343 0.3262 37.6912 5.5132
# 6 7.8592 1.5310 0.2131 2.8405 5.5132 46.6717
#
#
#
# Elastic Compliance Matrix: (Units=1/GPa)
#
#
# Indices 1 2 3 4 5 6 
#
# 1 0.009220 -0.000844 -0.006527 0.000246 -0.002190 -0.001251
# 2 -0.000844 0.012857 -0.004386 -0.002776 0.001795 -0.000303
# 3 -0.006527 -0.004386 0.027217 -0.008339 0.002465 0.001335
# 4 0.000246 -0.002776 -0.008339 0.029586 -0.001083 -0.001585
# 5 -0.002190 0.001795 0.002465 -0.001083 0.027831 -0.002923
# 6 -0.001251 -0.000303 0.001335 -0.001585 -0.002923 0.022083
#
#
# Mechanical properties :
#
#
# Convention : Reuss Voigt Hill
#
# Bulk Modulus (GPa) = 38.79050 53.18056 45.98553
# Shear Modulus (GPa) = 31.07463 38.18954 34.63208
#
# Velocity S-wave (km/s) = 3.49316 3.87247 3.68769
# Velocity P-wave (km/s) = 5.61262 6.39353 6.01576
#
# Compressibility (1/GPa) = 0.02577951
#
# Stress axis : x y z
#
# Youngs Moduli (GPa) = 108.46227 77.77601 36.74116
#
# Poissons Ratio (x) = 0.06566 0.23981
# Poissons Ratio (y) = 0.09156 0.16116
# Poissons Ratio (z) = 0.70793 0.34116
#
# Static dielectric constant tensor:
#      x y z
#    x 1.968420 -0.011040 -0.045110 
#    y -0.011040 2.106100 0.061380 
#    z -0.045110 0.061380 2.075740 
# 
# From -- ./inp_files/500002.got.cif
#   From: 2010.05.17/outbox.cif.g08.bks.cpg/sg2_251_cif.got.tgz:500002.got - 2010.06.03 11:33:40.
