data_PCOD9029418
_publ_section_title
;
Structure prediction by ZEFSAII (Michael W. Deem and Ramdas Pophale) SiO2 
 PCOD9029418
Probable space group: P -1
;
_chemical_formula_sum "Si O2"
_cell_formula_units_Z 16
_cell_length_a 11.609816
_cell_length_b 11.393823
_cell_length_c 12.965902
_cell_angle_alpha 157.403242
_cell_angle_beta 75.359881
_cell_angle_gamma 108.382758
_cell_volume 621.919216
_symmetry_space_group_name_H-M "P -1"
_symmetry_group_IT_number 2
_symmetry_cell_setting 'triclinic'
loop_
_space_group_symop_operation_xyz
x,y,z
-x,-y,-z
loop_
_atom_site_type_symbol
_atom_site_label
_atom_site_fract_x
_atom_site_fract_y
_atom_site_fract_z
Si Si1 0.085307 0.339862 0.780156
Si Si2 0.624287 0.146541 0.024902
Si Si3 0.751632 0.709104 0.113414
Si Si4 0.698513 0.590140 0.646794
Si Si5 0.364810 0.691020 0.361237
Si Si6 0.439237 0.232835 0.459591
Si Si7 0.021666 0.829631 0.057080
Si Si8 0.917980 0.462785 0.387867
O O1 0.205095 0.327317 0.808445
O O2 0.099952 0.588091 0.886603
O O3 0.000000 0.000000 0.500000
O O4 0.000000 0.500000 0.000000
O O5 0.712184 0.935178 0.878311
O O6 0.609372 0.068743 0.842819
O O7 0.646511 0.520335 0.329893
O O8 0.500000 0.000000 0.000000
O O9 0.879029 0.729410 0.039222
O O10 0.699105 0.019927 0.374361
O O11 0.655231 0.443249 0.858211
O O12 0.704411 0.574143 0.756678
O O13 0.561758 0.397577 0.504258
O O14 0.783440 0.402526 0.416166
O O15 0.502786 0.782700 0.451905
O O16 0.060186 0.183525 0.375690
O O17 0.038826 0.780577 0.892955
O O18 0.000000 0.500000 0.500000
#
# Coordination Sequence:
#
# PCOD9029418 Si02
#       8
#     2   2   2   2   2   2   2   2
#     4  10  20  36  57  74  94 131 181 235 276 303
#     4  10  17  32  50  72  97 143 169 216 258 306
#     4  11  19  35  51  74  98 134 170 219 277 306
#     4   9  21  32  51  71 109 145 174 205 254 302
#     4  10  21  29  51  75 107 129 167 207 272 318
#     4   9  20  31  50  74 104 133 171 215 266 305
#     4  11  23  36  53  71 104 139 188 219 248 302
#     4  12  24  37  49  76 111 151 183 205 240 308
#
# _framework density 25.726813
#
# number of rings (size 3 to 8) (size 9 to 14) (size 15 to 20)
#    0.750    1.000    0.000    7.875    0.000    4.000 
#    0.000    0.000    0.000    0.000    0.000    0.000 
#    0.000   20.000    0.000    0.000    0.000    0.000 
#
# Total GULP energy -89392.572131 kJ/mol
# GULP energy per Si atom -5587.035758 kJ/mol
# Density = 2.566826 g / cm^3
# Si number density = 25.726813 Si / 1000 Ang^3
#
#
#
# Elastic Constant Matrix: (Units=GPa)
#
#
# Indices 1 2 3 4 5 6 
#
# 1 79.9810 38.8000 37.4061 7.0708 -8.0467 -30.0870
# 2 38.8000 82.2121 31.1556 10.7489 12.1989 -27.2533
# 3 37.4061 31.1556 159.8015 0.0620 5.7480 -20.9337
# 4 7.0708 10.7489 0.0620 32.4326 -12.2108 1.4625
# 5 -8.0467 12.1989 5.7480 -12.2108 45.7809 -3.5012
# 6 -30.0870 -27.2533 -20.9337 1.4625 -3.5012 51.5083
#
#
#
# Elastic Compliance Matrix: (Units=1/GPa)
#
#
# Indices 1 2 3 4 5 6 
#
# 1 0.020809 -0.007209 -0.002692 -0.000044 0.006493 0.007689
# 2 -0.007209 0.020273 -0.001215 -0.008550 -0.008362 0.005696
# 3 -0.002692 -0.001215 0.007240 0.000630 -0.000841 0.000653
# 4 -0.000044 -0.008550 0.000630 0.038434 0.012094 -0.004563
# 5 0.006493 -0.008362 -0.000841 0.012094 0.028592 0.000627
# 6 0.007689 0.005696 0.000653 -0.004563 0.000627 0.027357
#
#
# Mechanical properties :
#
#
# Convention : Reuss Voigt Hill
#
# Bulk Modulus (GPa) = 38.32765 59.63532 48.98148
# Shear Modulus (GPa) = 28.79634 40.25322 34.52478
#
# Velocity S-wave (km/s) = 3.34924 3.95985 3.66727
# Velocity P-wave (km/s) = 5.46689 6.64362 6.08377
#
# Compressibility (1/GPa) = 0.02609083
#
# Stress axis : x y z
#
# Youngs Moduli (GPa) = 48.05685 49.32584 138.11943
#
# Poissons Ratio (x) = 0.35561 0.37176
# Poissons Ratio (y) = 0.34646 0.16778
# Poissons Ratio (z) = 0.12935 0.05992
#
# Static dielectric constant tensor:
#      x y z
#    x 4.500710 -0.190510 2.590010 
#    y -0.190510 2.195480 -0.176720 
#    z 2.590010 -0.176720 4.585220 
# 
# From -- ./inp_files/452681.got.cif
#   From: 2010.05.17/outbox.cif.g08.bks.cpg/sg2_227_cif.got.tgz:452681.got - 2010.06.03 11:33:40.
