data_PCOD9029235
_publ_section_title
;
Structure prediction by ZEFSAII (Michael W. Deem and Ramdas Pophale) SiO2 
 PCOD9029235
Probable space group: P -1
;
_chemical_formula_sum "Si O2"
_cell_formula_units_Z 14
_cell_length_a 10.007419
_cell_length_b 16.648731
_cell_length_c 9.635370
_cell_angle_alpha 40.988557
_cell_angle_beta 147.512185
_cell_angle_gamma 141.985928
_cell_volume 510.874314
_symmetry_space_group_name_H-M "P -1"
_symmetry_group_IT_number 2
_symmetry_cell_setting 'triclinic'
loop_
_space_group_symop_operation_xyz
x,y,z
-x,-y,-z
loop_
_atom_site_type_symbol
_atom_site_label
_atom_site_fract_x
_atom_site_fract_y
_atom_site_fract_z
Si Si1 0.566075 0.575803 0.310651
Si Si2 0.108387 0.823751 0.547615
Si Si3 0.782620 0.398055 0.548077
Si Si4 0.178855 0.015497 0.799448
Si Si5 0.226248 0.787523 0.989920
Si Si6 0.550611 0.646146 0.923049
Si Si7 0.882651 0.104493 0.820486
O O1 0.500000 0.500000 0.500000
O O2 0.802338 0.720431 0.368828
O O3 0.668880 0.482102 0.434318
O O4 0.406231 0.611367 0.995530
O O5 0.063946 0.949231 0.408308
O O6 0.258613 0.861584 0.481507
O O7 0.178164 0.752185 0.831994
O O8 0.566269 0.296563 0.380422
O O9 0.000000 0.500000 0.500000
O O10 0.891535 0.327936 0.849180
O O11 0.102935 0.891805 0.790224
O O12 0.442862 0.138592 0.805252
O O13 0.286216 0.970372 0.093845
O O14 0.500000 0.500000 0.000000
O O15 0.862246 0.756962 0.082548
O O16 0.000000 0.000000 0.000000
#
# Coordination Sequence:
#
# PCOD9029235 Si02
#       7
#     2   2   2   2   2   2   2
#     4  10  22  42  68  95 128 178 232 282 344 408
#     4  10  22  42  66  97 134 172 226 281 348 404
#     4  11  26  44  63 101 141 182 231 283 346 417
#     4  10  23  43  65  97 135 177 229 277 345 414
#     4  11  25  40  65 100 135 177 226 285 341 410
#     4   9  21  41  68  92 129 183 228 270 338 420
#     4   9  20  40  67  96 127 173 224 275 341 405
#
# _framework density 27.404
#
# number of rings (size 3 to 8) (size 9 to 14) (size 15 to 20)
#    0.000    2.000    0.000    1.286    8.000    8.000 
#    7.714    0.000    0.000    0.000    0.000    0.000 
#    0.000    0.000    0.000    0.000    0.000    0.000 
#
# Total GULP energy -78192.809050 kJ/mol
# GULP energy per Si atom -5585.200646 kJ/mol
# Density = 2.734163 g / cm^3
# Si number density = 27.404000 Si / 1000 Ang^3
#
#
#
# Elastic Constant Matrix: (Units=GPa)
#
#
# Indices 1 2 3 4 5 6 
#
# 1 142.2196 32.5899 47.7401 7.3166 -58.2367 -15.5071
# 2 32.5899 108.4788 32.7458 3.3782 -14.7948 -7.1552
# 3 47.7401 32.7458 158.9977 15.6248 -70.9423 -5.4363
# 4 7.3166 3.3782 15.6248 36.3552 -2.6788 -9.3396
# 5 -58.2367 -14.7948 -70.9423 -2.6788 71.2583 -2.2771
# 6 -15.5071 -7.1552 -5.4363 -9.3396 -2.2771 50.2992
#
#
#
# Elastic Compliance Matrix: (Units=1/GPa)
#
#
# Indices 1 2 3 4 5 6 
#
# 1 0.012168 -0.002464 0.002459 -0.001381 0.011955 0.003951
# 2 -0.002464 0.010403 -0.002445 0.000530 -0.002253 0.000452
# 3 0.002459 -0.002445 0.012878 -0.004334 0.014212 0.001641
# 4 -0.001381 0.000530 -0.004334 0.030498 -0.004037 0.004661
# 5 0.011955 -0.002253 0.014212 -0.004037 0.037521 0.005850
# 6 0.003951 0.000452 0.001641 0.004661 0.005850 0.022471
#
#
# Mechanical properties :
#
#
# Convention : Reuss Voigt Hill
#
# Bulk Modulus (GPa) = 32.73364 70.64973 51.69169
# Shear Modulus (GPa) = 35.45608 51.35725 43.40667
#
# Velocity S-wave (km/s) = 3.60089 4.33376 3.98421
# Velocity P-wave (km/s) = 5.40918 7.13293 6.33001
#
# Compressibility (1/GPa) = 0.03054961
#
# Stress axis : x y z
#
# Youngs Moduli (GPa) = 82.18349 96.13045 77.65310
#
# Poissons Ratio (x) = 0.23683 -0.19094
# Poissons Ratio (y) = 0.20247 0.18983
# Poissons Ratio (z) = -0.20208 0.23500
#
# Static dielectric constant tensor:
#      x y z
#    x 2.037120 0.007230 -0.007760 
#    y 0.007230 2.116680 -0.013660 
#    z -0.007760 -0.013660 2.403380 
# 
# From -- ./inp_files/277377.got.cif
#   From: 2010.05.17/outbox.cif.g08.bks.cpg/sg2_139_cif.got.tgz:277377.got - 2010.06.03 11:33:40.
