data_PCOD9029092
_publ_section_title
;
Structure prediction by ZEFSAII (Michael W. Deem and Ramdas Pophale) SiO2 
 PCOD9029092
Probable space group: P -1
;
_chemical_formula_sum "Si O2"
_cell_formula_units_Z 16
_cell_length_a 16.573556
_cell_length_b 9.676164
_cell_length_c 19.421837
_cell_angle_alpha 134.856271
_cell_angle_beta 20.743689
_cell_angle_gamma 122.652979
_cell_volume 686.816984
_symmetry_space_group_name_H-M "P -1"
_symmetry_group_IT_number 2
_symmetry_cell_setting 'triclinic'
loop_
_space_group_symop_operation_xyz
x,y,z
-x,-y,-z
loop_
_atom_site_type_symbol
_atom_site_label
_atom_site_fract_x
_atom_site_fract_y
_atom_site_fract_z
Si Si1 0.628370 0.459202 0.032955
Si Si2 0.962593 0.790511 0.790905
Si Si3 0.079467 0.360820 0.735196
Si Si4 0.323453 0.950351 0.498390
Si Si5 0.216561 0.706285 0.287878
Si Si6 0.120028 0.163231 0.965752
Si Si7 0.734493 0.694746 0.684927
Si Si8 0.416896 0.052278 0.243302
O O1 0.439654 0.725155 0.278230
O O2 0.463506 0.327980 0.113596
O O3 0.830343 0.358769 0.774195
O O4 0.799668 0.401695 0.944838
O O5 0.898543 0.780680 0.918040
O O6 0.122416 0.924731 0.699696
O O7 0.141679 0.545462 0.534070
O O8 0.704026 0.899236 0.989502
O O9 0.284875 0.259328 0.473381
O O10 0.033857 0.607670 0.872821
O O11 0.183945 0.174743 0.644779
O O12 0.575373 0.940360 0.329838
O O13 0.975681 0.724151 0.530151
O O14 0.250773 0.921900 0.338297
O O15 0.500000 0.500000 0.000000
O O16 0.000000 0.000000 0.000000
O O17 0.587300 0.873872 0.805884
#
# Coordination Sequence:
#
# PCOD9029092 Si02
#       8
#     2   2   2   2   2   2   2   2
#     4  10  23  40  60  87 124 165 208 250 296 346
#     4  11  22  43  64  90 124 162 202 247 309 362
#     4  11  21  42  66  89 123 160 206 246 305 367
#     4  10  22  42  66  91 124 163 200 248 301 364
#     4  12  23  38  55  87 126 162 211 254 294 343
#     4  11  24  43  68  94 121 155 196 250 311 371
#     4  11  22  41  60  87 122 166 207 254 298 346
#     4  12  22  38  65  85 121 168 205 250 302 354
#
# _framework density 23.295871999999999
#
# number of rings (size 3 to 8) (size 9 to 14) (size 15 to 20)
#    0.000    1.000    5.000    2.625    0.000    2.000 
#    2.250    0.625    0.000    0.000    0.000    0.000 
#    0.000    0.000    0.000    0.000    0.000    0.000 
#
# Total GULP energy -89522.535566 kJ/mol
# GULP energy per Si atom -5595.158473 kJ/mol
# Density = 2.324285 g / cm^3
# Si number density = 23.295872 Si / 1000 Ang^3
#
#
#
# Elastic Constant Matrix: (Units=GPa)
#
#
# Indices 1 2 3 4 5 6 
#
# 1 19.7892 15.3971 8.5189 9.0343 -10.1803 -1.6405
# 2 15.3971 172.4220 48.3293 -0.0157 -21.3125 5.6186
# 3 8.5189 48.3293 60.9056 10.5523 -12.4891 -5.8943
# 4 9.0343 -0.0157 10.5523 56.2633 -13.8374 -10.0134
# 5 -10.1803 -21.3125 -12.4891 -13.8374 20.1369 -1.3320
# 6 -1.6405 5.6186 -5.8943 -10.0134 -1.3320 38.8474
#
#
#
# Elastic Compliance Matrix: (Units=1/GPa)
#
#
# Indices 1 2 3 4 5 6 
#
# 1 0.070120 -0.002362 -0.000800 -0.002953 0.030653 0.003471
# 2 -0.002362 0.008377 -0.005697 0.002669 0.005889 -0.001286
# 3 -0.000800 -0.005697 0.023190 -0.001772 0.007002 0.004092
# 4 -0.002953 0.002669 -0.001772 0.023818 0.016993 0.005942
# 5 0.030653 0.005889 0.007002 0.016993 0.087998 0.008903
# 6 0.003471 -0.001286 0.004092 0.005942 0.008903 0.028532
#
#
# Mechanical properties :
#
#
# Convention : Reuss Voigt Hill
#
# Bulk Modulus (GPa) = 11.90908 44.17861 28.04384
# Shear Modulus (GPa) = 17.37670 35.10762 26.24216
#
# Velocity S-wave (km/s) = 2.73410 3.88626 3.35994
# Velocity P-wave (km/s) = 3.88462 6.25641 5.20735
#
# Compressibility (1/GPa) = 0.08396957
#
# Stress axis : x y z
#
# Youngs Moduli (GPa) = 14.26133 119.36902 43.12219
#
# Poissons Ratio (x) = 0.28191 0.03451
# Poissons Ratio (y) = 0.03368 0.24565
# Poissons Ratio (z) = 0.01141 0.68000
#
# Static dielectric constant tensor:
#      x y z
#    x 1.914870 -0.009480 -0.023330 
#    y -0.009480 1.889310 -0.000890 
#    z -0.023330 -0.000890 1.873760 
# 
# From -- ./inp_files/315216.got.cif
#   From: 2010.05.17/outbox.cif.g08.bks.cpg/sg2_158_cif.got.tgz:315216.got - 2010.06.03 11:33:40.
