data_PCOD9029893
_publ_section_title
;
Structure prediction by ZEFSAII (Michael W. Deem and Ramdas Pophale) SiO2 
 PCOD9029893
Probable space group: P -1
;
_chemical_formula_sum "Si O2"
_cell_formula_units_Z 14
_cell_length_a 5.468797
_cell_length_b 23.393140
_cell_length_c 5.032747
_cell_angle_alpha 65.282972
_cell_angle_beta 86.486363
_cell_angle_gamma 66.227421
_cell_volume 530.765267
_symmetry_space_group_name_H-M "P -1"
_symmetry_group_IT_number 2
_symmetry_cell_setting 'triclinic'
loop_
_space_group_symop_operation_xyz
x,y,z
-x,-y,-z
loop_
_atom_site_type_symbol
_atom_site_label
_atom_site_fract_x
_atom_site_fract_y
_atom_site_fract_z
Si Si1 0.768946 0.958523 0.901635
Si Si2 0.398434 0.141622 0.117780
Si Si3 0.761805 0.101904 0.653643
Si Si4 0.256033 0.470407 0.841903
Si Si5 0.477766 0.664711 0.659811
Si Si6 0.030638 0.392273 0.610067
Si Si7 0.865040 0.278808 0.953907
O O1 0.691139 0.922222 0.733034
O O2 0.859378 0.020381 0.727332
O O3 0.984198 0.900348 0.190603
O O4 0.500000 0.000000 0.000000
O O5 0.626817 0.138048 0.318525
O O6 0.525611 0.132326 0.832788
O O7 0.126474 0.208467 0.050836
O O8 0.195200 0.426495 0.699812
O O9 0.240427 0.541542 0.582221
O O10 0.492383 0.411815 0.102941
O O11 0.000000 0.500000 0.000000
O O12 0.777812 0.648846 0.566926
O O13 0.285680 0.698371 0.360182
O O14 0.350682 0.715153 0.817504
O O15 0.969776 0.337972 0.889516
#
# Coordination Sequence:
#
# PCOD9029893 Si02
#       7
#     2   2   2   2   2   2   2
#     4   9  21  41  71 100 134 171 224 286 327 403
#     4  11  24  44  61 101 137 176 232 276 331 420
#     4  10  22  42  68  98 133 181 220 275 353 383
#     4   9  20  43  68  95 132 168 226 287 346 393
#     4  11  24  45  65  99 128 178 229 280 336 410
#     4  10  23  45  65  97 136 170 221 296 337 410
#     4  12  27  42  68  96 136 182 227 271 346 409
#
# _framework density 26.377008
#
# number of rings (size 3 to 8) (size 9 to 14) (size 15 to 20)
#    0.000    1.714    1.429    1.286    4.000    9.714 
#    2.571    0.000    0.000    0.000    0.000    0.000 
#    0.000    0.000    0.000    0.000    0.000    0.000 
#
# Total GULP energy -78326.677586 kJ/mol
# GULP energy per Si atom -5594.762685 kJ/mol
# Density = 2.631697 g / cm^3
# Si number density = 26.377008 Si / 1000 Ang^3
#
#
#
# Elastic Constant Matrix: (Units=GPa)
#
#
# Indices 1 2 3 4 5 6 
#
# 1 70.1698 44.6165 19.9210 3.0046 11.3431 -20.2177
# 2 44.6165 143.6455 60.4533 4.3545 -8.5342 -41.6373
# 3 19.9210 60.4533 122.3689 16.7638 32.9623 -19.8126
# 4 3.0046 4.3545 16.7638 44.5832 -10.1511 4.7580
# 5 11.3431 -8.5342 32.9623 -10.1511 33.1590 -3.1383
# 6 -20.2177 -41.6373 -19.8126 4.7580 -3.1383 49.0418
#
#
#
# Elastic Compliance Matrix: (Units=1/GPa)
#
#
# Indices 1 2 3 4 5 6 
#
# 1 0.024730 -0.012630 0.011241 -0.010922 -0.025904 0.003415
# 2 -0.012630 0.022146 -0.018113 0.012113 0.032414 0.007177
# 3 0.011241 -0.018113 0.030334 -0.020694 -0.044935 0.000642
# 4 -0.010922 0.012113 -0.020694 0.039061 0.039016 -0.003872
# 5 -0.025904 0.032414 -0.044935 0.039016 0.104122 0.001565
# 6 0.003415 0.007177 0.000642 -0.003872 0.001565 0.028628
#
#
# Mechanical properties :
#
#
# Convention : Reuss Voigt Hill
#
# Bulk Modulus (GPa) = 26.17488 65.12954 45.65221
# Shear Modulus (GPa) = 16.62453 39.43637 28.03045
#
# Velocity S-wave (km/s) = 2.51323 3.87085 3.26342
# Velocity P-wave (km/s) = 4.28564 6.68755 5.61650
#
# Compressibility (1/GPa) = 0.03820456
#
# Stress axis : x y z
#
# Youngs Moduli (GPa) = 40.43741 45.15406 32.96674
#
# Poissons Ratio (x) = 0.57028 -0.37056
# Poissons Ratio (y) = 0.51071 0.59714
# Poissons Ratio (z) = -0.45454 0.81790
#
# Static dielectric constant tensor:
#      x y z
#    x 2.149690 0.063290 -0.051730 
#    y 0.063290 2.016410 -0.037680 
#    z -0.051730 -0.037680 2.157700 
# 
# From -- ./inp_files/12990.got.cif
#   From: 2010.05.17/outbox.cif.g08.bks.cpg/sg2_7_cif.got.tgz:12990.got - 2010.06.03 11:33:40.
