data_PCOD9029176
_publ_section_title
;
Structure prediction by ZEFSAII (Michael W. Deem and Ramdas Pophale) SiO2 
 PCOD9029176
Probable space group: P -1
;
_chemical_formula_sum "Si O2"
_cell_formula_units_Z 14
_cell_length_a 6.136852
_cell_length_b 23.665500
_cell_length_c 5.093213
_cell_angle_alpha 95.047091
_cell_angle_beta 79.862869
_cell_angle_gamma 125.427651
_cell_volume 593.239562
_symmetry_space_group_name_H-M "P -1"
_symmetry_group_IT_number 2
_symmetry_cell_setting 'triclinic'
loop_
_space_group_symop_operation_xyz
x,y,z
-x,-y,-z
loop_
_atom_site_type_symbol
_atom_site_label
_atom_site_fract_x
_atom_site_fract_y
_atom_site_fract_z
Si Si1 0.420253 0.223518 0.898414
Si Si2 0.729630 0.690325 0.347630
Si Si3 0.212953 0.798711 0.578635
Si Si4 0.053096 0.640462 0.972466
Si Si5 0.653854 0.894032 0.871853
Si Si6 0.104445 0.577748 0.449790
Si Si7 0.450492 0.058023 0.585732
O O1 0.658398 0.171598 0.151698
O O2 0.646577 0.287543 0.057142
O O3 0.270453 0.251775 0.794841
O O4 0.586027 0.213276 0.633265
O O5 0.424953 0.629135 0.453422
O O6 0.919005 0.730602 0.574487
O O7 0.857305 0.659380 0.134813
O O8 0.261392 0.866948 0.462470
O O9 0.761136 0.849923 0.940528
O O10 0.979538 0.604501 0.691776
O O11 0.055642 0.590868 0.168734
O O12 0.720617 0.933538 0.598736
O O13 0.670756 0.944110 0.109464
O O14 0.000000 0.500000 0.500000
O O15 0.500000 0.000000 0.500000
#
# Coordination Sequence:
#
# PCOD9029176 Si02
#       7
#     2   2   2   2   2   2   2
#     4   9  19  37  58  89 123 157 204 261 312 362
#     4  10  22  42  66  95 124 174 201 270 321 362
#     4   8  19  36  56  91 120 156 213 253 306 380
#     4  10  24  41  65  94 126 159 219 255 308 388
#     4   9  18  32  56  85 121 155 206 255 298 374
#     4  11  25  45  64  93 130 166 208 259 314 376
#     4   9  17  32  57  85 118 164 204 250 310 365
#
# _framework density 23.599235
#
# number of rings (size 3 to 8) (size 9 to 14) (size 15 to 20)
#    0.857    1.714    0.000    0.857    6.000    3.429 
#   10.286    0.000    0.000    4.286    0.000    0.000 
#    0.000    0.000    0.000    0.000    0.000    0.000 
#
# Total GULP energy -78194.085337 kJ/mol
# GULP energy per Si atom -5585.291810 kJ/mol
# Density = 2.354552 g / cm^3
# Si number density = 23.599235 Si / 1000 Ang^3
#
#
#
# Elastic Constant Matrix: (Units=GPa)
#
#
# Indices 1 2 3 4 5 6 
#
# 1 56.7861 42.9883 10.4052 -6.2853 -12.1960 -7.9194
# 2 42.9883 116.5404 25.2184 2.0075 -8.6258 -24.4411
# 3 10.4052 25.2184 96.1814 14.0237 10.3916 7.7608
# 4 -6.2853 2.0075 14.0237 30.6045 -4.7266 -3.2451
# 5 -12.1960 -8.6258 10.3916 -4.7266 25.5720 -1.7305
# 6 -7.9194 -24.4411 7.7608 -3.2451 -1.7305 26.2840
#
#
#
# Elastic Compliance Matrix: (Units=1/GPa)
#
#
# Indices 1 2 3 4 5 6 
#
# 1 0.030230 -0.007658 -0.005383 0.012421 0.016738 0.006212
# 2 -0.007658 0.016102 -0.005531 0.002335 0.005469 0.014947
# 3 -0.005383 -0.005531 0.016937 -0.012260 -0.014545 -0.014237
# 4 0.012421 0.002335 -0.012260 0.045733 0.021268 0.016580
# 5 0.016738 0.005469 -0.014545 0.021268 0.060196 0.021013
# 6 0.006212 0.014947 -0.014237 0.016580 0.021013 0.061450
#
#
# Mechanical properties :
#
#
# Convention : Reuss Voigt Hill
#
# Bulk Modulus (GPa) = 38.27809 47.41463 42.84636
# Shear Modulus (GPa) = 18.08316 29.21850 23.65083
#
# Velocity S-wave (km/s) = 2.77114 3.52250 3.16917
# Velocity P-wave (km/s) = 5.14726 6.05634 5.62021
#
# Compressibility (1/GPa) = 0.02612461
#
# Stress axis : x y z
#
# Youngs Moduli (GPa) = 33.08017 62.10530 59.04149
#
# Poissons Ratio (x) = 0.47563 0.31782
# Poissons Ratio (y) = 0.25334 0.32654
# Poissons Ratio (z) = 0.17807 0.34348
#
# Static dielectric constant tensor:
#      x y z
#    x 1.931680 0.008350 0.007880 
#    y 0.008350 1.899760 -0.035300 
#    z 0.007880 -0.035300 1.917220 
# 
# From -- ./inp_files/12429.got.cif
#   From: 2010.05.17/outbox.cif.g08.bks.cpg/sg2_7_cif.got.tgz:12429.got - 2010.06.03 11:33:40.
