data_PCOD9029828
_publ_section_title
;
Structure prediction by ZEFSAII (Michael W. Deem and Ramdas Pophale) SiO2 
 PCOD9029828
Probable space group: P -1
;
_chemical_formula_sum "Si O2"
_cell_formula_units_Z 14
_cell_length_a 14.129227
_cell_length_b 8.640994
_cell_length_c 7.047709
_cell_angle_alpha 53.071181
_cell_angle_beta 123.076345
_cell_angle_gamma 95.006025
_cell_volume 537.889475
_symmetry_space_group_name_H-M "P -1"
_symmetry_group_IT_number 2
_symmetry_cell_setting 'triclinic'
loop_
_space_group_symop_operation_xyz
x,y,z
-x,-y,-z
loop_
_atom_site_type_symbol
_atom_site_label
_atom_site_fract_x
_atom_site_fract_y
_atom_site_fract_z
Si Si1 0.093938 0.341229 0.574600
Si Si2 0.252151 0.713934 0.891000
Si Si3 0.180886 0.672832 0.279742
Si Si4 0.529757 0.256781 0.748550
Si Si5 0.074254 0.163148 0.291356
Si Si6 0.696554 0.042977 0.742015
Si Si7 0.697900 0.738608 0.669957
O O1 0.036527 0.278045 0.369619
O O2 0.000000 0.500000 0.500000
O O3 0.178318 0.127832 0.918113
O O4 0.183888 0.454328 0.517906
O O5 0.231418 0.681320 0.118151
O O6 0.139625 0.916690 0.564045
O O7 0.369487 0.781402 0.951212
O O8 0.278547 0.478134 0.032135
O O9 0.037329 0.791672 0.005519
O O10 0.742731 0.224508 0.586700
O O11 0.500000 0.500000 0.500000
O O12 0.400517 0.231823 0.626921
O O13 0.601109 0.127331 0.742649
O O14 0.174284 0.253496 0.261772
O O15 0.647640 0.927189 0.620158
#
# Coordination Sequence:
#
# PCOD9029828 Si02
#       7
#     2   2   2   2   2   2   2
#     4  12  26  41  66 100 137 176 222 272 329 396
#     4  10  22  42  68  96 128 176 225 268 327 396
#     4  11  24  43  65  92 140 174 219 271 323 399
#     4   9  20  44  72  95 128 178 223 275 330 386
#     4  12  24  42  67 100 133 184 220 265 338 397
#     4  11  25  45  65 105 135 174 222 274 330 391
#     4  11  24  41  71  96 137 173 221 276 331 389
#
# _framework density 26.027650999999999
#
# number of rings (size 3 to 8) (size 9 to 14) (size 15 to 20)
#    0.000    1.143    4.286    2.143    2.000    4.000 
#    0.000    0.000    0.000    6.857    0.000    0.000 
#    0.000    0.000    0.000    0.000    0.000    0.000 
#
# Total GULP energy -78356.637200 kJ/mol
# GULP energy per Si atom -5596.902657 kJ/mol
# Density = 2.596841 g / cm^3
# Si number density = 26.027651 Si / 1000 Ang^3
#
#
#
# Elastic Constant Matrix: (Units=GPa)
#
#
# Indices 1 2 3 4 5 6 
#
# 1 99.8776 38.5626 33.9653 -4.5091 19.1218 25.3257
# 2 38.5626 133.0138 27.5239 -11.0242 4.3474 17.4499
# 3 33.9653 27.5239 61.3894 -11.6643 11.4108 4.2508
# 4 -4.5091 -11.0242 -11.6643 38.5616 8.4653 7.7326
# 5 19.1218 4.3474 11.4108 8.4653 45.3182 -6.1857
# 6 25.3257 17.4499 4.2508 7.7326 -6.1857 67.2716
#
#
#
# Elastic Compliance Matrix: (Units=1/GPa)
#
#
# Indices 1 2 3 4 5 6 
#
# 1 0.015478 -0.002210 -0.005700 0.001911 -0.006014 -0.005666
# 2 -0.002210 0.009007 -0.002366 0.001893 0.000097 -0.001564
# 3 -0.005700 -0.002366 0.022465 0.006323 -0.004174 0.000229
# 4 0.001911 0.001893 0.006323 0.031899 -0.009377 -0.006139
# 5 -0.006014 0.000097 -0.004174 -0.009377 0.028240 0.006177
# 6 -0.005666 -0.001564 0.000229 -0.006139 0.006177 0.018663
#
#
# Mechanical properties :
#
#
# Convention : Reuss Voigt Hill
#
# Bulk Modulus (GPa) = 37.87864 54.93160 46.40512
# Shear Modulus (GPa) = 32.23656 43.17888 37.70772
#
# Velocity S-wave (km/s) = 3.52312 4.07745 3.81038
# Velocity P-wave (km/s) = 5.57985 6.58167 6.10136
#
# Compressibility (1/GPa) = 0.02640010
#
# Stress axis : x y z
#
# Youngs Moduli (GPa) = 64.60697 111.02413 44.51346
#
# Poissons Ratio (x) = 0.24532 0.25372
# Poissons Ratio (y) = 0.14276 0.10531
# Poissons Ratio (z) = 0.36824 0.26265
#
# Static dielectric constant tensor:
#      x y z
#    x 2.069570 -0.007170 -0.005640 
#    y -0.007170 2.141670 0.035810 
#    z -0.005640 0.035810 2.057300 
# 
# From -- ./inp_files/236599.got.cif
#   From: 2010.05.17/outbox.cif.g08.bks.cpg/sg2_119_cif.got.tgz:236599.got - 2010.06.03 11:33:40.
