data_PCOD9029133
_publ_section_title
;
Structure prediction by ZEFSAII (Michael W. Deem and Ramdas Pophale) SiO2 
 PCOD9029133
Probable space group: P -1
;
_chemical_formula_sum "Si O2"
_cell_formula_units_Z 16
_cell_length_a 21.178103
_cell_length_b 9.395828
_cell_length_c 12.510151
_cell_angle_alpha 32.663556
_cell_angle_beta 146.631692
_cell_angle_gamma 144.786326
_cell_volume 682.363449
_symmetry_space_group_name_H-M "P -1"
_symmetry_group_IT_number 2
_symmetry_cell_setting 'triclinic'
loop_
_space_group_symop_operation_xyz
x,y,z
-x,-y,-z
loop_
_atom_site_type_symbol
_atom_site_label
_atom_site_fract_x
_atom_site_fract_y
_atom_site_fract_z
Si Si1 0.158845 0.555339 0.659081
Si Si2 0.477498 0.156684 0.473444
Si Si3 0.914019 0.105946 0.071909
Si Si4 0.790353 0.306508 0.584173
Si Si5 0.629011 0.469418 0.670633
Si Si6 0.835540 0.945011 0.525737
Si Si7 0.401946 0.681758 0.045276
Si Si8 0.852142 0.936296 0.316305
O O1 0.126593 0.218925 0.823121
O O2 0.139148 0.659020 0.448927
O O3 0.107591 0.730656 0.555781
O O4 0.304742 0.675799 0.821195
O O5 0.581799 0.216804 0.675118
O O6 0.467315 0.462636 0.245066
O O7 0.500000 0.000000 0.500000
O O8 0.340450 0.953155 0.445931
O O9 0.852933 0.104443 0.102385
O O10 0.061030 0.194433 0.237626
O O11 0.869319 0.270285 0.817470
O O12 0.776759 0.605755 0.391553
O O13 0.500000 0.500000 0.500000
O O14 0.725364 0.744126 0.572585
O O15 0.670466 0.417262 0.880431
O O16 0.803268 0.975785 0.337623
O O17 0.500000 0.000000 0.000000
O O18 0.000000 0.000000 0.500000
#
# Coordination Sequence:
#
# PCOD9029133 Si02
#       8
#     2   2   2   2   2   2   2   2
#     4  11  22  41  64  98 132 174 225 280 336 401
#     4  11  22  41  69  97 129 176 232 277 338 411
#     4  10  23  43  67  96 136 183 218 273 349 394
#     4  11  22  43  68  93 140 177 214 282 344 401
#     4  10  22  42  66  93 135 181 220 278 345 398
#     4  11  22  42  66 100 132 173 234 276 325 418
#     4  11  22  42  66  96 138 181 224 286 349 398
#     4   9  22  43  65  95 136 176 219 276 333 398
#
# _framework density 23.447914999999998
#
# number of rings (size 3 to 8) (size 9 to 14) (size 15 to 20)
#    0.000    1.500    1.250    4.875    0.000    2.500 
#   11.250    2.500    0.000    0.000    0.000    0.000 
#    0.000    0.000    0.000    0.000    0.000    0.000 
#
# Total GULP energy -89400.139619 kJ/mol
# GULP energy per Si atom -5587.508726 kJ/mol
# Density = 2.339455 g / cm^3
# Si number density = 23.447915 Si / 1000 Ang^3
#
#
#
# Elastic Constant Matrix: (Units=GPa)
#
#
# Indices 1 2 3 4 5 6 
#
# 1 142.3762 36.8910 40.7846 -11.3774 -35.2322 -12.2050
# 2 36.8910 116.2949 3.9760 -19.8844 -8.6426 -8.4505
# 3 40.7846 3.9760 96.8683 3.9424 -26.0158 -3.5937
# 4 -11.3774 -19.8844 3.9424 30.8423 -5.8951 -3.7869
# 5 -35.2322 -8.6426 -26.0158 -5.8951 28.5172 12.0138
# 6 -12.2050 -8.4505 -3.5937 -3.7869 12.0138 49.0840
#
#
#
# Elastic Compliance Matrix: (Units=1/GPa)
#
#
# Indices 1 2 3 4 5 6 
#
# 1 0.011842 -0.001616 -0.001316 0.006192 0.014424 -0.000483
# 2 -0.001616 0.010546 0.000755 0.006792 0.002735 0.001324
# 3 -0.001316 0.000755 0.014096 0.000310 0.012448 -0.002188
# 4 0.006192 0.006792 0.000310 0.042711 0.018154 0.001584
# 5 0.014424 0.002735 0.012448 0.018154 0.073746 -0.011681
# 6 -0.000483 0.001324 -0.002188 0.001584 -0.011681 0.023302
#
#
# Mechanical properties :
#
#
# Convention : Reuss Voigt Hill
#
# Bulk Modulus (GPa) = 31.12331 57.64916 44.38623
# Shear Modulus (GPa) = 26.13595 39.94788 33.04192
#
# Velocity S-wave (km/s) = 3.34224 4.13205 3.75795
# Velocity P-wave (km/s) = 5.31002 6.88510 6.14821
#
# Compressibility (1/GPa) = 0.03213026
#
# Stress axis : x y z
#
# Youngs Moduli (GPa) = 84.44503 94.81940 70.94350
#
# Poissons Ratio (x) = 0.15321 0.09334
# Poissons Ratio (y) = 0.13645 -0.05353
# Poissons Ratio (z) = 0.11110 -0.07155
#
# Static dielectric constant tensor:
#      x y z
#    x 1.914900 -0.001760 0.018430 
#    y -0.001760 1.916940 0.018010 
#    z 0.018430 0.018010 1.940270 
# 
# From -- ./inp_files/469786.got.cif
#   From: 2010.05.17/outbox.cif.g08.bks.cpg/sg2_235_cif.got.tgz:469786.got - 2010.06.03 11:33:40.
