data_PCOD9029047
_publ_section_title
;
Structure prediction by ZEFSAII (Michael W. Deem and Ramdas Pophale) SiO2 
 PCOD9029047
Probable space group: P -1
;
_chemical_formula_sum "Si O2"
_cell_formula_units_Z 9
_cell_length_a 5.392869
_cell_length_b 12.709775
_cell_length_c 8.817365
_cell_angle_alpha 32.321295
_cell_angle_beta 82.963888
_cell_angle_gamma 93.175372
_cell_volume 305.980454
_symmetry_space_group_name_H-M "P -1"
_symmetry_group_IT_number 2
_symmetry_cell_setting 'triclinic'
loop_
_space_group_symop_operation_xyz
x,y,z
-x,-y,-z
loop_
_atom_site_type_symbol
_atom_site_label
_atom_site_fract_x
_atom_site_fract_y
_atom_site_fract_z
Si Si1 0.500000 0.500000 0.500000
Si Si2 0.651265 0.159099 0.667579
Si Si3 0.862624 0.853713 0.869524
Si Si4 0.458668 0.214247 0.300421
Si Si5 0.877036 0.469226 0.750947
O O1 0.747290 0.580303 0.503639
O O2 0.405660 0.289881 0.863031
O O3 0.471241 0.199086 0.497705
O O4 0.816659 0.383857 0.445418
O O5 0.864738 0.069610 0.678103
O O6 0.500000 0.000000 0.000000
O O7 0.802253 0.803674 0.755834
O O8 0.085614 0.753204 0.019875
O O9 0.500000 0.000000 0.500000
O O10 0.697586 0.410662 0.986802
#
# Coordination Sequence:
#
# PCOD9029047 Si02
#       5
#     1   2   2   2   2
#     4  10  22  42  66 102 140 180 228 288 346 404
#     4  11  24  43  71 109 142 177 234 292 346 415
#     4  10  22  43  70  97 139 187 229 283 351 415
#     4   9  22  44  68 101 141 183 230 285 348 417
#     4  11  23  44  72 100 140 185 233 286 347 417
#
# _framework density 29.413644999999999
#
# number of rings (size 3 to 8) (size 9 to 14) (size 15 to 20)
#    0.000    1.778    0.000    2.667    0.000    8.889 
#    0.000   18.889    0.000    0.000    0.000    4.667 
#    0.000    0.000    0.000    0.000    0.000    0.000 
#
# Total GULP energy -50204.674170 kJ/mol
# GULP energy per Si atom -5578.297130 kJ/mol
# Density = 2.934670 g / cm^3
# Si number density = 29.413645 Si / 1000 Ang^3
#
#
#
# Elastic Constant Matrix: (Units=GPa)
#
#
# Indices 1 2 3 4 5 6 
#
# 1 110.2903 32.0024 63.8257 24.4821 12.5512 18.3492
# 2 32.0024 139.9056 67.6995 20.4159 18.3880 1.9056
# 3 63.8257 67.6995 187.5169 40.3473 -22.2573 6.4193
# 4 24.4821 20.4159 40.3473 70.3290 4.4835 8.7634
# 5 12.5512 18.3880 -22.2573 4.4835 73.2527 0.4079
# 6 18.3492 1.9056 6.4193 8.7634 0.4079 58.7400
#
#
#
# Elastic Compliance Matrix: (Units=1/GPa)
#
#
# Indices 1 2 3 4 5 6 
#
# 1 0.012838 -0.000171 -0.004311 -0.001319 -0.003368 -0.003314
# 2 -0.000171 0.009485 -0.003703 -0.000378 -0.003455 0.000231
# 3 -0.004311 -0.003703 0.009353 -0.003201 0.004701 0.000889
# 4 -0.001319 -0.000378 -0.003201 0.016948 -0.001679 -0.001743
# 5 -0.003368 -0.003455 0.004701 -0.001679 0.016622 0.000785
# 6 -0.003314 0.000231 0.000889 -0.001743 0.000785 0.018209
#
#
# Mechanical properties :
#
#
# Convention : Reuss Voigt Hill
#
# Bulk Modulus (GPa) = 65.32508 84.97422 75.14965
# Shear Modulus (GPa) = 47.65220 58.74337 53.19778
#
# Velocity S-wave (km/s) = 4.02938 4.47379 4.25739
# Velocity P-wave (km/s) = 6.62610 7.45912 7.05492
#
# Compressibility (1/GPa) = 0.01530806
#
# Stress axis : x y z
#
# Youngs Moduli (GPa) = 77.89091 105.43466 106.91528
#
# Poissons Ratio (x) = 0.01798 0.46089
# Poissons Ratio (y) = 0.01328 0.39588
# Poissons Ratio (z) = 0.33577 0.39040
#
# Static dielectric constant tensor:
#      x y z
#    x -0.485570 2.161390 0.413200 
#    y 2.161390 0.593860 -0.286290 
#    z 0.413200 -0.286290 2.223540 
# 
# From -- ./inp_files/132706.got.cif
#   From: 2010.05.17/outbox.cif.g08.bks.cpg/sg2_67_cif.got.tgz:132706.got - 2010.06.03 11:33:40.
