data_PCOD9029061
_publ_section_title
;
Structure prediction by ZEFSAII (Michael W. Deem and Ramdas Pophale) SiO2 
 PCOD9029061
Probable space group: P -1
;
_chemical_formula_sum "Si O2"
_cell_formula_units_Z 14
_cell_length_a 5.178539
_cell_length_b 13.062199
_cell_length_c 9.226866
_cell_angle_alpha 94.579270
_cell_angle_beta 90.038675
_cell_angle_gamma 81.818824
_cell_volume 615.773911
_symmetry_space_group_name_H-M "P -1"
_symmetry_group_IT_number 2
_symmetry_cell_setting 'triclinic'
loop_
_space_group_symop_operation_xyz
x,y,z
-x,-y,-z
loop_
_atom_site_type_symbol
_atom_site_label
_atom_site_fract_x
_atom_site_fract_y
_atom_site_fract_z
Si Si1 0.882347 0.756779 0.561114
Si Si2 0.869005 0.578857 0.125575
Si Si3 0.469239 0.222159 0.949231
Si Si4 0.190685 0.740466 0.289329
Si Si5 0.363555 0.418871 0.579700
Si Si6 0.764773 0.968749 0.089166
Si Si7 0.350926 0.834449 0.732392
O O1 0.842024 0.636730 0.519743
O O2 0.611063 0.811583 0.633564
O O3 0.973696 0.792751 0.407337
O O4 0.116471 0.777584 0.668097
O O5 0.070832 0.651686 0.192897
O O6 0.639222 0.657831 0.061212
O O7 0.761448 0.532465 0.266126
O O8 0.000000 0.500000 0.000000
O O9 0.678962 0.191218 0.818398
O O10 0.238457 0.153481 0.912351
O O11 0.577451 0.204312 0.108444
O O12 0.423854 0.678020 0.379041
O O13 0.500000 0.500000 0.500000
O O14 0.739432 0.041931 0.237786
O O15 0.500000 0.000000 0.000000
O O16 0.000000 0.000000 0.000000
#
# Coordination Sequence:
#
# PCOD9029061 Si02
#       7
#     2   2   2   2   2   2   2
#     4  11  23  44  66 101 138 173 226 282 339 403
#     4  10  24  42  68  99 135 175 233 278 339 407
#     4  10  24  42  71  99 140 181 221 289 344 396
#     4  10  23  45  64  94 140 179 219 278 354 395
#     4  10  23  44  67  93 134 183 225 283 342 400
#     4  10  22  42  66 105 140 174 225 279 344 399
#     4  11  23  41  72 105 132 178 233 280 329 414
#
# _framework density 22.735614999999999
#
# number of rings (size 3 to 8) (size 9 to 14) (size 15 to 20)
#    0.000    1.714    1.429    1.714    6.000    8.000 
#    0.000    1.429    0.000    0.000    0.000    0.000 
#    0.000    0.000    0.000    0.000    0.000    0.000 
#
# Total GULP energy -78271.764633 kJ/mol
# GULP energy per Si atom -5590.840331 kJ/mol
# Density = 2.268387 g / cm^3
# Si number density = 22.735615 Si / 1000 Ang^3
#
#
#
# Elastic Constant Matrix: (Units=GPa)
#
#
# Indices 1 2 3 4 5 6 
#
# 1 140.7490 27.3598 68.4866 10.7405 -16.5910 21.8743
# 2 27.3598 64.1991 69.5643 6.2322 -12.5917 8.4063
# 3 68.4866 69.5643 163.5825 31.5798 -28.6145 12.7541
# 4 10.7405 6.2322 31.5798 26.9851 4.5987 -1.1234
# 5 -16.5910 -12.5917 -28.6145 4.5987 62.1869 0.9239
# 6 21.8743 8.4063 12.7541 -1.1234 0.9239 33.3656
#
#
#
# Elastic Compliance Matrix: (Units=1/GPa)
#
#
# Indices 1 2 3 4 5 6 
#
# 1 0.009745 0.000974 -0.003924 0.000093 0.001061 -0.005160
# 2 0.000974 0.031456 -0.016108 0.011387 -0.001595 -0.001979
# 3 -0.003924 -0.016108 0.019325 -0.018415 0.005969 -0.001542
# 4 0.000093 0.011387 -0.018415 0.057999 -0.010526 0.006354
# 5 0.001061 -0.001595 0.005969 -0.010526 0.019617 -0.003473
# 6 -0.005160 -0.001979 -0.001542 0.006354 -0.003473 0.034752
#
#
# Mechanical properties :
#
#
# Convention : Reuss Voigt Hill
#
# Bulk Modulus (GPa) = 44.62233 77.70578 61.16406
# Shear Modulus (GPa) = 22.88539 38.04887 30.46713
#
# Velocity S-wave (km/s) = 3.17612 4.09533 3.66466
# Velocity P-wave (km/s) = 5.75496 7.52426 6.69828
#
# Compressibility (1/GPa) = 0.02241031
#
# Stress axis : x y z
#
# Youngs Moduli (GPa) = 102.61804 31.79036 51.74650
#
# Poissons Ratio (x) = -0.03095 0.20304
# Poissons Ratio (y) = -0.09991 0.83351
# Poissons Ratio (z) = 0.40265 0.51207
#
# Static dielectric constant tensor:
#      x y z
#    x 1.924640 -0.085840 -0.011590 
#    y -0.085840 1.957760 -0.008050 
#    z -0.011590 -0.008050 1.847780 
# 
# From -- ./inp_files/47842.got.cif
#   From: 2010.05.17/outbox.cif.g08.bks.cpg/sg2_24_cif.got.tgz:47842.got - 2010.06.03 11:33:40.
