data_PCOD9029043
_publ_section_title
;
Structure prediction by ZEFSAII (Michael W. Deem and Ramdas Pophale) SiO2 
 PCOD9029043
Probable space group: P -1
;
_chemical_formula_sum "Si O2"
_cell_formula_units_Z 14
_cell_length_a 15.191992
_cell_length_b 15.510339
_cell_length_c 9.350471
_cell_angle_alpha 31.118083
_cell_angle_beta 37.530997
_cell_angle_gamma 37.230823
_cell_volume 643.724428
_symmetry_space_group_name_H-M "P -1"
_symmetry_group_IT_number 2
_symmetry_cell_setting 'triclinic'
loop_
_space_group_symop_operation_xyz
x,y,z
-x,-y,-z
loop_
_atom_site_type_symbol
_atom_site_label
_atom_site_fract_x
_atom_site_fract_y
_atom_site_fract_z
Si Si1 0.852020 0.452936 0.796089
Si Si2 0.523553 0.673777 0.785338
Si Si3 0.801655 0.467791 0.177220
Si Si4 0.149522 0.224629 0.167843
Si Si5 0.678595 0.191486 0.861767
Si Si6 0.578819 0.949389 0.125265
Si Si7 0.976041 0.038013 0.145558
O O1 0.703098 0.597924 0.707894
O O2 0.000000 0.500000 0.500000
O O3 0.811696 0.464603 0.998919
O O4 0.893401 0.249368 0.979609
O O5 0.502261 0.828748 0.478069
O O6 0.500000 0.500000 0.000000
O O7 0.413507 0.751251 0.952754
O O8 0.694375 0.366703 0.519887
O O9 0.974008 0.350838 0.178312
O O10 0.769234 0.664856 0.001686
O O11 0.242872 0.165124 0.985744
O O12 0.131782 0.061232 0.509398
O O13 0.853674 0.049528 0.873658
O O14 0.589277 0.104971 0.993298
O O15 0.500000 0.000000 0.000000
O O16 0.000000 0.000000 0.000000
#
# Coordination Sequence:
#
# PCOD9029043 Si02
#       7
#     2   2   2   2   2   2   2
#     4  12  25  42  71 100 141 184 240 285 357 415
#     4  12  28  47  71 105 147 184 234 297 357 425
#     4  10  22  42  72 100 137 182 228 295 349 423
#     4  10  22  42  66 102 137 177 236 283 347 419
#     4  11  25  46  72 103 143 184 238 289 356 422
#     4  12  28  44  71  99 144 189 237 287 350 421
#     4  11  23  41  73 101 138 182 234 290 351 425
#
# _framework density 21.748436999999999
#
# number of rings (size 3 to 8) (size 9 to 14) (size 15 to 20)
#    0.000    0.857    0.000    6.429    8.000    5.143 
#    0.000    0.000    0.000    0.000    0.000    0.000 
#    0.000    0.000    0.000    0.000    0.000    0.000 
#
# Total GULP energy -78390.268168 kJ/mol
# GULP energy per Si atom -5599.304869 kJ/mol
# Density = 2.169894 g / cm^3
# Si number density = 21.748437 Si / 1000 Ang^3
#
#
#
# Elastic Constant Matrix: (Units=GPa)
#
#
# Indices 1 2 3 4 5 6 
#
# 1 109.6626 30.1626 71.7825 -5.8751 8.3699 27.4431
# 2 30.1626 106.4641 50.1100 8.3088 -2.1198 27.5405
# 3 71.7825 50.1100 182.4000 13.7006 4.9154 23.1314
# 4 -5.8751 8.3088 13.7006 39.0711 6.7948 1.5800
# 5 8.3699 -2.1198 4.9154 6.7948 32.1834 -0.0493
# 6 27.4431 27.5405 23.1314 1.5800 -0.0493 51.1796
#
#
#
# Elastic Compliance Matrix: (Units=1/GPa)
#
#
# Indices 1 2 3 4 5 6 
#
# 1 0.014604 -0.000859 -0.005121 0.005109 -0.004159 -0.005215
# 2 -0.000859 0.012197 -0.002273 -0.002036 0.001796 -0.005011
# 3 -0.005121 -0.002273 0.008316 -0.003322 0.000614 0.000314
# 4 0.005109 -0.002036 -0.003322 0.029243 -0.007131 -0.001052
# 5 -0.004159 0.001796 0.000614 -0.007131 0.033686 0.001239
# 6 -0.005215 -0.005011 0.000314 -0.001052 0.001239 0.024924
#
#
# Mechanical properties :
#
#
# Convention : Reuss Voigt Hill
#
# Bulk Modulus (GPa) = 53.73631 78.07078 65.90355
# Shear Modulus (GPa) = 34.32212 40.91823 37.62018
#
# Velocity S-wave (km/s) = 3.97689 4.34225 4.16358
# Velocity P-wave (km/s) = 6.77121 7.81763 7.31316
#
# Compressibility (1/GPa) = 0.01860939
#
# Stress axis : x y z
#
# Youngs Moduli (GPa) = 68.47478 81.98861 120.25707
#
# Poissons Ratio (x) = 0.07045 0.61589
# Poissons Ratio (y) = 0.05884 0.27330
# Poissons Ratio (z) = 0.35069 0.18633
#
# Static dielectric constant tensor:
#      x y z
#    x 1.798340 -0.059020 0.004110 
#    y -0.059020 1.774540 0.008230 
#    z 0.004110 0.008230 1.739980 
# 
# From -- ./inp_files/157136.got.cif
#   From: 2010.05.17/outbox.cif.g08.bks.cpg/sg2_79_cif.got.tgz:157136.got - 2010.06.03 11:33:40.
