data_PCOD9029779
_publ_section_title
;
Structure prediction by ZEFSAII (Michael W. Deem and Ramdas Pophale) SiO2 
 PCOD9029779
Probable space group: P -1
;
_chemical_formula_sum "Si O2"
_cell_formula_units_Z 15
_cell_length_a 12.465217
_cell_length_b 6.318055
_cell_length_c 11.445950
_cell_angle_alpha 107.264439
_cell_angle_beta 59.890636
_cell_angle_gamma 80.283410
_cell_volume 687.415831
_symmetry_space_group_name_H-M "P -1"
_symmetry_group_IT_number 2
_symmetry_cell_setting 'triclinic'
loop_
_space_group_symop_operation_xyz
x,y,z
-x,-y,-z
loop_
_atom_site_type_symbol
_atom_site_label
_atom_site_fract_x
_atom_site_fract_y
_atom_site_fract_z
Si Si1 0.563701 0.897340 0.325565
Si Si2 0.912684 0.747933 0.651768
Si Si3 0.321935 0.923588 0.325077
Si Si4 0.701993 0.388726 0.076488
Si Si5 0.500000 0.500000 0.000000
Si Si6 0.826940 0.993170 0.132445
Si Si7 0.105350 0.007074 0.652191
Si Si8 0.075150 0.454360 0.133979
O O1 0.447482 0.987592 0.306591
O O2 0.619331 0.608760 0.242907
O O3 0.500000 0.000000 0.500000
O O4 0.689167 0.964470 0.237818
O O5 0.888415 0.681889 0.785280
O O6 0.000000 0.500000 0.500000
O O7 0.995708 0.920549 0.641100
O O8 0.779058 0.881412 0.673507
O O9 0.237043 0.914444 0.484636
O O10 0.387532 0.673109 0.181370
O O11 0.789956 0.167548 0.071054
O O12 0.598658 0.359431 0.035258
O O13 0.802446 0.474043 0.961298
O O14 0.872011 0.081705 0.240777
O O15 0.932812 0.734337 0.989124
O O16 0.051224 0.296861 0.738627
#
# Coordination Sequence:
#
# PCOD9029779 Si02
#       8
#     2   2   2   2   1   2   2   2
#     4  10  22  44  66  99 136 176 229 281 342 404
#     4  12  27  44  71 104 135 184 235 279 347 409
#     4  11  23  45  70  99 139 180 224 290 337 409
#     4  10  24  42  68  96 138 180 228 288 337 410
#     4  10  22  42  68  94 132 180 226 276 338 390
#     4  11  24  44  71 103 136 182 229 281 351 410
#     4  12  25  43  70 100 143 181 226 285 344 409
#     4  11  24  44  68  99 138 179 228 288 339 415
#
# _framework density 21.820851999999999
#
# number of rings (size 3 to 8) (size 9 to 14) (size 15 to 20)
#    0.000    1.067    2.667    3.200    1.867    6.933 
#    2.400    4.000    0.000    0.000    0.000    0.000 
#    0.000    0.000    0.000    0.000    0.000    0.000 
#
# Total GULP energy -83652.184675 kJ/mol
# GULP energy per Si atom -5576.812312 kJ/mol
# Density = 2.177119 g / cm^3
# Si number density = 21.820852 Si / 1000 Ang^3
#
#
#
# Elastic Constant Matrix: (Units=GPa)
#
#
# Indices 1 2 3 4 5 6 
#
# 1 85.3375 21.6374 23.9975 14.2669 2.2878 -15.9802
# 2 21.6374 62.6900 40.6413 -2.8222 3.2103 -17.8897
# 3 23.9975 40.6413 188.2088 16.1152 6.3095 -4.4259
# 4 14.2669 -2.8222 16.1152 32.9435 -6.2611 -1.7207
# 5 2.2878 3.2103 6.3095 -6.2611 33.1207 -1.3555
# 6 -15.9802 -17.8897 -4.4259 -1.7207 -1.3555 29.6961
#
#
#
# Elastic Compliance Matrix: (Units=1/GPa)
#
#
# Indices 1 2 3 4 5 6 
#
# 1 0.014879 -0.003580 -0.000379 -0.006597 -0.001637 0.005336
# 2 -0.003580 0.024318 -0.005118 0.006914 0.000679 0.012392
# 3 -0.000379 -0.005118 0.006808 -0.004053 -0.001647 -0.002582
# 4 -0.006597 0.006914 -0.004053 0.037388 0.007729 0.002530
# 5 -0.001637 0.000679 -0.001647 0.007729 0.032063 0.001194
# 6 0.005336 0.012392 -0.002582 0.002530 0.001194 0.043827
#
#
# Mechanical properties :
#
#
# Convention : Reuss Voigt Hill
#
# Bulk Modulus (GPa) = 35.90557 56.53207 46.21882
# Shear Modulus (GPa) = 26.77794 35.81607 31.29701
#
# Velocity S-wave (km/s) = 3.50690 4.05578 3.79129
# Velocity P-wave (km/s) = 5.73483 6.92070 6.35548
#
# Compressibility (1/GPa) = 0.02785084
#
# Stress axis : x y z
#
# Youngs Moduli (GPa) = 67.21085 41.12206 146.88211
#
# Poissons Ratio (x) = 0.14722 0.05563
# Poissons Ratio (y) = 0.24063 0.75174
# Poissons Ratio (z) = 0.02545 0.21046
#
# Static dielectric constant tensor:
#      x y z
#    x 1.798690 0.008200 0.008890 
#    y 0.008200 1.784480 0.017290 
#    z 0.008890 0.017290 1.775970 
# 
# From -- ./inp_files/69746.got.cif
#   From: 2010.05.17/outbox.cif.g08.bks.cpg/sg2_35_cif.got.tgz:69746.got - 2010.06.03 11:33:40.
