data_PCOD9029006
_publ_section_title
;
Structure prediction by ZEFSAII (Michael W. Deem and Ramdas Pophale) SiO2 
 PCOD9029006
Probable space group: P -1
;
_chemical_formula_sum "Si O2"
_cell_formula_units_Z 15
_cell_length_a 13.382937
_cell_length_b 9.838902
_cell_length_c 9.513379
_cell_angle_alpha 43.262914
_cell_angle_beta 68.299562
_cell_angle_gamma 58.197778
_cell_volume 729.409627
_symmetry_space_group_name_H-M "P -1"
_symmetry_group_IT_number 2
_symmetry_cell_setting 'triclinic'
loop_
_space_group_symop_operation_xyz
x,y,z
-x,-y,-z
loop_
_atom_site_type_symbol
_atom_site_label
_atom_site_fract_x
_atom_site_fract_y
_atom_site_fract_z
Si Si1 0.550450 0.587645 0.537796
Si Si2 0.799233 0.136266 0.155392
Si Si3 0.975994 0.980589 0.691179
Si Si4 0.611161 0.024240 0.492734
Si Si5 0.630874 0.836444 0.098664
Si Si6 0.000000 0.500000 0.000000
Si Si7 0.244835 0.840612 0.158231
Si Si8 0.254017 0.385222 0.070942
O O1 0.500000 0.500000 0.500000
O O2 0.442685 0.755077 0.555404
O O3 0.619995 0.720596 0.333887
O O4 0.641619 0.386183 0.728028
O O5 0.918334 0.012134 0.274996
O O6 0.702346 0.047392 0.317580
O O7 0.815387 0.117863 0.993846
O O8 0.753214 0.389422 0.031952
O O9 0.977960 0.742939 0.886873
O O10 0.000000 0.000000 0.500000
O O11 0.850140 0.151767 0.680868
O O12 0.500000 0.000000 0.500000
O O13 0.675411 0.818540 0.714045
O O14 0.684020 0.662529 0.078057
O O15 0.500000 0.000000 0.000000
O O16 0.708532 0.974363 0.971651
O O17 0.124067 0.399638 0.100104
#
# Coordination Sequence:
#
# PCOD9029006 Si02
#       8
#     2   2   2   2   2   1   2   2
#     4  12  25  39  67 101 133 178 229 273 330 406
#     4  11  27  43  70 101 138 180 222 285 348 400
#     4  11  25  45  74  98 131 179 233 282 337 409
#     4  12  25  43  66  96 139 180 222 272 346 412
#     4  12  23  41  68  98 138 181 223 286 335 399
#     4  10  22  42  66 100 124 172 220 284 326 398
#     4  12  26  45  66 102 141 175 227 284 344 400
#     4  11  23  43  67  98 136 176 233 275 341 406
#
# _framework density 20.564577
#
# number of rings (size 3 to 8) (size 9 to 14) (size 15 to 20)
#    0.000    0.533    4.000    3.600    5.600    1.067 
#    0.000    0.000    0.000    7.200    0.000    0.000 
#    0.000    0.000    0.000    0.000    0.000    0.000 
#
# Total GULP energy -83657.940876 kJ/mol
# GULP energy per Si atom -5577.196058 kJ/mol
# Density = 2.051777 g / cm^3
# Si number density = 20.564577 Si / 1000 Ang^3
#
#
#
# Elastic Constant Matrix: (Units=GPa)
#
#
# Indices 1 2 3 4 5 6 
#
# 1 138.7659 9.8449 21.0344 -1.5625 10.7511 3.2078
# 2 9.8449 55.3782 -4.4452 6.6385 -1.1726 0.1323
# 3 21.0344 -4.4452 53.0795 13.0028 0.8558 -12.7601
# 4 -1.5625 6.6385 13.0028 34.8840 -0.2599 6.1411
# 5 10.7511 -1.1726 0.8558 -0.2599 36.7429 -4.6274
# 6 3.2078 0.1323 -12.7601 6.1411 -4.6274 30.3305
#
#
#
# Elastic Compliance Matrix: (Units=1/GPa)
#
#
# Indices 1 2 3 4 5 6 
#
# 1 0.008595 -0.002464 -0.005526 0.003670 -0.002996 -0.004423
# 2 -0.002464 0.019704 0.005110 -0.006436 0.001674 0.003883
# 3 -0.005526 0.005110 0.028939 -0.014837 0.003042 0.016205
# 4 0.003670 -0.006436 -0.014837 0.038157 -0.002517 -0.014712
# 5 -0.002996 0.001674 0.003042 -0.002517 0.028877 0.006505
# 6 -0.004423 0.003883 0.016205 -0.014712 0.006505 0.044210
#
#
# Mechanical properties :
#
#
# Convention : Reuss Voigt Hill
#
# Bulk Modulus (GPa) = 19.42704 33.34352 26.38528
# Shear Modulus (GPa) = 26.12317 35.11076 30.61697
#
# Velocity S-wave (km/s) = 3.56799 4.13648 3.86271
# Velocity P-wave (km/s) = 5.14212 6.25006 5.72297
#
# Compressibility (1/GPa) = 0.05147466
#
# Stress axis : x y z
#
# Youngs Moduli (GPa) = 116.35190 50.75220 34.55574
#
# Poissons Ratio (x) = 0.12507 0.19097
# Poissons Ratio (y) = 0.28673 -0.17657
# Poissons Ratio (z) = 0.64301 -0.25933
#
# Static dielectric constant tensor:
#      x y z
#    x 1.725390 -0.017200 -0.025720 
#    y -0.017200 1.756620 0.010310 
#    z -0.025720 0.010310 1.715460 
# 
# From -- ./inp_files/178413.got.cif
#   From: 2010.05.17/outbox.cif.g08.bks.cpg/sg2_90_cif.got.tgz:178413.got - 2010.06.03 11:33:40.
