data_PCOD9029518
_publ_section_title
;
Structure prediction by ZEFSAII (Michael W. Deem and Ramdas Pophale) SiO2 
 PCOD9029518
Probable space group: P -1
;
_chemical_formula_sum "Si O2"
_cell_formula_units_Z 16
_cell_length_a 6.964051
_cell_length_b 23.607469
_cell_length_c 18.814128
_cell_angle_alpha 166.452191
_cell_angle_beta 64.039973
_cell_angle_gamma 115.861507
_cell_volume 650.640390
_symmetry_space_group_name_H-M "P -1"
_symmetry_group_IT_number 2
_symmetry_cell_setting 'triclinic'
loop_
_space_group_symop_operation_xyz
x,y,z
-x,-y,-z
loop_
_atom_site_type_symbol
_atom_site_label
_atom_site_fract_x
_atom_site_fract_y
_atom_site_fract_z
Si Si1 0.735199 0.884694 0.618283
Si Si2 0.071107 0.135618 0.581671
Si Si3 0.676747 0.473223 0.740030
Si Si4 0.831605 0.387464 0.766765
Si Si5 0.100328 0.242311 0.181639
Si Si6 0.363204 0.998132 0.590857
Si Si7 0.440720 0.622976 0.734710
Si Si8 0.103121 0.242604 0.348462
O O1 0.526378 0.712842 0.459209
O O2 0.749906 0.921852 0.575250
O O3 0.948231 0.754278 0.450403
O O4 0.707071 0.152186 0.979259
O O5 0.869964 0.068747 0.483454
O O6 0.000000 0.000000 0.500000
O O7 0.116404 0.406385 0.932175
O O8 0.761771 0.492589 0.831256
O O9 0.882432 0.380911 0.553935
O O10 0.615941 0.742760 0.059865
O O11 0.628827 0.220804 0.623029
O O12 0.333228 0.266663 0.137107
O O13 0.145570 0.196499 0.202114
O O14 0.000000 0.500000 0.500000
O O15 0.944888 0.006089 0.904041
O O16 0.500000 0.000000 0.500000
O O17 0.500000 0.500000 0.500000
O O18 0.304378 0.420524 0.555144
#
# Coordination Sequence:
#
# PCOD9029518 Si02
#       8
#     2   2   2   2   2   2   2   2
#     4  11  24  45  67  99 140 174 231 291 338 411
#     4  11  22  41  66  94 136 178 228 281 339 405
#     4  12  24  43  68  98 139 176 229 283 338 417
#     4  11  25  43  66  97 135 184 222 282 350 399
#     4  10  22  43  69  98 132 173 225 277 346 411
#     4  11  23  40  64  95 128 177 230 279 338 406
#     4  10  22  44  71  95 137 177 218 293 341 399
#     4  10  22  42  67  96 136 172 221 284 338 405
#
# _framework density 24.591158
#
# number of rings (size 3 to 8) (size 9 to 14) (size 15 to 20)
#    0.000    1.250    2.500    4.500    1.750    4.500 
#    2.250    0.000    0.000    0.000    0.000    0.000 
#    0.000    0.000    0.000    0.000    0.000    0.000 
#
# Total GULP energy -89381.657324 kJ/mol
# GULP energy per Si atom -5586.353583 kJ/mol
# Density = 2.453519 g / cm^3
# Si number density = 24.591158 Si / 1000 Ang^3
#
#
#
# Elastic Constant Matrix: (Units=GPa)
#
#
# Indices 1 2 3 4 5 6 
#
# 1 59.8701 31.2698 7.8946 21.5673 6.2527 14.5797
# 2 31.2698 122.4264 56.3764 17.5892 16.8890 36.2372
# 3 7.8946 56.3764 178.5660 24.2209 5.1920 21.4760
# 4 21.5673 17.5892 24.2209 55.1580 9.1839 17.5718
# 5 6.2527 16.8890 5.1920 9.1839 32.1787 3.2078
# 6 14.5797 36.2372 21.4760 17.5718 3.2078 47.9129
#
#
#
# Elastic Compliance Matrix: (Units=1/GPa)
#
#
# Indices 1 2 3 4 5 6 
#
# 1 0.022052 -0.005162 0.001770 -0.007543 0.000377 -0.000859
# 2 -0.005162 0.013782 -0.003354 0.002553 -0.005630 -0.007909
# 3 0.001770 -0.003354 0.006949 -0.002808 0.001113 -0.000161
# 4 -0.007543 0.002553 -0.002808 0.024705 -0.005769 -0.007051
# 5 0.000377 -0.005630 0.001113 -0.005769 0.035085 0.003411
# 6 -0.000859 -0.007909 -0.000161 -0.007051 0.003411 0.029544
#
#
# Mechanical properties :
#
#
# Convention : Reuss Voigt Hill
#
# Bulk Modulus (GPa) = 34.13995 61.32710 47.73352
# Shear Modulus (GPa) = 32.18071 44.73805 38.45938
#
# Velocity S-wave (km/s) = 3.62142 4.26992 3.95897
# Velocity P-wave (km/s) = 5.60352 7.02157 6.35224
#
# Compressibility (1/GPa) = 0.02929120
#
# Stress axis : x y z
#
# Youngs Moduli (GPa) = 45.34636 72.55860 143.90895
#
# Poissons Ratio (x) = 0.37453 -0.25475
# Poissons Ratio (y) = 0.23407 0.48274
# Poissons Ratio (z) = -0.08027 0.24340
#
# Static dielectric constant tensor:
#      x y z
#    x 1.999580 -0.004700 -0.020230 
#    y -0.004700 2.072030 0.052650 
#    z -0.020230 0.052650 2.015450 
# 
# From -- ./inp_files/608869.got.cif
#   From: 2010.05.17/outbox.cif.g08.bks.cpg/sg2_305_cif.got.tgz:608869.got - 2010.06.03 11:33:40.
