data_PCOD9029017
_publ_section_title
;
Structure prediction by ZEFSAII (Michael W. Deem and Ramdas Pophale) SiO2 
 PCOD9029017
Probable space group: P -1
;
_chemical_formula_sum "Si O2"
_cell_formula_units_Z 12
_cell_length_a 16.505909
_cell_length_b 5.138857
_cell_length_c 13.016852
_cell_angle_alpha 86.248874
_cell_angle_beta 147.197056
_cell_angle_gamma 74.358576
_cell_volume 477.288112
_symmetry_space_group_name_H-M "P -1"
_symmetry_group_IT_number 2
_symmetry_cell_setting 'triclinic'
loop_
_space_group_symop_operation_xyz
x,y,z
-x,-y,-z
loop_
_atom_site_type_symbol
_atom_site_label
_atom_site_fract_x
_atom_site_fract_y
_atom_site_fract_z
Si Si1 0.568892 0.316297 0.184061
Si Si2 0.033614 0.367377 0.788144
Si Si3 0.187373 0.910662 0.149837
Si Si4 0.579848 0.793630 0.303782
Si Si5 0.005584 0.921165 0.629325
Si Si6 0.477412 0.225261 0.378578
O O1 0.514701 0.571298 0.211810
O O2 0.520730 0.064106 0.147006
O O3 0.500000 0.500000 0.000000
O O4 0.789984 0.112811 0.423177
O O5 0.085770 0.571512 0.773564
O O6 0.807043 0.580044 0.559274
O O7 0.083132 0.081547 0.771316
O O8 0.126944 0.212729 0.002507
O O9 0.300453 0.591817 0.205267
O O10 0.331451 0.809958 0.399775
O O11 0.000000 0.000000 0.000000
O O12 0.490783 0.027010 0.300156
O O13 0.000000 0.000000 0.500000
O O14 0.500000 0.000000 0.500000
#
# Coordination Sequence:
#
# PCOD9029017 Si02
#       6
#     2   2   2   2   2   2
#     4  10  22  42  67  99 134 185 231 296 367 425
#     4  10  23  42  70 100 136 192 238 292 371 427
#     4  11  27  46  75 106 151 200 246 306 371 442
#     4  10  23  42  71  96 142 184 238 295 359 440
#     4  10  22  42  66 100 137 179 238 300 359 439
#     4  11  27  46  71 110 148 193 252 303 367 449
#
# _framework density 25.142047999999999
#
# number of rings (size 3 to 8) (size 9 to 14) (size 15 to 20)
#    0.000    1.667    0.000    2.000   14.000    2.667 
#    0.000    0.000    0.000    0.000    0.000    0.000 
#    0.000    0.000    0.000    0.000    0.000    0.000 
#
# Total GULP energy -67108.544482 kJ/mol
# GULP energy per Si atom -5592.378707 kJ/mol
# Density = 2.508482 g / cm^3
# Si number density = 25.142048 Si / 1000 Ang^3
#
#
#
# Elastic Constant Matrix: (Units=GPa)
#
#
# Indices 1 2 3 4 5 6 
#
# 1 103.2211 34.2829 43.2934 -16.5862 -3.9471 -6.5855
# 2 34.2829 133.1358 40.1867 -5.4416 -3.1624 4.5030
# 3 43.2934 40.1867 126.7476 -19.0063 -11.3186 -5.5900
# 4 -16.5862 -5.4416 -19.0063 36.4325 -2.1007 -13.3679
# 5 -3.9471 -3.1624 -11.3186 -2.1007 64.5254 -7.8832
# 6 -6.5855 4.5030 -5.5900 -13.3679 -7.8832 42.5112
#
#
#
# Elastic Compliance Matrix: (Units=1/GPa)
#
#
# Indices 1 2 3 4 5 6 
#
# 1 0.012703 -0.002397 -0.002499 0.005567 0.000867 0.003805
# 2 -0.002397 0.008847 -0.002418 -0.001909 -0.000482 -0.002316
# 3 -0.002499 -0.002418 0.010670 0.005437 0.002191 0.003388
# 4 0.005567 -0.001909 0.005437 0.038115 0.004219 0.014548
# 5 0.000867 -0.000482 0.002191 0.004219 0.016646 0.004887
# 6 0.003805 -0.002316 0.003388 0.014548 0.004887 0.030284
#
#
# Mechanical properties :
#
#
# Convention : Reuss Voigt Hill
#
# Bulk Modulus (GPa) = 56.84176 66.51451 61.67814
# Shear Modulus (GPa) = 36.29577 45.04991 40.67284
#
# Velocity S-wave (km/s) = 3.80363 4.23758 4.02645
# Velocity P-wave (km/s) = 6.47669 7.10321 6.79717
#
# Compressibility (1/GPa) = 0.01759270
#
# Stress axis : x y z
#
# Youngs Moduli (GPa) = 78.72355 113.03191 93.71886
#
# Poissons Ratio (x) = 0.27097 0.23417
# Poissons Ratio (y) = 0.18872 0.22658
# Poissons Ratio (z) = 0.19670 0.27327
#
# Static dielectric constant tensor:
#      x y z
#    x 2.060340 0.031900 -0.008410 
#    y 0.031900 1.699190 0.385260 
#    z -0.008410 0.385260 1.777440 
# 
# From -- ./inp_files/230004.got.cif
#   From: 2010.05.17/outbox.cif.g08.bks.cpg/sg2_116_cif.got.tgz:230004.got - 2010.06.03 11:33:40.
