data_PCOD9029923
_publ_section_title
;
Structure prediction by ZEFSAII (Michael W. Deem and Ramdas Pophale) SiO2 
 PCOD9029923
Probable space group: P -1
;
_chemical_formula_sum "Si O2"
_cell_formula_units_Z 13
_cell_length_a 17.675262
_cell_length_b 4.924416
_cell_length_c 16.045475
_cell_angle_alpha 124.566481
_cell_angle_beta 149.995837
_cell_angle_gamma 41.927566
_cell_volume 454.122303
_symmetry_space_group_name_H-M "P -1"
_symmetry_group_IT_number 2
_symmetry_cell_setting 'triclinic'
loop_
_space_group_symop_operation_xyz
x,y,z
-x,-y,-z
loop_
_atom_site_type_symbol
_atom_site_label
_atom_site_fract_x
_atom_site_fract_y
_atom_site_fract_z
Si Si1 0.144296 0.079545 0.617490
Si Si2 0.175615 0.414865 0.104384
Si Si3 0.948414 0.744645 0.792368
Si Si4 0.436641 0.922920 0.557384
Si Si5 0.779904 0.438442 0.115669
Si Si6 0.457774 0.841953 0.759112
Si Si7 0.500000 0.500000 0.000000
O O1 0.254260 0.134360 0.807141
O O2 0.000000 0.500000 0.500000
O O3 0.309676 0.805960 0.660500
O O4 0.000000 0.000000 0.500000
O O5 0.143149 0.844575 0.167770
O O6 0.385183 0.068562 0.281689
O O7 0.000000 0.500000 0.000000
O O8 0.126292 0.391390 0.957584
O O9 0.778037 0.711184 0.613040
O O10 0.012395 0.786626 0.768860
O O11 0.500000 0.500000 0.500000
O O12 0.433345 0.860750 0.641749
O O13 0.663541 0.491741 0.932614
O O14 0.677803 0.371161 0.079306
O O15 0.437986 0.250812 0.841066
#
# Coordination Sequence:
#
# PCOD9029923 Si02
#       7
#     2   2   2   2   2   2   1
#     4  11  26  45  70 105 147 189 249 313 375 450
#     4  10  22  42  68  99 135 179 233 294 360 434
#     4  10  22  43  67  97 137 182 234 293 363 433
#     4  10  22  45  69 101 139 180 241 300 362 438
#     4  11  24  43  71  99 140 191 241 301 368 448
#     4  11  24  45  70 100 141 190 241 301 369 446
#     4  10  24  40  72 100 138 186 244 290 368 434
#
# _framework density 28.626647999999999
#
# number of rings (size 3 to 8) (size 9 to 14) (size 15 to 20)
#    0.000    1.538    1.538    2.769   10.769    0.615 
#    5.538    0.000    0.000    0.000    0.000    0.000 
#    0.000    0.000    0.000    0.000    0.000    0.000 
#
# Total GULP energy -72525.138236 kJ/mol
# GULP energy per Si atom -5578.856787 kJ/mol
# Density = 2.856149 g / cm^3
# Si number density = 28.626648 Si / 1000 Ang^3
#
#
#
# Elastic Constant Matrix: (Units=GPa)
#
#
# Indices 1 2 3 4 5 6 
#
# 1 220.8525 33.4582 79.2154 19.1228 23.7447 -7.9472
# 2 33.4582 72.6191 38.1850 28.4631 0.1716 -3.2164
# 3 79.2154 38.1850 213.5173 21.3046 36.8937 -11.2740
# 4 19.1228 28.4631 21.3046 53.9018 -13.0408 -1.4882
# 5 23.7447 0.1716 36.8937 -13.0408 72.3026 14.4974
# 6 -7.9472 -3.2164 -11.2740 -1.4882 14.4974 53.6594
#
#
#
# Elastic Compliance Matrix: (Units=1/GPa)
#
#
# Indices 1 2 3 4 5 6 
#
# 1 0.005510 -0.001366 -0.001412 -0.000998 -0.001425 0.000795
# 2 -0.001366 0.018868 -0.001928 -0.008771 -0.000265 0.000352
# 3 -0.001412 -0.001928 0.006449 -0.001833 -0.003541 0.001936
# 4 -0.000998 -0.008771 -0.001833 0.025739 0.006339 -0.002058
# 5 -0.001425 -0.000265 -0.003541 0.006339 0.018406 -0.005768
# 6 0.000795 0.000352 0.001936 -0.002058 -0.005768 0.020683
#
#
# Mechanical properties :
#
#
# Convention : Reuss Voigt Hill
#
# Bulk Modulus (GPa) = 46.69817 89.85624 68.27721
# Shear Modulus (GPa) = 44.56117 59.71476 52.13797
#
# Velocity S-wave (km/s) = 3.94970 4.57221 4.27231
# Velocity P-wave (km/s) = 6.09495 7.70264 6.94547
#
# Compressibility (1/GPa) = 0.02141411
#
# Stress axis : x y z
#
# Youngs Moduli (GPa) = 181.50311 53.00084 155.05831
#
# Poissons Ratio (x) = 0.07242 0.21893
# Poissons Ratio (y) = 0.24799 0.29893
# Poissons Ratio (z) = 0.25627 0.10218
#
# Static dielectric constant tensor:
#      x y z
#    x 2.144060 -0.198660 0.142220 
#    y -0.198660 -13.701830 5.747290 
#    z 0.142220 5.747290 0.215560 
# 
# From -- ./inp_files/31100.got.cif
#   From: 2010.05.17/outbox.cif.g08.bks.cpg/sg2_16_cif.got.tgz:31100.got - 2010.06.03 11:33:40.
