data_PCOD9029471
_publ_section_title
;
Structure prediction by ZEFSAII (Michael W. Deem and Ramdas Pophale) SiO2 
 PCOD9029471
Probable space group: P -1
;
_chemical_formula_sum "Si O2"
_cell_formula_units_Z 16
_cell_length_a 11.896785
_cell_length_b 14.582298
_cell_length_c 9.109548
_cell_angle_alpha 71.439809
_cell_angle_beta 105.493216
_cell_angle_gamma 46.915101
_cell_volume 781.545118
_symmetry_space_group_name_H-M "P -1"
_symmetry_group_IT_number 2
_symmetry_cell_setting 'triclinic'
loop_
_space_group_symop_operation_xyz
x,y,z
-x,-y,-z
loop_
_atom_site_type_symbol
_atom_site_label
_atom_site_fract_x
_atom_site_fract_y
_atom_site_fract_z
Si Si1 0.307764 0.194102 0.256243
Si Si2 0.285561 0.185457 0.908464
Si Si3 0.225664 0.818892 0.856859
Si Si4 0.210405 0.778612 0.532483
Si Si5 0.617589 0.658861 0.155159
Si Si6 0.318183 0.570529 0.214490
Si Si7 0.821499 0.502059 0.005641
Si Si8 0.125126 0.652557 0.407442
O O1 0.315381 0.306359 0.186167
O O2 0.500000 0.000000 0.500000
O O3 0.291138 0.169410 0.094773
O O4 0.077265 0.342524 0.179928
O O5 0.292145 0.295901 0.826232
O O6 0.084822 0.266049 0.733890
O O7 0.500000 0.000000 0.000000
O O8 0.266881 0.757954 0.733566
O O9 0.367785 0.813876 0.952080
O O10 0.293536 0.686472 0.056750
O O11 0.972923 0.017399 0.678354
O O12 0.428382 0.630292 0.590467
O O13 0.108172 0.745000 0.480774
O O14 0.685636 0.552366 0.375416
O O15 0.738682 0.530313 0.121680
O O16 0.215055 0.556269 0.092624
O O17 0.197680 0.655475 0.283368
#
# Coordination Sequence:
#
# PCOD9029471 Si02
#       8
#     2   2   2   2   2   2   2   2
#     4  10  23  43  68  97 129 174 221 270 324 378
#     4  11  25  44  63 100 134 167 219 268 329 399
#     4  11  24  44  69  98 126 174 226 268 317 383
#     4  11  24  43  68  98 130 174 220 267 325 384
#     4  11  23  44  69  91 131 178 218 267 324 386
#     4  12  23  44  65  99 135 169 217 270 326 386
#     4  10  22  42  67  95 133 167 224 273 311 390
#     4  12  25  43  66  96 134 175 212 267 338 386
#
# _framework density 20.472266000000001
#
# number of rings (size 3 to 8) (size 9 to 14) (size 15 to 20)
#    0.000    1.000    3.750    2.625    1.750    2.500 
#    4.500    0.000    0.000    0.000    0.000    0.000 
#    0.000    0.000    0.000    0.000    0.000    0.000 
#
# Total GULP energy -89348.340227 kJ/mol
# GULP energy per Si atom -5584.271264 kJ/mol
# Density = 2.042567 g / cm^3
# Si number density = 20.472266 Si / 1000 Ang^3
#
#
#
# Elastic Constant Matrix: (Units=GPa)
#
#
# Indices 1 2 3 4 5 6 
#
# 1 69.0796 5.7849 31.0981 -1.6847 22.3597 1.3825
# 2 5.7849 35.0541 11.1949 -16.4188 6.3174 0.7777
# 3 31.0981 11.1949 57.1466 -15.4106 20.8849 -3.4872
# 4 -1.6847 -16.4188 -15.4106 26.0937 5.5639 11.0400
# 5 22.3597 6.3174 20.8849 5.5639 27.1097 7.6131
# 6 1.3825 0.7777 -3.4872 11.0400 7.6131 30.0994
#
#
#
# Elastic Compliance Matrix: (Units=1/GPa)
#
#
# Indices 1 2 3 4 5 6 
#
# 1 0.021852 0.001000 -0.007234 -0.000062 -0.013082 0.001464
# 2 0.001000 0.056856 0.015831 0.057696 -0.034725 -0.012060
# 3 -0.007234 0.015831 0.046418 0.046408 -0.042751 -0.000907
# 4 -0.000062 0.057696 0.046408 0.127387 -0.068097 -0.025611
# 5 -0.013082 -0.034725 -0.042751 -0.068097 0.104024 -0.004789
# 6 0.001464 -0.012060 -0.000907 -0.025611 -0.004789 0.043967
#
#
# Mechanical properties :
#
#
# Convention : Reuss Voigt Hill
#
# Bulk Modulus (GPa) = 6.92905 28.60400 17.76653
# Shear Modulus (GPa) = 11.64370 24.20739 17.92555
#
# Velocity S-wave (km/s) = 2.38745 3.44240 2.96227
# Velocity P-wave (km/s) = 3.31539 5.45918 4.51633
#
# Compressibility (1/GPa) = 0.14431991
#
# Stress axis : x y z
#
# Youngs Moduli (GPa) = 45.76144 17.58833 21.54360
#
# Poissons Ratio (x) = -0.01759 0.15585
# Poissons Ratio (y) = -0.04576 -0.34106
# Poissons Ratio (z) = 0.33104 -0.27844
#
# Static dielectric constant tensor:
#      x y z
#    x 1.774080 0.066560 0.017050 
#    y 0.066560 1.805950 0.025810 
#    z 0.017050 0.025810 1.734250 
# 
# From -- ./inp_files/272619.got.cif
#   From: 2010.05.17/outbox.cif.g08.bks.cpg/sg2_137_cif.got.tgz:272619.got - 2010.06.03 11:33:40.
