data_PCOD9029491
_publ_section_title
;
Structure prediction by ZEFSAII (Michael W. Deem and Ramdas Pophale) SiO2 
 PCOD9029491
Probable space group: P -1
;
_chemical_formula_sum "Si O2"
_cell_formula_units_Z 16
_cell_length_a 20.758627
_cell_length_b 8.574470
_cell_length_c 22.595135
_cell_angle_alpha 31.506601
_cell_angle_beta 19.416631
_cell_angle_gamma 40.686764
_cell_volume 673.982297
_symmetry_space_group_name_H-M "P -1"
_symmetry_group_IT_number 2
_symmetry_cell_setting 'triclinic'
loop_
_space_group_symop_operation_xyz
x,y,z
-x,-y,-z
loop_
_atom_site_type_symbol
_atom_site_label
_atom_site_fract_x
_atom_site_fract_y
_atom_site_fract_z
Si Si1 0.599129 0.318378 0.178216
Si Si2 0.917901 0.684510 0.961653
Si Si3 0.407727 0.002280 0.838055
Si Si4 0.070210 0.388338 0.346048
Si Si5 0.181631 0.261797 0.603775
Si Si6 0.165645 0.879653 0.861806
Si Si7 0.301737 0.996067 0.134968
Si Si8 0.575650 0.846312 0.847579
O O1 0.401205 0.403880 0.344240
O O2 0.663340 0.117460 0.239151
O O3 0.562939 0.121296 0.212779
O O4 0.740176 0.665318 0.935533
O O5 0.698223 0.719573 0.158608
O O6 0.904107 0.478738 0.982235
O O7 0.076654 0.014617 0.724200
O O8 0.000000 0.500000 0.000000
O O9 0.231048 0.718709 0.108907
O O10 0.594547 0.053005 0.704618
O O11 0.947818 0.489296 0.364422
O O12 0.897639 0.253706 0.587937
O O13 0.777541 0.836389 0.712620
O O14 0.200952 0.085838 0.704855
O O15 0.000000 0.000000 0.000000
O O16 0.392285 0.918377 0.019564
O O17 0.500000 0.000000 0.000000
O O18 0.500000 0.500000 0.000000
#
# Coordination Sequence:
#
# PCOD9029491 Si02
#       8
#     2   2   2   2   2   2   2   2
#     4  12  24  43  67  98 142 176 231 290 344 404
#     4   9  19  41  68  93 128 176 224 276 339 408
#     4  10  22  43  65  96 141 183 228 284 341 418
#     4  10  22  42  67  95 139 180 231 276 349 394
#     4  10  22  43  69  98 135 183 226 283 349 412
#     4  11  23  44  71 100 133 176 229 285 349 411
#     4  12  24  41  66  99 141 184 233 288 346 409
#     4  10  23  41  62  96 136 183 233 281 341 418
#
# _framework density 23.739494000000001
#
# number of rings (size 3 to 8) (size 9 to 14) (size 15 to 20)
#    0.000    1.500    1.250    4.875    0.000    4.000 
#    6.750    6.875    0.000    0.000    0.000    0.000 
#    0.000    0.000    0.000    0.000    0.000    0.000 
#
# Total GULP energy -89141.993834 kJ/mol
# GULP energy per Si atom -5571.374615 kJ/mol
# Density = 2.368546 g / cm^3
# Si number density = 23.739494 Si / 1000 Ang^3
#
#
#
# Elastic Constant Matrix: (Units=GPa)
#
#
# Indices 1 2 3 4 5 6 
#
# 1 156.6074 52.4094 21.8519 13.6199 8.1043 -17.4818
# 2 52.4094 145.1736 25.4505 19.4547 8.3356 -12.9122
# 3 21.8519 25.4505 71.0438 13.7624 13.9972 -0.2628
# 4 13.6199 19.4547 13.7624 40.7904 -2.1533 -7.0091
# 5 8.1043 8.3356 13.9972 -2.1533 11.7552 9.5183
# 6 -17.4818 -12.9122 -0.2628 -7.0091 9.5183 63.7228
#
#
#
# Elastic Compliance Matrix: (Units=1/GPa)
#
#
# Indices 1 2 3 4 5 6 
#
# 1 0.007801 -0.002023 -0.000210 -0.001461 -0.005951 0.002457
# 2 -0.002023 0.008667 -0.000677 -0.003246 -0.005938 0.001728
# 3 -0.000210 -0.000677 0.021736 -0.007908 -0.029481 0.003429
# 4 -0.001461 -0.003246 -0.007908 0.030108 0.018704 -0.000573
# 5 -0.005951 -0.005938 -0.029481 0.018704 0.150891 -0.023439
# 6 0.002457 0.001728 0.003429 -0.000573 -0.023439 0.020169
#
#
# Mechanical properties :
#
#
# Convention : Reuss Voigt Hill
#
# Bulk Modulus (GPa) = 30.88079 63.58315 47.23197
# Shear Modulus (GPa) = 19.53205 41.46122 30.49664
#
# Velocity S-wave (km/s) = 2.87150 4.18366 3.58807
# Velocity P-wave (km/s) = 4.90209 7.08373 6.09137
#
# Compressibility (1/GPa) = 0.03238259
#
# Stress axis : x y z
#
# Youngs Moduli (GPa) = 128.18567 115.37687 46.00643
#
# Poissons Ratio (x) = 0.23346 0.00967
# Poissons Ratio (y) = 0.25938 0.03116
# Poissons Ratio (z) = 0.02694 0.07814
#
# Static dielectric constant tensor:
#      x y z
#    x 2.036580 -0.068640 -0.041120 
#    y -0.068640 1.991650 -0.062700 
#    z -0.041120 -0.062700 1.959580 
# 
# From -- ./inp_files/613567.got.cif
#   From: 2010.05.17/outbox.cif.g08.bks.cpg/sg2_307_cif.got.tgz:613567.got - 2010.06.03 11:33:40.
