data_PCOD9029747
_publ_section_title
;
Structure prediction by ZEFSAII (Michael W. Deem and Ramdas Pophale) SiO2 
 PCOD9029747
Probable space group: P -1
;
_chemical_formula_sum "Si O2"
_cell_formula_units_Z 15
_cell_length_a 11.789374
_cell_length_b 17.741959
_cell_length_c 8.825674
_cell_angle_alpha 43.659559
_cell_angle_beta 141.520295
_cell_angle_gamma 148.115465
_cell_volume 596.969761
_symmetry_space_group_name_H-M "P -1"
_symmetry_group_IT_number 2
_symmetry_cell_setting 'triclinic'
loop_
_space_group_symop_operation_xyz
x,y,z
-x,-y,-z
loop_
_atom_site_type_symbol
_atom_site_label
_atom_site_fract_x
_atom_site_fract_y
_atom_site_fract_z
Si Si1 0.000000 0.000000 0.000000
Si Si2 0.852271 0.937843 0.590925
Si Si3 0.847514 0.186321 0.551114
Si Si4 0.373484 0.395796 0.876055
Si Si5 0.074432 0.803568 0.714819
Si Si6 0.571681 0.659253 0.522402
Si Si7 0.668645 0.312352 0.314477
Si Si8 0.137838 0.617526 0.240858
O O1 0.993602 0.982763 0.829012
O O2 0.137605 0.936736 0.253336
O O3 0.692942 0.768286 0.636148
O O4 0.000000 0.000000 0.500000
O O5 0.748443 0.020862 0.353919
O O6 0.094780 0.315313 0.709359
O O7 0.877900 0.234293 0.339663
O O8 0.647227 0.180742 0.427483
O O9 0.490252 0.504986 0.698772
O O10 0.500000 0.500000 0.000000
O O11 0.424341 0.286737 0.072370
O O12 0.794034 0.736925 0.524258
O O13 0.105066 0.728621 0.989196
O O14 0.320998 0.629347 0.296784
O O15 0.747282 0.343013 0.527467
O O16 0.877961 0.456665 0.227229
#
# Coordination Sequence:
#
# PCOD9029747 Si02
#       8
#     1   2   2   2   2   2   2   2
#     4  10  22  42  68  92 130 172 218 266 330 392
#     4   9  21  39  66  94 125 173 217 269 324 387
#     4  11  25  43  65  93 128 171 210 271 325 387
#     4  12  21  39  66  96 123 163 222 263 315 392
#     4  10  24  42  60  94 130 168 214 261 330 385
#     4  11  21  39  67  93 122 172 217 261 327 380
#     4  11  23  38  62  98 125 165 213 263 325 376
#     4  11  22  38  65  94 127 165 213 266 318 392
#
# _framework density 25.126901
#
# number of rings (size 3 to 8) (size 9 to 14) (size 15 to 20)
#    0.000    1.333    4.000    1.600    3.733    2.667 
#    0.000    0.667    0.000    0.000    0.000    0.000 
#    0.000    0.000    0.000    0.000    0.000    0.000 
#
# Total GULP energy -83540.260910 kJ/mol
# GULP energy per Si atom -5569.350727 kJ/mol
# Density = 2.506971 g / cm^3
# Si number density = 25.126901 Si / 1000 Ang^3
#
#
#
# Elastic Constant Matrix: (Units=GPa)
#
#
# Indices 1 2 3 4 5 6 
#
# 1 96.0726 26.1987 33.8714 -0.3217 13.6801 -0.0700
# 2 26.1987 39.0610 23.9871 -1.2630 -6.6949 -0.4249
# 3 33.8714 23.9871 131.9725 -25.0113 1.7579 -1.5712
# 4 -0.3217 -1.2630 -25.0113 38.0542 -7.6566 6.3123
# 5 13.6801 -6.6949 1.7579 -7.6566 41.5322 -2.5416
# 6 -0.0700 -0.4249 -1.5712 6.3123 -2.5416 38.4703
#
#
#
# Elastic Compliance Matrix: (Units=1/GPa)
#
#
# Indices 1 2 3 4 5 6 
#
# 1 0.014973 -0.009753 -0.002604 -0.003301 -0.007009 -0.000108
# 2 -0.009753 0.036327 -0.004194 0.000107 0.009315 0.000810
# 3 -0.002604 -0.004194 0.010298 0.006920 0.000979 -0.000701
# 4 -0.003301 0.000107 0.006920 0.032906 0.006591 -0.004686
# 5 -0.007009 0.009315 0.000979 0.006591 0.029121 0.000973
# 6 -0.000108 0.000810 -0.000701 -0.004686 0.000973 0.026807
#
#
# Mechanical properties :
#
#
# Convention : Reuss Voigt Hill
#
# Bulk Modulus (GPa) = 35.09149 48.35781 41.72465
# Shear Modulus (GPa) = 25.90240 35.81461 30.85851
#
# Velocity S-wave (km/s) = 3.21419 3.77948 3.50824
# Velocity P-wave (km/s) = 5.26979 6.19138 5.74908
#
# Compressibility (1/GPa) = 0.02849694
#
# Stress axis : x y z
#
# Youngs Moduli (GPa) = 66.78552 27.52800 97.10607
#
# Poissons Ratio (x) = 0.26848 0.25284
# Poissons Ratio (y) = 0.65136 0.40723
# Poissons Ratio (z) = 0.17389 0.11544
#
# Static dielectric constant tensor:
#      x y z
#    x 1.949920 0.006160 0.009740 
#    y 0.006160 2.238660 -0.024120 
#    z 0.009740 -0.024120 1.972200 
# 
# From -- ./inp_files/278889.got.cif
#   From: 2010.05.17/outbox.cif.g08.bks.cpg/sg2_140_cif.got.tgz:278889.got - 2010.06.03 11:33:40.
