data_PCOD9029115
_publ_section_title
;
Structure prediction by ZEFSAII (Michael W. Deem and Ramdas Pophale) SiO2 
 PCOD9029115
Probable space group: P -1
;
_chemical_formula_sum "Si O2"
_cell_formula_units_Z 15
_cell_length_a 12.775388
_cell_length_b 9.552506
_cell_length_c 14.836673
_cell_angle_alpha 82.663684
_cell_angle_beta 122.420054
_cell_angle_gamma 47.120107
_cell_volume 677.638376
_symmetry_space_group_name_H-M "P -1"
_symmetry_group_IT_number 2
_symmetry_cell_setting 'triclinic'
loop_
_space_group_symop_operation_xyz
x,y,z
-x,-y,-z
loop_
_atom_site_type_symbol
_atom_site_label
_atom_site_fract_x
_atom_site_fract_y
_atom_site_fract_z
Si Si1 0.094769 0.224787 0.824784
Si Si2 0.816359 0.391966 0.513668
Si Si3 0.685427 0.191625 0.658847
Si Si4 0.770621 0.817126 0.621750
Si Si5 0.309775 0.666220 0.808646
Si Si6 0.876702 0.445878 0.342613
Si Si7 0.500000 0.000000 0.000000
Si Si8 0.147626 0.889792 0.985029
O O1 0.867868 0.419175 0.629742
O O2 0.037259 0.448681 0.806900
O O3 0.104758 0.096138 0.915768
O O4 0.382986 0.955801 0.929862
O O5 0.499179 0.662065 0.351113
O O6 0.873096 0.423452 0.448509
O O7 0.045142 0.036567 0.652811
O O8 0.500000 0.500000 0.500000
O O9 0.739910 0.994679 0.644555
O O10 0.976708 0.967816 0.830105
O O11 0.841547 0.781774 0.554064
O O12 0.500000 0.000000 0.500000
O O13 0.189682 0.634298 0.731951
O O14 0.500000 0.500000 0.000000
O O15 0.529379 0.472197 0.845474
O O16 0.642702 0.794661 0.176237
O O17 0.000000 0.000000 0.000000
#
# Coordination Sequence:
#
# PCOD9029115 Si02
#       8
#     2   2   2   2   2   2   1   2
#     4  11  23  45  68  97 140 190 227 297 356 420
#     4  12  24  42  70 102 139 180 242 294 347 423
#     4  12  23  44  71 102 140 186 231 298 358 418
#     4  11  23  42  67  97 138 180 231 287 360 419
#     4  12  22  43  69 101 140 184 232 291 356 414
#     4  11  24  40  70 101 132 185 236 289 347 430
#     4  10  22  42  66  92 136 180 224 280 358 414
#     4  12  25  44  72 103 142 185 238 294 361 422
#
# _framework density 22.135701000000001
#
# number of rings (size 3 to 8) (size 9 to 14) (size 15 to 20)
#    0.000    0.533    5.333    2.800    0.000    5.333 
#    0.000    0.667    2.933    0.000    0.000    0.000 
#    0.000    0.000    0.000    0.000    0.000    0.000 
#
# Total GULP energy -83503.608239 kJ/mol
# GULP energy per Si atom -5566.907216 kJ/mol
# Density = 2.208532 g / cm^3
# Si number density = 22.135701 Si / 1000 Ang^3
#
#
#
# Elastic Constant Matrix: (Units=GPa)
#
#
# Indices 1 2 3 4 5 6 
#
# 1 174.3613 38.1032 19.5604 -3.5073 -7.3268 -10.7467
# 2 38.1032 94.6648 8.7573 -22.0245 -20.1049 6.9385
# 3 19.5604 8.7573 40.5149 -10.5776 -11.7974 -0.2828
# 4 -3.5073 -22.0245 -10.5776 25.3460 1.9279 2.2589
# 5 -7.3268 -20.1049 -11.7974 1.9279 50.0770 -1.9429
# 6 -10.7467 6.9385 -0.2828 2.2589 -1.9429 46.0880
#
#
#
# Elastic Compliance Matrix: (Units=1/GPa)
#
#
# Indices 1 2 3 4 5 6 
#
# 1 0.007036 -0.003860 -0.003984 -0.004161 -0.001208 0.002350
# 2 -0.003860 0.017116 0.004202 0.015948 0.006529 -0.003958
# 3 -0.003984 0.004202 0.032219 0.016098 0.008004 -0.001815
# 4 -0.004161 0.015948 0.016098 0.059442 0.007070 -0.005888
# 5 -0.001208 0.006529 0.008004 0.007070 0.024006 -0.000550
# 6 0.002350 -0.003958 -0.001815 -0.005888 -0.000550 0.023096
#
#
# Mechanical properties :
#
#
# Convention : Reuss Voigt Hill
#
# Bulk Modulus (GPa) = 20.37306 49.15364 34.76335
# Shear Modulus (GPa) = 26.80070 40.51019 33.65545
#
# Velocity S-wave (km/s) = 3.48335 4.28259 3.90348
# Velocity P-wave (km/s) = 5.04004 6.83432 6.00458
#
# Compressibility (1/GPa) = 0.04908443
#
# Stress axis : x y z
#
# Youngs Moduli (GPa) = 142.12138 58.42488 31.03794
#
# Poissons Ratio (x) = 0.22555 0.12366
# Poissons Ratio (y) = 0.54865 -0.13041
# Poissons Ratio (z) = 0.56625 -0.24548
#
# Static dielectric constant tensor:
#      x y z
#    x 1.776700 0.059800 -0.025040 
#    y 0.059800 1.893880 0.081660 
#    z -0.025040 0.081660 1.816080 
# 
# From -- ./inp_files/174553.got.cif
#   From: 2010.05.17/outbox.cif.g08.bks.cpg/sg2_88_cif.got.tgz:174553.got - 2010.06.03 11:33:40.
