data_PCOD9029736
_publ_section_title
;
Structure prediction by ZEFSAII (Michael W. Deem and Ramdas Pophale) SiO2 
 PCOD9029736
Probable space group: P -1
;
_chemical_formula_sum "Si O2"
_cell_formula_units_Z 16
_cell_length_a 13.579665
_cell_length_b 6.071926
_cell_length_c 14.305559
_cell_angle_alpha 68.914041
_cell_angle_beta 39.360928
_cell_angle_gamma 83.523498
_cell_volume 670.182240
_symmetry_space_group_name_H-M "P -1"
_symmetry_group_IT_number 2
_symmetry_cell_setting 'triclinic'
loop_
_space_group_symop_operation_xyz
x,y,z
-x,-y,-z
loop_
_atom_site_type_symbol
_atom_site_label
_atom_site_fract_x
_atom_site_fract_y
_atom_site_fract_z
Si Si1 0.209449 0.823623 0.371839
Si Si2 0.017541 0.036053 0.721123
Si Si3 0.053236 0.797477 0.923647
Si Si4 0.479679 0.260038 0.776423
Si Si5 0.860247 0.714983 0.707719
Si Si6 0.602652 0.885123 0.343554
Si Si7 0.274928 0.796542 0.110710
Si Si8 0.613851 0.770056 0.555072
O O1 0.210029 0.108180 0.332480
O O2 0.335168 0.757854 0.359705
O O3 0.270352 0.794882 0.226756
O O4 0.020874 0.679034 0.545135
O O5 0.010895 0.873016 0.841184
O O6 0.936943 0.870997 0.718237
O O7 0.204369 0.175871 0.550757
O O8 0.902346 0.208231 0.796145
O O9 0.245068 0.880086 0.787269
O O10 0.000000 0.500000 0.000000
O O11 0.000000 0.000000 0.000000
O O12 0.502503 0.548791 0.731296
O O13 0.387599 0.212015 0.752527
O O14 0.392130 0.043350 0.944572
O O15 0.719054 0.475992 0.876235
O O16 0.446510 0.987097 0.438746
O O17 0.606827 0.712047 0.456477
#
# Coordination Sequence:
#
# PCOD9029736 Si02
#       8
#     2   2   2   2   2   2   2   2
#     4  10  23  42  62  97 128 180 224 292 349 427
#     4  10  23  42  66  98 129 185 232 281 354 414
#     4  11  26  44  71 106 149 185 235 295 360 423
#     4  12  24  39  67  94 135 175 228 285 361 416
#     4  10  22  42  68  91 134 169 237 282 349 430
#     4  10  24  42  66  97 132 184 231 283 349 416
#     4  11  24  39  65  98 133 175 226 292 356 423
#     4  10  23  44  64  95 133 175 233 288 341 427
#
# _framework density 23.874102000000001
#
# number of rings (size 3 to 8) (size 9 to 14) (size 15 to 20)
#    0.000    1.500    0.000    3.375    7.000    4.500 
#    4.500    0.000    0.000    0.000    0.000    0.000 
#    0.000    0.000    0.000    0.000    0.000    0.000 
#
# Total GULP energy -89262.948812 kJ/mol
# GULP energy per Si atom -5578.934301 kJ/mol
# Density = 2.381976 g / cm^3
# Si number density = 23.874102 Si / 1000 Ang^3
#
#
#
# Elastic Constant Matrix: (Units=GPa)
#
#
# Indices 1 2 3 4 5 6 
#
# 1 95.3470 16.4697 -3.2920 -9.3010 2.2483 -1.4878
# 2 16.4697 66.2906 43.1306 -28.8970 6.2987 -0.7199
# 3 -3.2920 43.1306 82.5792 -36.3637 10.0358 0.7135
# 4 -9.3010 -28.8970 -36.3637 42.5182 -8.7710 5.9833
# 5 2.2483 6.2987 10.0358 -8.7710 39.0589 12.9856
# 6 -1.4878 -0.7199 0.7135 5.9833 12.9856 25.5580
#
#
#
# Elastic Compliance Matrix: (Units=1/GPa)
#
#
# Indices 1 2 3 4 5 6 
#
# 1 0.011654 -0.004122 0.004052 0.003176 -0.000284 -0.000150
# 2 -0.004122 0.026496 -0.010223 0.008883 0.001220 -0.001908
# 3 0.004052 -0.010223 0.024462 0.015493 0.000071 -0.004398
# 4 0.003176 0.008883 0.015493 0.048073 0.010757 -0.016717
# 5 -0.000284 0.001220 0.000071 0.010757 0.034475 -0.020018
# 6 -0.000150 -0.001908 -0.004398 -0.016717 -0.020018 0.053272
#
#
# Mechanical properties :
#
#
# Convention : Reuss Voigt Hill
#
# Bulk Modulus (GPa) = 23.79512 39.64818 31.72165
# Shear Modulus (GPa) = 21.45662 33.95423 27.70543
#
# Velocity S-wave (km/s) = 3.00115 3.77532 3.41028
# Velocity P-wave (km/s) = 4.69018 5.97054 5.36866
#
# Compressibility (1/GPa) = 0.04202542
#
# Stress axis : x y z
#
# Youngs Moduli (GPa) = 85.80743 37.74107 40.87892
#
# Poissons Ratio (x) = 0.15556 -0.16562
# Poissons Ratio (y) = 0.35368 0.41792
# Poissons Ratio (z) = -0.34765 0.38584
#
# Static dielectric constant tensor:
#      x y z
#    x 1.875560 0.000500 -0.006090 
#    y 0.000500 2.106590 0.048300 
#    z -0.006090 0.048300 1.976430 
# 
# From -- ./inp_files/525610.got.cif
#   From: 2010.05.17/outbox.cif.g08.bks.cpg/sg2_263_cif.got.tgz:525610.got - 2010.06.03 11:33:40.
