data_PCOD9029742
_publ_section_title
;
Structure prediction by ZEFSAII (Michael W. Deem and Ramdas Pophale) SiO2 
 PCOD9029742
Probable space group: P -1
;
_chemical_formula_sum "Si O2"
_cell_formula_units_Z 14
_cell_length_a 8.466013
_cell_length_b 18.137755
_cell_length_c 10.162779
_cell_angle_alpha 75.756338
_cell_angle_beta 30.724461
_cell_angle_gamma 66.673632
_cell_volume 717.172536
_symmetry_space_group_name_H-M "P -1"
_symmetry_group_IT_number 2
_symmetry_cell_setting 'triclinic'
loop_
_space_group_symop_operation_xyz
x,y,z
-x,-y,-z
loop_
_atom_site_type_symbol
_atom_site_label
_atom_site_fract_x
_atom_site_fract_y
_atom_site_fract_z
Si Si1 0.712627 0.710822 0.865988
Si Si2 0.276710 0.139150 0.847118
Si Si3 0.215663 0.446511 0.983912
Si Si4 0.421030 0.055761 0.269449
Si Si5 0.947557 0.446655 0.445661
Si Si6 0.936117 0.141344 0.815737
Si Si7 0.062865 0.829811 0.641839
O O1 0.810717 0.649000 0.698126
O O2 0.968806 0.756162 0.682453
O O3 0.747071 0.648303 0.989107
O O4 0.347443 0.778547 0.078682
O O5 0.558818 0.177978 0.639912
O O6 0.078778 0.160422 0.841968
O O7 0.469380 0.040868 0.752792
O O8 0.044408 0.160913 0.132690
O O9 0.578628 0.448431 0.715586
O O10 0.000000 0.500000 0.000000
O O11 0.027406 0.483248 0.237792
O O12 0.224163 0.100792 0.520780
O O13 0.176047 0.091434 0.304991
O O14 0.743029 0.079818 0.008744
O O15 0.000000 0.500000 0.500000
#
# Coordination Sequence:
#
# PCOD9029742 Si02
#       7
#     2   2   2   2   2   2   2
#     4   9  25  40  66  85 132 163 200 241 325 361
#     4  12  23  39  60  97 119 162 219 256 293 361
#     4  10  22  42  68  92 122 155 204 244 309 369
#     4  11  22  40  65  84 126 170 207 253 309 360
#     4  10  22  42  68  92 122 155 206 246 305 371
#     4  11  23  40  62  89 125 166 205 256 310 353
#     4  11  23  39  60  89 127 161 205 256 310 355
#
# _framework density 19.521106
#
# number of rings (size 3 to 8) (size 9 to 14) (size 15 to 20)
#    0.857    0.571    0.000    6.000    6.000    0.000 
#    2.571    0.000    0.000    0.000    0.000    0.000 
#    0.000    0.000    0.000    0.000    0.000    0.000 
#
# Total GULP energy -78172.949328 kJ/mol
# GULP energy per Si atom -5583.782095 kJ/mol
# Density = 1.947667 g / cm^3
# Si number density = 19.521106 Si / 1000 Ang^3
#
#
#
# Elastic Constant Matrix: (Units=GPa)
#
#
# Indices 1 2 3 4 5 6 
#
# 1 75.7329 38.4236 2.6540 -11.3641 11.5146 -11.2844
# 2 38.4236 123.0295 18.1508 -4.6450 -9.0373 -5.9971
# 3 2.6540 18.1508 72.6706 -15.1418 15.3298 -9.4501
# 4 -11.3641 -4.6450 -15.1418 31.4760 12.5984 9.1063
# 5 11.5146 -9.0373 15.3298 12.5984 42.6562 -0.5109
# 6 -11.2844 -5.9971 -9.4501 9.1063 -0.5109 23.3393
#
#
#
# Elastic Compliance Matrix: (Units=1/GPa)
#
#
# Indices 1 2 3 4 5 6 
#
# 1 0.022996 -0.008749 0.008749 0.015849 -0.015816 0.005883
# 2 -0.008749 0.012219 -0.006570 -0.008347 0.009774 -0.000280
# 3 0.008749 -0.006570 0.023428 0.019438 -0.017865 0.004053
# 4 0.015849 -0.008347 0.019438 0.061394 -0.031299 -0.011251
# 5 -0.015816 0.009774 -0.017865 -0.031299 0.045458 0.000838
# 6 0.005883 -0.000280 0.004053 -0.011251 0.000838 0.051668
#
#
# Mechanical properties :
#
#
# Convention : Reuss Voigt Hill
#
# Bulk Modulus (GPa) = 21.97652 43.32108 32.64880
# Shear Modulus (GPa) = 20.36903 33.64126 27.00514
#
# Velocity S-wave (km/s) = 3.23373 4.15580 3.72342
# Velocity P-wave (km/s) = 5.02244 6.72813 5.93686
#
# Compressibility (1/GPa) = 0.04550311
#
# Stress axis : x y z
#
# Youngs Moduli (GPa) = 43.48543 81.83929 42.68413
#
# Poissons Ratio (x) = 0.71605 -0.37345
# Poissons Ratio (y) = 0.38047 0.28042
# Poissons Ratio (z) = -0.38046 0.53766
#
# Static dielectric constant tensor:
#      x y z
#    x 1.661250 -0.001030 0.019930 
#    y -0.001030 1.679860 0.002560 
#    z 0.019930 0.002560 1.668780 
# 
# From -- ./inp_files/399017.got.cif
#   From: 2010.05.17/outbox.cif.g08.bks.cpg/sg2_200_cif.got.tgz:399017.got - 2010.06.03 11:33:40.
