data_PCOD9029305
_publ_section_title
;
Structure prediction by ZEFSAII (Michael W. Deem and Ramdas Pophale) SiO2 
 PCOD9029305
Probable space group: P -1
;
_chemical_formula_sum "Si O2"
_cell_formula_units_Z 16
_cell_length_a 11.378997
_cell_length_b 9.750704
_cell_length_c 8.214844
_cell_angle_alpha 44.879335
_cell_angle_beta 98.596214
_cell_angle_gamma 97.950126
_cell_volume 635.232392
_symmetry_space_group_name_H-M "P -1"
_symmetry_group_IT_number 2
_symmetry_cell_setting 'triclinic'
loop_
_space_group_symop_operation_xyz
x,y,z
-x,-y,-z
loop_
_atom_site_type_symbol
_atom_site_label
_atom_site_fract_x
_atom_site_fract_y
_atom_site_fract_z
Si Si1 0.367353 0.984955 0.190644
Si Si2 0.165771 0.130681 0.847504
Si Si3 0.981969 0.648244 0.727200
Si Si4 0.773100 0.312493 0.397316
Si Si5 0.753424 0.865676 0.480443
Si Si6 0.381050 0.812513 0.973710
Si Si7 0.368375 0.450376 0.079619
Si Si8 0.079174 0.697497 0.241780
O O1 0.334353 0.840598 0.452128
O O2 0.487933 0.113055 0.120410
O O3 0.376056 0.869559 0.115357
O O4 0.253109 0.114218 0.031714
O O5 0.243417 0.208814 0.645509
O O6 0.048579 0.243233 0.764906
O O7 0.122995 0.903369 0.995377
O O8 0.884680 0.805793 0.609716
O O9 0.938387 0.488092 0.718846
O O10 0.107375 0.750983 0.614663
O O11 0.000000 0.500000 0.000000
O O12 0.721468 0.481660 0.135681
O O13 0.828817 0.352024 0.555111
O O14 0.709068 0.078018 0.255048
O O15 0.664201 0.760003 0.677494
O O16 0.355282 0.588593 0.118849
O O17 0.500000 0.500000 0.000000
#
# Coordination Sequence:
#
# PCOD9029305 Si02
#       8
#     2   2   2   2   2   2   2   2
#     4   9  21  43  73 100 131 181 227 281 344 394
#     4   9  20  40  70 101 132 178 225 274 341 397
#     4  12  25  43  65 105 143 176 225 273 341 413
#     4  11  23  41  68 102 136 177 222 278 338 402
#     4  11  24  43  69 101 137 182 224 276 343 403
#     4  10  24  50  70  98 139 175 232 290 332 406
#     4  12  28  47  69 100 137 182 232 282 342 401
#     4  10  22  42  67 100 142 175 220 280 332 410
#
# _framework density 25.187633999999999
#
# number of rings (size 3 to 8) (size 9 to 14) (size 15 to 20)
#    0.000    1.500    2.500    1.125    5.250    3.000 
#   11.250    7.500    0.000    0.000    0.000    0.000 
#    0.000    0.000    0.000    0.000    0.000    0.000 
#
# Total GULP energy -89455.386764 kJ/mol
# GULP energy per Si atom -5590.961673 kJ/mol
# Density = 2.513031 g / cm^3
# Si number density = 25.187634 Si / 1000 Ang^3
#
#
#
# Elastic Constant Matrix: (Units=GPa)
#
#
# Indices 1 2 3 4 5 6 
#
# 1 119.6926 4.9036 18.8380 -3.2988 -18.8448 4.4593
# 2 4.9036 101.7322 18.7368 -7.1796 2.2340 2.7835
# 3 18.8380 18.7368 112.6374 9.5901 -24.8119 -1.0132
# 4 -3.2988 -7.1796 9.5901 28.8095 1.8768 1.6863
# 5 -18.8448 2.2340 -24.8119 1.8768 53.9896 2.8280
# 6 4.4593 2.7835 -1.0132 1.6863 2.8280 12.8991
#
#
#
# Elastic Compliance Matrix: (Units=1/GPa)
#
#
# Indices 1 2 3 4 5 6 
#
# 1 0.009167 -0.000104 -0.001036 0.001417 0.002890 -0.004047
# 2 -0.000104 0.010653 -0.002445 0.003712 -0.001594 -0.002591
# 3 -0.001036 -0.002445 0.010948 -0.004766 0.004868 0.001302
# 4 0.001417 0.003712 -0.004766 0.037922 -0.002853 -0.005997
# 5 0.002890 -0.001594 0.004868 -0.002853 0.022183 -0.004763
# 6 -0.004047 -0.002591 0.001302 -0.005997 -0.004763 0.081414
#
#
# Mechanical properties :
#
#
# Convention : Reuss Voigt Hill
#
# Bulk Modulus (GPa) = 42.37739 46.55767 44.46753
# Shear Modulus (GPa) = 26.69194 38.57856 32.63525
#
# Velocity S-wave (km/s) = 3.25887 3.91787 3.60347
# Velocity P-wave (km/s) = 5.56970 6.24426 5.91660
#
# Compressibility (1/GPa) = 0.02359749
#
# Stress axis : x y z
#
# Youngs Moduli (GPa) = 109.08690 93.87034 91.34097
#
# Poissons Ratio (x) = 0.00974 0.09465
# Poissons Ratio (y) = 0.01132 0.22335
# Poissons Ratio (z) = 0.11304 0.22954
#
# Static dielectric constant tensor:
#      x y z
#    x 2.009700 -0.028420 -0.011230 
#    y -0.028420 2.047280 -0.006690 
#    z -0.011230 -0.006690 1.979820 
# 
# From -- ./inp_files/256046.got.cif
#   From: 2010.05.17/outbox.cif.g08.bks.cpg/sg2_129_cif.got.tgz:256046.got - 2010.06.03 11:33:40.
