data_PCOD9029721
_publ_section_title
;
Structure prediction by ZEFSAII (Michael W. Deem and Ramdas Pophale) SiO2 
 PCOD9029721
Probable space group: P -1
;
_chemical_formula_sum "Si O2"
_cell_formula_units_Z 16
_cell_length_a 10.134489
_cell_length_b 17.139328
_cell_length_c 8.220913
_cell_angle_alpha 118.662763
_cell_angle_beta 112.458983
_cell_angle_gamma 33.458098
_cell_volume 690.312181
_symmetry_space_group_name_H-M "P -1"
_symmetry_group_IT_number 2
_symmetry_cell_setting 'triclinic'
loop_
_space_group_symop_operation_xyz
x,y,z
-x,-y,-z
loop_
_atom_site_type_symbol
_atom_site_label
_atom_site_fract_x
_atom_site_fract_y
_atom_site_fract_z
Si Si1 0.500000 0.660515 0.910515
Si Si2 0.999367 0.148459 0.535536
Si Si3 0.165236 0.592187 0.432247
Si Si4 0.500000 0.145342 0.395342
Si Si5 0.000634 0.647825 0.760748
Si Si6 0.165237 0.742576 0.082636
Si Si7 0.812570 0.614082 0.240037
Si Si8 0.812571 0.073347 0.199302
O O1 0.599766 0.550512 0.700937
O O2 0.400235 0.650278 0.999854
O O3 0.296003 0.826616 0.909517
O O4 0.703997 0.622620 0.039719
O O5 0.917034 0.266291 0.493617
O O6 0.831600 0.238035 0.705643
O O7 0.975668 0.064311 0.358570
O O8 0.271297 0.023872 0.602199
O O9 0.168401 0.569635 0.602026
O O10 0.959651 0.630357 0.301035
O O11 0.271296 0.204832 0.283157
O O12 0.401209 0.254232 0.605144
O O13 0.598792 0.155440 0.304528
O O14 0.024334 0.539978 0.745720
O O15 0.082967 0.683324 0.955999
O O16 0.959651 0.909992 0.080670
#
# Coordination Sequence:
#
# PCOD9029721 Si02
#       8
#     2   2   2   2   2   2   2   2
#     4  12  24  40  66  92 128 172 206 260 314 358
#     4  11  24  43  65  95 128 163 212 258 311 379
#     4  11  25  41  64  95 127 166 212 257 309 377
#     4  10  22  42  68  90 128 172 198 258 324 362
#     4  11  24  43  65  95 128 163 212 258 311 379
#     4  11  25  41  64  95 127 166 212 257 309 377
#     4  11  23  42  66  95 127 164 212 257 311 377
#     4  11  23  42  66  95 127 164 212 257 311 377
#
# _framework density 23.177918999999999
#
# number of rings (size 3 to 8) (size 9 to 14) (size 15 to 20)
#    0.000    1.000    0.000    8.250    0.000   12.000 
#    0.000    0.000    0.000    0.000    0.000    0.000 
#    0.000    0.000    0.000    0.000    0.000    0.000 
#
# Total GULP energy -89638.887327 kJ/mol
# GULP energy per Si atom -5602.430458 kJ/mol
# Density = 2.312516 g / cm^3
# Si number density = 23.177919 Si / 1000 Ang^3
#
#
#
# Elastic Constant Matrix: (Units=GPa)
#
#
# Indices 1 2 3 4 5 6 
#
# 1 63.3224 20.5475 1.4451 13.8892 -1.3136 -4.0290
# 2 20.5475 61.2617 5.5712 -1.9276 5.3898 -0.7555
# 3 1.4451 5.5712 48.1299 -0.6959 4.3982 -9.5970
# 4 13.8892 -1.9276 -0.6959 34.5349 1.0490 -1.4085
# 5 -1.3136 5.3898 4.3982 1.0490 33.8392 7.2757
# 6 -4.0290 -0.7555 -9.5970 -1.4085 7.2757 28.7830
#
#
#
# Elastic Compliance Matrix: (Units=1/GPa)
#
#
# Indices 1 2 3 4 5 6 
#
# 1 0.020126 -0.007176 0.000320 -0.008464 0.001740 0.001881
# 2 -0.007176 0.019294 -0.001670 0.004026 -0.003252 -0.000036
# 3 0.000320 -0.001670 0.023185 0.000753 -0.004683 0.008952
# 4 -0.008464 0.004026 0.000753 0.032729 -0.002378 0.001374
# 5 0.001740 -0.003252 -0.004683 -0.002378 0.032936 -0.009845
# 6 0.001881 -0.000036 0.008952 0.001374 -0.009845 0.040546
#
#
# Mechanical properties :
#
#
# Convention : Reuss Voigt Hill
#
# Bulk Modulus (GPa) = 21.95192 25.31574 23.63383
# Shear Modulus (GPa) = 24.86939 29.10810 26.98874
#
# Velocity S-wave (km/s) = 3.27919 3.54765 3.41606
# Velocity P-wave (km/s) = 4.88150 5.26566 5.07721
#
# Compressibility (1/GPa) = 0.04555410
#
# Stress axis : x y z
#
# Youngs Moduli (GPa) = 49.68772 51.82871 43.13211
#
# Poissons Ratio (x) = 0.37190 -0.01380
# Poissons Ratio (y) = 0.35654 0.07202
# Poissons Ratio (z) = -0.01590 0.08654
#
# Static dielectric constant tensor:
#      x y z
#    x 1.850290 -0.040860 -0.034720 
#    y -0.040860 1.850380 -0.009390 
#    z -0.034720 -0.009390 1.850870 
# 
# From -- ./inp_files/278312.got.cif
#   From: 2010.05.17/outbox.cif.g08.bks.cpg/sg2_140_cif.got.tgz:278312.got - 2010.06.03 11:33:40.
