data_PCOD9029524
_publ_section_title
;
Structure prediction by ZEFSAII (Michael W. Deem and Ramdas Pophale) SiO2 
 PCOD9029524
Probable space group: P -1
;
_chemical_formula_sum "Si O2"
_cell_formula_units_Z 15
_cell_length_a 7.742125
_cell_length_b 6.533780
_cell_length_c 17.850498
_cell_angle_alpha 131.642553
_cell_angle_beta 114.976739
_cell_angle_gamma 66.515289
_cell_volume 602.349083
_symmetry_space_group_name_H-M "P -1"
_symmetry_group_IT_number 2
_symmetry_cell_setting 'triclinic'
loop_
_space_group_symop_operation_xyz
x,y,z
-x,-y,-z
loop_
_atom_site_type_symbol
_atom_site_label
_atom_site_fract_x
_atom_site_fract_y
_atom_site_fract_z
Si Si1 0.476925 0.729966 0.268098
Si Si2 0.564565 0.897281 0.880380
Si Si3 0.263425 0.731614 0.456018
Si Si4 0.862648 0.180793 0.077967
Si Si5 0.004591 0.174996 0.430288
Si Si6 0.175588 0.164737 0.238629
Si Si7 0.500000 0.000000 0.500000
Si Si8 0.771101 0.819506 0.211667
O O1 0.453742 0.412376 0.175050
O O2 0.524488 0.785531 0.376020
O O3 0.638605 0.797540 0.256083
O O4 0.280990 0.931581 0.256560
O O5 0.699818 0.860534 0.821312
O O6 0.365323 0.064046 0.852858
O O7 0.661876 0.076410 0.001715
O O8 0.144375 0.838147 0.532363
O O9 0.185028 0.467552 0.347347
O O10 0.489560 0.725022 0.490918
O O11 0.215419 0.995185 0.449819
O O12 0.861520 0.501363 0.136106
O O13 0.961618 0.137661 0.166701
O O14 0.000000 0.000000 0.000000
O O15 0.000000 0.500000 0.500000
O O16 0.921359 0.019114 0.309524
#
# Coordination Sequence:
#
# PCOD9029524 Si02
#       8
#     2   2   2   2   2   2   1   2
#     4  11  25  40  68 104 138 185 228 285 352 419
#     4  10  23  41  69 101 133 175 233 285 354 412
#     4  11  24  42  65 101 138 184 237 283 342 427
#     4  10  22  46  72  94 133 181 233 297 349 413
#     4  11  26  41  67 102 143 187 228 283 358 419
#     4  10  22  42  67  96 138 179 229 285 343 416
#     4  12  24  42  70  98 146 184 236 284 344 416
#     4  11  23  45  70 100 140 181 228 290 353 420
#
# _framework density 24.902501999999998
#
# number of rings (size 3 to 8) (size 9 to 14) (size 15 to 20)
#    0.000    1.333    4.000    0.400    3.733    1.600 
#    0.000    0.000    0.000    0.000    0.000    0.000 
#    0.000    0.000    0.000    0.000    0.000    0.000 
#
# Total GULP energy -83857.886401 kJ/mol
# GULP energy per Si atom -5590.525760 kJ/mol
# Density = 2.484582 g / cm^3
# Si number density = 24.902502 Si / 1000 Ang^3
#
#
#
# Elastic Constant Matrix: (Units=GPa)
#
#
# Indices 1 2 3 4 5 6 
#
# 1 100.3187 28.0888 35.1228 2.2527 -6.0481 11.7928
# 2 28.0888 145.1550 80.6088 21.0243 15.9064 -19.8292
# 3 35.1228 80.6088 225.2839 21.9338 26.6881 -25.4559
# 4 2.2527 21.0243 21.9338 34.6568 -3.0054 -1.9687
# 5 -6.0481 15.9064 26.6881 -3.0054 40.0618 -3.1520
# 6 11.7928 -19.8292 -25.4559 -1.9687 -3.1520 43.5141
#
#
#
# Elastic Compliance Matrix: (Units=1/GPa)
#
#
# Indices 1 2 3 4 5 6 
#
# 1 0.012377 -0.002655 -0.002330 0.002333 0.004216 -0.005516
# 2 -0.002655 0.010006 -0.001908 -0.004753 -0.003166 0.003718
# 3 -0.002330 -0.001908 0.006614 -0.003039 -0.003976 0.003205
# 4 0.002333 -0.004753 -0.003039 0.033937 0.006609 -0.002562
# 5 0.004216 -0.003166 -0.003976 0.006609 0.029806 -0.002453
# 6 -0.005516 0.003718 0.003205 -0.002562 -0.002453 0.027752
#
#
# Mechanical properties :
#
#
# Convention : Reuss Voigt Hill
#
# Bulk Modulus (GPa) = 65.73747 84.26649 75.00198
# Shear Modulus (GPa) = 35.88107 45.44237 40.66172
#
# Velocity S-wave (km/s) = 3.79999 4.27642 4.04522
# Velocity P-wave (km/s) = 6.76080 7.63516 7.21124
#
# Compressibility (1/GPa) = 0.01521202
#
# Stress axis : x y z
#
# Youngs Moduli (GPa) = 80.79253 99.93946 151.19507
#
# Poissons Ratio (x) = 0.26532 0.35222
# Poissons Ratio (y) = 0.21449 0.28853
# Poissons Ratio (z) = 0.18821 0.19072
#
# Static dielectric constant tensor:
#      x y z
#    x 2.454340 -0.021060 0.253610 
#    y -0.021060 2.006660 -0.038190 
#    z 0.253610 -0.038190 2.046860 
# 
# From -- ./inp_files/40348.got.cif
#   From: 2010.05.17/outbox.cif.g08.bks.cpg/sg2_21_cif.got.tgz:40348.got - 2010.06.03 11:33:40.
