data_PCOD9029455
_publ_section_title
;
Structure prediction by ZEFSAII (Michael W. Deem and Ramdas Pophale) SiO2 
 PCOD9029455
Probable space group: P -1
;
_chemical_formula_sum "Si O2"
_cell_formula_units_Z 15
_cell_length_a 9.081307
_cell_length_b 8.577169
_cell_length_c 15.247606
_cell_angle_alpha 89.287737
_cell_angle_beta 48.012853
_cell_angle_gamma 72.121491
_cell_volume 808.301814
_symmetry_space_group_name_H-M "P -1"
_symmetry_group_IT_number 2
_symmetry_cell_setting 'triclinic'
loop_
_space_group_symop_operation_xyz
x,y,z
-x,-y,-z
loop_
_atom_site_type_symbol
_atom_site_label
_atom_site_fract_x
_atom_site_fract_y
_atom_site_fract_z
Si Si1 0.500000 0.500000 0.500000
Si Si2 0.612977 0.285042 0.273130
Si Si3 0.056060 0.802580 0.629278
Si Si4 0.755668 0.911473 0.421175
Si Si5 0.753691 0.924553 0.917751
Si Si6 0.835454 0.695416 0.565983
Si Si7 0.001152 0.319511 0.024222
Si Si8 0.054652 0.103521 0.830568
O O1 0.553907 0.388851 0.386371
O O2 0.258050 0.623344 0.559785
O O3 0.396414 0.297329 0.312081
O O4 0.766065 0.345944 0.154110
O O5 0.758480 0.086788 0.235916
O O6 0.894003 0.839849 0.776051
O O7 0.926495 0.798181 0.593804
O O8 0.154948 0.945939 0.589356
O O9 0.797320 0.781087 0.484736
O O10 0.885212 0.822910 0.282192
O O11 0.500000 0.000000 0.500000
O O12 0.830357 0.786785 0.966706
O O13 0.835397 0.072751 0.909584
O O14 0.500000 0.000000 0.000000
O O15 0.000000 0.500000 0.500000
O O16 0.000000 0.500000 0.000000
O O17 0.051417 0.206679 0.917518
#
# Coordination Sequence:
#
# PCOD9029455 Si02
#       8
#     1   2   2   2   2   2   2   2
#     4  12  18  42  70  94 136 170 224 268 332 392
#     4  11  22  43  65  96 127 180 215 266 334 392
#     4  11  24  39  67  99 134 173 218 275 330 396
#     4  11  22  43  66  95 127 172 223 262 334 393
#     4  10  22  42  67  95 128 173 220 266 335 386
#     4  12  25  40  62  98 135 166 212 273 329 387
#     4  11  25  44  66  96 127 172 228 272 321 393
#     4  10  22  44  70  90 130 173 225 261 327 407
#
# _framework density 18.557424000000001
#
# number of rings (size 3 to 8) (size 9 to 14) (size 15 to 20)
#    0.000    1.067    6.667    2.000    3.733    3.200 
#    4.800    0.667    0.000    0.000    0.000    0.000 
#    0.000    0.000    0.000    0.000    0.000    0.000 
#
# Total GULP energy -83530.142658 kJ/mol
# GULP energy per Si atom -5568.676177 kJ/mol
# Density = 1.851519 g / cm^3
# Si number density = 18.557424 Si / 1000 Ang^3
#
#
#
# Elastic Constant Matrix: (Units=GPa)
#
#
# Indices 1 2 3 4 5 6 
#
# 1 138.1362 66.2653 76.3033 -5.8912 -11.6513 -12.7836
# 2 66.2653 101.1198 88.1835 -6.5174 4.7150 -8.9948
# 3 76.3033 88.1835 131.0338 6.8912 2.6495 2.5698
# 4 -5.8912 -6.5174 6.8912 33.3143 -0.5494 7.8497
# 5 -11.6513 4.7150 2.6495 -0.5494 46.5575 7.3555
# 6 -12.7836 -8.9948 2.5698 7.8497 7.3555 28.6288
#
#
#
# Elastic Compliance Matrix: (Units=1/GPa)
#
#
# Indices 1 2 3 4 5 6 
#
# 1 0.012383 -0.003207 -0.005285 0.001841 0.003165 0.003678
# 2 -0.003207 0.029414 -0.018378 0.006896 -0.004013 0.008599
# 3 -0.005285 -0.018378 0.023624 -0.007449 0.000421 -0.008320
# 4 0.001841 0.006896 -0.007449 0.034738 0.001588 -0.006275
# 5 0.003165 -0.004013 0.000421 0.001588 0.023684 -0.006406
# 6 0.003678 0.008599 -0.008320 -0.006275 -0.006406 0.043387
#
#
# Mechanical properties :
#
#
# Convention : Reuss Voigt Hill
#
# Bulk Modulus (GPa) = 85.61555 92.42155 89.01855
# Shear Modulus (GPa) = 22.23555 31.00263 26.61909
#
# Velocity S-wave (km/s) = 3.46526 4.09177 3.79148
# Velocity P-wave (km/s) = 7.88963 8.49909 8.20003
#
# Compressibility (1/GPa) = 0.01168012
#
# Stress axis : x y z
#
# Youngs Moduli (GPa) = 80.75378 33.99695 42.33017
#
# Poissons Ratio (x) = 0.10904 0.22373
# Poissons Ratio (y) = 0.25901 0.77794
# Poissons Ratio (z) = 0.42682 0.62479
#
# Static dielectric constant tensor:
#      x y z
#    x 1.660840 0.010100 0.004890 
#    y 0.010100 1.640520 -0.025900 
#    z 0.004890 -0.025900 1.639870 
# 
# From -- ./inp_files/306419.got.cif
#   From: 2010.05.17/outbox.cif.g08.bks.cpg/sg2_154_cif.got.tgz:306419.got - 2010.06.03 11:33:40.
