data_PCOD9029217
_publ_section_title
;
Structure prediction by ZEFSAII (Michael W. Deem and Ramdas Pophale) SiO2 
 PCOD9029217
Probable space group: P -1
;
_chemical_formula_sum "Si O2"
_cell_formula_units_Z 16
_cell_length_a 17.703539
_cell_length_b 9.442109
_cell_length_c 24.431247
_cell_angle_alpha 143.415632
_cell_angle_beta 19.002201
_cell_angle_gamma 145.275217
_cell_volume 750.059035
_symmetry_space_group_name_H-M "P -1"
_symmetry_group_IT_number 2
_symmetry_cell_setting 'triclinic'
loop_
_space_group_symop_operation_xyz
x,y,z
-x,-y,-z
loop_
_atom_site_type_symbol
_atom_site_label
_atom_site_fract_x
_atom_site_fract_y
_atom_site_fract_z
Si Si1 0.242684 0.982552 0.469307
Si Si2 0.986688 0.788166 0.398184
Si Si3 0.042145 0.080607 0.754253
Si Si4 0.302790 0.579839 0.695375
Si Si5 0.543159 0.841483 0.045283
Si Si6 0.770405 0.200122 0.370567
Si Si7 0.039774 0.242423 0.085253
Si Si8 0.460217 0.653464 0.162574
O O1 0.133509 0.994590 0.607792
O O2 0.535109 0.139111 0.314124
O O3 0.115463 0.122615 0.558527
O O4 0.243889 0.716475 0.362417
O O5 0.267214 0.799065 0.202452
O O6 0.823375 0.500663 0.435436
O O7 0.000000 0.000000 0.500000
O O8 0.214714 0.366581 0.735050
O O9 0.074178 0.897954 0.722780
O O10 0.761625 0.074966 0.945610
O O11 0.500000 0.500000 0.500000
O O12 0.066222 0.574803 0.820905
O O13 0.540618 0.837245 0.111745
O O14 0.615083 0.612018 0.898663
O O15 0.867558 0.178253 0.236601
O O16 0.500000 0.000000 0.500000
O O17 0.316019 0.338058 0.947959
O O18 0.000000 0.000000 0.000000
#
# Coordination Sequence:
#
# PCOD9029217 Si02
#       8
#     2   2   2   2   2   2   2   2
#     4  11  23  43  68 100 136 179 227 281 347 415
#     4  12  25  46  73  99 138 192 232 279 356 421
#     4  11  24  42  68 102 135 175 229 290 340 398
#     4  10  22  42  66  96 138 176 219 274 347 408
#     4  11  23  45  69  94 135 187 224 279 345 409
#     4  12  24  45  71 102 138 178 233 291 340 412
#     4  12  23  43  71 103 134 187 226 275 357 421
#     4  11  22  43  69  93 136 182 224 273 347 421
#
# _framework density 21.331652999999999
#
# number of rings (size 3 to 8) (size 9 to 14) (size 15 to 20)
#    0.000    0.750    5.000    4.500    0.000    1.000 
#    2.250    1.250    0.000    0.000    0.000    0.000 
#    0.000    0.000    0.000    0.000    0.000    0.000 
#
# Total GULP energy -89302.105339 kJ/mol
# GULP energy per Si atom -5581.381584 kJ/mol
# Density = 2.128310 g / cm^3
# Si number density = 21.331653 Si / 1000 Ang^3
#
#
#
# Elastic Constant Matrix: (Units=GPa)
#
#
# Indices 1 2 3 4 5 6 
#
# 1 102.6050 16.7910 16.9689 8.9062 -8.9198 -0.5464
# 2 16.7910 73.2956 40.9217 -3.5550 5.7123 5.8079
# 3 16.9689 40.9217 76.1929 0.8065 -11.5820 3.9643
# 4 8.9062 -3.5550 0.8065 35.9795 6.3232 -6.3831
# 5 -8.9198 5.7123 -11.5820 6.3232 49.8213 3.7737
# 6 -0.5464 5.8079 3.9643 -6.3831 3.7737 28.6472
#
#
#
# Elastic Compliance Matrix: (Units=1/GPa)
#
#
# Indices 1 2 3 4 5 6 
#
# 1 0.010763 -0.002434 -0.000658 -0.003382 0.002505 -0.000294
# 2 -0.002434 0.021655 -0.012002 0.003891 -0.006119 -0.001103
# 3 -0.000658 -0.012002 0.020864 -0.003016 0.006644 -0.002014
# 4 -0.003382 0.003891 -0.003016 0.031508 -0.006313 0.007416
# 5 0.002505 -0.006119 0.006644 -0.006313 0.023885 -0.004184
# 6 -0.000294 -0.001103 -0.002014 0.007416 -0.004184 0.037608
#
#
# Mechanical properties :
#
#
# Convention : Reuss Voigt Hill
#
# Bulk Modulus (GPa) = 43.30305 44.60630 43.95467
# Shear Modulus (GPa) = 27.14894 34.71704 30.93299
#
# Velocity S-wave (km/s) = 3.57137 4.03859 3.81215
# Velocity P-wave (km/s) = 6.11148 6.53477 6.32667
#
# Compressibility (1/GPa) = 0.02309306
#
# Stress axis : x y z
#
# Youngs Moduli (GPa) = 92.91050 46.17840 47.92966
#
# Poissons Ratio (x) = 0.11242 0.03152
# Poissons Ratio (y) = 0.22618 0.57527
# Poissons Ratio (z) = 0.06111 0.55425
#
# Static dielectric constant tensor:
#      x y z
#    x 1.737390 -0.017270 -0.030580 
#    y -0.017270 1.783990 0.005710 
#    z -0.030580 0.005710 1.794200 
# 
# From -- ./inp_files/613000.got.cif
#   From: 2010.05.17/outbox.cif.g08.bks.cpg/sg2_307_cif.got.tgz:613000.got - 2010.06.03 11:33:40.
