data_PCOD9029767
_publ_section_title
;
Structure prediction by ZEFSAII (Michael W. Deem and Ramdas Pophale) SiO2 
 PCOD9029767
Probable space group: P -1
;
_chemical_formula_sum "Si O2"
_cell_formula_units_Z 14
_cell_length_a 13.092834
_cell_length_b 11.853989
_cell_length_c 9.517088
_cell_angle_alpha 133.382571
_cell_angle_beta 132.103285
_cell_angle_gamma 35.194456
_cell_volume 597.343943
_symmetry_space_group_name_H-M "P -1"
_symmetry_group_IT_number 2
_symmetry_cell_setting 'triclinic'
loop_
_space_group_symop_operation_xyz
x,y,z
-x,-y,-z
loop_
_atom_site_type_symbol
_atom_site_label
_atom_site_fract_x
_atom_site_fract_y
_atom_site_fract_z
Si Si1 0.847648 0.226985 0.618772
Si Si2 0.794791 0.985533 0.903266
Si Si3 0.007157 0.535136 0.700067
Si Si4 0.642697 0.805608 0.738495
Si Si5 0.389482 0.660536 0.765116
Si Si6 0.728847 0.624348 0.957251
Si Si7 0.642942 0.210438 0.664050
O O1 0.691209 0.350779 0.460932
O O2 0.873586 0.387466 0.825421
O O3 0.773367 0.195105 0.659681
O O4 0.000000 0.000000 0.500000
O O5 0.745634 0.075792 0.780438
O O6 0.976519 0.745235 0.861615
O O7 0.645961 0.971523 0.811750
O O8 0.772768 0.139833 0.124882
O O9 0.826522 0.596552 0.658015
O O10 0.000000 0.500000 0.500000
O O11 0.179598 0.368678 0.814813
O O12 0.677291 0.776054 0.911572
O O13 0.465319 0.844832 0.562621
O O14 0.547504 0.664024 0.867475
O O15 0.490113 0.452888 0.769033
#
# Coordination Sequence:
#
# PCOD9029767 Si02
#       7
#     2   2   2   2   2   2   2
#     4  11  23  42  71  99 132 171 226 281 328 397
#     4  10  25  40  63 103 135 175 220 269 334 398
#     4  10  25  43  64  97 139 174 219 274 337 391
#     4  10  22  42  68  93 138 170 229 263 335 393
#     4  11  22  43  69  97 133 175 228 270 333 394
#     4  11  21  44  68  96 132 180 222 276 329 392
#     4  11  21  45  67  98 134 179 220 276 331 396
#
# _framework density 23.437083999999999
#
# number of rings (size 3 to 8) (size 9 to 14) (size 15 to 20)
#    0.857    0.571    2.857    3.000    2.000    1.714 
#    2.571    3.571    0.000    0.000    0.000    0.000 
#    0.000    0.000    0.000    0.000    0.000    0.000 
#
# Total GULP energy -78229.220368 kJ/mol
# GULP energy per Si atom -5587.801455 kJ/mol
# Density = 2.338374 g / cm^3
# Si number density = 23.437084 Si / 1000 Ang^3
#
#
#
# Elastic Constant Matrix: (Units=GPa)
#
#
# Indices 1 2 3 4 5 6 
#
# 1 27.1137 38.6419 48.4636 -27.9158 -3.4790 26.4997
# 2 38.6419 9.2988 -4.2166 6.6881 -42.9336 6.1558
# 3 48.4636 -4.2166 92.3964 -11.7390 -49.1828 -3.7704
# 4 -27.9158 6.6881 -11.7390 40.1630 13.9165 -13.5722
# 5 -3.4790 -42.9336 -49.1828 13.9165 24.0386 -10.1001
# 6 26.4997 6.1558 -3.7704 -13.5722 -10.1001 41.4644
#
#
#
# Elastic Compliance Matrix: (Units=1/GPa)
#
#
# Indices 1 2 3 4 5 6 
#
# 1 0.030984 0.018191 0.000586 0.003467 0.030312 -0.013931
# 2 0.018191 0.013713 -0.011369 0.003623 -0.004357 -0.014571
# 3 0.000586 -0.011369 0.010449 0.007240 -0.001212 0.004338
# 4 0.003467 0.003623 0.007240 0.028915 0.009072 0.009579
# 5 0.030312 -0.004357 -0.001212 0.009072 0.026521 -0.009406
# 6 -0.013931 -0.014571 0.004338 0.009579 -0.009406 0.036422
#
#
# Mechanical properties :
#
#
# Convention : Reuss Voigt Hill
#
# Bulk Modulus (GPa) = 14.29397 32.73186 23.51291
# Shear Modulus (GPa) = 32.15253 24.19455 28.17354
#
# Velocity S-wave (km/s) = 3.70789 3.21646 3.47088
# Velocity P-wave (km/s) = 4.94402 5.27165 5.11046
#
# Compressibility (1/GPa) = 0.06995956
#
# Stress axis : x y z
#
# Youngs Moduli (GPa) = 32.27514 72.92509 95.70426
#
# Poissons Ratio (x) = -1.32658 -0.05605
# Poissons Ratio (y) = -0.58712 1.08810
# Poissons Ratio (z) = -0.01890 0.82911
#
# Static dielectric constant tensor:
#      x y z
#    x 1.849310 -0.029100 0.014950 
#    y -0.029100 1.953090 0.074360 
#    z 0.014950 0.074360 1.880210 
# 
# From -- ./inp_files/308597.got.cif
#   From: 2010.05.17/outbox.cif.g08.bks.cpg/sg2_155_cif.got.tgz:308597.got - 2010.06.03 11:33:40.
