data_PCOD9029356
_publ_section_title
;
Structure prediction by ZEFSAII (Michael W. Deem and Ramdas Pophale) SiO2 
 PCOD9029356
Probable space group: P -1
;
_chemical_formula_sum "Si O2"
_cell_formula_units_Z 14
_cell_length_a 13.725368
_cell_length_b 7.864349
_cell_length_c 16.747996
_cell_angle_alpha 43.886650
_cell_angle_beta 25.486722
_cell_angle_gamma 41.098827
_cell_volume 506.098380
_symmetry_space_group_name_H-M "P -1"
_symmetry_group_IT_number 2
_symmetry_cell_setting 'triclinic'
loop_
_space_group_symop_operation_xyz
x,y,z
-x,-y,-z
loop_
_atom_site_type_symbol
_atom_site_label
_atom_site_fract_x
_atom_site_fract_y
_atom_site_fract_z
Si Si1 0.754715 0.888234 0.452306
Si Si2 0.702225 0.836636 0.231624
Si Si3 0.093202 0.368716 0.139524
Si Si4 0.241197 0.167640 0.276580
Si Si5 0.278091 0.642327 0.350705
Si Si6 0.290348 0.790887 0.118210
Si Si7 0.833959 0.168500 0.158670
O O1 0.668865 0.655381 0.562106
O O2 0.042777 0.754474 0.288880
O O3 0.581107 0.015257 0.612376
O O4 0.715465 0.131455 0.340409
O O5 0.813895 0.527302 0.269574
O O6 0.792510 0.954932 0.203126
O O7 0.877644 0.893542 0.016908
O O8 0.134327 0.314416 0.221515
O O9 0.196110 0.091371 0.116190
O O10 0.220427 0.559885 0.940045
O O11 0.016091 0.234530 0.479040
O O12 0.327364 0.857646 0.297319
O O13 0.471928 0.249202 0.096473
O O14 0.372427 0.639394 0.192357
#
# Coordination Sequence:
#
# PCOD9029356 Si02
#       7
#     2   2   2   2   2   2   2
#     4  12  24  38  62  95 126 153 199 240 317 360
#     4   9  21  38  61  92 117 156 198 255 290 347
#     4   9  19  42  62  86 120 153 211 240 293 355
#     4  10  22  42  67  87 115 162 205 253 293 340
#     4  10  23  40  62  92 116 159 210 245 288 359
#     4  11  25  40  60  91 126 165 187 250 305 357
#     4   9  21  38  60  92 115 160 197 248 297 344
#
# _framework density 27.662607000000001
#
# number of rings (size 3 to 8) (size 9 to 14) (size 15 to 20)
#    0.857    1.143    0.000    3.429    4.000    2.857 
#    5.143    0.000    0.000    0.000    0.000    0.000 
#    0.000    0.000    0.000    0.000    0.000    0.000 
#
# Total GULP energy -78272.655196 kJ/mol
# GULP energy per Si atom -5590.903943 kJ/mol
# Density = 2.759965 g / cm^3
# Si number density = 27.662607 Si / 1000 Ang^3
#
#
#
# Elastic Constant Matrix: (Units=GPa)
#
#
# Indices 1 2 3 4 5 6 
#
# 1 56.0848 14.7529 21.0212 -8.6182 -4.0405 -11.6671
# 2 14.7529 96.9987 35.0515 -17.5072 -1.5089 -14.9942
# 3 21.0212 35.0515 167.7708 0.2975 0.8879 -8.2821
# 4 -8.6182 -17.5072 0.2975 56.4485 -4.8951 -9.6249
# 5 -4.0405 -1.5089 0.8879 -4.8951 48.5490 4.4963
# 6 -11.6671 -14.9942 -8.2821 -9.6249 4.4963 26.5799
#
#
#
# Elastic Compliance Matrix: (Units=1/GPa)
#
#
# Indices 1 2 3 4 5 6 
#
# 1 0.021762 0.000119 -0.002245 0.005301 0.001409 0.010601
# 2 0.000119 0.013620 -0.002425 0.005817 0.000226 0.009048
# 3 -0.002245 -0.002425 0.006721 -0.001280 -0.000454 -0.000646
# 4 0.005301 0.005817 -0.001280 0.022727 0.001719 0.013148
# 5 0.001409 0.000226 -0.000454 0.001719 0.021121 -0.002346
# 6 0.010601 0.009048 -0.000646 0.013148 -0.002346 0.052337
#
#
# Mechanical properties :
#
#
# Convention : Reuss Voigt Hill
#
# Bulk Modulus (GPa) = 30.30322 51.38950 40.84636
# Shear Modulus (GPa) = 31.56771 42.98406 37.27588
#
# Velocity S-wave (km/s) = 3.38178 3.94619 3.67484
# Velocity P-wave (km/s) = 5.12123 6.27541 5.72747
#
# Compressibility (1/GPa) = 0.03299979
#
# Stress axis : x y z
#
# Youngs Moduli (GPa) = 45.95248 73.42203 148.78078
#
# Poissons Ratio (x) = -0.00872 0.33402
# Poissons Ratio (y) = -0.00546 0.36083
# Poissons Ratio (z) = 0.10316 0.17807
#
# Static dielectric constant tensor:
#      x y z
#    x 2.159930 -0.053800 -0.116530 
#    y -0.053800 2.150430 0.086260 
#    z -0.116530 0.086260 2.231250 
# 
# From -- ./inp_files/599680.got.cif
#   From: 2010.05.17/outbox.cif.g08.bks.cpg/sg2_300_cif.got.tgz:599680.got - 2010.06.03 11:33:40.
