data_PCOD9029362
_publ_section_title
;
Structure prediction by ZEFSAII (Michael W. Deem and Ramdas Pophale) SiO2 
 PCOD9029362
Probable space group: P -1
;
_chemical_formula_sum "Si O2"
_cell_formula_units_Z 16
_cell_length_a 6.440782
_cell_length_b 16.527394
_cell_length_c 8.748670
_cell_angle_alpha 131.963576
_cell_angle_beta 82.255156
_cell_angle_gamma 87.815354
_cell_volume 675.691030
_symmetry_space_group_name_H-M "P -1"
_symmetry_group_IT_number 2
_symmetry_cell_setting 'triclinic'
loop_
_space_group_symop_operation_xyz
x,y,z
-x,-y,-z
loop_
_atom_site_type_symbol
_atom_site_label
_atom_site_fract_x
_atom_site_fract_y
_atom_site_fract_z
Si Si1 0.733035 0.935578 0.857666
Si Si2 0.849350 0.318709 0.956265
Si Si3 0.733578 0.841128 0.225634
Si Si4 0.587196 0.247363 0.629875
Si Si5 0.730857 0.680735 0.493531
Si Si6 0.876354 0.023026 0.259512
Si Si7 0.430516 0.336230 0.184199
Si Si8 0.926617 0.498904 0.684454
O O1 0.723519 0.810467 0.666854
O O2 0.870523 0.977274 0.760101
O O3 0.500000 0.000000 0.000000
O O4 0.854029 0.948854 0.019665
O O5 0.717541 0.316753 0.812562
O O6 0.038918 0.215657 0.803978
O O7 0.678633 0.308143 0.091641
O O8 0.955935 0.422078 0.122513
O O9 0.554969 0.820505 0.336337
O O10 0.765281 0.962293 0.325541
O O11 0.680339 0.765428 0.991633
O O12 0.419243 0.328916 0.647508
O O13 0.752331 0.148739 0.408239
O O14 0.617657 0.643706 0.608644
O O15 0.974829 0.619382 0.405097
O O16 0.318229 0.442489 0.230962
O O17 0.000000 0.500000 0.500000
#
# Coordination Sequence:
#
# PCOD9029362 Si02
#       8
#     2   2   2   2   2   2   2   2
#     4  11  24  41  64 100 134 161 223 274 318 382
#     4  10  23  42  64  98 130 166 223 262 327 399
#     4  10  22  42  67  89 136 175 215 269 313 387
#     4  11  25  41  62 100 135 171 218 260 332 390
#     4  11  22  42  67  92 135 168 207 286 320 373
#     4  11  24  41  67  96 127 180 218 261 328 383
#     4   9  20  42  68  97 125 166 221 270 322 386
#     4   9  21  43  67  97 124 170 218 269 327 382
#
# _framework density 23.679459999999999
#
# number of rings (size 3 to 8) (size 9 to 14) (size 15 to 20)
#    0.000    1.750    2.500    0.375    3.500    3.000 
#    2.250    5.625    0.000    0.000    0.000    0.000 
#    0.000    0.000    0.000    0.000    0.000    0.000 
#
# Total GULP energy -89375.641901 kJ/mol
# GULP energy per Si atom -5585.977619 kJ/mol
# Density = 2.362556 g / cm^3
# Si number density = 23.679460 Si / 1000 Ang^3
#
#
#
# Elastic Constant Matrix: (Units=GPa)
#
#
# Indices 1 2 3 4 5 6 
#
# 1 96.3174 33.0517 19.0491 -1.3836 -10.0513 -1.4716
# 2 33.0517 76.1263 20.0351 4.8243 0.6533 -9.4444
# 3 19.0491 20.0351 54.3994 -0.0322 1.0804 -5.2087
# 4 -1.3836 4.8243 -0.0322 36.7929 -4.7723 -7.7657
# 5 -10.0513 0.6533 1.0804 -4.7723 36.2008 -8.1550
# 6 -1.4716 -9.4444 -5.2087 -7.7657 -8.1550 23.0282
#
#
#
# Elastic Compliance Matrix: (Units=1/GPa)
#
#
# Indices 1 2 3 4 5 6 
#
# 1 0.013135 -0.005095 -0.002789 0.001719 0.004081 0.000144
# 2 -0.005095 0.017135 -0.004029 -0.001457 -0.000654 0.005067
# 3 -0.002789 -0.004029 0.021153 0.001039 -0.000491 0.003130
# 4 0.001719 -0.001457 0.001039 0.031127 0.007481 0.012893
# 5 0.004081 -0.000654 -0.000491 0.007481 0.032939 0.014069
# 6 0.000144 0.005067 0.003130 0.012893 0.014069 0.055551
#
#
# Mechanical properties :
#
#
# Convention : Reuss Voigt Hill
#
# Bulk Modulus (GPa) = 36.23650 41.23498 38.73574
# Shear Modulus (GPa) = 24.50177 29.51819 27.00998
#
# Velocity S-wave (km/s) = 3.22021 3.53452 3.38102
# Velocity P-wave (km/s) = 5.40023 5.84026 5.62455
#
# Compressibility (1/GPa) = 0.02759649
#
# Stress axis : x y z
#
# Youngs Moduli (GPa) = 76.13163 58.35937 47.27363
#
# Poissons Ratio (x) = 0.29733 0.13186
# Poissons Ratio (y) = 0.38788 0.19048
# Poissons Ratio (z) = 0.21236 0.23515
#
# Static dielectric constant tensor:
#      x y z
#    x 1.959740 0.006640 0.002810 
#    y 0.006640 1.929430 -0.017020 
#    z 0.002810 -0.017020 1.918520 
# 
# From -- ./inp_files/139514.got.cif
#   From: 2010.05.17/outbox.cif.g08.bks.cpg/sg2_70_cif.got.tgz:139514.got - 2010.06.03 11:33:40.
