data_PCOD9029534
_publ_section_title
;
Structure prediction by ZEFSAII (Michael W. Deem and Ramdas Pophale) SiO2 
 PCOD9029534
Probable space group: P -1
;
_chemical_formula_sum "Si O2"
_cell_formula_units_Z 14
_cell_length_a 20.856809
_cell_length_b 5.460263
_cell_length_c 13.050464
_cell_angle_alpha 104.890789
_cell_angle_beta 157.183684
_cell_angle_gamma 70.334417
_cell_volume 536.918719
_symmetry_space_group_name_H-M "P -1"
_symmetry_group_IT_number 2
_symmetry_cell_setting 'triclinic'
loop_
_space_group_symop_operation_xyz
x,y,z
-x,-y,-z
loop_
_atom_site_type_symbol
_atom_site_label
_atom_site_fract_x
_atom_site_fract_y
_atom_site_fract_z
Si Si1 0.334579 0.266355 0.708339
Si Si2 0.498264 0.207221 0.428657
Si Si3 0.240375 0.483899 0.924246
Si Si4 0.638073 0.304504 0.049977
Si Si5 0.006135 0.559570 0.136285
Si Si6 0.113444 0.130131 0.532633
Si Si7 0.126667 0.904821 0.079247
O O1 0.396555 0.428281 0.907068
O O2 0.228257 0.096976 0.594597
O O3 0.500946 0.154540 0.871800
O O4 0.194207 0.454698 0.448836
O O5 0.500000 0.500000 0.500000
O O6 0.675334 0.106425 0.614518
O O7 0.500000 0.000000 0.500000
O O8 0.332990 0.269773 0.119468
O O9 0.370876 0.622505 0.073926
O O10 0.173408 0.331004 0.718684
O O11 0.083725 0.719394 0.757138
O O12 0.828458 0.140867 0.348111
O O13 0.891577 0.386451 0.998849
O O14 0.937187 0.871002 0.076253
O O15 0.000000 0.500000 0.000000
O O16 0.000000 0.000000 0.000000
#
# Coordination Sequence:
#
# PCOD9029534 Si02
#       7
#     2   2   2   2   2   2   2
#     4  10  23  38  65 100 135 166 236 283 346 405
#     4  12  29  48  72 107 146 187 236 294 357 423
#     4  10  25  43  66  96 134 177 234 275 349 420
#     4  10  22  42  67  97 131 178 227 290 346 403
#     4  10  23  41  66 103 137 183 226 286 348 417
#     4  10  22  43  67  96 129 180 224 288 345 409
#     4  10  24  45  70  99 137 184 239 276 353 412
#
# _framework density 26.074712000000002
#
# number of rings (size 3 to 8) (size 9 to 14) (size 15 to 20)
#    0.000    1.714    0.000    1.714   12.000    2.286 
#    0.000    0.000    0.000    0.000    0.000    0.000 
#    0.000    0.000    0.000    0.000    0.000    0.000 
#
# Total GULP energy -78300.000883 kJ/mol
# GULP energy per Si atom -5592.857206 kJ/mol
# Density = 2.601536 g / cm^3
# Si number density = 26.074712 Si / 1000 Ang^3
#
#
#
# Elastic Constant Matrix: (Units=GPa)
#
#
# Indices 1 2 3 4 5 6 
#
# 1 133.8568 42.8492 60.0898 -7.4669 3.5526 21.3216
# 2 42.8492 128.1583 20.4575 -20.0600 -3.7860 26.6457
# 3 60.0898 20.4575 141.8079 -28.9483 4.7127 22.8130
# 4 -7.4669 -20.0600 -28.9483 43.1815 8.3781 -13.3886
# 5 3.5526 -3.7860 4.7127 8.3781 44.4950 -6.2330
# 6 21.3216 26.6457 22.8130 -13.3886 -6.2330 39.6046
#
#
#
# Elastic Compliance Matrix: (Units=1/GPa)
#
#
# Indices 1 2 3 4 5 6 
#
# 1 0.010511 -0.002821 -0.004266 -0.003016 -0.000394 -0.002385
# 2 -0.002821 0.010109 0.001274 0.003638 -0.000414 -0.004851
# 3 -0.004266 0.001274 0.010524 0.006487 -0.002278 -0.002788
# 4 -0.003016 0.003638 0.006487 0.031314 -0.005306 0.005190
# 5 -0.000394 -0.000414 -0.002278 -0.005306 0.024247 0.003825
# 6 -0.002385 -0.004851 -0.002788 0.005190 0.003825 0.033760
#
#
# Mechanical properties :
#
#
# Convention : Reuss Voigt Hill
#
# Bulk Modulus (GPa) = 51.23519 72.29067 61.76293
# Shear Modulus (GPa) = 36.07609 44.15131 40.11370
#
# Velocity S-wave (km/s) = 3.72367 4.11939 3.92652
# Velocity P-wave (km/s) = 6.17897 7.10003 6.65545
#
# Compressibility (1/GPa) = 0.01951783
#
# Stress axis : x y z
#
# Youngs Moduli (GPa) = 95.14022 98.92530 95.02078
#
# Poissons Ratio (x) = 0.27908 0.40534
# Poissons Ratio (y) = 0.26840 -0.12107
# Poissons Ratio (z) = 0.40585 -0.12604
#
# Static dielectric constant tensor:
#      x y z
#    x 2.163300 -0.068950 0.032180 
#    y -0.068950 2.153690 0.000720 
#    z 0.032180 0.000720 2.088010 
# 
# From -- ./inp_files/542172.got.cif
#   From: 2010.05.17/outbox.cif.g08.bks.cpg/sg2_272_cif.got.tgz:542172.got - 2010.06.03 11:33:40.
