data_PCOD9029707
_publ_section_title
;
Structure prediction by ZEFSAII (Michael W. Deem and Ramdas Pophale) SiO2 
 PCOD9029707
Probable space group: P -1
;
_chemical_formula_sum "Si O2"
_cell_formula_units_Z 12
_cell_length_a 16.227834
_cell_length_b 9.462357
_cell_length_c 18.732724
_cell_angle_alpha 146.225222
_cell_angle_beta 162.596012
_cell_angle_gamma 33.907415
_cell_volume 466.470516
_symmetry_space_group_name_H-M "P -1"
_symmetry_group_IT_number 2
_symmetry_cell_setting 'triclinic'
loop_
_space_group_symop_operation_xyz
x,y,z
-x,-y,-z
loop_
_atom_site_type_symbol
_atom_site_label
_atom_site_fract_x
_atom_site_fract_y
_atom_site_fract_z
Si Si1 0.311123 0.509932 0.731058
Si Si2 0.587402 0.970530 0.193273
Si Si3 0.190715 0.596115 0.514587
Si Si4 0.801165 0.605242 0.713931
Si Si5 0.244912 0.958750 0.034987
Si Si6 0.138172 0.718478 0.243247
O O1 0.316643 0.441675 0.623407
O O2 0.572628 0.318641 0.906815
O O3 0.000000 0.500000 0.500000
O O4 0.388486 0.792553 0.921045
O O5 0.478437 0.050814 0.216505
O O6 0.900247 0.790481 0.379064
O O7 0.604727 0.223645 0.269090
O O8 0.129517 0.431658 0.326984
O O9 0.465195 0.659894 0.470708
O O10 0.917333 0.341705 0.745259
O O11 0.870156 0.853885 0.915538
O O12 0.993398 0.009645 0.790578
O O13 0.000000 0.500000 0.000000
#
# Coordination Sequence:
#
# PCOD9029707 Si02
#       6
#     2   2   2   2   2   2
#     4  12  27  46  71 103 149 193 236 289 359 430
#     4  11  25  45  73 102 140 190 246 290 347 421
#     4  11  25  46  73 109 142 183 239 302 355 419
#     4  10  22  42  68 107 141 179 234 297 359 420
#     4  11  24  42  74 104 138 192 232 294 357 425
#     4   9  19  37  65  98 140 178 230 280 351 419
#
# _framework density 25.725097999999999
#
# number of rings (size 3 to 8) (size 9 to 14) (size 15 to 20)
#    0.000    1.333    1.667    4.000    2.333    7.333 
#    0.000    1.667    0.000    0.000    0.000    0.000 
#    0.000    0.000    0.000    0.000    0.000    0.000 
#
# Total GULP energy -67123.218249 kJ/mol
# GULP energy per Si atom -5593.601521 kJ/mol
# Density = 2.566655 g / cm^3
# Si number density = 25.725098 Si / 1000 Ang^3
#
#
#
# Elastic Constant Matrix: (Units=GPa)
#
#
# Indices 1 2 3 4 5 6 
#
# 1 144.3247 51.7195 9.2869 0.3175 -21.1640 4.1142
# 2 51.7195 113.6954 33.9136 -12.0267 -7.3350 9.5642
# 3 9.2869 33.9136 71.0972 5.6769 5.2885 12.7122
# 4 0.3175 -12.0267 5.6769 57.0272 1.9039 -3.3407
# 5 -21.1640 -7.3350 5.2885 1.9039 37.7053 0.5730
# 6 4.1142 9.5642 12.7122 -3.3407 0.5730 40.5369
#
#
#
# Elastic Compliance Matrix: (Units=1/GPa)
#
#
# Indices 1 2 3 4 5 6 
#
# 1 0.008986 -0.004091 0.000606 -0.001131 0.004225 -0.000290
# 2 -0.004091 0.012835 -0.005816 0.003249 0.000860 -0.000534
# 3 0.000606 -0.005816 0.018063 -0.003193 -0.003094 -0.004573
# 4 -0.001131 0.003249 -0.003193 0.018673 -0.000527 0.001896
# 5 0.004225 0.000860 -0.003094 -0.000527 0.029523 -0.000122
# 6 -0.000290 -0.000534 -0.004573 0.001896 -0.000122 0.026416
#
#
# Mechanical properties :
#
#
# Convention : Reuss Voigt Hill
#
# Bulk Modulus (GPa) = 46.98938 57.66191 52.32565
# Shear Modulus (GPa) = 35.66479 42.66703 39.16591
#
# Velocity S-wave (km/s) = 3.72745 4.07698 3.90613
# Velocity P-wave (km/s) = 6.06884 6.68024 6.38187
#
# Compressibility (1/GPa) = 0.02128140
#
# Stress axis : x y z
#
# Youngs Moduli (GPa) = 111.28182 77.90967 55.36106
#
# Poissons Ratio (x) = 0.31874 -0.03352
# Poissons Ratio (y) = 0.45527 0.32199
# Poissons Ratio (z) = -0.06739 0.45313
#
# Static dielectric constant tensor:
#      x y z
#    x 2.010040 0.017380 -0.063000 
#    y 0.017380 2.091270 0.006280 
#    z -0.063000 0.006280 2.091720 
# 
# From -- ./inp_files/572954.got.cif
#   From: 2010.05.17/outbox.cif.g08.bks.cpg/sg2_287_cif.got.tgz:572954.got - 2010.06.03 11:33:40.
