data_PCOD9029387
_publ_section_title
;
Structure prediction by ZEFSAII (Michael W. Deem and Ramdas Pophale) SiO2 
 PCOD9029387
Probable space group: P -1
;
_chemical_formula_sum "Si O2"
_cell_formula_units_Z 16
_cell_length_a 23.724203
_cell_length_b 6.632859
_cell_length_c 9.307777
_cell_angle_alpha 101.169161
_cell_angle_beta 148.084541
_cell_angle_gamma 94.024122
_cell_volume 677.500670
_symmetry_space_group_name_H-M "P -1"
_symmetry_group_IT_number 2
_symmetry_cell_setting 'triclinic'
loop_
_space_group_symop_operation_xyz
x,y,z
-x,-y,-z
loop_
_atom_site_type_symbol
_atom_site_label
_atom_site_fract_x
_atom_site_fract_y
_atom_site_fract_z
Si Si1 0.523266 0.951752 0.702996
Si Si2 0.917485 0.616376 0.551160
Si Si3 0.829894 0.840115 0.608536
Si Si4 0.636334 0.379777 0.192273
Si Si5 0.783938 0.165488 0.359851
Si Si6 0.319396 0.641896 0.402403
Si Si7 0.859896 0.815821 0.183186
Si Si8 0.821263 0.082034 0.908534
O O1 0.500000 0.000000 0.500000
O O2 0.418497 0.718978 0.503431
O O3 0.535536 0.169429 0.858914
O O4 0.655922 0.973363 0.002064
O O5 0.915673 0.740621 0.714644
O O6 0.854636 0.346305 0.413750
O O7 0.848681 0.705820 0.302104
O O8 0.048593 0.698233 0.783074
O O9 0.694347 0.628698 0.278629
O O10 0.799773 0.587733 0.923819
O O11 0.837574 0.919113 0.800471
O O12 0.745404 0.309771 0.408478
O O13 0.616933 0.383849 0.319268
O O14 0.847552 0.047074 0.570137
O O15 0.277269 0.842051 0.343048
O O16 0.000000 0.000000 0.500000
O O17 0.797817 0.961993 0.997155
#
# Coordination Sequence:
#
# PCOD9029387 Si02
#       8
#     2   2   2   2   2   2   2   2
#     4  10  22  42  67  92 128 165 209 262 320 378
#     4  10  23  39  63  90 134 166 210 265 311 374
#     4  11  20  41  65  93 131 162 218 265 307 380
#     4   9  21  40  63  93 128 164 213 262 311 370
#     4   9  21  40  63  93 123 165 211 254 320 367
#     4  12  22  42  68  90 133 167 209 265 316 379
#     4  10  24  42  60  92 130 167 214 261 311 377
#     4  11  23  40  64  99 122 174 214 254 326 374
#
# _framework density 23.616211
#
# number of rings (size 3 to 8) (size 9 to 14) (size 15 to 20)
#    0.750    1.000    2.500    1.500    0.000    6.500 
#    2.250    1.875    0.000    0.000    0.000    0.000 
#    0.000    0.000    0.000    0.000    0.000    0.000 
#
# Total GULP energy -89191.481759 kJ/mol
# GULP energy per Si atom -5574.467610 kJ/mol
# Density = 2.356246 g / cm^3
# Si number density = 23.616211 Si / 1000 Ang^3
#
#
#
# Elastic Constant Matrix: (Units=GPa)
#
#
# Indices 1 2 3 4 5 6 
#
# 1 67.5692 42.9707 33.8823 -5.3525 -11.4544 22.3067
# 2 42.9707 101.7348 31.3056 3.8528 -2.1352 39.5250
# 3 33.8823 31.3056 90.9537 8.3403 -17.2759 18.0708
# 4 -5.3525 3.8528 8.3403 28.0571 3.6600 -13.0444
# 5 -11.4544 -2.1352 -17.2759 3.6600 36.0549 2.6458
# 6 22.3067 39.5250 18.0708 -13.0444 2.6458 37.9933
#
#
#
# Elastic Compliance Matrix: (Units=1/GPa)
#
#
# Indices 1 2 3 4 5 6 
#
# 1 0.024607 -0.008430 -0.006019 0.006799 0.003799 -0.000745
# 2 -0.008430 0.024812 0.003255 -0.020410 0.004605 -0.029740
# 3 -0.006019 0.003255 0.018106 -0.014827 0.009504 -0.014217
# 4 0.006799 -0.020410 -0.014827 0.069228 -0.016793 0.049231
# 5 0.003799 0.004605 0.009504 -0.016793 0.036933 -0.019879
# 6 -0.000745 -0.029740 -0.014217 0.049231 -0.019879 0.082745
#
#
# Mechanical properties :
#
#
# Convention : Reuss Voigt Hill
#
# Bulk Modulus (GPa) = 22.15440 52.95278 37.55359
# Shear Modulus (GPa) = 17.01459 30.56101 23.78780
#
# Velocity S-wave (km/s) = 2.68706 3.60122 3.17719
# Velocity P-wave (km/s) = 4.36216 6.30576 5.42176
#
# Compressibility (1/GPa) = 0.04513775
#
# Stress axis : x y z
#
# Youngs Moduli (GPa) = 40.63805 40.30289 55.23035
#
# Poissons Ratio (x) = 0.33974 0.33245
# Poissons Ratio (y) = 0.34257 -0.17978
# Poissons Ratio (z) = 0.24461 -0.13119
#
# Static dielectric constant tensor:
#      x y z
#    x 1.921570 -0.025600 -0.012160 
#    y -0.025600 1.912990 0.050560 
#    z -0.012160 0.050560 1.920940 
# 
# From -- ./inp_files/339914.got.cif
#   From: 2010.05.17/outbox.cif.g08.bks.cpg/sg2_170_cif.got.tgz:339914.got - 2010.06.03 11:33:40.
