data_PCOD9029578
_publ_section_title
;
Structure prediction by ZEFSAII (Michael W. Deem and Ramdas Pophale) SiO2 
 PCOD9029578
Probable space group: P -1
;
_chemical_formula_sum "Si O2"
_cell_formula_units_Z 14
_cell_length_a 9.142486
_cell_length_b 5.399190
_cell_length_c 13.956453
_cell_angle_alpha 62.842016
_cell_angle_beta 67.329216
_cell_angle_gamma 87.179109
_cell_volume 558.827855
_symmetry_space_group_name_H-M "P -1"
_symmetry_group_IT_number 2
_symmetry_cell_setting 'triclinic'
loop_
_space_group_symop_operation_xyz
x,y,z
-x,-y,-z
loop_
_atom_site_type_symbol
_atom_site_label
_atom_site_fract_x
_atom_site_fract_y
_atom_site_fract_z
Si Si1 0.371576 0.719373 0.090930
Si Si2 0.559597 0.261436 0.646557
Si Si3 0.021750 0.739618 0.233926
Si Si4 0.128096 0.809287 0.534765
Si Si5 0.404052 0.724759 0.865673
Si Si6 0.920021 0.358481 0.141805
Si Si7 0.644447 0.843247 0.463136
O O1 0.461046 0.470175 0.149058
O O2 0.213941 0.757350 0.182112
O O3 0.327456 0.650188 0.002309
O O4 0.500000 0.000000 0.000000
O O5 0.714540 0.156532 0.577829
O O6 0.630778 0.584391 0.585745
O O7 0.407431 0.266129 0.610717
O O8 0.488229 0.048617 0.783140
O O9 0.943795 0.519480 0.374328
O O10 0.963355 0.576680 0.179087
O O11 0.978077 0.052987 0.190749
O O12 0.196914 0.941462 0.595108
O O13 0.000000 0.000000 0.500000
O O14 0.270273 0.681359 0.825302
O O15 0.000000 0.500000 0.000000
O O16 0.500000 0.000000 0.500000
#
# Coordination Sequence:
#
# PCOD9029578 Si02
#       7
#     2   2   2   2   2   2   2
#     4  11  26  47  68 102 142 186 242 293 364 429
#     4  10  22  42  67  98 132 179 232 282 348 414
#     4  12  28  47  77 106 148 190 241 301 358 430
#     4  11  25  44  66 102 142 185 229 288 358 425
#     4  11  25  42  73 101 139 190 237 299 354 427
#     4  12  26  49  75 110 143 189 247 300 362 419
#     4   9  21  40  64  93 134 173 227 281 335 420
#
# _framework density 25.052437999999999
#
# number of rings (size 3 to 8) (size 9 to 14) (size 15 to 20)
#    0.000    1.143    1.429    3.000   12.000    4.000 
#    0.000    0.000    0.000    0.000    0.000    0.000 
#    0.000    0.000    0.000    0.000    0.000    0.000 
#
# Total GULP energy -78397.683424 kJ/mol
# GULP energy per Si atom -5599.834530 kJ/mol
# Density = 2.499542 g / cm^3
# Si number density = 25.052438 Si / 1000 Ang^3
#
#
#
# Elastic Constant Matrix: (Units=GPa)
#
#
# Indices 1 2 3 4 5 6 
#
# 1 133.5930 26.1536 18.2020 -3.7320 -11.0171 -25.4710
# 2 26.1536 109.7261 21.2520 -24.6525 8.3695 -20.3329
# 3 18.2020 21.2520 124.9692 -17.0056 -5.0084 -20.1599
# 4 -3.7320 -24.6525 -17.0056 46.1156 -1.8387 6.2474
# 5 -11.0171 8.3695 -5.0084 -1.8387 32.9190 -11.1295
# 6 -25.4710 -20.3329 -20.1599 6.2474 -11.1295 41.2400
#
#
#
# Elastic Compliance Matrix: (Units=1/GPa)
#
#
# Indices 1 2 3 4 5 6 
#
# 1 0.009569 -0.001655 0.000131 -0.000757 0.005924 0.006872
# 2 -0.001655 0.011543 -0.000615 0.005320 -0.002289 0.002945
# 3 0.000131 -0.000615 0.009368 0.002611 0.003423 0.004885
# 4 -0.000757 0.005320 0.002611 0.025488 0.000077 -0.000409
# 5 0.005924 -0.002289 0.003423 0.000077 0.038387 0.014551
# 6 0.006872 0.002945 0.004885 -0.000409 0.014551 0.036321
#
#
# Mechanical properties :
#
#
# Convention : Reuss Voigt Hill
#
# Bulk Modulus (GPa) = 38.16483 55.50041 46.83262
# Shear Modulus (GPa) = 34.79769 44.23365 39.51567
#
# Velocity S-wave (km/s) = 3.73096 4.20651 3.97586
# Velocity P-wave (km/s) = 5.81611 6.76719 6.30959
#
# Compressibility (1/GPa) = 0.02620214
#
# Stress axis : x y z
#
# Youngs Moduli (GPa) = 104.50319 86.63620 106.74558
#
# Poissons Ratio (x) = 0.14335 -0.01394
# Poissons Ratio (y) = 0.17292 0.06562
# Poissons Ratio (z) = -0.01365 0.05326
#
# Static dielectric constant tensor:
#      x y z
#    x 2.058100 0.312370 0.145320 
#    y 0.312370 3.259640 0.800370 
#    z 0.145320 0.800370 2.447610 
# 
# From -- ./inp_files/46706.got.cif
#   From: 2010.05.17/outbox.cif.g08.bks.cpg/sg2_24_cif.got.tgz:46706.got - 2010.06.03 11:33:40.
