data_PCOD9029871
_publ_section_title
;
Structure prediction by ZEFSAII (Michael W. Deem and Ramdas Pophale) SiO2 
 PCOD9029871
Probable space group: P -1
;
_chemical_formula_sum "Si O2"
_cell_formula_units_Z 15
_cell_length_a 12.811489
_cell_length_b 11.233582
_cell_length_c 5.648102
_cell_angle_alpha 88.975942
_cell_angle_beta 130.840137
_cell_angle_gamma 100.675396
_cell_volume 598.463257
_symmetry_space_group_name_H-M "P -1"
_symmetry_group_IT_number 2
_symmetry_cell_setting 'triclinic'
loop_
_space_group_symop_operation_xyz
x,y,z
-x,-y,-z
loop_
_atom_site_type_symbol
_atom_site_label
_atom_site_fract_x
_atom_site_fract_y
_atom_site_fract_z
Si Si1 0.566339 0.886339 0.546152
Si Si2 0.540286 0.642732 0.811629
Si Si3 0.866681 0.194358 0.575689
Si Si4 0.620122 0.289444 0.060482
Si Si5 0.000000 0.500000 0.000000
Si Si6 0.030768 0.273258 0.318864
Si Si7 0.845343 0.935532 0.667933
Si Si8 0.274489 0.502729 0.130473
O O1 0.544809 0.777902 0.711273
O O2 0.728982 0.912503 0.702997
O O3 0.500000 0.000000 0.500000
O O4 0.471030 0.830263 0.184838
O O5 0.497539 0.644347 0.018891
O O6 0.403918 0.548490 0.503318
O O7 0.681489 0.602786 0.951944
O O8 0.734527 0.257570 0.405390
O O9 0.956349 0.238180 0.466732
O O10 0.813020 0.048299 0.466782
O O11 0.940099 0.229636 0.939743
O O12 0.713858 0.376787 0.009466
O O13 0.054286 0.418329 0.307293
O O14 0.124183 0.468666 0.025685
O O15 0.145434 0.188024 0.453598
O O16 0.000000 0.000000 0.000000
#
# Coordination Sequence:
#
# PCOD9029871 Si02
#       8
#     2   2   2   2   1   2   2   2
#     4  11  25  43  69 103 138 182 239 297 359 430
#     4  10  22  43  67  94 141 185 235 291 359 428
#     4  11  24  45  74 101 143 190 239 298 357 432
#     4  11  23  42  70 102 139 187 238 298 359 433
#     4  12  22  42  70 104 142 178 244 294 360 428
#     4  11  25  46  69 106 143 190 238 292 368 427
#     4  10  24  46  72 100 140 188 234 297 356 435
#     4  10  22  42  68  97 138 184 234 298 357 429
#
# _framework density 25.064195000000002
#
# number of rings (size 3 to 8) (size 9 to 14) (size 15 to 20)
#    0.000    1.333    1.333    3.200    5.600    2.667 
#    9.600    0.000    0.000    0.000    0.000    0.000 
#    0.000    0.000    0.000    0.000    0.000    0.000 
#
# Total GULP energy -83555.429228 kJ/mol
# GULP energy per Si atom -5570.361949 kJ/mol
# Density = 2.500715 g / cm^3
# Si number density = 25.064195 Si / 1000 Ang^3
#
#
#
# Elastic Constant Matrix: (Units=GPa)
#
#
# Indices 1 2 3 4 5 6 
#
# 1 161.3797 17.7934 10.8402 0.9066 -4.0204 -22.8273
# 2 17.7934 7.5327 19.8974 18.6407 2.4613 -31.1929
# 3 10.8402 19.8974 51.2420 -1.7083 -10.6994 -6.5153
# 4 0.9066 18.6407 -1.7083 26.8356 -8.1151 -1.8077
# 5 -4.0204 2.4613 -10.6994 -8.1151 23.3731 -12.4348
# 6 -22.8273 -31.1929 -6.5153 -1.8077 -12.4348 45.0795
#
#
#
# Elastic Compliance Matrix: (Units=1/GPa)
#
#
# Indices 1 2 3 4 5 6 
#
# 1 0.006958 0.000396 -0.000099 0.001063 0.004118 0.004962
# 2 0.000396 -0.031275 0.012674 0.024130 0.008935 -0.016176
# 3 -0.000099 0.012674 0.019793 -0.001796 0.015479 0.015778
# 4 0.001063 0.024130 -0.001796 0.027598 0.018777 0.023262
# 5 0.004118 0.008935 0.015479 0.018777 0.072835 0.031349
# 6 0.004962 -0.016176 0.015778 0.023262 0.031349 0.025363
#
#
# Mechanical properties :
#
#
# Convention : Reuss Voigt Hill
#
# Bulk Modulus (GPa) = 46.69227 35.24627 40.96927
# Shear Modulus (GPa) = 48.79400 30.49921 39.64660
#
# Velocity S-wave (km/s) = 4.41700 3.49211 3.98150
# Velocity P-wave (km/s) = 6.68451 5.50933 6.12517
#
# Compressibility (1/GPa) = 0.02141682
#
# Stress axis : x y z
#
# Youngs Moduli (GPa) = 143.71831 -31.97489 50.52191
#
# Poissons Ratio (x) = 0.01266 0.00502
# Poissons Ratio (y) = -0.05689 -0.64029
# Poissons Ratio (z) = 0.01429 0.40523
#
# Static dielectric constant tensor:
#      x y z
#    x 1.964360 -0.036890 -0.000850 
#    y -0.036890 2.141500 0.003070 
#    z -0.000850 0.003070 2.057140 
# 
# From -- ./inp_files/70892.got.cif
#   From: 2010.05.17/outbox.cif.g08.bks.cpg/sg2_36_cif.got.tgz:70892.got - 2010.06.03 11:33:40.
