data_PCOD9029924
_publ_section_title
;
Structure prediction by ZEFSAII (Michael W. Deem and Ramdas Pophale) SiO2 
 PCOD9029924
Probable space group: P -1
;
_chemical_formula_sum "Si O2"
_cell_formula_units_Z 13
_cell_length_a 13.732247
_cell_length_b 10.122129
_cell_length_c 8.734470
_cell_angle_alpha 113.837372
_cell_angle_beta 91.619865
_cell_angle_gamma 39.512402
_cell_volume 617.045201
_symmetry_space_group_name_H-M "P -1"
_symmetry_group_IT_number 2
_symmetry_cell_setting 'triclinic'
loop_
_space_group_symop_operation_xyz
x,y,z
-x,-y,-z
loop_
_atom_site_type_symbol
_atom_site_label
_atom_site_fract_x
_atom_site_fract_y
_atom_site_fract_z
Si Si1 0.192896 0.719181 0.429363
Si Si2 0.464717 0.594188 0.212861
Si Si3 0.000000 0.500000 0.000000
Si Si4 0.707765 0.732944 0.856640
Si Si5 0.819834 0.262689 0.202231
Si Si6 0.216688 0.144609 0.363805
Si Si7 0.941994 0.410488 0.246895
O O1 0.338763 0.641084 0.320665
O O2 0.237417 0.498441 0.288372
O O3 0.182935 0.754992 0.626116
O O4 0.000000 0.000000 0.500000
O O5 0.654936 0.377911 0.190655
O O6 0.367625 0.866680 0.316925
O O7 0.500000 0.500000 0.000000
O O8 0.169585 0.363327 0.042953
O O9 0.006061 0.354847 0.051790
O O10 0.735543 0.799305 0.738950
O O11 0.500000 0.000000 0.000000
O O12 0.801135 0.457809 0.265813
O O13 0.000000 0.000000 0.000000
O O14 0.127988 0.345947 0.589673
O O15 0.084344 0.203278 0.290266
#
# Coordination Sequence:
#
# PCOD9029924 Si02
#       7
#     2   2   1   2   2   2   2
#     4  12  27  49  75 107 150 198 245 309 381 442
#     4  12  27  45  72 108 147 192 248 304 373 452
#     4  10  26  40  72 108 134 188 242 302 360 446
#     4  11  25  47  74 105 149 187 247 305 374 442
#     4  12  27  46  73 103 147 196 249 306 373 449
#     4  10  22  44  69  97 137 182 231 300 360 434
#     4  10  22  42  68  99 135 180 241 290 367 423
#
# _framework density 21.068151
#
# number of rings (size 3 to 8) (size 9 to 14) (size 15 to 20)
#    0.000    0.923    1.538    4.154   10.769    3.077 
#    0.000    0.000    0.000    0.000    0.000    0.000 
#    0.000    0.000    0.000    0.000    0.000    0.000 
#
# Total GULP energy -72368.797172 kJ/mol
# GULP energy per Si atom -5566.830552 kJ/mol
# Density = 2.102020 g / cm^3
# Si number density = 21.068151 Si / 1000 Ang^3
#
#
#
# Elastic Constant Matrix: (Units=GPa)
#
#
# Indices 1 2 3 4 5 6 
#
# 1 157.7943 58.3259 61.7037 -12.0127 -23.8225 -19.0302
# 2 58.3259 77.3300 47.6903 -18.3519 -0.2648 -20.1757
# 3 61.7037 47.6903 99.5737 1.1631 -10.4816 -12.9484
# 4 -12.0127 -18.3519 1.1631 28.2727 -2.4141 0.2170
# 5 -23.8225 -0.2648 -10.4816 -2.4141 33.2427 -3.5932
# 6 -19.0302 -20.1757 -12.9484 0.2170 -3.5932 43.2315
#
#
#
# Elastic Compliance Matrix: (Units=1/GPa)
#
#
# Indices 1 2 3 4 5 6 
#
# 1 0.011074 -0.005257 -0.003349 0.002030 0.007202 0.002007
# 2 -0.005257 0.029364 -0.010496 0.016790 -0.004784 0.007764
# 3 -0.003349 -0.010496 0.017362 -0.008751 0.002254 -0.000941
# 4 0.002030 0.016790 -0.008751 0.047696 0.002954 0.006115
# 5 0.007202 -0.004784 0.002254 0.002954 0.036632 0.004642
# 6 0.002007 0.007764 -0.000941 0.006115 0.004642 0.027711
#
#
# Mechanical properties :
#
#
# Convention : Reuss Voigt Hill
#
# Bulk Modulus (GPa) = 51.03215 74.45977 62.74596
# Shear Modulus (GPa) = 23.30182 32.08126 27.69154
#
# Velocity S-wave (km/s) = 3.32930 3.90646 3.62937
# Velocity P-wave (km/s) = 6.24932 7.46768 6.88550
#
# Compressibility (1/GPa) = 0.01959549
#
# Stress axis : x y z
#
# Youngs Moduli (GPa) = 90.30041 34.05575 57.59639
#
# Poissons Ratio (x) = 0.17904 0.19290
# Poissons Ratio (y) = 0.47473 0.60453
# Poissons Ratio (z) = 0.30243 0.35745
#
# Static dielectric constant tensor:
#      x y z
#    x 1.837480 0.074880 -0.010980 
#    y 0.074880 1.805750 0.043330 
#    z -0.010980 0.043330 1.797760 
# 
# From -- ./inp_files/245046.got.cif
#   From: 2010.05.17/outbox.cif.g08.bks.cpg/sg2_123_cif.got.tgz:245046.got - 2010.06.03 11:33:40.
