data_PCOD9029241
_publ_section_title
;
Structure prediction by ZEFSAII (Michael W. Deem and Ramdas Pophale) SiO2 
 PCOD9029241
Probable space group: P -1
;
_chemical_formula_sum "Si O2"
_cell_formula_units_Z 16
_cell_length_a 9.358519
_cell_length_b 21.129611
_cell_length_c 6.645861
_cell_angle_alpha 124.909654
_cell_angle_beta 131.432040
_cell_angle_gamma 54.736616
_cell_volume 764.656740
_symmetry_space_group_name_H-M "P -1"
_symmetry_group_IT_number 2
_symmetry_cell_setting 'triclinic'
loop_
_space_group_symop_operation_xyz
x,y,z
-x,-y,-z
loop_
_atom_site_type_symbol
_atom_site_label
_atom_site_fract_x
_atom_site_fract_y
_atom_site_fract_z
Si Si1 0.451845 0.794429 0.546264
Si Si2 0.927345 0.858697 0.693028
Si Si3 0.831815 0.283531 0.030440
Si Si4 0.021108 0.917238 0.490521
Si Si5 0.944885 0.556285 0.859654
Si Si6 0.654828 0.921237 0.897293
Si Si7 0.272987 0.530948 0.768320
Si Si8 0.842599 0.739288 0.074508
O O1 0.383307 0.725823 0.247610
O O2 0.237971 0.854156 0.530085
O O3 0.548356 0.853943 0.626913
O O4 0.621708 0.760681 0.810040
O O5 0.766460 0.924786 0.800669
O O6 0.847059 0.802059 0.367853
O O7 0.010204 0.911378 0.709934
O O8 0.072579 0.790185 0.854370
O O9 0.986623 0.270301 0.959622
O O10 0.790231 0.377912 0.222589
O O11 0.000000 0.000000 0.500000
O O12 0.833244 0.894791 0.179647
O O13 0.768339 0.534055 0.538874
O O14 0.127005 0.537967 0.836478
O O15 0.890835 0.649264 0.043629
O O16 0.000000 0.500000 0.000000
O O17 0.500000 0.000000 0.000000
O O18 0.500000 0.500000 0.000000
#
# Coordination Sequence:
#
# PCOD9029241 Si02
#       8
#     2   2   2   2   2   2   2   2
#     4  12  21  46  68  91 139 170 220 287 331 388
#     4  12  23  46  70  99 134 178 227 276 344 401
#     4  11  23  43  68  99 139 175 228 285 326 401
#     4  12  26  47  66  99 138 170 223 288 336 402
#     4  10  22  42  66  97 139 178 224 278 331 398
#     4  12  26  47  68 100 137 169 223 286 337 410
#     4  10  22  42  66  98 138 181 222 276 338 391
#     4  11  23  43  68  99 138 176 225 285 330 399
#
# _framework density 20.924420999999999
#
# number of rings (size 3 to 8) (size 9 to 14) (size 15 to 20)
#    0.000    0.750    6.250    1.500    0.000    2.500 
#    4.500    0.000    0.000    0.000    0.000    0.000 
#    0.000    0.000    0.000    0.000    0.000    0.000 
#
# Total GULP energy -89199.852255 kJ/mol
# GULP energy per Si atom -5574.990766 kJ/mol
# Density = 2.087680 g / cm^3
# Si number density = 20.924421 Si / 1000 Ang^3
#
#
#
# Elastic Constant Matrix: (Units=GPa)
#
#
# Indices 1 2 3 4 5 6 
#
# 1 65.9886 27.9042 32.0182 -11.8967 5.2061 16.6068
# 2 27.9042 107.6780 19.9941 1.4860 -4.5328 22.2785
# 3 32.0182 19.9941 107.3754 -6.5846 16.5169 5.9165
# 4 -11.8967 1.4860 -6.5846 37.3752 -3.7360 -0.5545
# 5 5.2061 -4.5328 16.5169 -3.7360 41.3981 -6.2410
# 6 16.6068 22.2785 5.9165 -0.5545 -6.2410 35.6176
#
#
#
# Elastic Compliance Matrix: (Units=1/GPa)
#
#
# Indices 1 2 3 4 5 6 
#
# 1 0.022105 -0.003410 -0.004893 0.006017 -0.001801 -0.007583
# 2 -0.003410 0.011543 -0.001131 -0.001702 0.001198 -0.005259
# 3 -0.004893 -0.001131 0.011598 0.000129 -0.004071 0.000351
# 4 0.006017 -0.001702 0.000129 0.028891 0.001453 -0.001058
# 5 -0.001801 0.001198 -0.004071 0.001453 0.027104 0.005539
# 6 -0.007583 -0.005259 0.000351 -0.001058 0.005539 0.035797
#
#
# Mechanical properties :
#
#
# Convention : Reuss Voigt Hill
#
# Bulk Modulus (GPa) = 37.91109 48.98612 43.44860
# Shear Modulus (GPa) = 30.35870 36.28655 33.32263
#
# Velocity S-wave (km/s) = 3.81317 4.16886 3.99497
# Velocity P-wave (km/s) = 6.12735 6.82893 6.48763
#
# Compressibility (1/GPa) = 0.02637751
#
# Stress axis : x y z
#
# Youngs Moduli (GPa) = 45.23790 86.63560 86.22506
#
# Poissons Ratio (x) = 0.29542 0.42187
# Poissons Ratio (y) = 0.15426 0.09755
# Poissons Ratio (z) = 0.22134 0.09802
#
# Static dielectric constant tensor:
#      x y z
#    x 1.793250 0.072580 0.028100 
#    y 0.072580 1.833010 0.057010 
#    z 0.028100 0.057010 1.797320 
# 
# From -- ./inp_files/53601.got.cif
#   From: 2010.05.17/outbox.cif.g08.bks.cpg/sg2_27_cif.got.tgz:53601.got - 2010.06.03 11:33:40.
