data_PCOD9029023
_publ_section_title
;
Structure prediction by ZEFSAII (Michael W. Deem and Ramdas Pophale) SiO2 
 PCOD9029023
Probable space group: P -1
;
_chemical_formula_sum "Si O2"
_cell_formula_units_Z 16
_cell_length_a 12.016650
_cell_length_b 18.982047
_cell_length_c 8.752039
_cell_angle_alpha 47.620510
_cell_angle_beta 81.882733
_cell_angle_gamma 42.562613
_cell_volume 701.410265
_symmetry_space_group_name_H-M "P -1"
_symmetry_group_IT_number 2
_symmetry_cell_setting 'triclinic'
loop_
_space_group_symop_operation_xyz
x,y,z
-x,-y,-z
loop_
_atom_site_type_symbol
_atom_site_label
_atom_site_fract_x
_atom_site_fract_y
_atom_site_fract_z
Si Si1 0.840107 0.826365 0.634961
Si Si2 0.349798 0.208398 0.718646
Si Si3 0.005697 0.110183 0.337298
Si Si4 0.925856 0.456720 0.244002
Si Si5 0.194639 0.646143 0.420662
Si Si6 0.336155 0.190585 0.087094
Si Si7 0.473920 0.464154 0.317440
Si Si8 0.734515 0.077789 0.754232
O O1 0.039847 0.617429 0.817658
O O2 0.782676 0.818264 0.819298
O O3 0.891134 0.900229 0.533523
O O4 0.614706 0.975723 0.354549
O O5 0.148478 0.346956 0.430072
O O6 0.524623 0.163389 0.711861
O O7 0.258445 0.283200 0.801038
O O8 0.500000 0.000000 0.000000
O O9 0.741069 0.345077 0.025615
O O10 0.000000 0.000000 0.500000
O O11 0.166489 0.012644 0.301895
O O12 0.879074 0.404167 0.443972
O O13 0.722791 0.685114 0.958004
O O14 0.345013 0.531935 0.402633
O O15 0.360189 0.570396 0.625732
O O16 0.962256 0.883220 0.097143
O O17 0.632989 0.259265 0.528435
#
# Coordination Sequence:
#
# PCOD9029023 Si02
#       8
#     2   2   2   2   2   2   2   2
#     4  11  26  45  65  96 139 177 224 273 331 398
#     4  12  22  43  70 104 134 172 219 272 343 392
#     4  11  28  46  66  95 134 180 230 275 327 399
#     4  12  25  41  72 100 136 175 221 272 338 403
#     4  10  22  42  66 101 129 166 225 285 330 391
#     4  11  25  43  69  98 139 178 216 275 331 402
#     4  10  24  43  68  95 128 175 230 278 332 387
#     4  11  23  43  71  94 133 173 219 283 333 395
#
# _framework density 22.811187
#
# number of rings (size 3 to 8) (size 9 to 14) (size 15 to 20)
#    0.000    1.000    2.500    2.625    8.750    1.500 
#    2.250    0.000    0.000    0.000    0.000    0.000 
#    0.000    0.000    0.000    0.000    0.000    0.000 
#
# Total GULP energy -89516.910067 kJ/mol
# GULP energy per Si atom -5594.806879 kJ/mol
# Density = 2.275927 g / cm^3
# Si number density = 22.811187 Si / 1000 Ang^3
#
#
#
# Elastic Constant Matrix: (Units=GPa)
#
#
# Indices 1 2 3 4 5 6 
#
# 1 81.8206 44.6641 11.5918 -2.6165 -4.7056 8.9424
# 2 44.6641 59.0181 17.9715 -8.8747 4.0066 9.1232
# 3 11.5918 17.9715 56.3303 -19.2398 -10.3293 0.6900
# 4 -2.6165 -8.8747 -19.2398 37.9983 5.9589 -11.8335
# 5 -4.7056 4.0066 -10.3293 5.9589 31.3497 -10.0525
# 6 8.9424 9.1232 0.6900 -11.8335 -10.0525 27.3573
#
#
#
# Elastic Compliance Matrix: (Units=1/GPa)
#
#
# Indices 1 2 3 4 5 6 
#
# 1 0.022224 -0.018131 0.001374 -0.003098 0.006646 -0.000151
# 2 -0.018131 0.036542 -0.010065 0.001074 -0.014384 -0.010826
# 3 0.001374 -0.010065 0.027367 0.013620 0.011926 0.012491
# 4 -0.003098 0.001074 0.013620 0.038427 0.002280 0.017771
# 5 0.006646 -0.014384 0.011926 0.002280 0.044539 0.019676
# 6 -0.000151 -0.010826 0.012491 0.017771 0.019676 0.054815
#
#
# Mechanical properties :
#
#
# Convention : Reuss Voigt Hill
#
# Bulk Modulus (GPa) = 30.78126 38.40263 34.59194
# Shear Modulus (GPa) = 17.33771 27.53716 22.43744
#
# Velocity S-wave (km/s) = 2.75990 3.47822 3.13967
# Velocity P-wave (km/s) = 4.86613 5.74475 5.32360
#
# Compressibility (1/GPa) = 0.03248730
#
# Stress axis : x y z
#
# Youngs Moduli (GPa) = 44.99603 27.36602 36.54049
#
# Poissons Ratio (x) = 0.49617 -0.05019
# Poissons Ratio (y) = 0.81582 0.36779
# Poissons Ratio (z) = -0.06180 0.27545
#
# Static dielectric constant tensor:
#      x y z
#    x 1.827600 -0.030560 -0.002550 
#    y -0.030560 1.918060 0.016030 
#    z -0.002550 0.016030 1.820760 
# 
# From -- ./inp_files/279030.got.cif
#   From: 2010.05.17/outbox.cif.g08.bks.cpg/sg2_140_cif.got.tgz:279030.got - 2010.06.03 11:33:40.
