data_PCOD9029933
_publ_section_title
;
Structure prediction by ZEFSAII (Michael W. Deem and Ramdas Pophale) SiO2 
 PCOD9029933
Probable space group: P -1
;
_chemical_formula_sum "Si O2"
_cell_formula_units_Z 13
_cell_length_a 9.696780
_cell_length_b 6.439750
_cell_length_c 15.248792
_cell_angle_alpha 95.020745
_cell_angle_beta 57.558833
_cell_angle_gamma 56.400591
_cell_volume 560.420084
_symmetry_space_group_name_H-M "P -1"
_symmetry_group_IT_number 2
_symmetry_cell_setting 'triclinic'
loop_
_space_group_symop_operation_xyz
x,y,z
-x,-y,-z
loop_
_atom_site_type_symbol
_atom_site_label
_atom_site_fract_x
_atom_site_fract_y
_atom_site_fract_z
Si Si1 0.818855 0.588137 0.994238
Si Si2 0.000000 0.500000 0.500000
Si Si3 0.443320 0.636729 0.162826
Si Si4 0.206861 0.978595 0.076288
Si Si5 0.300809 0.017104 0.533660
Si Si6 0.334394 0.589094 0.382124
Si Si7 0.167459 0.957405 0.762636
O O1 0.757189 0.815730 0.952089
O O2 0.594764 0.707029 0.125686
O O3 0.957240 0.282847 0.885688
O O4 0.000000 0.500000 0.000000
O O5 0.878833 0.694449 0.455923
O O6 0.867249 0.391300 0.528499
O O7 0.305174 0.702998 0.298238
O O8 0.293120 0.823142 0.135479
O O9 0.632064 0.287864 0.059517
O O10 0.930599 0.180846 0.181611
O O11 0.500000 0.000000 0.500000
O O12 0.374448 0.748977 0.439333
O O13 0.193404 0.004133 0.655641
O O14 0.581080 0.240964 0.287411
#
# Coordination Sequence:
#
# PCOD9029933 Si02
#       7
#     2   1   2   2   2   2   2
#     4  11  23  39  68 100 134 182 231 287 363 425
#     4  12  28  48  74 106 140 194 248 298 362 428
#     4  10  23  42  66 103 138 183 236 290 361 433
#     4  10  22  42  68  99 142 180 231 297 360 431
#     4  12  28  48  72 105 145 194 246 295 363 427
#     4  12  26  47  73 103 148 188 243 304 355 436
#     4  11  25  43  68 101 138 186 236 293 358 429
#
# _framework density 23.196887
#
# number of rings (size 3 to 8) (size 9 to 14) (size 15 to 20)
#    0.000    0.923    1.538    4.154    4.308    4.923 
#    0.000    0.000    0.000    0.000    0.000    0.000 
#    0.000    0.000    0.000    0.000    0.000    0.000 
#
# Total GULP energy -72381.051116 kJ/mol
# GULP energy per Si atom -5567.773163 kJ/mol
# Density = 2.314409 g / cm^3
# Si number density = 23.196887 Si / 1000 Ang^3
#
#
#
# Elastic Constant Matrix: (Units=GPa)
#
#
# Indices 1 2 3 4 5 6 
#
# 1 128.0811 25.1052 13.8169 -4.1464 -6.5024 9.2840
# 2 25.1052 108.8295 37.5833 -29.6639 -3.2632 3.6767
# 3 13.8169 37.5833 54.0389 -16.7290 0.9123 13.9854
# 4 -4.1464 -29.6639 -16.7290 27.5892 -6.2345 -3.3232
# 5 -6.5024 -3.2632 0.9123 -6.2345 24.9143 -7.1072
# 6 9.2840 3.6767 13.9854 -3.3232 -7.1072 44.4179
#
#
#
# Elastic Compliance Matrix: (Units=1/GPa)
#
#
# Indices 1 2 3 4 5 6 
#
# 1 0.008386 -0.001834 -0.000932 -0.001108 0.001371 -0.001171
# 2 -0.001834 0.016188 -0.007274 0.014620 0.006558 0.003477
# 3 -0.000932 -0.007274 0.028267 0.007637 -0.002587 -0.007946
# 4 -0.001108 0.014620 0.007637 0.060920 0.017735 0.004012
# 5 0.001371 0.006558 -0.002587 0.017735 0.048474 0.009068
# 6 -0.001171 0.003477 -0.007946 0.004012 0.009068 0.026723
#
#
# Mechanical properties :
#
#
# Convention : Reuss Voigt Hill
#
# Bulk Modulus (GPa) = 30.52410 49.32892 39.92651
# Shear Modulus (GPa) = 22.73152 33.68056 28.20604
#
# Velocity S-wave (km/s) = 3.13379 3.81457 3.49082
# Velocity P-wave (km/s) = 5.12655 6.38065 5.78767
#
# Compressibility (1/GPa) = 0.03276100
#
# Stress axis : x y z
#
# Youngs Moduli (GPa) = 119.24350 61.77437 35.37719
#
# Poissons Ratio (x) = 0.11330 0.03296
# Poissons Ratio (y) = 0.21870 0.25734
# Poissons Ratio (z) = 0.11109 0.44936
#
# Static dielectric constant tensor:
#      x y z
#    x 1.187250 -0.466860 -0.145560 
#    y -0.466860 1.547190 -0.037110 
#    z -0.145560 -0.037110 1.817420 
# 
# From -- ./inp_files/45754.got.cif
#   From: 2010.05.17/outbox.cif.g08.bks.cpg/sg2_23_cif.got.tgz:45754.got - 2010.06.03 11:33:40.
