data_PCOD9029601
_publ_section_title
;
Structure prediction by ZEFSAII (Michael W. Deem and Ramdas Pophale) SiO2 
 PCOD9029601
Probable space group: P -1
;
_chemical_formula_sum "Si O2"
_cell_formula_units_Z 12
_cell_length_a 14.381397
_cell_length_b 8.253230
_cell_length_c 8.375141
_cell_angle_alpha 126.245506
_cell_angle_beta 40.439222
_cell_angle_gamma 124.729286
_cell_volume 506.223451
_symmetry_space_group_name_H-M "P -1"
_symmetry_group_IT_number 2
_symmetry_cell_setting 'triclinic'
loop_
_space_group_symop_operation_xyz
x,y,z
-x,-y,-z
loop_
_atom_site_type_symbol
_atom_site_label
_atom_site_fract_x
_atom_site_fract_y
_atom_site_fract_z
Si Si1 0.328375 0.003310 0.682644
Si Si2 0.763407 0.674789 0.522681
Si Si3 0.979619 0.343757 0.585593
Si Si4 0.719391 0.101549 0.976476
Si Si5 0.514148 0.340090 0.518948
Si Si6 0.883806 0.977183 0.279361
O O1 0.362558 0.250189 0.757670
O O2 0.500000 0.000000 0.500000
O O3 0.235171 0.915548 0.906938
O O4 0.247410 0.933056 0.580721
O O5 0.638107 0.465728 0.548229
O O6 0.888177 0.621422 0.441415
O O7 0.824113 0.758590 0.316875
O O8 0.711725 0.876682 0.778390
O O9 0.966583 0.121635 0.393468
O O10 0.000000 0.500000 0.500000
O O11 0.827477 0.288722 0.852904
O O12 0.565895 0.167502 0.240530
O O13 0.500000 0.500000 0.500000
O O14 0.000000 0.000000 0.000000
#
# Coordination Sequence:
#
# PCOD9029601 Si02
#       6
#     2   2   2   2   2   2
#     4  10  22  42  67  99 134 178 221 273 343 402
#     4  11  24  45  67 100 137 175 227 278 341 408
#     4  11  26  42  67 104 131 176 233 280 341 399
#     4  10  24  45  67  96 141 175 220 280 340 393
#     4  11  24  43  70 102 133 176 231 272 336 412
#     4  11  22  42  71  93 137 178 222 283 340 400
#
# _framework density 23.704944999999999
#
# number of rings (size 3 to 8) (size 9 to 14) (size 15 to 20)
#    0.000    1.333    1.667    4.000    7.000    3.333 
#    3.000    0.000    0.000    0.000    0.000    0.000 
#    0.000    0.000    0.000    0.000    0.000    0.000 
#
# Total GULP energy -66802.965162 kJ/mol
# GULP energy per Si atom -5566.913763 kJ/mol
# Density = 2.365099 g / cm^3
# Si number density = 23.704945 Si / 1000 Ang^3
#
#
#
# Elastic Constant Matrix: (Units=GPa)
#
#
# Indices 1 2 3 4 5 6 
#
# 1 110.3908 -9.2363 12.5967 -19.9824 10.2739 -6.9906
# 2 -9.2363 81.7740 24.2932 -21.6431 14.3760 -14.0138
# 3 12.5967 24.2932 66.4741 -6.4241 3.0843 -15.8889
# 4 -19.9824 -21.6431 -6.4241 35.1549 -12.8038 16.2333
# 5 10.2739 14.3760 3.0843 -12.8038 31.1983 -4.6449
# 6 -6.9906 -14.0138 -15.8889 16.2333 -4.6449 53.8301
#
#
#
# Elastic Compliance Matrix: (Units=1/GPa)
#
#
# Indices 1 2 3 4 5 6 
#
# 1 0.011513 0.004743 -0.003221 0.008481 -0.002323 -0.000979
# 2 0.004743 0.018446 -0.006395 0.011244 -0.004857 -0.000279
# 3 -0.003221 -0.006395 0.018679 -0.004133 0.001176 0.004778
# 4 0.008481 0.011244 -0.004133 0.048320 0.010651 -0.010844
# 5 -0.002323 -0.004857 0.001176 0.010651 0.039154 -0.001052
# 6 -0.000979 -0.000279 0.004778 -0.010844 -0.001052 0.022967
#
#
# Mechanical properties :
#
#
# Convention : Reuss Voigt Hill
#
# Bulk Modulus (GPa) = 25.71320 34.88289 30.29805
# Shear Modulus (GPa) = 27.50448 39.43567 33.47008
#
# Velocity S-wave (km/s) = 3.40999 4.08316 3.76166
# Velocity P-wave (km/s) = 5.13564 6.08087 5.62813
#
# Compressibility (1/GPa) = 0.03889053
#
# Stress axis : x y z
#
# Youngs Moduli (GPa) = 86.86171 54.21228 53.53608
#
# Poissons Ratio (x) = -0.25711 0.17246
# Poissons Ratio (y) = -0.41195 0.34235
# Poissons Ratio (z) = 0.27982 0.34667
#
# Static dielectric constant tensor:
#      x y z
#    x 2.096480 -0.193730 -0.034250 
#    y -0.193730 2.345400 -0.098380 
#    z -0.034250 -0.098380 2.017090 
# 
# From -- ./inp_files/213207.got.cif
#   From: 2010.05.17/outbox.cif.g08.bks.cpg/sg2_107_cif.got.tgz:213207.got - 2010.06.03 11:33:40.
