data_PCOD9029659
_publ_section_title
;
Structure prediction by ZEFSAII (Michael W. Deem and Ramdas Pophale) SiO2 
 PCOD9029659
Probable space group: P -1
;
_chemical_formula_sum "Si O2"
_cell_formula_units_Z 13
_cell_length_a 11.569575
_cell_length_b 11.382298
_cell_length_c 4.950548
_cell_angle_alpha 111.847410
_cell_angle_beta 82.712819
_cell_angle_gamma 66.889367
_cell_volume 527.341446
_symmetry_space_group_name_H-M "P -1"
_symmetry_group_IT_number 2
_symmetry_cell_setting 'triclinic'
loop_
_space_group_symop_operation_xyz
x,y,z
-x,-y,-z
loop_
_atom_site_type_symbol
_atom_site_label
_atom_site_fract_x
_atom_site_fract_y
_atom_site_fract_z
Si Si1 0.616456 0.231664 0.761277
Si Si2 0.318765 0.652515 0.655301
Si Si3 0.861636 0.921577 0.361377
Si Si4 0.982949 0.201320 0.292935
Si Si5 0.000000 0.500000 0.500000
Si Si6 0.349471 0.348018 0.224189
Si Si7 0.797410 0.662554 0.249524
O O1 0.603762 0.290250 0.512351
O O2 0.738018 0.072264 0.601376
O O3 0.652642 0.331289 0.029511
O O4 0.481271 0.245459 0.933803
O O5 0.354166 0.492375 0.423963
O O6 0.164697 0.748453 0.715796
O O7 0.985676 0.867366 0.479989
O O8 0.818773 0.797564 0.296951
O O9 0.911230 0.915544 0.039560
O O10 0.006096 0.340404 0.396958
O O11 0.089422 0.468124 0.727946
O O12 0.322275 0.287628 0.455984
O O13 0.227092 0.387845 0.082237
#
# Coordination Sequence:
#
# PCOD9029659 Si02
#       7
#     2   2   2   2   1   2   2
#     4  12  27  46  67  92 148 179 231 263 327 404
#     4  12  25  44  70 100 129 187 223 284 324 391
#     4  11  26  43  65 105 133 185 209 281 336 410
#     4  11  24  41  70 100 136 167 229 271 348 388
#     4  10  22  42  68 102 134 164 206 296 326 400
#     4  12  25  45  70 103 129 182 225 285 324 396
#     4  11  24  42  72 103 135 166 228 276 352 386
#
# _framework density 24.651961
#
# number of rings (size 3 to 8) (size 9 to 14) (size 15 to 20)
#    0.000    0.615    1.538    6.462    2.154    6.769 
#    0.000    0.000    0.000    0.000    0.000    0.000 
#    0.000    0.000    0.000    0.000    0.000    0.000 
#
# Total GULP energy -72718.119170 kJ/mol
# GULP energy per Si atom -5593.701475 kJ/mol
# Density = 2.459585 g / cm^3
# Si number density = 24.651961 Si / 1000 Ang^3
#
#
#
# Elastic Constant Matrix: (Units=GPa)
#
#
# Indices 1 2 3 4 5 6 
#
# 1 37.3335 27.2244 12.4298 -2.7407 1.5714 2.0340
# 2 27.2244 82.9852 29.3118 6.1692 8.4211 -1.4995
# 3 12.4298 29.3118 113.2898 -5.2420 -3.2226 -1.1547
# 4 -2.7407 6.1692 -5.2420 44.8122 -2.9479 -6.7546
# 5 1.5714 8.4211 -3.2226 -2.9479 43.3142 -14.8805
# 6 2.0340 -1.4995 -1.1547 -6.7546 -14.8805 35.2027
#
#
#
# Elastic Compliance Matrix: (Units=1/GPa)
#
#
# Indices 1 2 3 4 5 6 
#
# 1 0.036049 -0.011937 -0.000701 0.003557 0.000631 -0.001665
# 2 -0.011937 0.017940 -0.003645 -0.004059 -0.003991 -0.001132
# 3 -0.000701 -0.003645 0.010015 0.001996 0.002129 0.001497
# 4 0.003557 -0.004059 0.001996 0.024595 0.004675 0.006383
# 5 0.000631 -0.003991 0.002129 0.004675 0.028754 0.012915
# 6 -0.001665 -0.001132 0.001497 0.006383 0.012915 0.035188
#
#
# Mechanical properties :
#
#
# Convention : Reuss Voigt Hill
#
# Bulk Modulus (GPa) = 31.80864 41.28228 36.54546
# Shear Modulus (GPa) = 25.56404 35.64198 30.60301
#
# Velocity S-wave (km/s) = 3.22374 3.80650 3.52718
# Velocity P-wave (km/s) = 5.17569 6.00847 5.60756
#
# Compressibility (1/GPa) = 0.03143800
#
# Stress axis : x y z
#
# Youngs Moduli (GPa) = 27.73984 55.74036 99.84927
#
# Poissons Ratio (x) = 0.66539 0.07001
# Poissons Ratio (y) = 0.33114 0.36394
# Poissons Ratio (z) = 0.01945 0.20317
#
# Static dielectric constant tensor:
#      x y z
#    x 2.000570 0.024410 -0.065000 
#    y 0.024410 1.826990 -0.052500 
#    z -0.065000 -0.052500 2.077820 
# 
# From -- ./inp_files/62689.got.cif
#   From: 2010.05.17/outbox.cif.g08.bks.cpg/sg2_32_cif.got.tgz:62689.got - 2010.06.03 11:33:40.
