data_PCOD9029670
_publ_section_title
;
Structure prediction by ZEFSAII (Michael W. Deem and Ramdas Pophale) SiO2 
 PCOD9029670
Probable space group: P -1
;
_chemical_formula_sum "Si O2"
_cell_formula_units_Z 16
_cell_length_a 9.610431
_cell_length_b 14.502089
_cell_length_c 8.742781
_cell_angle_alpha 109.582127
_cell_angle_beta 142.706563
_cell_angle_gamma 62.213348
_cell_volume 651.699130
_symmetry_space_group_name_H-M "P -1"
_symmetry_group_IT_number 2
_symmetry_cell_setting 'triclinic'
loop_
_space_group_symop_operation_xyz
x,y,z
-x,-y,-z
loop_
_atom_site_type_symbol
_atom_site_label
_atom_site_fract_x
_atom_site_fract_y
_atom_site_fract_z
Si Si1 0.631089 0.164840 0.966166
Si Si2 0.681862 0.389374 0.660394
Si Si3 0.287862 0.536055 0.960846
Si Si4 0.375403 0.799569 0.693125
Si Si5 0.113914 0.110807 0.208366
Si Si6 0.533513 0.024685 0.308974
Si Si7 0.139278 0.356299 0.865053
Si Si8 0.868379 0.685959 0.493251
O O1 0.750867 0.183695 0.240486
O O2 0.835208 0.117795 0.988572
O O3 0.421862 0.269545 0.778682
O O4 0.508071 0.078275 0.849084
O O5 0.500000 0.500000 0.500000
O O6 0.664777 0.286581 0.503444
O O7 0.946666 0.391770 0.850079
O O8 0.659435 0.389589 0.823856
O O9 0.272336 0.437277 0.984821
O O10 0.022188 0.588759 0.678070
O O11 0.500000 0.500000 0.000000
O O12 0.347119 0.908494 0.650262
O O13 0.658243 0.749547 0.963144
O O14 0.263391 0.096394 0.173788
O O15 0.105238 0.218460 0.337659
O O16 0.283438 0.019643 0.414786
O O17 0.016279 0.340355 0.589861
#
# Coordination Sequence:
#
# PCOD9029670 Si02
#       8
#     2   2   2   2   2   2   2   2
#     4  10  22  45  72  99 142 185 230 297 345 420
#     4  12  26  47  71  98 144 184 233 292 351 419
#     4  12  27  46  73 103 141 189 236 292 356 413
#     4  11  25  44  71 100 139 185 234 279 360 414
#     4  10  22  42  68 102 146 178 231 290 356 411
#     4  10  23  42  67 107 140 182 233 293 348 423
#     4  11  25  47  68 100 143 183 233 295 339 423
#     4  10  24  42  69 104 139 182 237 285 351 415
#
# _framework density 24.551209
#
# number of rings (size 3 to 8) (size 9 to 14) (size 15 to 20)
#    0.000    1.250    1.250    3.000    5.250    2.500 
#    4.500    0.000    0.000    0.000    0.000    0.000 
#    0.000    0.000    0.000    0.000    0.000    0.000 
#
# Total GULP energy -89423.430318 kJ/mol
# GULP energy per Si atom -5588.964395 kJ/mol
# Density = 2.449533 g / cm^3
# Si number density = 24.551209 Si / 1000 Ang^3
#
#
#
# Elastic Constant Matrix: (Units=GPa)
#
#
# Indices 1 2 3 4 5 6 
#
# 1 123.6129 33.9647 26.5703 1.0347 -0.1703 -19.4454
# 2 33.9647 94.2085 37.9236 15.7326 -5.6897 -4.0883
# 3 26.5703 37.9236 65.3681 11.2869 -21.5316 -2.2288
# 4 1.0347 15.7326 11.2869 57.1843 -12.5608 -9.0145
# 5 -0.1703 -5.6897 -21.5316 -12.5608 37.3072 3.8305
# 6 -19.4454 -4.0883 -2.2288 -9.0145 3.8305 38.6169
#
#
#
# Elastic Compliance Matrix: (Units=1/GPa)
#
#
# Indices 1 2 3 4 5 6 
#
# 1 0.010380 -0.002414 -0.003724 0.001504 -0.002514 0.005357
# 2 -0.002414 0.015222 -0.008497 -0.003354 -0.003670 -0.000513
# 3 -0.003724 -0.008497 0.026318 -0.000112 0.014114 -0.002682
# 4 0.001504 -0.003354 -0.000112 0.020408 0.005831 0.004581
# 5 -0.002514 -0.003670 0.014114 0.005831 0.036662 -0.003115
# 6 0.005357 -0.000513 -0.002682 0.004581 -0.003115 0.029762
#
#
# Mechanical properties :
#
#
# Convention : Reuss Voigt Hill
#
# Bulk Modulus (GPa) = 44.14887 53.34518 48.74703
# Shear Modulus (GPa) = 28.47842 38.93707 33.70774
#
# Velocity S-wave (km/s) = 3.40951 3.98672 3.70936
# Velocity P-wave (km/s) = 5.78974 6.55494 6.18419
#
# Compressibility (1/GPa) = 0.02265064
#
# Stress axis : x y z
#
# Youngs Moduli (GPa) = 96.33914 65.69591 37.99655
#
# Poissons Ratio (x) = 0.15857 0.14149
# Poissons Ratio (y) = 0.23253 0.32286
# Poissons Ratio (z) = 0.35875 0.55822
#
# Static dielectric constant tensor:
#      x y z
#    x 1.985530 -0.042050 0.003410 
#    y -0.042050 1.955580 0.062100 
#    z 0.003410 0.062100 1.984090 
# 
# From -- ./inp_files/208084.got.cif
#   From: 2010.05.17/outbox.cif.g08.bks.cpg/sg2_105_cif.got.tgz:208084.got - 2010.06.03 11:33:40.
