data_PCOD9029292
_publ_section_title
;
Structure prediction by ZEFSAII (Michael W. Deem and Ramdas Pophale) SiO2 
 PCOD9029292
Probable space group: P -1
;
_chemical_formula_sum "Si O2"
_cell_formula_units_Z 15
_cell_length_a 12.279724
_cell_length_b 9.641746
_cell_length_c 10.669545
_cell_angle_alpha 114.489978
_cell_angle_beta 50.888020
_cell_angle_gamma 137.553471
_cell_volume 658.382100
_symmetry_space_group_name_H-M "P -1"
_symmetry_group_IT_number 2
_symmetry_cell_setting 'triclinic'
loop_
_space_group_symop_operation_xyz
x,y,z
-x,-y,-z
loop_
_atom_site_type_symbol
_atom_site_label
_atom_site_fract_x
_atom_site_fract_y
_atom_site_fract_z
Si Si1 0.516763 0.264583 0.089984
Si Si2 0.803388 0.704784 0.927667
Si Si3 0.182791 0.793902 0.737416
Si Si4 0.128745 0.412874 0.650501
Si Si5 0.386073 0.228685 0.714095
Si Si6 0.745162 0.676548 0.676412
Si Si7 0.758048 0.182534 0.001064
Si Si8 0.500000 0.500000 0.500000
O O1 0.377065 0.272779 0.275149
O O2 0.390496 0.053350 0.026113
O O3 0.628483 0.461490 0.992167
O O4 0.665915 0.277550 0.066768
O O5 0.802396 0.759740 0.805825
O O6 0.989550 0.741644 0.827826
O O7 0.767663 0.814222 0.092636
O O8 0.166014 0.607189 0.638640
O O9 0.347884 0.022922 0.650377
O O10 0.209881 0.804476 0.870879
O O11 0.091132 0.263972 0.510172
O O12 0.318318 0.485406 0.603012
O O13 0.953356 0.300697 0.829250
O O14 0.589366 0.426232 0.699041
O O15 0.374257 0.309148 0.622721
#
# Coordination Sequence:
#
# PCOD9029292 Si02
#       8
#     2   2   2   2   2   2   2   1
#     4  10  22  42  67  98 132 183 226 279 336 400
#     4  11  21  41  69  98 134 181 230 279 332 405
#     4  12  24  39  70 102 136 175 231 283 333 408
#     4  11  25  42  67 102 139 183 222 283 344 394
#     4  10  22  42  67 100 128 180 224 276 344 398
#     4  10  23  41  66  91 137 180 229 272 342 407
#     4  11  23  42  69 101 135 176 235 279 335 403
#     4  10  24  42  66  94 142 170 218 284 340 402
#
# _framework density 22.783123
#
# number of rings (size 3 to 8) (size 9 to 14) (size 15 to 20)
#    0.000    1.333    1.333    4.800    5.600    4.267 
#    0.000    2.667    0.000    0.000    0.000    0.000 
#    0.000    0.000    0.000    0.000    0.000    0.000 
#
# Total GULP energy -83661.538887 kJ/mol
# GULP energy per Si atom -5577.435926 kJ/mol
# Density = 2.273127 g / cm^3
# Si number density = 22.783123 Si / 1000 Ang^3
#
#
#
# Elastic Constant Matrix: (Units=GPa)
#
#
# Indices 1 2 3 4 5 6 
#
# 1 110.5922 7.6377 39.5294 1.4715 -23.7936 -20.6244
# 2 7.6377 52.3428 18.6768 10.2087 0.1847 -12.2263
# 3 39.5294 18.6768 95.0400 17.1111 -13.7132 -18.1233
# 4 1.4715 10.2087 17.1111 14.9166 -11.0882 -6.6361
# 5 -23.7936 0.1847 -13.7132 -11.0882 32.3268 -6.9394
# 6 -20.6244 -12.2263 -18.1233 -6.6361 -6.9394 30.6378
#
#
#
# Elastic Compliance Matrix: (Units=1/GPa)
#
#
# Indices 1 2 3 4 5 6 
#
# 1 0.027009 -0.004421 -0.007863 0.056549 0.043222 0.033804
# 2 -0.004421 0.024671 -0.000546 -0.026664 -0.013251 -0.002231
# 3 -0.007863 -0.000546 0.016751 -0.025266 -0.007963 -0.002879
# 4 0.056549 -0.026664 -0.025266 0.258354 0.141231 0.100428
# 5 0.043222 -0.013251 -0.007963 0.141231 0.124612 0.077912
# 6 0.033804 -0.002231 -0.002879 0.100428 0.077912 0.092202
#
#
# Mechanical properties :
#
#
# Convention : Reuss Voigt Hill
#
# Bulk Modulus (GPa) = 23.38104 43.29587 33.33846
# Shear Modulus (GPa) = 8.56876 28.38498 18.47687
#
# Velocity S-wave (km/s) = 1.94144 3.53353 2.85088
# Velocity P-wave (km/s) = 3.91284 5.97432 5.04989
#
# Compressibility (1/GPa) = 0.04276970
#
# Stress axis : x y z
#
# Youngs Moduli (GPa) = 37.02482 40.53345 59.69896
#
# Poissons Ratio (x) = 0.17919 0.46944
# Poissons Ratio (y) = 0.16368 0.03261
# Poissons Ratio (z) = 0.29114 0.02214
#
# Static dielectric constant tensor:
#      x y z
#    x 2.445970 0.445130 0.328420 
#    y 0.445130 2.199500 0.271540 
#    z 0.328420 0.271540 2.099300 
# 
# From -- ./inp_files/419583.got.cif
#   From: 2010.05.17/outbox.cif.g08.bks.cpg/sg2_210_cif.got.tgz:419583.got - 2010.06.03 11:33:40.
