data_PCOD9029495
_publ_section_title
;
Structure prediction by ZEFSAII (Michael W. Deem and Ramdas Pophale) SiO2 
 PCOD9029495
Probable space group: P -1
;
_chemical_formula_sum "Si O2"
_cell_formula_units_Z 12
_cell_length_a 9.841310
_cell_length_b 10.283808
_cell_length_c 9.232161
_cell_angle_alpha 99.248829
_cell_angle_beta 57.589278
_cell_angle_gamma 53.898732
_cell_volume 456.016865
_symmetry_space_group_name_H-M "P -1"
_symmetry_group_IT_number 2
_symmetry_cell_setting 'triclinic'
loop_
_space_group_symop_operation_xyz
x,y,z
-x,-y,-z
loop_
_atom_site_type_symbol
_atom_site_label
_atom_site_fract_x
_atom_site_fract_y
_atom_site_fract_z
Si Si1 0.364583 0.299544 0.066485
Si Si2 0.079194 0.789341 0.051975
Si Si3 0.605799 0.052733 0.596711
Si Si4 0.649111 0.484163 0.649762
Si Si5 0.266187 0.327695 0.562809
Si Si6 0.135769 0.066535 0.106470
O O1 0.541987 0.177971 0.797953
O O2 0.567494 0.095689 0.028812
O O3 0.315310 0.471118 0.206860
O O4 0.061167 0.444097 0.236918
O O5 0.104979 0.930281 0.075743
O O6 0.402272 0.544201 0.813187
O O7 0.883391 0.884703 0.313607
O O8 0.950364 0.822615 0.981681
O O9 0.360640 0.252810 0.661353
O O10 0.627606 0.883946 0.593473
O O11 0.598034 0.636664 0.587815
O O12 0.919845 0.242491 0.386476
#
# Coordination Sequence:
#
# PCOD9029495 Si02
#       6
#     2   2   2   2   2   2
#     4  11  24  41  65  98 132 168 211 264 325 379
#     4  10  23  44  69  94 126 173 216 261 320 377
#     4  11  25  45  65  94 135 169 211 266 322 384
#     4  11  24  42  70  98 125 169 219 265 315 378
#     4  11  25  43  65  95 129 173 216 260 320 380
#     4  10  22  42  67  96 129 165 217 268 311 378
#
# _framework density 26.314816
#
# number of rings (size 3 to 8) (size 9 to 14) (size 15 to 20)
#    0.000    1.333    0.000    5.500    0.000   12.000 
#    0.000    5.000    0.000    0.000    0.000    0.000 
#    0.000    0.000    0.000    0.000    0.000    0.000 
#
# Total GULP energy -67146.829393 kJ/mol
# GULP energy per Si atom -5595.569116 kJ/mol
# Density = 2.625492 g / cm^3
# Si number density = 26.314816 Si / 1000 Ang^3
#
#
#
# Elastic Constant Matrix: (Units=GPa)
#
#
# Indices 1 2 3 4 5 6 
#
# 1 98.2687 66.1546 67.8571 -2.4061 -4.1460 -24.0961
# 2 66.1546 115.9678 75.1407 -8.4573 -7.1503 -33.9446
# 3 67.8571 75.1407 218.4223 -14.1822 -4.0657 -40.2464
# 4 -2.4061 -8.4573 -14.1822 37.7570 -8.2780 3.0950
# 5 -4.1460 -7.1503 -4.0657 -8.2780 64.1768 3.2887
# 6 -24.0961 -33.9446 -40.2464 3.0950 3.2887 42.4974
#
#
#
# Elastic Compliance Matrix: (Units=1/GPa)
#
#
# Indices 1 2 3 4 5 6 
#
# 1 0.017751 -0.008258 -0.002581 -0.001836 -0.000234 0.001177
# 2 -0.008258 0.016680 -0.001768 0.002250 0.001159 0.006713
# 3 -0.002581 -0.001768 0.006720 0.001713 0.000111 0.003355
# 4 -0.001836 0.002250 0.001713 0.028370 0.003899 0.000010
# 5 -0.000234 0.001159 0.000111 0.003899 0.016239 -0.000642
# 6 0.001177 0.006713 0.003355 0.000010 -0.000642 0.032786
#
#
# Mechanical properties :
#
#
# Convention : Reuss Voigt Hill
#
# Bulk Modulus (GPa) = 62.74537 94.55149 78.64843
# Shear Modulus (GPa) = 33.54099 43.78667 38.66383
#
# Velocity S-wave (km/s) = 3.57403 4.08359 3.83728
# Velocity P-wave (km/s) = 6.39746 7.63172 7.04168
#
# Compressibility (1/GPa) = 0.01593743
#
# Stress axis : x y z
#
# Youngs Moduli (GPa) = 56.33423 59.95214 148.81564
#
# Poissons Ratio (x) = 0.49509 0.38403
# Poissons Ratio (y) = 0.46521 0.26312
# Poissons Ratio (z) = 0.14537 0.10600
#
# Static dielectric constant tensor:
#      x y z
#    x 2.050240 0.015850 -0.007480 
#    y 0.015850 2.126240 0.082110 
#    z -0.007480 0.082110 2.077440 
# 
# From -- ./inp_files/268034.got.cif
#   From: 2010.05.17/outbox.cif.g08.bks.cpg/sg2_135_cif.got.tgz:268034.got - 2010.06.03 11:33:40.
