data_PCOD9029612
_publ_section_title
;
Structure prediction by ZEFSAII (Michael W. Deem and Ramdas Pophale) SiO2 
 PCOD9029612
Probable space group: P -1
;
_chemical_formula_sum "Si O2"
_cell_formula_units_Z 13
_cell_length_a 4.810276
_cell_length_b 19.988826
_cell_length_c 5.500771
_cell_angle_alpha 96.897712
_cell_angle_beta 92.151630
_cell_angle_gamma 109.345620
_cell_volume 493.742241
_symmetry_space_group_name_H-M "P -1"
_symmetry_group_IT_number 2
_symmetry_cell_setting 'triclinic'
loop_
_space_group_symop_operation_xyz
x,y,z
-x,-y,-z
loop_
_atom_site_type_symbol
_atom_site_label
_atom_site_fract_x
_atom_site_fract_y
_atom_site_fract_z
Si Si1 0.138806 0.955313 0.541815
Si Si2 0.000000 0.000000 0.000000
Si Si3 0.206000 0.415508 0.547594
Si Si4 0.462584 0.176100 0.622247
Si Si5 0.595227 0.340607 0.718510
Si Si6 0.786557 0.446231 0.160348
Si Si7 0.626131 0.122417 0.100370
O O1 0.034219 0.992978 0.305034
O O2 0.182246 0.927581 0.830278
O O3 0.877119 0.877648 0.430897
O O4 0.500000 0.000000 0.500000
O O5 0.314842 0.063799 0.027703
O O6 0.444947 0.376139 0.526458
O O7 0.334949 0.496598 0.689287
O O8 0.945853 0.365485 0.693435
O O9 0.008956 0.420162 0.315088
O O10 0.463689 0.256231 0.682412
O O11 0.611236 0.166785 0.363613
O O12 0.649100 0.161817 0.856170
O O13 0.560867 0.380958 0.980466
O O14 0.000000 0.500000 0.000000
#
# Coordination Sequence:
#
# PCOD9029612 Si02
#       7
#     2   1   2   2   2   2   2
#     4  11  24  43  70 100 135 178 233 290 355 416
#     4  10  22  42  68 100 124 180 222 296 346 414
#     4  10  23  43  69 101 138 178 238 287 352 419
#     4  11  28  44  66 102 137 190 231 284 363 420
#     4  11  25  43  67 100 139 188 229 291 351 426
#     4   9  21  42  70 103 134 182 229 294 348 417
#     4  11  26  46  69 100 139 177 237 293 352 432
#
# _framework density 26.329526999999999
#
# number of rings (size 3 to 8) (size 9 to 14) (size 15 to 20)
#    0.000    1.538    1.538    0.923    6.462    9.231 
#    0.000    0.000    0.000    0.000    0.000    0.000 
#    0.000    0.000    0.000    0.000    0.000    0.000 
#
# Total GULP energy -72501.909779 kJ/mol
# GULP energy per Si atom -5577.069983 kJ/mol
# Density = 2.626960 g / cm^3
# Si number density = 26.329527 Si / 1000 Ang^3
#
#
#
# Elastic Constant Matrix: (Units=GPa)
#
#
# Indices 1 2 3 4 5 6 
#
# 1 168.7383 43.2643 62.3549 5.0492 29.3734 -8.4622
# 2 43.2643 183.4805 71.4761 31.7056 4.9191 -10.0914
# 3 62.3549 71.4761 241.8922 -6.3038 6.4944 -19.6028
# 4 5.0492 31.7056 -6.3038 28.6169 -1.9191 5.8096
# 5 29.3734 4.9191 6.4944 -1.9191 56.5220 1.1947
# 6 -8.4622 -10.0914 -19.6028 5.8096 1.1947 23.7539
#
#
#
# Elastic Compliance Matrix: (Units=1/GPa)
#
#
# Indices 1 2 3 4 5 6 
#
# 1 0.007441 -0.000735 -0.001506 -0.001409 -0.003712 0.001627
# 2 -0.000735 0.008631 -0.002288 -0.010826 -0.000562 0.004193
# 3 -0.001506 -0.002288 0.005450 0.003607 0.000434 0.002085
# 4 -0.001409 -0.010826 0.003607 0.051212 0.003312 -0.014816
# 5 -0.003712 -0.000562 0.000434 0.003312 0.019797 -0.003009
# 6 0.001627 0.004193 0.002085 -0.014816 -0.003009 0.049954
#
#
# Mechanical properties :
#
#
# Convention : Reuss Voigt Hill
#
# Bulk Modulus (GPa) = 80.23664 105.36684 92.80174
# Shear Modulus (GPa) = 32.11311 49.57961 40.84636
#
# Velocity S-wave (km/s) = 3.49615 4.34411 3.94299
# Velocity P-wave (km/s) = 6.84380 8.07881 7.48681
#
# Compressibility (1/GPa) = 0.01246313
#
# Stress axis : x y z
#
# Youngs Moduli (GPa) = 134.38201 115.85632 183.49504
#
# Poissons Ratio (x) = 0.08520 0.27637
# Poissons Ratio (y) = 0.09883 0.41986
# Poissons Ratio (z) = 0.20240 0.26510
#
# Static dielectric constant tensor:
#      x y z
#    x 1.692180 0.205300 0.076080 
#    y 0.205300 1.817580 -0.199300 
#    z 0.076080 -0.199300 2.098870 
# 
# From -- ./inp_files/8860.got.cif
#   From: 2010.05.17/outbox.cif.g08.bks.cpg/sg2_5_cif.got.tgz:8860.got - 2010.06.03 11:33:40.
