data_PCOD9029051
_publ_section_title
;
Structure prediction by ZEFSAII (Michael W. Deem and Ramdas Pophale) SiO2 
 PCOD9029051
Probable space group: P -1
;
_chemical_formula_sum "Si O2"
_cell_formula_units_Z 15
_cell_length_a 5.082919
_cell_length_b 7.651390
_cell_length_c 21.745865
_cell_angle_alpha 125.889695
_cell_angle_beta 53.373829
_cell_angle_gamma 114.305209
_cell_volume 547.380029
_symmetry_space_group_name_H-M "P -1"
_symmetry_group_IT_number 2
_symmetry_cell_setting 'triclinic'
loop_
_space_group_symop_operation_xyz
x,y,z
-x,-y,-z
loop_
_atom_site_type_symbol
_atom_site_label
_atom_site_fract_x
_atom_site_fract_y
_atom_site_fract_z
Si Si1 0.816906 0.269472 0.339099
Si Si2 0.267247 0.975245 0.340176
Si Si3 0.414429 0.619140 0.336435
Si Si4 0.314517 0.899964 0.186226
Si Si5 0.248727 0.716058 0.509635
Si Si6 0.500000 0.500000 0.000000
Si Si7 0.864226 0.266427 0.154400
Si Si8 0.420037 0.750468 0.938261
O O1 0.053471 0.488471 0.349749
O O2 0.649256 0.264931 0.429676
O O3 0.493852 0.191805 0.329358
O O4 0.047025 0.075994 0.253088
O O5 0.423550 0.835404 0.340500
O O6 0.252507 0.832659 0.251633
O O7 0.945814 0.073165 0.429801
O O8 0.665673 0.460712 0.243548
O O9 0.468421 0.680378 0.412800
O O10 0.664386 0.037045 0.151153
O O11 0.314196 0.692885 0.100954
O O12 0.000000 0.500000 0.500000
O O13 0.371947 0.591033 0.969425
O O14 0.860041 0.270867 0.080107
O O15 0.214537 0.290790 0.144046
O O16 0.500000 0.000000 0.000000
#
# Coordination Sequence:
#
# PCOD9029051 Si02
#       8
#     2   2   2   2   2   1   2   2
#     4   9  22  42  64  95 137 183 235 296 370 425
#     4  11  22  41  69  97 139 188 242 301 367 440
#     4  10  22  42  66 103 139 186 242 303 364 442
#     4  10  24  44  65 101 137 183 239 306 356 450
#     4   9  20  42  61  98 141 180 245 294 363 439
#     4  12  26  46  78 104 142 190 246 306 376 450
#     4  11  26  50  73 106 152 192 242 310 376 440
#     4  12  27  50  74 108 145 193 243 306 372 450
#
# _framework density 27.403268000000001
#
# number of rings (size 3 to 8) (size 9 to 14) (size 15 to 20)
#    0.000    1.600    1.333    2.400    5.600    3.200 
#    2.400    0.000    0.000    0.000    0.000    0.000 
#    0.000    0.000    0.000    0.000    0.000    0.000 
#
# Total GULP energy -83768.345070 kJ/mol
# GULP energy per Si atom -5584.556338 kJ/mol
# Density = 2.734090 g / cm^3
# Si number density = 27.403268 Si / 1000 Ang^3
#
#
#
# Elastic Constant Matrix: (Units=GPa)
#
#
# Indices 1 2 3 4 5 6 
#
# 1 69.4603 17.6239 15.4456 11.4026 1.9781 3.6983
# 2 17.6239 120.7661 22.8652 15.9223 8.2947 4.0899
# 3 15.4456 22.8652 187.1111 16.1194 15.2296 -16.2439
# 4 11.4026 15.9223 16.1194 34.2173 -14.2292 17.0291
# 5 1.9781 8.2947 15.2296 -14.2292 39.4976 1.9576
# 6 3.6983 4.0899 -16.2439 17.0291 1.9576 44.6006
#
#
#
# Elastic Compliance Matrix: (Units=1/GPa)
#
#
# Indices 1 2 3 4 5 6 
#
# 1 0.015831 -0.001279 -0.000276 -0.006308 -0.002752 0.001234
# 2 -0.001279 0.009637 0.000119 -0.007167 -0.004697 0.002208
# 3 -0.000276 0.000119 0.007243 -0.009294 -0.006473 0.006482
# 4 -0.006308 -0.007167 -0.009294 0.066116 0.030650 -0.028794
# 5 -0.002752 -0.004697 -0.006473 0.030650 0.040733 -0.015189
# 6 0.001234 0.002208 0.006482 -0.028794 -0.015189 0.036138
#
#
# Mechanical properties :
#
#
# Convention : Reuss Voigt Hill
#
# Bulk Modulus (GPa) = 33.51242 54.35631 43.93436
# Shear Modulus (GPa) = 26.52287 45.08996 35.80641
#
# Velocity S-wave (km/s) = 3.11444 4.06078 3.61868
# Velocity P-wave (km/s) = 5.01885 6.47034 5.79026
#
# Compressibility (1/GPa) = 0.02983969
#
# Stress axis : x y z
#
# Youngs Moduli (GPa) = 63.16760 103.76386 138.06568
#
# Poissons Ratio (x) = 0.13272 0.03810
# Poissons Ratio (y) = 0.08080 -0.01648
# Poissons Ratio (z) = 0.01743 -0.01238
#
# Static dielectric constant tensor:
#      x y z
#    x 2.168830 0.046010 -0.006520 
#    y 0.046010 2.147090 -0.078670 
#    z -0.006520 -0.078670 2.155730 
# 
# From -- ./inp_files/582563.got.cif
#   From: 2010.05.17/outbox.cif.g08.bks.cpg/sg2_292_cif.got.tgz:582563.got - 2010.06.03 11:33:40.
