data_PCOD9029892
_publ_section_title
;
Structure prediction by ZEFSAII (Michael W. Deem and Ramdas Pophale) SiO2 
 PCOD9029892
Probable space group: P -1
;
_chemical_formula_sum "Si O2"
_cell_formula_units_Z 12
_cell_length_a 10.494258
_cell_length_b 11.164089
_cell_length_c 7.785361
_cell_angle_alpha 140.433850
_cell_angle_beta 120.508118
_cell_angle_gamma 52.000775
_cell_volume 456.840339
_symmetry_space_group_name_H-M "P -1"
_symmetry_group_IT_number 2
_symmetry_cell_setting 'triclinic'
loop_
_space_group_symop_operation_xyz
x,y,z
-x,-y,-z
loop_
_atom_site_type_symbol
_atom_site_label
_atom_site_fract_x
_atom_site_fract_y
_atom_site_fract_z
Si Si1 0.321943 0.396485 0.079003
Si Si2 0.705049 0.986541 0.504793
Si Si3 0.936768 0.231119 0.554346
Si Si4 0.463871 0.417116 0.706982
Si Si5 0.841047 0.994159 0.968649
Si Si6 0.827439 0.595696 0.663937
O O1 0.160858 0.612846 0.189582
O O2 0.469136 0.463945 0.248189
O O3 0.295288 0.320851 0.165520
O O4 0.330045 0.217067 0.759517
O O5 0.719365 0.039078 0.773377
O O6 0.881537 0.934191 0.478294
O O7 0.569412 0.173151 0.517854
O O8 0.961095 0.389627 0.607873
O O9 0.819965 0.142913 0.282192
O O10 0.277045 0.466348 0.611933
O O11 0.500000 0.500000 0.000000
O O12 0.873555 0.771052 0.818043
O O13 0.000000 0.000000 0.000000
#
# Coordination Sequence:
#
# PCOD9029892 Si02
#       6
#     2   2   2   2   2   2
#     4  10  25  43  70  99 136 176 226 276 337 396
#     4  11  24  42  69 101 133 176 224 281 332 397
#     4   9  23  43  69  99 134 173 227 275 336 393
#     4  12  26  44  68  99 138 180 225 276 334 403
#     4  10  22  42  68  98 133 178 221 271 334 399
#     4  10  24  43  67  96 137 175 223 273 334 399
#
# _framework density 26.267382999999999
#
# number of rings (size 3 to 8) (size 9 to 14) (size 15 to 20)
#    1.000    0.667    0.000    3.000    2.333   10.667 
#    0.000    0.000    0.000    0.000    0.000    0.000 
#    0.000    0.000    0.000    0.000    0.000    0.000 
#
# Total GULP energy -67152.653920 kJ/mol
# GULP energy per Si atom -5596.054493 kJ/mol
# Density = 2.620760 g / cm^3
# Si number density = 26.267383 Si / 1000 Ang^3
#
#
#
# Elastic Constant Matrix: (Units=GPa)
#
#
# Indices 1 2 3 4 5 6 
#
# 1 81.5161 20.1175 23.0915 14.0883 10.9890 13.3781
# 2 20.1175 81.1758 22.9064 9.3864 8.6337 0.9481
# 3 23.0915 22.9064 154.9814 7.8478 12.8487 5.5319
# 4 14.0883 9.3864 7.8478 40.6093 6.4539 1.1035
# 5 10.9890 8.6337 12.8487 6.4539 33.5967 10.6257
# 6 13.3781 0.9481 5.5319 1.1035 10.6257 47.8644
#
#
#
# Elastic Compliance Matrix: (Units=1/GPa)
#
#
# Indices 1 2 3 4 5 6 
#
# 1 0.014769 -0.002598 -0.001347 -0.003881 -0.001818 -0.003428
# 2 -0.002598 0.013779 -0.001424 -0.001693 -0.002183 0.001141
# 3 -0.001347 -0.001424 0.007029 -0.000271 -0.001831 0.000005
# 4 -0.003881 -0.001693 -0.000271 0.026983 -0.003810 0.001373
# 5 -0.001818 -0.002183 -0.001831 -0.003810 0.034506 -0.006809
# 6 -0.003428 0.001141 0.000005 0.001373 -0.006809 0.023307
#
#
# Mechanical properties :
#
#
# Convention : Reuss Voigt Hill
#
# Bulk Modulus (GPa) = 40.25793 49.98935 45.12364
# Shear Modulus (GPa) = 35.87080 41.18460 38.52770
#
# Velocity S-wave (km/s) = 3.69941 3.96397 3.83397
# Velocity P-wave (km/s) = 5.79716 6.32637 6.06754
#
# Compressibility (1/GPa) = 0.02483982
#
# Stress axis : x y z
#
# Youngs Moduli (GPa) = 67.71161 72.57427 142.27105
#
# Poissons Ratio (x) = 0.18853 0.19162
# Poissons Ratio (y) = 0.17590 0.20253
# Poissons Ratio (z) = 0.09120 0.10331
#
# Static dielectric constant tensor:
#      x y z
#    x 2.103170 0.027470 -0.058430 
#    y 0.027470 2.054590 -0.025250 
#    z -0.058430 -0.025250 2.095910 
# 
# From -- ./inp_files/261165.got.cif
#   From: 2010.05.17/outbox.cif.g08.bks.cpg/sg2_131_cif.got.tgz:261165.got - 2010.06.03 11:33:40.
