data_PCOD9029531
_publ_section_title
;
Structure prediction by ZEFSAII (Michael W. Deem and Ramdas Pophale) SiO2 
 PCOD9029531
Probable space group: P -1
;
_chemical_formula_sum "Si O2"
_cell_formula_units_Z 15
_cell_length_a 12.135018
_cell_length_b 9.217330
_cell_length_c 9.529230
_cell_angle_alpha 67.772218
_cell_angle_beta 66.150896
_cell_angle_gamma 115.025522
_cell_volume 661.406639
_symmetry_space_group_name_H-M "P -1"
_symmetry_group_IT_number 2
_symmetry_cell_setting 'triclinic'
loop_
_space_group_symop_operation_xyz
x,y,z
-x,-y,-z
loop_
_atom_site_type_symbol
_atom_site_label
_atom_site_fract_x
_atom_site_fract_y
_atom_site_fract_z
Si Si1 0.193425 0.002700 0.280652
Si Si2 0.611076 0.948543 0.328685
Si Si3 0.170099 0.079946 0.936495
Si Si4 0.095061 0.456541 0.367456
Si Si5 0.500000 0.500000 0.000000
Si Si6 0.837764 0.420279 0.037146
Si Si7 0.389910 0.520355 0.761068
Si Si8 0.624597 0.167028 0.757274
O O1 0.278785 0.907979 0.298098
O O2 0.008534 0.794811 0.502198
O O3 0.317290 0.238054 0.196493
O O4 0.170854 0.023026 0.118980
O O5 0.770876 0.010792 0.154561
O O6 0.525779 0.759370 0.549803
O O7 0.475274 0.860409 0.312565
O O8 0.686340 0.178267 0.254523
O O9 0.313211 0.336495 0.754455
O O10 0.000000 0.000000 0.000000
O O11 0.265113 0.600670 0.312654
O O12 0.000000 0.500000 0.500000
O O13 0.134650 0.554941 0.154759
O O14 0.528214 0.503840 0.148803
O O15 0.770631 0.531472 0.074355
O O16 0.000000 0.500000 0.000000
O O17 0.500000 0.000000 0.000000
#
# Coordination Sequence:
#
# PCOD9029531 Si02
#       8
#     2   2   2   2   1   2   2   2
#     4  10  22  42  67  97 130 181 220 283 337 408
#     4  12  24  43  72 101 130 186 232 285 348 408
#     4  11  24  46  65  97 140 179 230 280 335 418
#     4  10  23  40  68 103 133 182 222 280 350 405
#     4  10  24  46  64  84 142 176 238 266 340 424
#     4  12  26  43  68 105 145 169 225 296 351 405
#     4  11  27  43  67  98 135 186 222 287 347 405
#     4  11  20  39  72  99 132 163 240 288 333 397
#
# _framework density 22.678940000000001
#
# number of rings (size 3 to 8) (size 9 to 14) (size 15 to 20)
#    0.000    1.067    2.667    3.200    7.467    0.000 
#    2.400    1.333    0.000    0.000    0.000    0.000 
#    0.000    0.000    0.000    0.000    0.000    0.000 
#
# Total GULP energy -83501.534744 kJ/mol
# GULP energy per Si atom -5566.768983 kJ/mol
# Density = 2.262732 g / cm^3
# Si number density = 22.678940 Si / 1000 Ang^3
#
#
#
# Elastic Constant Matrix: (Units=GPa)
#
#
# Indices 1 2 3 4 5 6 
#
# 1 74.6987 7.4975 -10.2347 3.4557 -8.0939 20.5717
# 2 7.4975 75.6378 5.0753 -38.4790 -8.0092 19.1177
# 3 -10.2347 5.0753 82.8550 -36.2871 11.5094 9.4758
# 4 3.4557 -38.4790 -36.2871 51.9617 4.2561 -10.3700
# 5 -8.0939 -8.0092 11.5094 4.2561 23.2700 -3.4071
# 6 20.5717 19.1177 9.4758 -10.3700 -3.4071 38.8940
#
#
#
# Elastic Compliance Matrix: (Units=1/GPa)
#
#
# Indices 1 2 3 4 5 6 
#
# 1 0.016767 -0.000138 0.001576 -0.002334 0.004048 -0.009452
# 2 -0.000138 0.028880 0.011955 0.028001 -0.002576 -0.009796
# 3 0.001576 0.011955 0.025959 0.026599 -0.014092 -0.007177
# 4 -0.002334 0.028001 0.026599 0.059079 -0.015816 -0.004642
# 5 0.004048 -0.002576 -0.014092 -0.015816 0.053805 0.003055
# 6 -0.009452 -0.009796 -0.007177 -0.004642 0.003055 0.036304
#
#
# Mechanical properties :
#
#
# Convention : Reuss Voigt Hill
#
# Bulk Modulus (GPa) = 10.16334 26.42974 18.29654
# Shear Modulus (GPa) = 22.04540 38.21536 30.13038
#
# Velocity S-wave (km/s) = 3.12118 4.10940 3.64890
# Velocity P-wave (km/s) = 4.18093 5.84768 5.08309
#
# Compressibility (1/GPa) = 0.09839282
#
# Stress axis : x y z
#
# Youngs Moduli (GPa) = 59.64252 34.62600 38.52205
#
# Poissons Ratio (x) = 0.00476 -0.06070
# Poissons Ratio (y) = 0.00820 -0.46054
# Poissons Ratio (z) = -0.09399 -0.41396
#
# Static dielectric constant tensor:
#      x y z
#    x 1.847060 -0.042220 -0.063150 
#    y -0.042220 1.863640 -0.066440 
#    z -0.063150 -0.066440 1.887620 
# 
# From -- ./inp_files/242983.got.cif
#   From: 2010.05.17/outbox.cif.g08.bks.cpg/sg2_122_cif.got.tgz:242983.got - 2010.06.03 11:33:40.
