data_PCOD9029780
_publ_section_title
;
Structure prediction by ZEFSAII (Michael W. Deem and Ramdas Pophale) SiO2 
 PCOD9029780
Probable space group: P -1
;
_chemical_formula_sum "Si O2"
_cell_formula_units_Z 14
_cell_length_a 10.079745
_cell_length_b 20.594101
_cell_length_c 8.317364
_cell_angle_alpha 149.156867
_cell_angle_beta 48.280297
_cell_angle_gamma 128.278823
_cell_volume 655.463718
_symmetry_space_group_name_H-M "P -1"
_symmetry_group_IT_number 2
_symmetry_cell_setting 'triclinic'
loop_
_space_group_symop_operation_xyz
x,y,z
-x,-y,-z
loop_
_atom_site_type_symbol
_atom_site_label
_atom_site_fract_x
_atom_site_fract_y
_atom_site_fract_z
Si Si1 0.115342 0.388981 0.719195
Si Si2 0.191483 0.041772 0.341325
Si Si3 0.568586 0.170184 0.276434
Si Si4 0.980562 0.119132 0.386348
Si Si5 0.439886 0.353425 0.190171
Si Si6 0.420798 0.873552 0.199312
Si Si7 0.383849 0.563555 0.099928
O O1 0.232333 0.342265 0.379355
O O2 0.003495 0.258379 0.585433
O O3 0.244428 0.455948 0.898801
O O4 0.000000 0.500000 0.000000
O O5 0.375740 0.130588 0.438633
O O6 0.128677 0.112900 0.388486
O O7 0.000000 0.000000 0.500000
O O8 0.283868 0.915486 0.961332
O O9 0.671543 0.313566 0.503756
O O10 0.525368 0.138924 0.056400
O O11 0.787398 0.109921 0.602332
O O12 0.000000 0.000000 0.000000
O O13 0.500000 0.500000 0.500000
O O14 0.529794 0.249260 0.000661
O O15 0.499980 0.361704 0.976545
O O16 0.500000 0.000000 0.500000
O O17 0.500000 0.500000 0.000000
#
# Coordination Sequence:
#
# PCOD9029780 Si02
#       7
#     2   2   2   2   2   2   2
#     4  11  25  47  69 102 141 182 242 295 349 427
#     4  11  24  44  66 104 144 182 232 293 355 420
#     4  11  25  44  70 100 147 183 236 293 360 421
#     4  12  25  42  71 103 139 181 242 295 347 429
#     4  10  22  42  68  94 132 183 228 273 353 421
#     4  12  25  45  70 103 138 188 233 292 360 426
#     4  11  24  45  72  98 138 187 234 290 359 423
#
# _framework density 21.358923000000001
#
# number of rings (size 3 to 8) (size 9 to 14) (size 15 to 20)
#    0.000    0.857    1.429    6.857    8.000    1.143 
#    0.000    1.429    0.000    0.000    0.000    0.000 
#    0.000    0.000    0.000    0.000    0.000    0.000 
#
# Total GULP energy -77999.240302 kJ/mol
# GULP energy per Si atom -5571.374307 kJ/mol
# Density = 2.131031 g / cm^3
# Si number density = 21.358923 Si / 1000 Ang^3
#
#
#
# Elastic Constant Matrix: (Units=GPa)
#
#
# Indices 1 2 3 4 5 6 
#
# 1 76.7019 18.9510 29.3901 1.6189 -30.0712 -5.3170
# 2 18.9510 71.1008 23.1329 6.2643 -3.7576 9.1183
# 3 29.3901 23.1329 84.3849 26.6308 -17.1199 6.0851
# 4 1.6189 6.2643 26.6308 55.7913 2.3051 -12.0070
# 5 -30.0712 -3.7576 -17.1199 2.3051 50.0086 7.0888
# 6 -5.3170 9.1183 6.0851 -12.0070 7.0888 44.8379
#
#
#
# Elastic Compliance Matrix: (Units=1/GPa)
#
#
# Indices 1 2 3 4 5 6 
#
# 1 0.019650 -0.003739 -0.004908 0.002439 0.009327 0.002935
# 2 -0.003739 0.016471 -0.002949 -0.001009 -0.001488 -0.003428
# 3 -0.004908 -0.002949 0.018892 -0.010016 0.004600 -0.005956
# 4 0.002439 -0.001009 -0.010016 0.024921 -0.004496 0.009238
# 5 0.009327 -0.001488 0.004600 -0.004496 0.027961 -0.004840
# 6 0.002935 -0.003428 -0.005956 0.009238 -0.004840 0.027395
#
#
# Mechanical properties :
#
#
# Convention : Reuss Voigt Hill
#
# Bulk Modulus (GPa) = 31.42631 41.68176 36.55403
# Shear Modulus (GPa) = 29.57002 40.84181 35.20591
#
# Velocity S-wave (km/s) = 3.72483 4.37758 4.06433
# Velocity P-wave (km/s) = 5.76581 6.71626 6.25910
#
# Compressibility (1/GPa) = 0.03182047
#
# Stress axis : x y z
#
# Youngs Moduli (GPa) = 50.88930 60.71460 52.93239
#
# Poissons Ratio (x) = 0.22702 0.25980
# Poissons Ratio (y) = 0.19028 0.15610
# Poissons Ratio (z) = 0.24977 0.17905
#
# Static dielectric constant tensor:
#      x y z
#    x 1.766350 -0.136060 0.105880 
#    y -0.136060 1.334820 -0.087500 
#    z 0.105880 -0.087500 1.960690 
# 
# From -- ./inp_files/226717.got.cif
#   From: 2010.05.17/outbox.cif.g08.bks.cpg/sg2_114_cif.got.tgz:226717.got - 2010.06.03 11:33:40.
