data_PCOD9029036
_publ_section_title
;
Structure prediction by ZEFSAII (Michael W. Deem and Ramdas Pophale) SiO2 
 PCOD9029036
Probable space group: P -1
;
_chemical_formula_sum "Si O2"
_cell_formula_units_Z 14
_cell_length_a 5.994910
_cell_length_b 6.360529
_cell_length_c 15.409055
_cell_angle_alpha 88.992823
_cell_angle_beta 91.136858
_cell_angle_gamma 104.817287
_cell_volume 567.861699
_symmetry_space_group_name_H-M "P -1"
_symmetry_group_IT_number 2
_symmetry_cell_setting 'triclinic'
loop_
_space_group_symop_operation_xyz
x,y,z
-x,-y,-z
loop_
_atom_site_type_symbol
_atom_site_label
_atom_site_fract_x
_atom_site_fract_y
_atom_site_fract_z
Si Si1 0.909194 0.506961 0.119150
Si Si2 0.178035 0.350305 0.255074
Si Si3 0.840203 0.646714 0.460223
Si Si4 0.468827 0.248783 0.390393
Si Si5 0.583020 0.701463 0.212668
Si Si6 0.819945 0.026615 0.350712
Si Si7 0.340160 0.775316 0.036329
O O1 0.067782 0.353277 0.159033
O O2 0.764594 0.557962 0.198574
O O3 0.736123 0.387292 0.044294
O O4 0.913777 0.272992 0.918148
O O5 0.354905 0.215408 0.293214
O O6 0.346291 0.590294 0.262113
O O7 0.974265 0.259286 0.320718
O O8 0.646942 0.485423 0.401868
O O9 0.716144 0.735098 0.538338
O O10 0.940783 0.859650 0.400816
O O11 0.000000 0.500000 0.500000
O O12 0.613028 0.071966 0.405279
O O13 0.716636 0.912927 0.261710
O O14 0.498872 0.726329 0.114701
O O15 0.500000 0.000000 0.000000
#
# Coordination Sequence:
#
# PCOD9029036 Si02
#       7
#     2   2   2   2   2   2   2
#     4  10  23  42  68 101 144 183 237 299 347 415
#     4  11  24  42  71 101 140 184 237 291 351 423
#     4  11  26  48  74 104 142 186 241 301 356 429
#     4  11  25  46  71 103 145 185 238 297 358 428
#     4  11  24  43  69 104 144 186 237 299 349 422
#     4  12  26  45  73 105 141 193 237 290 368 424
#     4  10  22  42  66 101 142 189 238 286 357 422
#
# _framework density 24.653890000000001
#
# number of rings (size 3 to 8) (size 9 to 14) (size 15 to 20)
#    0.000    1.143    1.429    3.429    2.000    8.571 
#    0.000    0.000    0.000    0.000    0.000    0.000 
#    0.000    0.000    0.000    0.000    0.000    0.000 
#
# Total GULP energy -78051.565797 kJ/mol
# GULP energy per Si atom -5575.111843 kJ/mol
# Density = 2.459778 g / cm^3
# Si number density = 24.653890 Si / 1000 Ang^3
#
#
#
# Elastic Constant Matrix: (Units=GPa)
#
#
# Indices 1 2 3 4 5 6 
#
# 1 101.3146 61.3994 68.2902 -7.8456 2.2943 8.8974
# 2 61.3994 78.0211 62.8793 -10.8356 3.3924 9.7698
# 3 68.2902 62.8793 123.3781 -10.6224 16.2110 5.0063
# 4 -7.8456 -10.8356 -10.6224 49.9661 2.0173 -1.0696
# 5 2.2943 3.3924 16.2110 2.0173 49.8748 -5.4014
# 6 8.8974 9.7698 5.0063 -1.0696 -5.4014 43.8489
#
#
#
# Elastic Compliance Matrix: (Units=1/GPa)
#
#
# Indices 1 2 3 4 5 6 
#
# 1 0.020955 -0.011899 -0.005775 -0.000601 0.001665 -0.000751
# 2 -0.011899 0.029514 -0.008200 0.002692 0.000764 -0.003066
# 3 -0.005775 -0.008200 0.016110 0.000931 -0.004381 0.000642
# 4 -0.000601 0.002692 0.000931 0.020749 -0.001323 -0.000241
# 5 0.001665 0.000764 -0.004381 -0.001323 0.021684 0.002631
# 6 -0.000751 -0.003066 0.000642 -0.000241 0.002631 0.023886
#
#
# Mechanical properties :
#
#
# Convention : Reuss Voigt Hill
#
# Bulk Modulus (GPa) = 67.41867 76.42795 71.92331
# Shear Modulus (GPa) = 26.37272 36.08096 31.22684
#
# Velocity S-wave (km/s) = 3.27420 3.82972 3.56281
# Velocity P-wave (km/s) = 6.45750 7.11501 6.79421
#
# Compressibility (1/GPa) = 0.01483269
#
# Stress axis : x y z
#
# Youngs Moduli (GPa) = 47.72052 33.88219 62.07223
#
# Poissons Ratio (x) = 0.40316 0.35845
# Poissons Ratio (y) = 0.56782 0.50899
# Poissons Ratio (z) = 0.27557 0.27783
#
# Static dielectric constant tensor:
#      x y z
#    x 2.055510 -0.015220 0.010670 
#    y -0.015220 1.926710 -0.045750 
#    z 0.010670 -0.045750 1.971400 
# 
# From -- ./inp_files/545929.got.cif
#   From: 2010.05.17/outbox.cif.g08.bks.cpg/sg2_273_cif.got.tgz:545929.got - 2010.06.03 11:33:40.
