data_PCOD9029440
_publ_section_title
;
Structure prediction by ZEFSAII (Michael W. Deem and Ramdas Pophale) SiO2 
 PCOD9029440
Probable space group: P -1
;
_chemical_formula_sum "Si O2"
_cell_formula_units_Z 16
_cell_length_a 8.569936
_cell_length_b 11.135917
_cell_length_c 11.695520
_cell_angle_alpha 49.949103
_cell_angle_beta 95.209573
_cell_angle_gamma 67.050326
_cell_volume 688.134047
_symmetry_space_group_name_H-M "P -1"
_symmetry_group_IT_number 2
_symmetry_cell_setting 'triclinic'
loop_
_space_group_symop_operation_xyz
x,y,z
-x,-y,-z
loop_
_atom_site_type_symbol
_atom_site_label
_atom_site_fract_x
_atom_site_fract_y
_atom_site_fract_z
Si Si1 0.192896 0.230723 0.078326
Si Si2 0.527174 0.203755 0.729044
Si Si3 0.141555 0.446731 0.403134
Si Si4 0.022630 0.917153 0.743118
Si Si5 0.290186 0.758748 0.644310
Si Si6 0.089259 0.835581 0.203683
Si Si7 0.237609 0.439476 0.749531
Si Si8 0.360147 0.230833 0.328489
O O1 0.263020 0.266866 0.177860
O O2 0.351799 0.016510 0.169642
O O3 0.012777 0.224650 0.104733
O O4 0.178714 0.371105 0.896123
O O5 0.340788 0.327145 0.560350
O O6 0.685584 0.249872 0.707853
O O7 0.429730 0.257998 0.813969
O O8 0.075442 0.666628 0.264366
O O9 0.208265 0.333727 0.356528
O O10 0.946606 0.463876 0.407667
O O11 0.838270 0.054913 0.562173
O O12 0.020797 0.054764 0.753537
O O13 0.200967 0.814678 0.731339
O O14 0.274093 0.595270 0.692649
O O15 0.505776 0.695290 0.701261
O O16 0.000000 0.000000 0.000000
O O17 0.500000 0.000000 0.500000
#
# Coordination Sequence:
#
# PCOD9029440 Si02
#       8
#     2   2   2   2   2   2   2   2
#     4  11  24  44  69  96 141 184 219 290 351 405
#     4  11  23  44  69  96 142 185 234 281 338 416
#     4  12  24  42  71  99 138 186 233 285 344 413
#     4  10  22  42  67  94 135 177 226 272 345 406
#     4  11  24  41  69  99 131 176 231 290 332 416
#     4  11  24  43  70 103 143 181 226 287 352 408
#     4  12  27  42  66 108 141 177 236 289 348 404
#     4  12  23  44  71  99 134 179 238 281 352 408
#
# _framework density 23.251283999999998
#
# number of rings (size 3 to 8) (size 9 to 14) (size 15 to 20)
#    0.000    0.750    2.500    5.625    1.750    5.500 
#    0.000    0.000    0.000    0.000    0.000    0.000 
#    0.000    0.000    0.000    0.000    0.000    0.000 
#
# Total GULP energy -89603.652920 kJ/mol
# GULP energy per Si atom -5600.228308 kJ/mol
# Density = 2.319836 g / cm^3
# Si number density = 23.251284 Si / 1000 Ang^3
#
#
#
# Elastic Constant Matrix: (Units=GPa)
#
#
# Indices 1 2 3 4 5 6 
#
# 1 85.1766 34.3494 1.4550 -17.2886 -0.0200 15.6015
# 2 34.3494 118.2086 13.7195 8.8690 5.5782 1.1446
# 3 1.4550 13.7195 51.3413 5.7051 -13.1846 7.1399
# 4 -17.2886 8.8690 5.7051 33.0093 -0.2011 -3.9760
# 5 -0.0200 5.5782 -13.1846 -0.2011 31.3468 -1.8296
# 6 15.6015 1.1446 7.1399 -3.9760 -1.8296 47.4922
#
#
#
# Elastic Compliance Matrix: (Units=1/GPa)
#
#
# Indices 1 2 3 4 5 6 
#
# 1 0.016859 -0.005746 0.000951 0.009652 0.001221 -0.004688
# 2 -0.005746 0.011042 -0.003263 -0.005246 -0.003284 0.001546
# 3 0.000951 -0.003263 0.023847 -0.003127 0.010376 -0.003681
# 4 0.009652 -0.005246 -0.003127 0.037365 -0.000104 0.000550
# 5 0.001221 -0.003284 0.010376 -0.000104 0.036823 -0.000472
# 6 -0.004688 0.001546 -0.003681 0.000550 -0.000472 0.023140
#
#
# Mechanical properties :
#
#
# Convention : Reuss Voigt Hill
#
# Bulk Modulus (GPa) = 28.06589 39.30826 33.68708
# Shear Modulus (GPa) = 28.23755 36.04984 32.14369
#
# Velocity S-wave (km/s) = 3.48868 3.94184 3.72216
# Velocity P-wave (km/s) = 5.32210 6.13678 5.74390
#
# Compressibility (1/GPa) = 0.03563044
#
# Stress axis : x y z
#
# Youngs Moduli (GPa) = 59.31458 90.56668 41.93472
#
# Poissons Ratio (x) = 0.52038 -0.03986
# Poissons Ratio (y) = 0.34081 0.13685
# Poissons Ratio (z) = -0.05638 0.29555
#
# Static dielectric constant tensor:
#      x y z
#    x 1.837020 0.006550 0.003830 
#    y 0.006550 1.830900 0.035460 
#    z 0.003830 0.035460 1.910970 
# 
# From -- ./inp_files/263067.got.cif
#   From: 2010.05.17/outbox.cif.g08.bks.cpg/sg2_132_cif.got.tgz:263067.got - 2010.06.03 11:33:40.
