data_PCOD9029022
_publ_section_title
;
Structure prediction by ZEFSAII (Michael W. Deem and Ramdas Pophale) SiO2 
 PCOD9029022
Probable space group: P -1
;
_chemical_formula_sum "Si O2"
_cell_formula_units_Z 14
_cell_length_a 18.407724
_cell_length_b 5.462794
_cell_length_c 11.567823
_cell_angle_alpha 121.998305
_cell_angle_beta 138.829206
_cell_angle_gamma 50.850600
_cell_volume 590.438592
_symmetry_space_group_name_H-M "P -1"
_symmetry_group_IT_number 2
_symmetry_cell_setting 'triclinic'
loop_
_space_group_symop_operation_xyz
x,y,z
-x,-y,-z
loop_
_atom_site_type_symbol
_atom_site_label
_atom_site_fract_x
_atom_site_fract_y
_atom_site_fract_z
Si Si1 0.078382 0.188294 0.096219
Si Si2 0.776979 0.752768 0.119410
Si Si3 0.312249 0.581303 0.236118
Si Si4 0.951091 0.339375 0.642567
Si Si5 0.437574 0.744059 0.882819
Si Si6 0.920505 0.301860 0.344720
Si Si7 0.452081 0.378302 0.569652
O O1 0.114016 0.344722 0.288241
O O2 0.205463 0.905546 0.142894
O O3 0.000000 0.500000 0.000000
O O4 0.000000 0.000000 0.000000
O O5 0.910626 0.707468 0.230424
O O6 0.804726 0.459023 0.167042
O O7 0.695411 0.045006 0.172319
O O8 0.713550 0.707189 0.917655
O O9 0.331903 0.553402 0.390487
O O10 0.439261 0.541875 0.326979
O O11 0.890574 0.293904 0.441680
O O12 0.984789 0.023941 0.678443
O O13 0.432931 0.531982 0.713547
O O14 0.500000 0.500000 0.000000
O O15 0.500000 0.000000 0.000000
O O16 0.000000 0.500000 0.500000
O O17 0.500000 0.000000 0.500000
#
# Coordination Sequence:
#
# PCOD9029022 Si02
#       7
#     2   2   2   2   2   2   2
#     4  12  27  44  72 108 145 191 244 297 373 452
#     4  11  22  43  74  97 142 189 242 299 374 432
#     4  11  25  47  74 105 150 199 248 311 376 445
#     4  10  22  42  66 100 145 183 240 291 371 434
#     4  12  28  48  76 107 142 187 253 308 370 438
#     4   9  21  40  64  98 136 183 229 296 351 435
#     4  11  27  50  74 106 152 199 256 314 375 443
#
# _framework density 23.711189000000001
#
# number of rings (size 3 to 8) (size 9 to 14) (size 15 to 20)
#    0.000    1.143    2.857    1.714   10.000    2.286 
#    7.714    0.000    0.000    0.000    0.000    0.000 
#    0.000    0.000    0.000    0.000    0.000    0.000 
#
# Total GULP energy -78022.744007 kJ/mol
# GULP energy per Si atom -5573.053143 kJ/mol
# Density = 2.365722 g / cm^3
# Si number density = 23.711189 Si / 1000 Ang^3
#
#
#
# Elastic Constant Matrix: (Units=GPa)
#
#
# Indices 1 2 3 4 5 6 
#
# 1 57.8444 25.9121 40.8601 4.2919 -7.5835 -3.8952
# 2 25.9121 132.9994 49.9689 10.4139 -28.7263 -6.3583
# 3 40.8601 49.9689 153.9872 16.9105 -34.2528 -3.7300
# 4 4.2919 10.4139 16.9105 52.6556 -2.1143 -7.7259
# 5 -7.5835 -28.7263 -34.2528 -2.1143 42.9181 8.3054
# 6 -3.8952 -6.3583 -3.7300 -7.7259 8.3054 41.9611
#
#
#
# Elastic Compliance Matrix: (Units=1/GPa)
#
#
# Indices 1 2 3 4 5 6 
#
# 1 0.022225 -0.002772 -0.005643 0.000705 -0.002748 0.001815
# 2 -0.002772 0.009662 -0.001164 -0.001124 0.005011 -0.000096
# 3 -0.005643 -0.001164 0.010031 -0.002500 0.006404 -0.001536
# 4 0.000705 -0.001124 -0.002500 0.020437 -0.002372 0.003905
# 5 -0.002748 0.005011 0.006404 -0.002372 0.032276 -0.005752
# 6 0.001815 -0.000096 -0.001536 0.003905 -0.005752 0.025706
#
#
# Mechanical properties :
#
#
# Convention : Reuss Voigt Hill
#
# Bulk Modulus (GPa) = 43.93559 64.25704 54.09632
# Shear Modulus (GPa) = 33.99499 42.71296 38.35398
#
# Velocity S-wave (km/s) = 3.79055 4.24888 4.02624
# Velocity P-wave (km/s) = 6.14226 7.15747 6.66921
#
# Compressibility (1/GPa) = 0.02276059
#
# Stress axis : x y z
#
# Youngs Moduli (GPa) = 44.99439 103.49756 99.69443
#
# Poissons Ratio (x) = 0.28691 0.56253
# Poissons Ratio (y) = 0.12473 0.11604
# Poissons Ratio (z) = 0.25388 0.12046
#
# Static dielectric constant tensor:
#      x y z
#    x 1.788490 0.000290 -0.186850 
#    y 0.000290 2.095750 -0.082840 
#    z -0.186850 -0.082840 2.070420 
# 
# From -- ./inp_files/131622.got.cif
#   From: 2010.05.17/outbox.cif.g08.bks.cpg/sg2_66_cif.got.tgz:131622.got - 2010.06.03 11:33:40.
