data_PCOD9029695
_publ_section_title
;
Structure prediction by ZEFSAII (Michael W. Deem and Ramdas Pophale) SiO2 
 PCOD9029695
Probable space group: P -1
;
_chemical_formula_sum "Si O2"
_cell_formula_units_Z 16
_cell_length_a 8.924915
_cell_length_b 18.737822
_cell_length_c 21.722263
_cell_angle_alpha 19.694439
_cell_angle_beta 139.446470
_cell_angle_gamma 141.250918
_cell_volume 760.628029
_symmetry_space_group_name_H-M "P -1"
_symmetry_group_IT_number 2
_symmetry_cell_setting 'triclinic'
loop_
_space_group_symop_operation_xyz
x,y,z
-x,-y,-z
loop_
_atom_site_type_symbol
_atom_site_label
_atom_site_fract_x
_atom_site_fract_y
_atom_site_fract_z
Si Si1 0.267491 0.630716 0.564162
Si Si2 0.239686 0.534097 0.888668
Si Si3 0.489503 0.817378 0.194388
Si Si4 0.249534 0.037415 0.510557
Si Si5 0.970541 0.711281 0.854809
Si Si6 0.750380 0.548488 0.411248
Si Si7 0.006289 0.460227 0.319656
Si Si8 0.337336 0.141265 0.652723
O O1 0.517932 0.824089 0.490693
O O2 0.304924 0.428603 0.697544
O O3 0.173172 0.604859 0.625827
O O4 0.032270 0.642648 0.441303
O O5 0.118633 0.478466 0.829366
O O6 0.263782 0.793256 0.697336
O O7 0.500000 0.500000 0.000000
O O8 0.092339 0.374973 0.025488
O O9 0.628489 0.664479 0.329382
O O10 0.609293 0.912373 0.217784
O O11 0.219172 0.667027 0.242350
O O12 0.500000 0.000000 0.000000
O O13 0.224190 0.187442 0.321571
O O14 0.000000 0.000000 0.500000
O O15 0.213524 0.914805 0.763478
O O16 0.000000 0.500000 0.000000
O O17 0.588792 0.293216 0.580105
O O18 0.140035 0.279125 0.486202
#
# Coordination Sequence:
#
# PCOD9029695 Si02
#       8
#     2   2   2   2   2   2   2   2
#     4  11  23  40  73  96 138 180 241 287 359 427
#     4  12  28  45  70 109 141 188 253 301 358 428
#     4  11  22  39  69 102 141 184 236 292 358 433
#     4  12  26  47  72 102 147 196 235 303 373 428
#     4  12  26  45  74 106 141 191 244 294 360 436
#     4  10  22  42  68 105 131 185 231 293 363 422
#     4  11  22  44  69 102 142 190 237 295 364 429
#     4  11  21  43  72 100 143 185 239 292 365 435
#
# _framework density 21.035247999999999
#
# number of rings (size 3 to 8) (size 9 to 14) (size 15 to 20)
#    0.000    0.750    5.000    3.000    3.500    3.000 
#    0.000    0.625    0.000    0.000    0.000    0.000 
#    0.000    0.000    0.000    0.000    0.000    0.000 
#
# Total GULP energy -89248.359876 kJ/mol
# GULP energy per Si atom -5578.022492 kJ/mol
# Density = 2.098737 g / cm^3
# Si number density = 21.035248 Si / 1000 Ang^3
#
#
#
# Elastic Constant Matrix: (Units=GPa)
#
#
# Indices 1 2 3 4 5 6 
#
# 1 117.4926 49.2903 21.2285 6.1190 -16.3539 9.7476
# 2 49.2903 165.1330 48.6148 2.7361 -4.8510 7.7763
# 3 21.2285 48.6148 96.9124 6.8849 -12.3792 2.0604
# 4 6.1190 2.7361 6.8849 37.5553 -5.3375 -8.6425
# 5 -16.3539 -4.8510 -12.3792 -5.3375 25.2083 2.3855
# 6 9.7476 7.7763 2.0604 -8.6425 2.3855 39.4537
#
#
#
# Elastic Compliance Matrix: (Units=1/GPa)
#
#
# Indices 1 2 3 4 5 6 
#
# 1 0.010946 -0.002941 0.000067 -0.001296 0.006560 -0.002809
# 2 -0.002941 0.007957 -0.003612 0.000154 -0.002071 -0.000494
# 3 0.000067 -0.003612 0.012931 -0.001491 0.005443 -0.000636
# 4 -0.001296 0.000154 -0.001491 0.029171 0.004017 0.006515
# 5 0.006560 -0.002071 0.005443 0.004017 0.047379 -0.003481
# 6 -0.002809 -0.000494 -0.000636 0.006515 -0.003481 0.027808
#
#
# Mechanical properties :
#
#
# Convention : Reuss Voigt Hill
#
# Bulk Modulus (GPa) = 53.01650 68.64502 60.83076
# Shear Modulus (GPa) = 32.16442 37.80374 34.98408
#
# Velocity S-wave (km/s) = 3.91458 4.24389 4.08256
# Velocity P-wave (km/s) = 6.75946 7.53116 7.15572
#
# Compressibility (1/GPa) = 0.01886205
#
# Stress axis : x y z
#
# Youngs Moduli (GPa) = 91.35514 125.67872 77.33590
#
# Poissons Ratio (x) = 0.36958 -0.00519
# Poissons Ratio (y) = 0.26864 0.27936
# Poissons Ratio (z) = -0.00613 0.45398
#
# Static dielectric constant tensor:
#      x y z
#    x 1.867340 0.004580 0.001400 
#    y 0.004580 1.741950 -0.002640 
#    z 0.001400 -0.002640 1.761430 
# 
# From -- ./inp_files/591197.got.cif
#   From: 2010.05.17/outbox.cif.g08.bks.cpg/sg2_296_cif.got.tgz:591197.got - 2010.06.03 11:33:40.
