data_PCOD9029048
_publ_section_title
;
Structure prediction by ZEFSAII (Michael W. Deem and Ramdas Pophale) SiO2 
 PCOD9029048
Probable space group: P -1
;
_chemical_formula_sum "Si O2"
_cell_formula_units_Z 13
_cell_length_a 6.385827
_cell_length_b 5.089567
_cell_length_c 18.812924
_cell_angle_alpha 64.383187
_cell_angle_beta 74.459719
_cell_angle_gamma 101.728968
_cell_volume 494.048854
_symmetry_space_group_name_H-M "P -1"
_symmetry_group_IT_number 2
_symmetry_cell_setting 'triclinic'
loop_
_space_group_symop_operation_xyz
x,y,z
-x,-y,-z
loop_
_atom_site_type_symbol
_atom_site_label
_atom_site_fract_x
_atom_site_fract_y
_atom_site_fract_z
Si Si1 0.366091 0.697628 0.953214
Si Si2 0.390280 0.703124 0.228587
Si Si3 0.329850 0.080464 0.684456
Si Si4 0.748466 0.536954 0.154133
Si Si5 0.971298 0.196746 0.374697
Si Si6 0.000000 0.000000 0.000000
Si Si7 0.221244 0.804839 0.466863
O O1 0.197904 0.445762 0.939093
O O2 0.532586 0.964359 0.854550
O O3 0.500000 0.500000 0.000000
O O4 0.232888 0.863911 0.994698
O O5 0.558471 0.719593 0.279601
O O6 0.480927 0.500284 0.191167
O O7 0.123139 0.537153 0.291791
O O8 0.552066 0.163838 0.601897
O O9 0.228988 0.733418 0.769485
O O10 0.127802 0.052932 0.650002
O O11 0.929224 0.888086 0.105927
O O12 0.772618 0.198445 0.447734
O O13 0.153199 0.096143 0.414900
O O14 0.000000 0.500000 0.500000
#
# Coordination Sequence:
#
# PCOD9029048 Si02
#       7
#     2   2   2   2   2   1   2
#     4  10  23  42  72 102 147 192 241 304 367 435
#     4  10  22  44  65 101 144 182 244 301 354 449
#     4  11  23  42  66  98 137 184 238 300 368 428
#     4  10  22  42  66  96 145 179 241 304 350 448
#     4  11  24  41  69  96 136 194 232 300 372 426
#     4  10  22  42  66 102 140 190 240 296 366 434
#     4  11  23  43  65  97 140 178 248 302 350 451
#
# _framework density 26.313186999999999
#
# number of rings (size 3 to 8) (size 9 to 14) (size 15 to 20)
#    0.000    1.538    3.077    0.923    0.000    6.769 
#    0.000    0.000    0.000    0.000    0.000    0.000 
#    0.000    0.000    0.000    0.000    0.000    0.000 
#
# Total GULP energy -72411.637393 kJ/mol
# GULP energy per Si atom -5570.125953 kJ/mol
# Density = 2.625330 g / cm^3
# Si number density = 26.313187 Si / 1000 Ang^3
#
#
#
# Elastic Constant Matrix: (Units=GPa)
#
#
# Indices 1 2 3 4 5 6 
#
# 1 66.4265 30.1004 58.6944 0.4504 -6.8781 9.6752
# 2 30.1004 88.8872 36.9857 1.9287 -0.1408 -10.0370
# 3 58.6944 36.9857 157.9552 -9.4293 -31.5365 1.8356
# 4 0.4504 1.9287 -9.4293 40.1709 2.2485 -6.3239
# 5 -6.8781 -0.1408 -31.5365 2.2485 41.3740 3.9157
# 6 9.6752 -10.0370 1.8356 -6.3239 3.9157 36.3410
#
#
#
# Elastic Compliance Matrix: (Units=1/GPa)
#
#
# Indices 1 2 3 4 5 6 
#
# 1 0.027001 -0.006382 -0.008894 -0.003423 -0.001279 -0.008960
# 2 -0.006382 0.014838 -0.001757 0.000090 -0.002944 0.006219
# 3 -0.008894 -0.001757 0.011619 0.002668 0.007133 0.000991
# 4 -0.003423 0.000090 0.002668 0.026440 -0.000488 0.005455
# 5 -0.001279 -0.002944 0.007133 -0.000488 0.029802 -0.004129
# 6 -0.008960 0.006219 0.000991 0.005455 -0.004129 0.032964
#
#
# Mechanical properties :
#
#
# Convention : Reuss Voigt Hill
#
# Bulk Modulus (GPa) = 51.57068 62.75889 57.16479
# Shear Modulus (GPa) = 27.29306 36.07640 31.68473
#
# Velocity S-wave (km/s) = 3.22411 3.70677 3.47384
# Velocity P-wave (km/s) = 5.78802 6.49790 6.15321
#
# Compressibility (1/GPa) = 0.01939086
#
# Stress axis : x y z
#
# Youngs Moduli (GPa) = 37.03543 67.39301 86.06248
#
# Poissons Ratio (x) = 0.43011 0.76548
# Poissons Ratio (y) = 0.23636 0.15125
# Poissons Ratio (z) = 0.32941 0.11844
#
# Static dielectric constant tensor:
#      x y z
#    x 2.215710 0.184980 -0.056990 
#    y 0.184980 2.756690 -0.074030 
#    z -0.056990 -0.074030 2.180010 
# 
# From -- ./inp_files/4561.got.cif
#   From: 2010.05.17/outbox.cif.g08.bks.cpg/sg2_3_cif.got.tgz:4561.got - 2010.06.03 11:33:40.
