data_PCOD9029759
_publ_section_title
;
Structure prediction by ZEFSAII (Michael W. Deem and Ramdas Pophale) SiO2 
 PCOD9029759
Probable space group: P -1
;
_chemical_formula_sum "Si O2"
_cell_formula_units_Z 16
_cell_length_a 20.865331
_cell_length_b 9.079737
_cell_length_c 7.505689
_cell_angle_alpha 97.298072
_cell_angle_beta 114.210621
_cell_angle_gamma 135.596535
_cell_volume 683.196411
_symmetry_space_group_name_H-M "P -1"
_symmetry_group_IT_number 2
_symmetry_cell_setting 'triclinic'
loop_
_space_group_symop_operation_xyz
x,y,z
-x,-y,-z
loop_
_atom_site_type_symbol
_atom_site_label
_atom_site_fract_x
_atom_site_fract_y
_atom_site_fract_z
Si Si1 0.622775 0.853653 0.987645
Si Si2 0.635513 0.112855 0.523559
Si Si3 0.379952 0.816321 0.067358
Si Si4 0.891135 0.715319 0.936545
Si Si5 0.143662 0.191714 0.735090
Si Si6 0.355948 0.214269 0.591531
Si Si7 0.066156 0.776585 0.093738
Si Si8 0.889598 0.188907 0.251887
O O1 0.481279 0.534350 0.719171
O O2 0.618466 0.024480 0.008831
O O3 0.641144 0.815905 0.198856
O O4 0.750655 0.027676 0.049661
O O5 0.632790 0.156684 0.734618
O O6 0.513843 0.960637 0.250349
O O7 0.637650 0.939790 0.503242
O O8 0.770387 0.425200 0.650020
O O9 0.260936 0.494153 0.822162
O O10 0.834547 0.722811 0.021231
O O11 0.977742 0.730341 0.101280
O O12 0.000000 0.000000 0.000000
O O13 0.140578 0.009286 0.691880
O O14 0.000000 0.000000 0.500000
O O15 0.218741 0.047407 0.362911
O O16 0.060525 0.787301 0.875632
O O17 0.000000 0.500000 0.000000
O O18 0.000000 0.500000 0.500000
#
# Coordination Sequence:
#
# PCOD9029759 Si02
#       8
#     2   2   2   2   2   2   2   2
#     4  11  26  43  65 100 134 175 225 277 333 400
#     4  10  22  42  68  93 131 174 223 278 323 403
#     4  10  23  43  68  97 128 173 227 271 338 391
#     4  11  24  43  65  99 133 175 224 269 335 391
#     4  11  25  42  66  98 136 175 217 277 329 398
#     4  11  25  44  66  96 136 176 225 274 334 396
#     4  12  25  43  71  98 136 181 222 278 329 402
#     4  12  26  44  71  99 136 176 223 278 337 400
#
# _framework density 23.419328
#
# number of rings (size 3 to 8) (size 9 to 14) (size 15 to 20)
#    0.000    1.000    2.500    3.000    7.000    4.500 
#    0.000    0.000    0.000    0.000    0.000    0.000 
#    0.000    0.000    0.000    0.000    0.000    0.000 
#
# Total GULP energy -89462.888730 kJ/mol
# GULP energy per Si atom -5591.430546 kJ/mol
# Density = 2.336602 g / cm^3
# Si number density = 23.419328 Si / 1000 Ang^3
#
#
#
# Elastic Constant Matrix: (Units=GPa)
#
#
# Indices 1 2 3 4 5 6 
#
# 1 86.5718 22.5048 22.6695 17.7976 6.3260 -17.2235
# 2 22.5048 114.6400 38.0077 44.1527 -1.3049 -27.4503
# 3 22.6695 38.0077 122.9634 47.3949 21.7062 -12.6595
# 4 17.7976 44.1527 47.3949 50.4606 6.7574 -7.8339
# 5 6.3260 -1.3049 21.7062 6.7574 37.0030 -0.8765
# 6 -17.2235 -27.4503 -12.6595 -7.8339 -0.8765 44.6297
#
#
#
# Elastic Compliance Matrix: (Units=1/GPa)
#
#
# Indices 1 2 3 4 5 6 
#
# 1 0.013345 -0.000199 -0.000473 -0.003245 -0.001317 0.004298
# 2 -0.000199 0.015458 0.000644 -0.013297 0.002803 0.007335
# 3 -0.000473 0.000644 0.014079 -0.012547 -0.005819 0.001890
# 4 -0.003245 -0.013297 -0.012547 0.043639 -0.000650 -0.005343
# 5 -0.001317 0.002803 -0.005819 -0.000650 0.030882 0.000058
# 6 0.004298 0.007335 0.001890 -0.005343 0.000058 0.028176
#
#
# Mechanical properties :
#
#
# Convention : Reuss Voigt Hill
#
# Bulk Modulus (GPa) = 23.35057 54.50435 38.92746
# Shear Modulus (GPa) = 31.26746 42.48489 36.87617
#
# Velocity S-wave (km/s) = 3.65788 4.26384 3.97243
# Velocity P-wave (km/s) = 5.27565 6.89668 6.13990
#
# Compressibility (1/GPa) = 0.04282550
#
# Stress axis : x y z
#
# Youngs Moduli (GPa) = 74.93373 64.69184 71.02952
#
# Poissons Ratio (x) = 0.01287 0.03362
# Poissons Ratio (y) = 0.01491 -0.04576
# Poissons Ratio (z) = 0.03546 -0.04167
#
# Static dielectric constant tensor:
#      x y z
#    x 1.835850 0.009050 0.082150 
#    y 0.009050 1.785100 0.162310 
#    z 0.082150 0.162310 1.594290 
# 
# From -- ./inp_files/223210.got.cif
#   From: 2010.05.17/outbox.cif.g08.bks.cpg/sg2_112_cif.got.tgz:223210.got - 2010.06.03 11:33:40.
