data_PCOD9029818
_publ_section_title
;
Structure prediction by ZEFSAII (Michael W. Deem and Ramdas Pophale) SiO2 
 PCOD9029818
Probable space group: P -1
;
_chemical_formula_sum "Si O2"
_cell_formula_units_Z 16
_cell_length_a 5.506409
_cell_length_b 19.240983
_cell_length_c 8.547457
_cell_angle_alpha 105.688087
_cell_angle_beta 95.457108
_cell_angle_gamma 52.447337
_cell_volume 688.314021
_symmetry_space_group_name_H-M "P -1"
_symmetry_group_IT_number 2
_symmetry_cell_setting 'triclinic'
loop_
_space_group_symop_operation_xyz
x,y,z
-x,-y,-z
loop_
_atom_site_type_symbol
_atom_site_label
_atom_site_fract_x
_atom_site_fract_y
_atom_site_fract_z
Si Si1 0.242053 0.039984 0.140943
Si Si2 0.961413 0.672643 0.966671
Si Si3 0.213856 0.545145 0.620591
Si Si4 0.415161 0.712136 0.156899
Si Si5 0.446841 0.913324 0.587485
Si Si6 0.582482 0.206071 0.226823
Si Si7 0.786041 0.091445 0.741900
Si Si8 0.365208 0.351863 0.521963
O O1 0.310525 0.074530 0.321896
O O2 0.911557 0.129308 0.126297
O O3 0.243220 0.957461 0.145646
O O4 0.500000 0.000000 0.000000
O O5 0.696964 0.754158 0.887114
O O6 0.180507 0.588078 0.812243
O O7 0.748340 0.659877 0.057407
O O8 0.183321 0.690371 0.075628
O O9 0.500000 0.500000 0.500000
O O10 0.231402 0.456309 0.598102
O O11 0.945889 0.628972 0.548488
O O12 0.253218 0.817479 0.180007
O O13 0.483738 0.695282 0.335145
O O14 0.447564 0.843989 0.659970
O O15 0.462219 0.886320 0.393136
O O16 0.124204 0.013091 0.649849
O O17 0.579122 0.288112 0.350453
#
# Coordination Sequence:
#
# PCOD9029818 Si02
#       8
#     2   2   2   2   2   2   2   2
#     4  11  26  41  70 103 149 200 248 312 369 430
#     4  11  30  46  75 114 154 190 244 316 377 442
#     4  10  25  50  79 108 149 199 245 302 371 465
#     4  12  28  48  75 115 152 192 245 316 375 437
#     4  10  22  42  68  95 138 195 250 297 359 430
#     4  10  24  46  69 104 142 201 253 298 365 449
#     4  10  24  44  63 101 143 192 248 304 363 429
#     4  10  24  48  78 108 144 199 250 300 373 455
#
# _framework density 23.245204999999999
#
# number of rings (size 3 to 8) (size 9 to 14) (size 15 to 20)
#    0.000    1.500    1.250    0.375   14.000    4.000 
#    0.000    1.875    0.000    0.000    0.000    0.000 
#    0.000    0.000    0.000    0.000    0.000    0.000 
#
# Total GULP energy -89337.037701 kJ/mol
# GULP energy per Si atom -5583.564856 kJ/mol
# Density = 2.319230 g / cm^3
# Si number density = 23.245205 Si / 1000 Ang^3
#
#
#
# Elastic Constant Matrix: (Units=GPa)
#
#
# Indices 1 2 3 4 5 6 
#
# 1 95.3829 19.1154 56.7230 4.1320 15.2573 -12.7189
# 2 19.1154 82.3862 28.7835 -4.5045 7.1857 -1.7350
# 3 56.7230 28.7835 110.6046 -10.3208 21.7780 -7.8037
# 4 4.1320 -4.5045 -10.3208 40.1659 -3.2815 4.9303
# 5 15.2573 7.1857 21.7780 -3.2815 43.3790 6.6299
# 6 -12.7189 -1.7350 -7.8037 4.9303 6.6299 14.3876
#
#
#
# Elastic Compliance Matrix: (Units=1/GPa)
#
#
# Indices 1 2 3 4 5 6 
#
# 1 0.018709 -0.001199 -0.007560 -0.006577 -0.005709 0.017179
# 2 -0.001199 0.013454 -0.002863 0.001050 -0.000090 -0.001309
# 3 -0.007560 -0.002863 0.015010 0.003725 -0.004406 0.001867
# 4 -0.006577 0.001050 0.003725 0.028993 0.004886 -0.015854
# 5 -0.005709 -0.000090 -0.004406 0.004886 0.031252 -0.023523
# 6 0.017179 -0.001309 0.001867 -0.015854 -0.023523 0.101817
#
#
# Mechanical properties :
#
#
# Convention : Reuss Voigt Hill
#
# Bulk Modulus (GPa) = 41.79111 55.29082 48.54096
# Shear Modulus (GPa) = 20.79365 31.83663 26.31514
#
# Velocity S-wave (km/s) = 2.99412 3.70483 3.36827
# Velocity P-wave (km/s) = 5.47453 6.49142 6.00454
#
# Compressibility (1/GPa) = 0.02392854
#
# Stress axis : x y z
#
# Youngs Moduli (GPa) = 53.44921 74.32664 66.62087
#
# Poissons Ratio (x) = 0.08915 0.50368
# Poissons Ratio (y) = 0.06411 0.19072
# Poissons Ratio (z) = 0.40410 0.21278
#
# Static dielectric constant tensor:
#      x y z
#    x 1.917070 -0.028090 0.056330 
#    y -0.028090 1.913750 0.088400 
#    z 0.056330 0.088400 2.032470 
# 
# From -- ./inp_files/140735.got.cif
#   From: 2010.05.17/outbox.cif.g08.bks.cpg/sg2_71_cif.got.tgz:140735.got - 2010.06.03 11:33:40.
