data_PCOD9029413
_publ_section_title
;
Structure prediction by ZEFSAII (Michael W. Deem and Ramdas Pophale) SiO2 
 PCOD9029413
Probable space group: P -1
;
_chemical_formula_sum "Si O2"
_cell_formula_units_Z 14
_cell_length_a 5.088207
_cell_length_b 25.568176
_cell_length_c 15.792436
_cell_angle_alpha 16.861008
_cell_angle_beta 95.789079
_cell_angle_gamma 95.410349
_cell_volume 592.862902
_symmetry_space_group_name_H-M "P -1"
_symmetry_group_IT_number 2
_symmetry_cell_setting 'triclinic'
loop_
_space_group_symop_operation_xyz
x,y,z
-x,-y,-z
loop_
_atom_site_type_symbol
_atom_site_label
_atom_site_fract_x
_atom_site_fract_y
_atom_site_fract_z
Si Si1 0.685416 0.660104 0.723560
Si Si2 0.753635 0.220081 0.586909
Si Si3 0.883778 0.194416 0.172045
Si Si4 0.633653 0.680816 0.116151
Si Si5 0.038633 0.411451 0.000050
Si Si6 0.566221 0.720476 0.251300
Si Si7 0.096764 0.908800 0.028487
O O1 0.498424 0.795507 0.457028
O O2 0.827698 0.720003 0.722190
O O3 0.500000 0.500000 0.000000
O O4 0.864349 0.544804 0.844585
O O5 0.757542 0.126798 0.822396
O O6 0.774962 0.434763 0.272581
O O7 0.983674 0.112416 0.710053
O O8 0.889507 0.308703 0.081623
O O9 0.086050 0.287604 0.968176
O O10 0.000000 0.000000 0.500000
O O11 0.590442 0.191281 0.130100
O O12 0.645429 0.713862 0.165638
O O13 0.522685 0.478438 0.414576
O O14 0.304168 0.841814 0.069442
O O15 0.826189 0.791525 0.198005
#
# Coordination Sequence:
#
# PCOD9029413 Si02
#       7
#     2   2   2   2   2   2   2
#     4   9  21  41  63  96 126 181 225 270 337 414
#     4  10  23  39  64  98 139 173 223 273 347 408
#     4  12  27  46  72 104 136 178 234 290 344 403
#     4  11  25  48  71  99 136 184 233 281 348 407
#     4  10  22  42  67  93 132 182 224 276 341 415
#     4  11  24  46  71 100 137 185 233 280 344 407
#     4  11  25  39  67 106 137 176 224 287 337 406
#
# _framework density 23.614229999999999
#
# number of rings (size 3 to 8) (size 9 to 14) (size 15 to 20)
#    0.000    1.429    0.000    3.857   10.000    4.571 
#   12.857    0.000    0.000    0.000    0.000    0.000 
#    0.000    0.000    0.000    0.000    0.000    0.000 
#
# Total GULP energy -78278.331202 kJ/mol
# GULP energy per Si atom -5591.309372 kJ/mol
# Density = 2.356048 g / cm^3
# Si number density = 23.614230 Si / 1000 Ang^3
#
#
#
# Elastic Constant Matrix: (Units=GPa)
#
#
# Indices 1 2 3 4 5 6 
#
# 1 85.8762 21.7993 1.2226 11.5993 6.9615 6.0759
# 2 21.7993 79.7674 24.7221 16.5988 8.1452 -6.8145
# 3 1.2226 24.7221 71.7918 -6.5014 17.9133 13.1505
# 4 11.5993 16.5988 -6.5014 28.0933 11.2448 8.6913
# 5 6.9615 8.1452 17.9133 11.2448 34.0685 10.6660
# 6 6.0759 -6.8145 13.1505 8.6913 10.6660 30.0509
#
#
#
# Elastic Compliance Matrix: (Units=1/GPa)
#
#
# Indices 1 2 3 4 5 6 
#
# 1 0.013208 -0.004466 0.002394 -0.000405 -0.001476 -0.004090
# 2 -0.004466 0.024360 -0.015050 -0.023680 0.005174 0.018025
# 3 0.002394 -0.015050 0.028535 0.026178 -0.014665 -0.018750
# 4 -0.000405 -0.023680 0.026178 0.074376 -0.023167 -0.030032
# 5 -0.001476 0.005174 -0.014665 -0.023167 0.044108 -0.001066
# 6 -0.004090 0.018025 -0.018750 -0.030032 -0.001066 0.055460
#
#
# Mechanical properties :
#
#
# Convention : Reuss Voigt Hill
#
# Bulk Modulus (GPa) = 31.38780 36.99148 34.18964
# Shear Modulus (GPa) = 17.54924 31.08864 24.31894
#
# Velocity S-wave (km/s) = 2.72906 3.63233 3.21260
# Velocity P-wave (km/s) = 4.82194 5.76980 5.31704
#
# Compressibility (1/GPa) = 0.03185951
#
# Stress axis : x y z
#
# Youngs Moduli (GPa) = 75.71241 41.05048 35.04414
#
# Poissons Ratio (x) = 0.18332 -0.08388
# Poissons Ratio (y) = 0.33812 0.52741
# Poissons Ratio (z) = -0.18122 0.61780
#
# Static dielectric constant tensor:
#      x y z
#    x 2.029220 -0.038400 -0.118550 
#    y -0.038400 1.863370 0.049300 
#    z -0.118550 0.049300 2.014160 
# 
# From -- ./inp_files/485940.got.cif
#   From: 2010.05.17/outbox.cif.g08.bks.cpg/sg2_243_cif.got.tgz:485940.got - 2010.06.03 11:33:40.
