data_PCOD9029230
_publ_section_title
;
Structure prediction by ZEFSAII (Michael W. Deem and Ramdas Pophale) SiO2 
 PCOD9029230
Probable space group: P -1
;
_chemical_formula_sum "Si O2"
_cell_formula_units_Z 14
_cell_length_a 9.491542
_cell_length_b 11.569672
_cell_length_c 11.905740
_cell_angle_alpha 85.709127
_cell_angle_beta 36.608694
_cell_angle_gamma 104.737365
_cell_volume 659.903391
_symmetry_space_group_name_H-M "P -1"
_symmetry_group_IT_number 2
_symmetry_cell_setting 'triclinic'
loop_
_space_group_symop_operation_xyz
x,y,z
-x,-y,-z
loop_
_atom_site_type_symbol
_atom_site_label
_atom_site_fract_x
_atom_site_fract_y
_atom_site_fract_z
Si Si1 0.577438 0.970612 0.573418
Si Si2 0.018972 0.655320 0.332727
Si Si3 0.337307 0.906227 0.265367
Si Si4 0.175803 0.689054 0.977372
Si Si5 0.621220 0.510906 0.206230
Si Si6 0.493719 0.382206 0.942372
Si Si7 0.195250 0.071796 0.194765
O O1 0.500000 0.000000 0.500000
O O2 0.626501 0.084751 0.625861
O O3 0.345971 0.825570 0.784611
O O4 0.873205 0.982630 0.377401
O O5 0.689282 0.563279 0.540820
O O6 0.099610 0.767756 0.369400
O O7 0.143791 0.717565 0.125624
O O8 0.192930 0.586821 0.262374
O O9 0.264886 0.017611 0.265350
O O10 0.616715 0.936293 0.022572
O O11 0.866713 0.594221 0.131420
O O12 0.321529 0.600563 0.878208
O O13 0.623781 0.611760 0.103527
O O14 0.500000 0.500000 0.000000
O O15 0.299692 0.230566 0.126522
#
# Coordination Sequence:
#
# PCOD9029230 Si02
#       7
#     2   2   2   2   2   2   2
#     4  12  25  42  67  97 134 174 213 271 336 386
#     4  11  23  44  71  97 131 174 221 276 325 387
#     4  10  23  41  70  98 126 169 225 267 327 390
#     4  11  24  44  65  95 135 175 222 268 323 400
#     4  11  24  42  65  98 134 177 217 268 331 389
#     4  11  22  39  66  98 135 168 219 271 320 388
#     4  10  22  42  66  97 131 170 215 273 321 388
#
# _framework density 21.215226000000001
#
# number of rings (size 3 to 8) (size 9 to 14) (size 15 to 20)
#    0.000    1.143    1.429    5.571    2.000    0.571 
#    0.000    5.714    0.000    0.000    0.000    0.000 
#    0.000    0.000    0.000    0.000    0.000    0.000 
#
# Total GULP energy -78293.399408 kJ/mol
# GULP energy per Si atom -5592.385672 kJ/mol
# Density = 2.116694 g / cm^3
# Si number density = 21.215226 Si / 1000 Ang^3
#
#
#
# Elastic Constant Matrix: (Units=GPa)
#
#
# Indices 1 2 3 4 5 6 
#
# 1 144.8323 51.5318 43.2466 5.1315 3.8041 7.5983
# 2 51.5318 113.6544 41.1928 -11.4092 4.0666 -6.6767
# 3 43.2466 41.1928 66.1236 -4.4817 -24.1034 8.3478
# 4 5.1315 -11.4092 -4.4817 22.0750 1.4269 -0.2319
# 5 3.8041 4.0666 -24.1034 1.4269 42.9944 3.2147
# 6 7.5983 -6.6767 8.3478 -0.2319 3.2147 29.7608
#
#
#
# Elastic Compliance Matrix: (Units=1/GPa)
#
#
# Indices 1 2 3 4 5 6 
#
# 1 0.010174 -0.002480 -0.006909 -0.004778 -0.004321 -0.000787
# 2 -0.002480 0.015844 -0.012126 0.006973 -0.008952 0.008610
# 3 -0.006909 -0.012126 0.037806 0.001317 0.023967 -0.014140
# 4 -0.004778 0.006973 0.001317 0.050403 -0.001393 0.002958
# 5 -0.004321 -0.008952 0.023967 -0.001393 0.038855 -0.011835
# 6 -0.000787 0.008610 -0.014140 0.002958 -0.011835 0.041001
#
#
# Mechanical properties :
#
#
# Convention : Reuss Voigt Hill
#
# Bulk Modulus (GPa) = 48.08948 66.28364 57.18656
# Shear Modulus (GPa) = 20.48796 31.54198 26.01497
#
# Velocity S-wave (km/s) = 3.11097 3.86004 3.50557
# Velocity P-wave (km/s) = 5.96832 7.15386 6.58782
#
# Compressibility (1/GPa) = 0.02079457
#
# Stress axis : x y z
#
# Youngs Moduli (GPa) = 98.28934 63.11455 26.45052
#
# Poissons Ratio (x) = 0.15654 0.18274
# Poissons Ratio (y) = 0.24378 0.32074
# Poissons Ratio (z) = 0.67906 0.76533
#
# Static dielectric constant tensor:
#      x y z
#    x 1.742390 0.010130 0.014090 
#    y 0.010130 1.782740 -0.005870 
#    z 0.014090 -0.005870 1.786350 
# 
# From -- ./inp_files/389927.got.cif
#   From: 2010.05.17/outbox.cif.g08.bks.cpg/sg2_195_cif.got.tgz:389927.got - 2010.06.03 11:33:40.
