data_PCOD9029070
_publ_section_title
;
Structure prediction by ZEFSAII (Michael W. Deem and Ramdas Pophale) SiO2 
 PCOD9029070
Probable space group: P -1
;
_chemical_formula_sum "Si O2"
_cell_formula_units_Z 15
_cell_length_a 9.948737
_cell_length_b 15.592654
_cell_length_c 17.952316
_cell_angle_alpha 24.303263
_cell_angle_beta 145.050378
_cell_angle_gamma 131.014381
_cell_volume 605.978364
_symmetry_space_group_name_H-M "P -1"
_symmetry_group_IT_number 2
_symmetry_cell_setting 'triclinic'
loop_
_space_group_symop_operation_xyz
x,y,z
-x,-y,-z
loop_
_atom_site_type_symbol
_atom_site_label
_atom_site_fract_x
_atom_site_fract_y
_atom_site_fract_z
Si Si1 0.344970 0.596768 0.188035
Si Si2 0.856257 0.219629 0.311599
Si Si3 0.500000 0.000000 0.000000
Si Si4 0.669257 0.780611 0.408272
Si Si5 0.251339 0.981175 0.307815
Si Si6 0.608025 0.828758 0.905651
Si Si7 0.807932 0.426324 0.425903
Si Si8 0.192461 0.316894 0.150974
O O1 0.391138 0.822173 0.049141
O O2 0.325224 0.448246 0.367922
O O3 0.588598 0.450212 0.366153
O O4 0.095491 0.636716 0.991192
O O5 0.591029 0.198665 0.223119
O O6 0.042035 0.228070 0.454401
O O7 0.802579 0.448312 0.060778
O O8 0.000000 0.000000 0.500000
O O9 0.551972 0.844252 0.223784
O O10 0.522078 0.977909 0.245289
O O11 0.087959 0.825579 0.359462
O O12 0.551165 0.816461 0.581631
O O13 0.196900 0.107365 0.104633
O O14 0.202170 0.156456 0.212310
O O15 0.715693 0.597392 0.181151
O O16 0.000000 0.500000 0.500000
#
# Coordination Sequence:
#
# PCOD9029070 Si02
#       8
#     2   2   1   2   2   2   2   2
#     4  11  25  46  71 100 140 188 242 298 356 432
#     4   9  20  40  72 106 140 178 238 296 353 435
#     4  12  24  40  66 100 150 182 238 296 354 434
#     4  10  22  42  66 107 136 184 238 295 360 421
#     4  11  25  46  72 107 149 185 236 310 361 434
#     4  11  22  44  71  98 141 186 239 289 365 430
#     4  12  27  48  70 103 143 194 246 295 365 441
#     4  10  24  46  71 110 147 183 239 302 372 418
#
# _framework density 24.753357999999999
#
# number of rings (size 3 to 8) (size 9 to 14) (size 15 to 20)
#    0.000    1.333    4.000    0.400    3.733    2.667 
#    7.200    0.000    0.000    0.000    0.000    0.000 
#    0.000    0.000    0.000    0.000    0.000    0.000 
#
# Total GULP energy -83706.986046 kJ/mol
# GULP energy per Si atom -5580.465736 kJ/mol
# Density = 2.469702 g / cm^3
# Si number density = 24.753358 Si / 1000 Ang^3
#
#
#
# Elastic Constant Matrix: (Units=GPa)
#
#
# Indices 1 2 3 4 5 6 
#
# 1 42.3112 15.4997 26.1510 5.3081 -12.3611 -5.1903
# 2 15.4997 135.3778 39.1436 -31.7690 -13.0941 -3.3272
# 3 26.1510 39.1436 76.0049 -23.1906 -22.9307 7.0174
# 4 5.3081 -31.7690 -23.1906 49.6098 3.3188 -15.7294
# 5 -12.3611 -13.0941 -22.9307 3.3188 39.4575 -1.1887
# 6 -5.1903 -3.3272 7.0174 -15.7294 -1.1887 13.9358
#
#
#
# Elastic Compliance Matrix: (Units=1/GPa)
#
#
# Indices 1 2 3 4 5 6 
#
# 1 0.036441 -0.001223 -0.014269 -0.007805 0.003735 0.011974
# 2 -0.001223 0.011678 -0.003372 0.011318 0.001090 0.016899
# 3 -0.014269 -0.003372 0.025554 0.007726 0.008324 -0.009557
# 4 -0.007805 0.011318 0.007726 0.047376 0.003312 0.049661
# 5 0.003735 0.001090 0.008324 0.003312 0.031552 0.003889
# 6 0.011974 0.016899 -0.009557 0.049661 0.003889 0.141448
#
#
# Mechanical properties :
#
#
# Convention : Reuss Voigt Hill
#
# Bulk Modulus (GPa) = 27.81882 46.14250 36.98066
# Shear Modulus (GPa) = 14.54513 32.12727 23.33620
#
# Velocity S-wave (km/s) = 2.42668 3.60654 3.07375
# Velocity P-wave (km/s) = 4.37201 6.00202 5.25065
#
# Compressibility (1/GPa) = 0.03594688
#
# Stress axis : x y z
#
# Youngs Moduli (GPa) = 27.44199 85.62766 39.13271
#
# Poissons Ratio (x) = 0.10469 0.55837
# Poissons Ratio (y) = 0.03355 0.13195
# Poissons Ratio (z) = 0.39156 0.28872
#
# Static dielectric constant tensor:
#      x y z
#    x 1.905420 0.103700 0.109710 
#    y 0.103700 1.924680 -0.016030 
#    z 0.109710 -0.016030 2.034500 
# 
# From -- ./inp_files/345886.got.cif
#   From: 2010.05.17/outbox.cif.g08.bks.cpg/sg2_173_cif.got.tgz:345886.got - 2010.06.03 11:33:40.
