data_PCOD9029990
_publ_section_title
;
Structure prediction by ZEFSAII (Michael W. Deem and Ramdas Pophale) SiO2 
 PCOD9029990
Probable space group: P -1
;
_chemical_formula_sum "Si O2"
_cell_formula_units_Z 10
_cell_length_a 9.104066
_cell_length_b 10.751514
_cell_length_c 7.222170
_cell_angle_alpha 44.745532
_cell_angle_beta 54.894130
_cell_angle_gamma 67.634296
_cell_volume 406.640200
_symmetry_space_group_name_H-M "P -1"
_symmetry_group_IT_number 2
_symmetry_cell_setting 'triclinic'
loop_
_space_group_symop_operation_xyz
x,y,z
-x,-y,-z
loop_
_atom_site_type_symbol
_atom_site_label
_atom_site_fract_x
_atom_site_fract_y
_atom_site_fract_z
Si Si1 0.401080 0.004629 0.869804
Si Si2 0.242752 0.709255 0.068382
Si Si3 0.425371 0.631375 0.686290
Si Si4 0.221136 0.505512 0.626230
Si Si5 0.961316 0.872209 0.837740
O O1 0.501359 0.171370 0.525920
O O2 0.195993 0.045253 0.016719
O O3 0.500000 0.000000 0.000000
O O4 0.394050 0.825805 0.948349
O O5 0.127824 0.613970 0.417608
O O6 0.325450 0.571530 0.009606
O O7 0.127045 0.835035 0.891026
O O8 0.277282 0.620924 0.641331
O O9 0.594787 0.544458 0.560279
O O10 0.119016 0.324021 0.952061
O O11 0.000000 0.000000 0.500000
#
# Coordination Sequence:
#
# PCOD9029990 Si02
#       5
#     2   2   2   2   2
#     4  11  22  44  69  96 139 173 226 274 329 401
#     4  12  23  43  72 102 132 177 224 272 339 392
#     4  10  22  42  69 104 130 178 218 278 332 393
#     4  10  23  45  69  97 140 169 228 274 325 402
#     4  11  26  45  66 100 137 180 218 277 338 394
#
# _framework density 24.591763
#
# number of rings (size 3 to 8) (size 9 to 14) (size 15 to 20)
#    0.000    1.200    2.000    3.600    0.000    0.800 
#   10.800    0.000    0.000    0.000    0.000    0.000 
#    0.000    0.000    0.000    0.000    0.000    0.000 
#
# Total GULP energy -55913.188619 kJ/mol
# GULP energy per Si atom -5591.318862 kJ/mol
# Density = 2.453579 g / cm^3
# Si number density = 24.591763 Si / 1000 Ang^3
#
#
#
# Elastic Constant Matrix: (Units=GPa)
#
#
# Indices 1 2 3 4 5 6 
#
# 1 114.2504 38.6547 45.8495 13.3545 17.6997 9.2544
# 2 38.6547 89.5659 44.4809 -3.1971 -5.1374 27.9651
# 3 45.8495 44.4809 173.4707 -8.7240 19.7036 22.4371
# 4 13.3545 -3.1971 -8.7240 46.6732 -1.6930 -2.4034
# 5 17.6997 -5.1374 19.7036 -1.6930 36.6897 4.3129
# 6 9.2544 27.9651 22.4371 -2.4034 4.3129 48.1598
#
#
#
# Elastic Compliance Matrix: (Units=1/GPa)
#
#
# Indices 1 2 3 4 5 6 
#
# 1 0.012770 -0.005900 -0.001611 -0.004490 -0.006574 0.002087
# 2 -0.005900 0.018425 -0.002824 0.002259 0.008089 -0.008861
# 3 -0.001611 -0.002824 0.007535 0.001490 -0.003457 -0.001177
# 4 -0.004490 0.002259 0.001490 0.023232 0.002782 -0.000233
# 5 -0.006574 0.008089 -0.003457 0.002782 0.034101 -0.004738
# 6 0.002087 -0.008861 -0.001177 -0.000233 -0.004738 0.026469
#
#
# Mechanical properties :
#
#
# Convention : Reuss Voigt Hill
#
# Bulk Modulus (GPa) = 55.37596 70.58412 62.98004
# Shear Modulus (GPa) = 33.50690 42.85800 38.18245
#
# Velocity S-wave (km/s) = 3.69524 4.17919 3.94465
# Velocity P-wave (km/s) = 6.38541 7.21472 6.81269
#
# Compressibility (1/GPa) = 0.01805838
#
# Stress axis : x y z
#
# Youngs Moduli (GPa) = 78.31074 54.27383 132.72189
#
# Poissons Ratio (x) = 0.32021 0.21387
# Poissons Ratio (y) = 0.46203 0.37482
# Poissons Ratio (z) = 0.12619 0.15328
#
# Static dielectric constant tensor:
#      x y z
#    x 2.000520 -0.077700 0.022170 
#    y -0.077700 1.952710 -0.034010 
#    z 0.022170 -0.034010 2.013440 
# 
# From -- ./inp_files/15264.got.cif
#   From: 2010.05.17/outbox.cif.g08.bks.cpg/sg2_8_cif.got.tgz:15264.got - 2010.06.03 11:33:40.
