data_PCOD9029147
_publ_section_title
;
Structure prediction by ZEFSAII (Michael W. Deem and Ramdas Pophale) SiO2 
 PCOD9029147
Probable space group: P -1
;
_chemical_formula_sum "Si O2"
_cell_formula_units_Z 10
_cell_length_a 5.320977
_cell_length_b 4.944733
_cell_length_c 14.622013
_cell_angle_alpha 114.792278
_cell_angle_beta 97.254456
_cell_angle_gamma 89.778008
_cell_volume 345.948574
_symmetry_space_group_name_H-M "P -1"
_symmetry_group_IT_number 2
_symmetry_cell_setting 'triclinic'
loop_
_space_group_symop_operation_xyz
x,y,z
-x,-y,-z
loop_
_atom_site_type_symbol
_atom_site_label
_atom_site_fract_x
_atom_site_fract_y
_atom_site_fract_z
Si Si1 0.300992 0.310302 0.573162
Si Si2 0.680380 0.840933 0.825726
Si Si3 0.234919 0.633842 0.973919
Si Si4 0.633764 0.723109 0.227810
Si Si5 0.824140 0.711096 0.625955
O O1 0.287457 0.165283 0.652313
O O2 0.571460 0.491522 0.598364
O O3 0.242586 0.130024 0.450848
O O4 0.074601 0.534845 0.599426
O O5 0.748901 0.020767 0.946482
O O6 0.433559 0.004388 0.800059
O O7 0.614529 0.498437 0.796375
O O8 0.850624 0.881571 0.747972
O O9 0.500000 0.500000 0.000000
O O10 0.201595 0.512369 0.852222
O O11 0.000000 0.500000 0.000000
#
# Coordination Sequence:
#
# PCOD9029147 Si02
#       5
#     2   2   2   2   2
#     4   9  19  37  61  90 124 162 205 254 308 367
#     4  10  22  42  66  94 128 166 210 258 312 372
#     4  10  23  42  64  92 126 164 208 258 312 370
#     4  10  22  42  66  94 128 166 210 258 312 372
#     4   9  19  37  61  90 124 162 205 254 308 367
#
# _framework density 28.906029
#
# number of rings (size 3 to 8) (size 9 to 14) (size 15 to 20)
#    0.000    2.400    0.000    0.600    0.000   13.600 
#    0.000    9.000    0.000   22.800    0.000    0.000 
#    0.000    0.000    0.000    0.000    0.000    0.000 
#
# Total GULP energy -55996.968770 kJ/mol
# GULP energy per Si atom -5599.696877 kJ/mol
# Density = 2.884024 g / cm^3
# Si number density = 28.906029 Si / 1000 Ang^3
#
#
#
# Elastic Constant Matrix: (Units=GPa)
#
#
# Indices 1 2 3 4 5 6 
#
# 1 150.0403 46.5282 56.5033 6.2170 11.5206 4.2354
# 2 46.5282 102.4121 43.2336 -4.3239 5.7895 -2.6944
# 3 56.5033 43.2336 176.5432 -17.5339 -33.6223 -8.2612
# 4 6.2170 -4.3239 -17.5339 48.8552 -5.4589 -1.6296
# 5 11.5206 5.7895 -33.6223 -5.4589 47.2068 0.4175
# 6 4.2354 -2.6944 -8.2612 -1.6296 0.4175 23.5787
#
#
#
# Elastic Compliance Matrix: (Units=1/GPa)
#
#
# Indices 1 2 3 4 5 6 
#
# 1 0.009624 -0.002657 -0.003945 -0.003577 -0.005215 -0.003569
# 2 -0.002657 0.012254 -0.002590 0.000228 -0.002682 0.001033
# 3 -0.003945 -0.002590 0.009941 0.004971 0.008899 0.004081
# 4 -0.003577 0.000228 0.004971 0.023651 0.007086 0.003919
# 5 -0.005215 -0.002682 0.008899 0.007086 0.029910 0.003708
# 6 -0.003569 0.001033 0.004081 0.003919 0.003708 0.044806
#
#
# Mechanical properties :
#
#
# Convention : Reuss Voigt Hill
#
# Bulk Modulus (GPa) = 74.43882 80.16953 77.30418
# Shear Modulus (GPa) = 32.66986 42.77684 37.72335
#
# Velocity S-wave (km/s) = 3.36551 3.85107 3.61644
# Velocity P-wave (km/s) = 6.39610 6.89703 6.65128
#
# Compressibility (1/GPa) = 0.01343385
#
# Stress axis : x y z
#
# Youngs Moduli (GPa) = 103.90880 81.60925 100.59639
#
# Poissons Ratio (x) = 0.21685 0.39684
# Poissons Ratio (y) = 0.27610 0.26055
# Poissons Ratio (z) = 0.40990 0.21138
#
# Static dielectric constant tensor:
#      x y z
#    x 2.231010 -0.009920 0.026830 
#    y -0.009920 2.178800 0.021090 
#    z 0.026830 0.021090 2.437660 
# 
# From -- ./inp_files/2757.got.cif
#   From: 2010.05.17/outbox.cif.g08.bks.cpg/sg2_2_cif.got.tgz:2757.got - 2010.06.03 11:33:40.
