data_PCOD9029632
_publ_section_title
;
Structure prediction by ZEFSAII (Michael W. Deem and Ramdas Pophale) SiO2 
 PCOD9029632
Probable space group: P -1
;
_chemical_formula_sum "Si O2"
_cell_formula_units_Z 14
_cell_length_a 18.635405
_cell_length_b 4.790748
_cell_length_c 9.675933
_cell_angle_alpha 74.354510
_cell_angle_beta 138.494316
_cell_angle_gamma 115.407885
_cell_volume 515.165949
_symmetry_space_group_name_H-M "P -1"
_symmetry_group_IT_number 2
_symmetry_cell_setting 'triclinic'
loop_
_space_group_symop_operation_xyz
x,y,z
-x,-y,-z
loop_
_atom_site_type_symbol
_atom_site_label
_atom_site_fract_x
_atom_site_fract_y
_atom_site_fract_z
Si Si1 0.266581 0.012752 0.148840
Si Si2 0.193301 0.827253 0.765476
Si Si3 0.543712 0.402597 0.752971
Si Si4 0.973900 0.902229 0.134269
Si Si5 0.963898 0.682894 0.587830
Si Si6 0.378271 0.729380 0.560789
Si Si7 0.635995 0.191830 0.162051
O O1 0.379231 0.328737 0.272341
O O2 0.286801 0.771288 0.316540
O O3 0.153550 0.093134 0.013363
O O4 0.253071 0.864477 0.996058
O O5 0.136952 0.510800 0.636385
O O6 0.076853 0.884166 0.632743
O O7 0.292127 0.003326 0.774939
O O8 0.490980 0.050236 0.672717
O O9 0.632247 0.426093 0.003843
O O10 0.990382 0.582525 0.241967
O O11 0.057681 0.151507 0.328624
O O12 0.000000 0.000000 0.000000
O O13 0.328527 0.699743 0.647258
O O14 0.432248 0.471792 0.638098
O O15 0.500000 0.000000 0.000000
#
# Coordination Sequence:
#
# PCOD9029632 Si02
#       7
#     2   2   2   2   2   2   2
#     4  11  24  43  73 103 138 187 230 288 348 409
#     4  10  23  44  73  98 140 182 236 276 341 418
#     4  11  23  44  67 100 141 186 234 278 338 425
#     4  11  25  45  71 102 142 169 231 289 350 402
#     4  10  24  46  70 101 131 189 229 280 337 417
#     4  11  25  42  67 104 141 179 232 287 346 402
#     4  10  22  42  68 100 140 183 228 283 343 411
#
# _framework density 27.175709000000001
#
# number of rings (size 3 to 8) (size 9 to 14) (size 15 to 20)
#    0.000    1.429    0.000    4.286    2.000   12.000 
#    2.571    0.000    0.000    0.000    0.000    0.000 
#    0.000    0.000    0.000    0.000    0.000    0.000 
#
# Total GULP energy -78407.241637 kJ/mol
# GULP energy per Si atom -5600.517260 kJ/mol
# Density = 2.711386 g / cm^3
# Si number density = 27.175709 Si / 1000 Ang^3
#
#
#
# Elastic Constant Matrix: (Units=GPa)
#
#
# Indices 1 2 3 4 5 6 
#
# 1 165.4902 13.8580 53.7698 -2.5369 -22.6850 1.3772
# 2 13.8580 53.5660 -1.6191 19.1618 -11.3797 -13.0751
# 3 53.7698 -1.6191 141.3273 -9.4115 -27.4647 1.6926
# 4 -2.5369 19.1618 -9.4115 43.7238 -3.8759 -4.7565
# 5 -22.6850 -11.3797 -27.4647 -3.8759 63.5836 -3.8808
# 6 1.3772 -13.0751 1.6926 -4.7565 -3.8808 34.5223
#
#
#
# Elastic Compliance Matrix: (Units=1/GPa)
#
#
# Indices 1 2 3 4 5 6 
#
# 1 0.007205 -0.002195 -0.002484 0.000862 0.001111 -0.000753
# 2 -0.002195 0.025908 0.001208 -0.009863 0.004321 0.008968
# 3 -0.002484 0.001208 0.008764 0.001579 0.003255 0.000710
# 4 0.000862 -0.009863 0.001579 0.027672 0.000915 0.000068
# 5 0.001111 0.004321 0.003255 0.000915 0.018582 0.003648
# 6 -0.000753 0.008968 0.000710 0.000068 0.003648 0.032778
#
#
# Mechanical properties :
#
#
# Convention : Reuss Voigt Hill
#
# Bulk Modulus (GPa) = 28.62548 54.71121 41.66835
# Shear Modulus (GPa) = 35.84296 47.99093 41.91694
#
# Velocity S-wave (km/s) = 3.63565 4.20688 3.93165
# Velocity P-wave (km/s) = 5.30851 6.61613 5.99806
#
# Compressibility (1/GPa) = 0.03493391
#
# Stress axis : x y z
#
# Youngs Moduli (GPa) = 138.78385 38.59766 114.10403
#
# Poissons Ratio (x) = 0.08474 0.28345
# Poissons Ratio (y) = 0.30468 -0.13780
# Poissons Ratio (z) = 0.34476 -0.04661
#
# Static dielectric constant tensor:
#      x y z
#    x 2.116750 0.003760 0.052660 
#    y 0.003760 2.232570 -0.113970 
#    z 0.052660 -0.113970 2.311670 
# 
# From -- ./inp_files/340356.got.cif
#   From: 2010.05.17/outbox.cif.g08.bks.cpg/sg2_171_cif.got.tgz:340356.got - 2010.06.03 11:33:40.
