data_PCOD9029182
_publ_section_title
;
Structure prediction by ZEFSAII (Michael W. Deem and Ramdas Pophale) SiO2 
 PCOD9029182
Probable space group: P -1
;
_chemical_formula_sum "Si O2"
_cell_formula_units_Z 16
_cell_length_a 15.538963
_cell_length_b 5.165428
_cell_length_c 25.144615
_cell_angle_alpha 75.274672
_cell_angle_beta 20.389232
_cell_angle_gamma 74.629932
_cell_volume 677.899653
_symmetry_space_group_name_H-M "P -1"
_symmetry_group_IT_number 2
_symmetry_cell_setting 'triclinic'
loop_
_space_group_symop_operation_xyz
x,y,z
-x,-y,-z
loop_
_atom_site_type_symbol
_atom_site_label
_atom_site_fract_x
_atom_site_fract_y
_atom_site_fract_z
Si Si1 0.976637 0.248786 0.639097
Si Si2 0.604075 0.627098 0.199594
Si Si3 0.449586 0.890976 0.381327
Si Si4 0.917824 0.140084 0.095568
Si Si5 0.471948 0.990631 0.124046
Si Si6 0.068709 0.814141 0.212185
Si Si7 0.747179 0.371301 0.391782
Si Si8 0.383514 0.431636 0.233955
O O1 0.894568 0.308481 0.743616
O O2 0.890881 0.472123 0.633568
O O3 0.812302 0.999505 0.732253
O O4 0.262446 0.155168 0.479329
O O5 0.464571 0.815277 0.314408
O O6 0.753305 0.408083 0.161688
O O7 0.441650 0.480628 0.258862
O O8 0.826416 0.772870 0.033521
O O9 0.334333 0.677579 0.497336
O O10 0.721625 0.948792 0.243241
O O11 0.000000 0.000000 0.000000
O O12 0.458230 0.145774 0.180118
O O13 0.530483 0.669102 0.109609
O O14 0.670474 0.114425 0.965825
O O15 0.946323 0.589425 0.261214
O O16 0.876257 0.082736 0.312879
O O17 0.500000 0.500000 0.500000
#
# Coordination Sequence:
#
# PCOD9029182 Si02
#       8
#     2   2   2   2   2   2   2   2
#     4   9  24  40  68  97 133 173 222 266 329 394
#     4  10  22  42  66  95 131 173 221 270 326 395
#     4  10  23  42  68  92 133 176 210 273 334 391
#     4   9  21  41  64  92 123 176 221 264 328 393
#     4  10  23  42  63  99 130 175 216 274 320 383
#     4  11  23  44  70  94 137 175 216 271 333 391
#     4  11  26  45  67 103 132 171 225 269 327 396
#     4  10  24  39  66  99 135 165 229 269 319 385
#
# _framework density 23.602312000000001
#
# number of rings (size 3 to 8) (size 9 to 14) (size 15 to 20)
#    0.750    1.250    0.000    1.500   10.500    2.000 
#   11.250    1.250    0.000    0.000    0.000    0.000 
#    0.000    0.000    0.000    0.000    0.000    0.000 
#
# Total GULP energy -89274.104104 kJ/mol
# GULP energy per Si atom -5579.631506 kJ/mol
# Density = 2.354859 g / cm^3
# Si number density = 23.602312 Si / 1000 Ang^3
#
#
#
# Elastic Constant Matrix: (Units=GPa)
#
#
# Indices 1 2 3 4 5 6 
#
# 1 75.3617 -1.3539 8.0345 10.7279 -18.0385 -2.4195
# 2 -1.3539 75.5066 11.6292 -4.6163 -14.4356 5.3088
# 3 8.0345 11.6292 104.0404 -10.9072 1.1573 -2.5515
# 4 10.7279 -4.6163 -10.9072 35.2347 0.3564 -3.2678
# 5 -18.0385 -14.4356 1.1573 0.3564 21.4120 1.9771
# 6 -2.4195 5.3088 -2.5515 -3.2678 1.9771 25.3877
#
#
#
# Elastic Compliance Matrix: (Units=1/GPa)
#
#
# Indices 1 2 3 4 5 6 
#
# 1 0.019181 0.004224 -0.002897 -0.006537 0.019429 -0.001701
# 2 0.004224 0.016998 -0.002561 -0.000444 0.015597 -0.004681
# 3 -0.002897 -0.002561 0.010663 0.004107 -0.005019 0.002251
# 4 -0.006537 -0.000444 0.004107 0.032078 -0.006983 0.004555
# 5 0.019429 0.015597 -0.005019 -0.006983 0.074771 -0.008636
# 6 -0.001701 -0.004681 0.002251 0.004555 -0.008636 0.041691
#
#
# Mechanical properties :
#
#
# Convention : Reuss Voigt Hill
#
# Bulk Modulus (GPa) = 22.53502 32.39202 27.46352
# Shear Modulus (GPa) = 23.51403 32.18014 27.84709
#
# Velocity S-wave (km/s) = 3.15978 3.69647 3.43861
# Velocity P-wave (km/s) = 4.78339 5.65442 5.23704
#
# Compressibility (1/GPa) = 0.04437537
#
# Stress axis : x y z
#
# Youngs Moduli (GPa) = 52.13606 58.83103 93.78079
#
# Poissons Ratio (x) = -0.24853 0.27165
# Poissons Ratio (y) = -0.22025 0.24017
# Poissons Ratio (z) = 0.15102 0.15067
#
# Static dielectric constant tensor:
#      x y z
#    x 1.898120 -0.065110 -0.033890 
#    y -0.065110 1.708570 -0.126460 
#    z -0.033890 -0.126460 1.848100 
# 
# From -- ./inp_files/611269.got.cif
#   From: 2010.05.17/outbox.cif.g08.bks.cpg/sg2_306_cif.got.tgz:611269.got - 2010.06.03 11:33:40.
