data_PCOD9029575
_publ_section_title
;
Structure prediction by ZEFSAII (Michael W. Deem and Ramdas Pophale) SiO2 
 PCOD9029575
Probable space group: P -1
;
_chemical_formula_sum "Si O2"
_cell_formula_units_Z 16
_cell_length_a 23.112258
_cell_length_b 17.306697
_cell_length_c 14.451572
_cell_angle_alpha 30.250918
_cell_angle_beta 21.251922
_cell_angle_gamma 21.486585
_cell_volume 767.216319
_symmetry_space_group_name_H-M "P -1"
_symmetry_group_IT_number 2
_symmetry_cell_setting 'triclinic'
loop_
_space_group_symop_operation_xyz
x,y,z
-x,-y,-z
loop_
_atom_site_type_symbol
_atom_site_label
_atom_site_fract_x
_atom_site_fract_y
_atom_site_fract_z
Si Si1 0.497674 0.936454 0.172753
Si Si2 0.954241 0.006605 0.802771
Si Si3 0.599035 0.488621 0.641567
Si Si4 0.644734 0.132669 0.989715
Si Si5 0.906173 0.851924 0.714315
Si Si6 0.811647 0.071816 0.134551
Si Si7 0.784854 0.750926 0.560201
Si Si8 0.406521 0.637337 0.587964
O O1 0.466914 0.775146 0.373009
O O2 0.309812 0.133355 0.316635
O O3 0.732541 0.833060 0.970832
O O4 0.500000 0.000000 0.000000
O O5 0.803175 0.990041 0.986846
O O6 0.054771 0.063402 0.521353
O O7 0.823459 0.153117 0.935244
O O8 0.150449 0.799419 0.781615
O O9 0.588755 0.347562 0.868138
O O10 0.430883 0.730103 0.671201
O O11 0.504927 0.489728 0.683046
O O12 0.853945 0.364991 0.388043
O O13 0.796329 0.017396 0.791454
O O14 0.421393 0.192559 0.241340
O O15 0.832686 0.875279 0.305254
O O16 0.000000 0.000000 0.000000
O O17 0.000000 0.500000 0.500000
O O18 0.500000 0.500000 0.500000
#
# Coordination Sequence:
#
# PCOD9029575 Si02
#       8
#     2   2   2   2   2   2   2   2
#     4  11  23  43  67  98 135 169 225 277 329 398
#     4  11  22  41  66  93 133 175 221 270 326 402
#     4  11  22  41  65  97 131 176 216 273 329 392
#     4  10  23  43  67  96 134 171 222 274 332 390
#     4  10  22  42  67  98 132 171 219 277 334 390
#     4  12  24  43  65  95 135 175 225 272 326 398
#     4  11  25  46  68  95 137 181 219 275 339 398
#     4  12  23  38  66  99 129 171 218 271 335 392
#
# _framework density 20.854614000000002
#
# number of rings (size 3 to 8) (size 9 to 14) (size 15 to 20)
#    0.000    1.000    3.750    3.750    1.750    3.000 
#    4.500    0.000    0.000    0.000    0.000    0.000 
#    0.000    0.000    0.000    0.000    0.000    0.000 
#
# Total GULP energy -89237.795784 kJ/mol
# GULP energy per Si atom -5577.362237 kJ/mol
# Density = 2.080715 g / cm^3
# Si number density = 20.854614 Si / 1000 Ang^3
#
#
#
# Elastic Constant Matrix: (Units=GPa)
#
#
# Indices 1 2 3 4 5 6 
#
# 1 127.1583 36.0237 52.0253 18.7883 -5.2006 -10.1986
# 2 36.0237 112.2125 54.3334 24.3533 -17.5594 1.5772
# 3 52.0253 54.3334 115.1617 20.6346 -17.2402 -4.5204
# 4 18.7883 24.3533 20.6346 31.9350 -3.0469 -6.9607
# 5 -5.2006 -17.5594 -17.2402 -3.0469 48.9785 4.4098
# 6 -10.1986 1.5772 -4.5204 -6.9607 4.4098 34.7618
#
#
#
# Elastic Compliance Matrix: (Units=1/GPa)
#
#
# Indices 1 2 3 4 5 6 
#
# 1 0.010188 -0.001159 -0.003698 -0.002331 -0.000980 0.002218
# 2 -0.001159 0.013411 -0.004171 -0.007286 0.003064 -0.003338
# 3 -0.003698 -0.004171 0.013239 -0.002972 0.002596 -0.000099
# 4 -0.002331 -0.007286 -0.002972 0.041682 -0.002021 0.007863
# 5 -0.000980 0.003064 0.002596 -0.002021 0.022501 -0.003348
# 6 0.002218 -0.003338 -0.000099 0.007863 -0.003348 0.031556
#
#
# Mechanical properties :
#
#
# Convention : Reuss Voigt Hill
#
# Bulk Modulus (GPa) = 53.23925 71.03304 62.13614
# Shear Modulus (GPa) = 31.86918 37.27839 34.57378
#
# Velocity S-wave (km/s) = 3.91341 4.23251 4.07609
# Velocity P-wave (km/s) = 6.78262 7.61712 7.21195
#
# Compressibility (1/GPa) = 0.01878314
#
# Stress axis : x y z
#
# Youngs Moduli (GPa) = 98.15906 74.56755 75.53517
#
# Poissons Ratio (x) = 0.08641 0.27930
# Poissons Ratio (y) = 0.11375 0.31502
# Poissons Ratio (z) = 0.36295 0.31099
#
# Static dielectric constant tensor:
#      x y z
#    x 3.064760 0.930030 1.759010 
#    y 0.930030 3.874980 2.315250 
#    z 1.759010 2.315250 4.891850 
# 
# From -- ./inp_files/543137.got.cif
#   From: 2010.05.17/outbox.cif.g08.bks.cpg/sg2_272_cif.got.tgz:543137.got - 2010.06.03 11:33:40.
