data_PCOD9029324
_publ_section_title
;
Structure prediction by ZEFSAII (Michael W. Deem and Ramdas Pophale) SiO2 
 PCOD9029324
Probable space group: P -1
;
_chemical_formula_sum "Si O2"
_cell_formula_units_Z 12
_cell_length_a 14.395050
_cell_length_b 7.744454
_cell_length_c 15.254343
_cell_angle_alpha 84.282207
_cell_angle_beta 19.335541
_cell_angle_gamma 92.544078
_cell_volume 508.428768
_symmetry_space_group_name_H-M "P -1"
_symmetry_group_IT_number 2
_symmetry_cell_setting 'triclinic'
loop_
_space_group_symop_operation_xyz
x,y,z
-x,-y,-z
loop_
_atom_site_type_symbol
_atom_site_label
_atom_site_fract_x
_atom_site_fract_y
_atom_site_fract_z
Si Si1 0.700261 0.477082 0.518144
Si Si2 0.795795 0.617282 0.171588
Si Si3 0.031652 0.879217 0.102874
Si Si4 0.312783 0.615927 0.269767
Si Si5 0.764154 0.095224 0.446623
Si Si6 0.982523 0.863269 0.601954
O O1 0.358440 0.392293 0.784443
O O2 0.682495 0.488940 0.638344
O O3 0.895589 0.683483 0.291520
O O4 0.829273 0.319308 0.384627
O O5 0.500000 0.500000 0.500000
O O6 0.964163 0.810765 0.065865
O O7 0.000000 0.500000 0.000000
O O8 0.864328 0.010635 0.277566
O O9 0.396062 0.985074 0.787732
O O10 0.000000 0.500000 0.500000
O O11 0.254281 0.797109 0.344152
O O12 0.637726 0.691860 0.925663
O O13 0.938986 0.050532 0.375009
O O14 0.000000 0.000000 0.500000
#
# Coordination Sequence:
#
# PCOD9029324 Si02
#       6
#     2   2   2   2   2   2
#     4  10  25  45  69  97 149 173 229 305 329 410
#     4  10  22  42  67 102 135 181 230 279 349 406
#     4  11  24  42  70  99 136 186 233 276 349 420
#     4  11  25  43  69 103 129 184 233 272 362 410
#     4  11  25  42  67 103 133 183 237 272 359 409
#     4  11  25  44  67  96 143 173 226 300 336 404
#
# _framework density 23.602129000000001
#
# number of rings (size 3 to 8) (size 9 to 14) (size 15 to 20)
#    0.000    1.333    0.000    5.000    4.667   13.333 
#    0.000    0.000    0.000    0.000    0.000    0.000 
#    0.000    0.000    0.000    0.000    0.000    0.000 
#
# Total GULP energy -67129.952297 kJ/mol
# GULP energy per Si atom -5594.162691 kJ/mol
# Density = 2.354841 g / cm^3
# Si number density = 23.602129 Si / 1000 Ang^3
#
#
#
# Elastic Constant Matrix: (Units=GPa)
#
#
# Indices 1 2 3 4 5 6 
#
# 1 163.1333 16.5296 36.6153 -6.3748 -6.1780 6.7023
# 2 16.5296 103.1192 45.1033 5.3025 10.0289 2.8531
# 3 36.6153 45.1033 154.1187 0.2836 -5.7270 -6.7222
# 4 -6.3748 5.3025 0.2836 49.1644 -1.4274 -1.5790
# 5 -6.1780 10.0289 -5.7270 -1.4274 38.5009 -7.5679
# 6 6.7023 2.8531 -6.7222 -1.5790 -7.5679 37.0319
#
#
#
# Elastic Compliance Matrix: (Units=1/GPa)
#
#
# Indices 1 2 3 4 5 6 
#
# 1 0.006622 -0.000516 -0.001449 0.000906 0.000774 -0.001225
# 2 -0.000516 0.011928 -0.003629 -0.001534 -0.004262 -0.002421
# 3 -0.001449 -0.003629 0.008094 0.000308 0.002424 0.002520
# 4 0.000906 -0.001534 0.000308 0.020707 0.001598 0.001220
# 5 0.000774 -0.004262 0.002424 0.001598 0.028927 0.006608
# 6 -0.001225 -0.002421 0.002520 0.001220 0.006608 0.029272
#
#
# Mechanical properties :
#
#
# Convention : Reuss Voigt Hill
#
# Bulk Modulus (GPa) = 64.69650 68.54083 66.61867
# Shear Modulus (GPa) = 41.02060 46.41429 43.71744
#
# Velocity S-wave (km/s) = 4.17346 4.43937 4.30847
# Velocity P-wave (km/s) = 7.12001 7.44181 7.28268
#
# Compressibility (1/GPa) = 0.01545679
#
# Stress axis : x y z
#
# Youngs Moduli (GPa) = 151.00183 83.83578 123.54496
#
# Poissons Ratio (x) = 0.04325 0.17898
# Poissons Ratio (y) = 0.07790 0.44839
# Poissons Ratio (z) = 0.21875 0.30427
#
# Static dielectric constant tensor:
#      x y z
#    x 2.026840 0.042240 0.069890 
#    y 0.042240 1.920530 -0.005120 
#    z 0.069890 -0.005120 1.857710 
# 
# From -- ./inp_files/528556.got.cif
#   From: 2010.05.17/outbox.cif.g08.bks.cpg/sg2_265_cif.got.tgz:528556.got - 2010.06.03 11:33:40.
