data_PCOD9029453
_publ_section_title
;
Structure prediction by ZEFSAII (Michael W. Deem and Ramdas Pophale) SiO2 
 PCOD9029453
Probable space group: P -1
;
_chemical_formula_sum "Si O2"
_cell_formula_units_Z 14
_cell_length_a 7.662170
_cell_length_b 16.884908
_cell_length_c 8.229984
_cell_angle_alpha 115.257739
_cell_angle_beta 35.668141
_cell_angle_gamma 103.731788
_cell_volume 549.306594
_symmetry_space_group_name_H-M "P -1"
_symmetry_group_IT_number 2
_symmetry_cell_setting 'triclinic'
loop_
_space_group_symop_operation_xyz
x,y,z
-x,-y,-z
loop_
_atom_site_type_symbol
_atom_site_label
_atom_site_fract_x
_atom_site_fract_y
_atom_site_fract_z
Si Si1 0.090131 0.804103 0.670494
Si Si2 0.551466 0.546423 0.833116
Si Si3 0.780067 0.744096 0.150334
Si Si4 0.952586 0.981916 0.769387
Si Si5 0.286774 0.418475 0.737117
Si Si6 0.096691 0.341299 0.512219
Si Si7 0.695582 0.906499 0.582338
O O1 0.451502 0.777727 0.341372
O O2 0.992822 0.910498 0.820776
O O3 0.900641 0.755387 0.645972
O O4 0.033902 0.762610 0.850513
O O5 0.552473 0.468914 0.631351
O O6 0.829908 0.595039 0.633754
O O7 0.500000 0.500000 0.000000
O O8 0.240070 0.622744 0.127864
O O9 0.786710 0.644692 0.118903
O O10 0.780366 0.807452 0.361900
O O11 0.889191 0.925749 0.608259
O O12 0.234484 0.026685 0.552922
O O13 0.658646 0.061632 0.078768
O O14 0.330027 0.358262 0.490137
O O15 0.000000 0.500000 0.000000
#
# Coordination Sequence:
#
# PCOD9029453 Si02
#       7
#     2   2   2   2   2   2   2
#     4  12  25  41  64  95 131 168 207 261 317 374
#     4  11  22  39  63  89 121 156 203 260 315 368
#     4  12  26  42  64  95 129 165 214 264 318 372
#     4  10  22  42  67  95 129 169 210 252 315 375
#     4  10  24  44  66  92 124 168 216 263 317 378
#     4  11  23  40  61  87 121 162 206 251 309 372
#     4  10  22  42  67  95 128 168 211 257 305 380
#
# _framework density 25.48668
#
# number of rings (size 3 to 8) (size 9 to 14) (size 15 to 20)
#    0.000    1.143    0.000    6.000    0.000    9.143 
#    0.000    8.571    0.000    0.000    0.000    0.000 
#    0.000    0.000    0.000    0.000    0.000    0.000 
#
# Total GULP energy -78438.388872 kJ/mol
# GULP energy per Si atom -5602.742062 kJ/mol
# Density = 2.542867 g / cm^3
# Si number density = 25.486680 Si / 1000 Ang^3
#
#
#
# Elastic Constant Matrix: (Units=GPa)
#
#
# Indices 1 2 3 4 5 6 
#
# 1 38.6270 2.2812 -4.3430 4.5107 9.6922 13.0171
# 2 2.2812 130.3213 18.7416 1.0160 1.0552 -2.8835
# 3 -4.3430 18.7416 79.7653 -14.4223 4.8028 12.1791
# 4 4.5107 1.0160 -14.4223 37.5039 4.4698 5.9543
# 5 9.6922 1.0552 4.8028 4.4698 30.8091 3.5587
# 6 13.0171 -2.8835 12.1791 5.9543 3.5587 46.1181
#
#
#
# Elastic Compliance Matrix: (Units=1/GPa)
#
#
# Indices 1 2 3 4 5 6 
#
# 1 0.032011 -0.001295 0.004164 0.000448 -0.009639 -0.009530
# 2 -0.001295 0.008099 -0.002505 -0.001354 0.000524 0.001668
# 3 0.004164 -0.002505 0.015810 0.007096 -0.004012 -0.006114
# 4 0.000448 -0.001354 0.007096 0.030876 -0.005024 -0.005684
# 5 -0.009639 0.000524 -0.004012 -0.005024 0.036638 0.001634
# 6 -0.009530 0.001668 -0.006114 -0.005684 0.001634 0.026700
#
#
# Mechanical properties :
#
#
# Convention : Reuss Voigt Hill
#
# Bulk Modulus (GPa) = 17.65284 31.34148 24.49716
# Shear Modulus (GPa) = 29.71063 38.35515 34.03289
#
# Velocity S-wave (km/s) = 3.41799 3.88353 3.65817
# Velocity P-wave (km/s) = 4.74533 5.69499 5.24171
#
# Compressibility (1/GPa) = 0.05664809
#
# Stress axis : x y z
#
# Youngs Moduli (GPa) = 31.23908 123.46556 63.25123
#
# Poissons Ratio (x) = 0.15994 -0.26337
# Poissons Ratio (y) = 0.04047 0.15842
# Poissons Ratio (z) = -0.13007 0.30924
#
# Static dielectric constant tensor:
#      x y z
#    x 2.099790 -0.026660 0.051940 
#    y -0.026660 1.952550 0.020790 
#    z 0.051940 0.020790 1.946960 
# 
# From -- ./inp_files/41477.got.cif
#   From: 2010.05.17/outbox.cif.g08.bks.cpg/sg2_21_cif.got.tgz:41477.got - 2010.06.03 11:33:40.
