data_PCOD9029271
_publ_section_title
;
Structure prediction by ZEFSAII (Michael W. Deem and Ramdas Pophale) SiO2 
 PCOD9029271
Probable space group: P -1
;
_chemical_formula_sum "Si O2"
_cell_formula_units_Z 11
_cell_length_a 10.559610
_cell_length_b 10.631391
_cell_length_c 8.127818
_cell_angle_alpha 92.006657
_cell_angle_beta 115.717253
_cell_angle_gamma 135.096673
_cell_volume 489.051564
_symmetry_space_group_name_H-M "P -1"
_symmetry_group_IT_number 2
_symmetry_cell_setting 'triclinic'
loop_
_space_group_symop_operation_xyz
x,y,z
-x,-y,-z
loop_
_atom_site_type_symbol
_atom_site_label
_atom_site_fract_x
_atom_site_fract_y
_atom_site_fract_z
Si Si1 0.403085 0.565364 0.503738
Si Si2 0.000000 0.500000 0.500000
Si Si3 0.750535 0.938053 0.492266
Si Si4 0.054071 0.640772 0.895962
Si Si5 0.281774 0.344176 0.746082
Si Si6 0.467398 0.964095 0.674615
O O1 0.500000 0.500000 0.500000
O O2 0.612770 0.809895 0.578577
O O3 0.318717 0.482807 0.640221
O O4 0.174451 0.436738 0.262719
O O5 0.902381 0.394022 0.254748
O O6 0.740782 0.281302 0.421923
O O7 0.730415 0.796729 0.366205
O O8 0.627501 0.964329 0.328912
O O9 0.025263 0.172327 0.678081
O O10 0.000000 0.500000 0.000000
O O11 0.286657 0.882926 0.091482
O O12 0.500000 0.500000 0.000000
O O13 0.500000 0.000000 0.500000
#
# Coordination Sequence:
#
# PCOD9029271 Si02
#       6
#     2   1   2   2   2   2
#     4  10  22  44  67  97 138 179 226 289 358 418
#     4  12  26  44  72 106 144 194 240 298 366 422
#     4  10  22  42  66  98 139 175 233 295 345 426
#     4  12  24  47  74 105 143 188 243 302 360 438
#     4  10  23  42  69 100 136 182 234 288 359 432
#     4  12  25  44  71 105 145 192 242 298 361 429
#
# _framework density 22.492515000000001
#
# number of rings (size 3 to 8) (size 9 to 14) (size 15 to 20)
#    0.000    1.091    3.636    1.636    0.000    6.545 
#    0.000   12.727    0.000    0.000    0.000    0.000 
#    0.000    0.000    0.000    0.000    0.000    0.000 
#
# Total GULP energy -61293.520314 kJ/mol
# GULP energy per Si atom -5572.138210 kJ/mol
# Density = 2.244132 g / cm^3
# Si number density = 22.492515 Si / 1000 Ang^3
#
#
#
# Elastic Constant Matrix: (Units=GPa)
#
#
# Indices 1 2 3 4 5 6 
#
# 1 57.4320 45.6513 37.0229 -0.4142 18.0902 5.8289
# 2 45.6513 160.2059 98.1201 27.9550 25.6323 32.7336
# 3 37.0229 98.1201 194.8853 15.3463 20.3670 26.5157
# 4 -0.4142 27.9550 15.3463 44.2949 3.8826 13.7812
# 5 18.0902 25.6323 20.3670 3.8826 47.0144 -2.9647
# 6 5.8289 32.7336 26.5157 13.7812 -2.9647 53.8335
#
#
#
# Elastic Compliance Matrix: (Units=1/GPa)
#
#
# Indices 1 2 3 4 5 6 
#
# 1 0.025272 -0.006283 -0.001425 0.005193 -0.006103 0.000121
# 2 -0.006283 0.012522 -0.003920 -0.005197 -0.002523 -0.003812
# 3 -0.001425 -0.003920 0.007607 0.000300 -0.000719 -0.001326
# 4 0.005193 -0.005197 0.000300 0.027416 -0.001854 -0.004671
# 5 -0.006103 -0.002523 -0.000719 -0.001854 0.025738 0.004441
# 6 0.000121 -0.003812 -0.001326 -0.004671 0.004441 0.022974
#
#
# Mechanical properties :
#
#
# Convention : Reuss Voigt Hill
#
# Bulk Modulus (GPa) = 45.15438 86.01243 65.58340
# Shear Modulus (GPa) = 32.85874 44.47716 38.66795
#
# Velocity S-wave (km/s) = 3.82629 4.45164 4.15076
# Velocity P-wave (km/s) = 6.29599 8.04651 7.22447
#
# Compressibility (1/GPa) = 0.02214625
#
# Stress axis : x y z
#
# Youngs Moduli (GPa) = 39.56917 79.85892 131.45419
#
# Poissons Ratio (x) = 0.50174 0.18737
# Poissons Ratio (y) = 0.24860 0.51524
# Poissons Ratio (z) = 0.05640 0.31301
#
# Static dielectric constant tensor:
#      x y z
#    x 1.953290 -0.028370 0.023230 
#    y -0.028370 1.861150 0.011220 
#    z 0.023230 0.011220 1.764030 
# 
# From -- ./inp_files/253761.got.cif
#   From: 2010.05.17/outbox.cif.g08.bks.cpg/sg2_127_cif.got.tgz:253761.got - 2010.06.03 11:33:40.
