data_PCOD9029616
_publ_section_title
;
Structure prediction by ZEFSAII (Michael W. Deem and Ramdas Pophale) SiO2 
 PCOD9029616
Probable space group: P -1
;
_chemical_formula_sum "Si O2"
_cell_formula_units_Z 16
_cell_length_a 6.787919
_cell_length_b 20.336345
_cell_length_c 9.885404
_cell_angle_alpha 60.174898
_cell_angle_beta 132.212395
_cell_angle_gamma 130.566953
_cell_volume 763.337365
_symmetry_space_group_name_H-M "P -1"
_symmetry_group_IT_number 2
_symmetry_cell_setting 'triclinic'
loop_
_space_group_symop_operation_xyz
x,y,z
-x,-y,-z
loop_
_atom_site_type_symbol
_atom_site_label
_atom_site_fract_x
_atom_site_fract_y
_atom_site_fract_z
Si Si1 0.790200 0.556913 0.984133
Si Si2 0.793437 0.527479 0.701657
Si Si3 0.735845 0.273528 0.290032
Si Si4 0.636241 0.065188 0.121365
Si Si5 0.800226 0.799868 0.377090
Si Si6 0.676462 0.046092 0.670656
Si Si7 0.696552 0.856235 0.562924
Si Si8 0.263132 0.744042 0.007409
O O1 0.059043 0.535257 0.167951
O O2 0.931735 0.660387 0.959028
O O3 0.500000 0.500000 0.000000
O O4 0.711232 0.533088 0.814474
O O5 0.500000 0.500000 0.500000
O O6 0.072036 0.623891 0.697271
O O7 0.455784 0.218554 0.317058
O O8 0.968972 0.236759 0.459046
O O9 0.650996 0.257422 0.108754
O O10 0.961410 0.074424 0.304811
O O11 0.398777 0.025130 0.177010
O O12 0.714244 0.164539 0.036744
O O13 0.500000 0.000000 0.000000
O O14 0.720922 0.819713 0.467386
O O15 0.503029 0.736083 0.222662
O O16 0.979331 0.888296 0.280940
O O17 0.520829 0.101672 0.593600
O O18 0.500000 0.000000 0.500000
#
# Coordination Sequence:
#
# PCOD9029616 Si02
#       8
#     2   2   2   2   2   2   2   2
#     4  10  24  43  68 100 135 169 215 273 327 392
#     4  10  22  42  68 100 133 169 216 267 330 396
#     4  10  23  42  66  95 128 171 210 263 320 383
#     4  12  25  39  62  95 124 171 221 260 316 381
#     4  11  23  42  63  91 129 169 214 263 317 377
#     4  11  23  41  61  85 122 170 216 268 319 365
#     4  11  23  42  62  89 129 168 215 268 314 377
#     4  11  24  44  64  94 132 168 212 267 320 382
#
# _framework density 20.960587
#
# number of rings (size 3 to 8) (size 9 to 14) (size 15 to 20)
#    0.000    1.250    2.500    2.625    5.250    2.000 
#    0.000    0.000    0.000    0.000    0.000    0.000 
#    0.000    0.000    0.000    0.000    0.000    0.000 
#
# Total GULP energy -89485.745870 kJ/mol
# GULP energy per Si atom -5592.859117 kJ/mol
# Density = 2.091288 g / cm^3
# Si number density = 20.960587 Si / 1000 Ang^3
#
#
#
# Elastic Constant Matrix: (Units=GPa)
#
#
# Indices 1 2 3 4 5 6 
#
# 1 85.6898 56.7917 39.2830 1.8996 -16.7120 16.7932
# 2 56.7917 144.0611 42.0697 3.1459 -28.6372 7.6202
# 3 39.2830 42.0697 127.9148 23.8652 -14.2657 3.7341
# 4 1.8996 3.1459 23.8652 34.2035 5.2299 -1.8133
# 5 -16.7120 -28.6372 -14.2657 5.2299 23.8152 -12.6173
# 6 16.7932 7.6202 3.7341 -1.8133 -12.6173 39.8858
#
#
#
# Elastic Compliance Matrix: (Units=1/GPa)
#
#
# Indices 1 2 3 4 5 6 
#
# 1 0.018549 -0.005912 -0.003965 0.001983 -0.000238 -0.006294
# 2 -0.005912 0.011650 -0.000365 -0.002149 0.012277 0.004084
# 3 -0.003965 -0.000365 0.011463 -0.008660 0.006837 0.002435
# 4 0.001983 -0.002149 -0.008660 0.037694 -0.016273 -0.003048
# 5 -0.000238 0.012277 0.006837 -0.016273 0.074885 0.020063
# 6 -0.006294 0.004084 0.002435 -0.003048 0.020063 0.032922
#
#
# Mechanical properties :
#
#
# Convention : Reuss Voigt Hill
#
# Bulk Modulus (GPa) = 47.21854 70.43940 58.82897
# Shear Modulus (GPa) = 23.28769 34.21565 28.75167
#
# Velocity S-wave (km/s) = 3.33682 4.04466 3.70767
# Velocity P-wave (km/s) = 6.11735 7.44922 6.81590
#
# Compressibility (1/GPa) = 0.02117812
#
# Stress axis : x y z
#
# Youngs Moduli (GPa) = 53.91085 85.83512 87.24082
#
# Poissons Ratio (x) = 0.50748 0.34588
# Poissons Ratio (y) = 0.31873 0.03184
# Poissons Ratio (z) = 0.21374 0.03133
#
# Static dielectric constant tensor:
#      x y z
#    x 1.713260 -0.002250 0.042600 
#    y -0.002250 1.794400 -0.053680 
#    z 0.042600 -0.053680 1.746290 
# 
# From -- ./inp_files/124789.got.cif
#   From: 2010.05.17/outbox.cif.g08.bks.cpg/sg2_63_cif.got.tgz:124789.got - 2010.06.03 11:33:40.
