data_PCOD9029958
_publ_section_title
;
Structure prediction by ZEFSAII (Michael W. Deem and Ramdas Pophale) SiO2 
 PCOD9029958
Probable space group: P -1
;
_chemical_formula_sum "Si O2"
_cell_formula_units_Z 16
_cell_length_a 14.517561
_cell_length_b 10.976617
_cell_length_c 9.017205
_cell_angle_alpha 152.609787
_cell_angle_beta 88.632738
_cell_angle_gamma 85.733284
_cell_volume 646.436155
_symmetry_space_group_name_H-M "P -1"
_symmetry_group_IT_number 2
_symmetry_cell_setting 'triclinic'
loop_
_space_group_symop_operation_xyz
x,y,z
-x,-y,-z
loop_
_atom_site_type_symbol
_atom_site_label
_atom_site_fract_x
_atom_site_fract_y
_atom_site_fract_z
Si Si1 0.386940 0.847173 0.798464
Si Si2 0.100032 0.950124 0.522795
Si Si3 0.289931 0.793521 0.209399
Si Si4 0.830458 0.523599 0.809421
Si Si5 0.532256 0.344844 0.109208
Si Si6 0.364832 0.162506 0.840523
Si Si7 0.797883 0.095785 0.958712
Si Si8 0.107230 0.437933 0.476569
O O1 0.459225 0.601943 0.453587
O O2 0.434946 0.856061 0.968635
O O3 0.284137 0.808437 0.812738
O O4 0.368111 0.077600 0.922665
O O5 0.188681 0.751157 0.223353
O O6 0.107059 0.773939 0.482625
O O7 0.000000 0.000000 0.500000
O O8 0.127984 0.240104 0.855508
O O9 0.334907 0.937803 0.494843
O O10 0.376661 0.588517 0.905686
O O11 0.252595 0.979421 0.268740
O O12 0.837332 0.591579 0.711133
O O13 0.718511 0.576449 0.901665
O O14 0.467581 0.214308 0.860866
O O15 0.855498 0.329721 0.185704
O O16 0.868743 0.835824 0.730924
O O17 0.000000 0.500000 0.500000
#
# Coordination Sequence:
#
# PCOD9029958 Si02
#       8
#     2   2   2   2   2   2   2   2
#     4  10  22  42  69 101 135 193 231 290 352 426
#     4  11  26  47  73  98 147 188 232 287 354 426
#     4  10  26  44  66 108 138 187 235 294 353 421
#     4  11  25  44  73 106 132 188 243 282 354 423
#     4  10  22  43  68 101 141 182 242 287 358 413
#     4  11  22  42  70  98 143 184 233 288 353 429
#     4  11  25  47  68 105 144 181 237 294 358 420
#     4  12  26  43  76 101 139 182 241 304 351 414
#
# _framework density 24.751090999999999
#
# number of rings (size 3 to 8) (size 9 to 14) (size 15 to 20)
#    0.000    1.250    1.250    3.000    8.750    2.500 
#   11.250    0.000    0.000    0.000    0.000    0.000 
#    0.000    0.000    0.000    0.000    0.000    0.000 
#
# Total GULP energy -89355.013271 kJ/mol
# GULP energy per Si atom -5584.688329 kJ/mol
# Density = 2.469476 g / cm^3
# Si number density = 24.751091 Si / 1000 Ang^3
#
#
#
# Elastic Constant Matrix: (Units=GPa)
#
#
# Indices 1 2 3 4 5 6 
#
# 1 141.3604 19.6986 46.0997 -4.0035 -3.3924 -37.3198
# 2 19.6986 -32.5742 33.2902 -53.9766 -67.4949 -49.7721
# 3 46.0997 33.2902 58.6604 13.2726 10.5373 -11.4248
# 4 -4.0035 -53.9766 13.2726 -20.8533 -52.7653 -20.2636
# 5 -3.3924 -67.4949 10.5373 -52.7653 -8.2302 -11.7634
# 6 -37.3198 -49.7721 -11.4248 -20.2636 -11.7634 36.1594
#
#
#
# Elastic Compliance Matrix: (Units=1/GPa)
#
#
# Indices 1 2 3 4 5 6 
#
# 1 0.010576 -0.001476 -0.005694 -0.000808 -0.002625 0.005778
# 2 -0.001476 0.016783 -0.000425 -0.021059 -0.011150 0.006014
# 3 -0.005694 -0.000425 0.020960 0.003822 0.003329 0.003385
# 4 -0.000808 -0.021059 0.003822 0.031137 -0.003916 -0.012438
# 5 -0.002625 -0.011150 0.003329 -0.003916 0.018990 -0.013020
# 6 0.005778 0.006014 0.003385 -0.012438 -0.013020 0.031760
#
#
# Mechanical properties :
#
#
# Convention : Reuss Voigt Hill
#
# Bulk Modulus (GPa) = 30.18624 40.62484 35.40554
# Shear Modulus (GPa) = 31.96113 5.97240 18.96677
#
# Velocity S-wave (km/s) = 3.59737 1.55506 2.77122
# Velocity P-wave (km/s) = 5.42929 4.43546 4.95734
#
# Compressibility (1/GPa) = 0.03312767
#
# Stress axis : x y z
#
# Youngs Moduli (GPa) = 94.54930 59.58562 47.70962
#
# Poissons Ratio (x) = 0.08797 0.27168
# Poissons Ratio (y) = 0.13958 0.02028
# Poissons Ratio (z) = 0.53840 0.02533
#
# Static dielectric constant tensor:
#      x y z
#    x 2.119320 0.053740 -0.058480 
#    y 0.053740 2.036420 -0.037750 
#    z -0.058480 -0.037750 2.010460 
# 
# From -- ./inp_files/122921.got.cif
#   From: 2010.05.17/outbox.cif.g08.bks.cpg/sg2_62_cif.got.tgz:122921.got - 2010.06.03 11:33:40.
