data_PCOD9029101
_publ_section_title
;
Structure prediction by ZEFSAII (Michael W. Deem and Ramdas Pophale) SiO2 
 PCOD9029101
Probable space group: P -1
;
_chemical_formula_sum "Si O2"
_cell_formula_units_Z 14
_cell_length_a 23.596307
_cell_length_b 18.875768
_cell_length_c 12.912337
_cell_angle_alpha 152.499204
_cell_angle_beta 153.906198
_cell_angle_gamma 12.668789
_cell_volume 551.292701
_symmetry_space_group_name_H-M "P -1"
_symmetry_group_IT_number 2
_symmetry_cell_setting 'triclinic'
loop_
_space_group_symop_operation_xyz
x,y,z
-x,-y,-z
loop_
_atom_site_type_symbol
_atom_site_label
_atom_site_fract_x
_atom_site_fract_y
_atom_site_fract_z
Si Si1 0.020827 0.588890 0.464481
Si Si2 0.416326 0.748044 0.737120
Si Si3 0.171391 0.619980 0.297535
Si Si4 0.057480 0.670521 0.937837
Si Si5 0.796766 0.747042 0.079845
Si Si6 0.557229 0.317552 0.700554
Si Si7 0.562508 0.630888 0.211650
O O1 0.962833 0.492920 0.306038
O O2 0.319175 0.350898 0.634721
O O3 0.955029 0.617582 0.275326
O O4 0.809566 0.940094 0.608055
O O5 0.500000 0.500000 0.500000
O O6 0.373097 0.929454 0.816931
O O7 0.125013 0.048130 0.704697
O O8 0.679139 0.537211 0.957734
O O9 0.377874 0.518986 0.562612
O O10 0.320449 0.300076 0.154789
O O11 0.096534 0.691981 0.147316
O O12 0.764585 0.031488 0.888143
O O13 0.000000 0.500000 0.000000
O O14 0.369555 0.446429 0.654154
O O15 0.655246 0.378774 0.981036
#
# Coordination Sequence:
#
# PCOD9029101 Si02
#       7
#     2   2   2   2   2   2   2
#     4  11  23  42  68  91 123 171 216 255 307 379
#     4  11  22  36  59  92 127 159 198 255 315 368
#     4  10  22  42  66  92 124 161 207 263 313 369
#     4  11  25  41  64  96 125 162 210 260 317 371
#     4   9  19  38  64  91 122 160 205 257 312 363
#     4  11  24  42  67  93 125 171 213 253 314 379
#     4  11  25  43  61  93 134 167 207 261 312 369
#
# _framework density 25.394859
#
# number of rings (size 3 to 8) (size 9 to 14) (size 15 to 20)
#    0.000    1.429    0.000    5.143    0.000   10.857 
#    0.000    0.000    0.000    0.000    0.000    0.000 
#    0.000    0.000    0.000    0.000    0.000    0.000 
#
# Total GULP energy -78340.989986 kJ/mol
# GULP energy per Si atom -5595.784999 kJ/mol
# Density = 2.533706 g / cm^3
# Si number density = 25.394859 Si / 1000 Ang^3
#
#
#
# Elastic Constant Matrix: (Units=GPa)
#
#
# Indices 1 2 3 4 5 6 
#
# 1 58.3030 20.9215 40.5251 2.9543 -9.8391 -10.6628
# 2 20.9215 99.3807 38.3153 13.5968 13.2266 8.8819
# 3 40.5251 38.3153 99.9259 17.2500 5.5902 5.9055
# 4 2.9543 13.5968 17.2500 47.1130 3.5568 10.6563
# 5 -9.8391 13.2266 5.5902 3.5568 54.8877 -2.8298
# 6 -10.6628 8.8819 5.9055 10.6563 -2.8298 32.9698
#
#
#
# Elastic Compliance Matrix: (Units=1/GPa)
#
#
# Indices 1 2 3 4 5 6 
#
# 1 0.031377 -0.004236 -0.012415 -0.000083 0.008651 0.014282
# 2 -0.004236 0.013014 -0.002585 -0.001282 -0.003772 -0.004322
# 3 -0.012415 -0.002585 0.017112 -0.003206 -0.003428 -0.005642
# 4 -0.000083 -0.001282 -0.003206 0.024490 -0.001334 -0.007137
# 5 0.008651 -0.003772 -0.003428 -0.001334 0.021460 0.006701
# 6 0.014282 -0.004322 -0.005642 -0.007137 0.006701 0.040007
#
#
# Mechanical properties :
#
#
# Convention : Reuss Voigt Hill
#
# Bulk Modulus (GPa) = 43.41533 50.79261 47.10397
# Shear Modulus (GPa) = 25.82562 37.51727 31.67144
#
# Velocity S-wave (km/s) = 3.19244 3.84781 3.53535
# Velocity P-wave (km/s) = 5.54276 6.30757 5.93749
#
# Compressibility (1/GPa) = 0.02303334
#
# Stress axis : x y z
#
# Youngs Moduli (GPa) = 31.87065 76.83968 58.43888
#
# Poissons Ratio (x) = 0.32546 0.72549
# Poissons Ratio (y) = 0.13499 0.15105
# Poissons Ratio (z) = 0.39566 0.19861
#
# Static dielectric constant tensor:
#      x y z
#    x 2.054000 -0.057070 0.038290 
#    y -0.057070 1.952350 -0.007390 
#    z 0.038290 -0.007390 2.031260 
# 
# From -- ./inp_files/545157.got.cif
#   From: 2010.05.17/outbox.cif.g08.bks.cpg/sg2_273_cif.got.tgz:545157.got - 2010.06.03 11:33:40.
