data_PCOD9029507
_publ_section_title
;
Structure prediction by ZEFSAII (Michael W. Deem and Ramdas Pophale) SiO2 
 PCOD9029507
Probable space group: P -1
;
_chemical_formula_sum "Si O2"
_cell_formula_units_Z 14
_cell_length_a 11.907309
_cell_length_b 14.631194
_cell_length_c 13.758287
_cell_angle_alpha 147.614443
_cell_angle_beta 28.920727
_cell_angle_gamma 147.429936
_cell_volume 569.055424
_symmetry_space_group_name_H-M "P -1"
_symmetry_group_IT_number 2
_symmetry_cell_setting 'triclinic'
loop_
_space_group_symop_operation_xyz
x,y,z
-x,-y,-z
loop_
_atom_site_type_symbol
_atom_site_label
_atom_site_fract_x
_atom_site_fract_y
_atom_site_fract_z
Si Si1 0.679648 0.344608 0.181033
Si Si2 0.867896 0.810447 0.612219
Si Si3 0.970016 0.415029 0.574748
Si Si4 0.255181 0.030680 0.959294
Si Si5 0.038773 0.231378 0.703029
Si Si6 0.466180 0.743091 0.564616
Si Si7 0.154615 0.287117 0.136539
O O1 0.421697 0.332943 0.316729
O O2 0.874244 0.557779 0.217603
O O3 0.628599 0.288401 0.280571
O O4 0.777030 0.203414 0.926568
O O5 0.040500 0.714236 0.442370
O O6 0.956861 0.881881 0.499892
O O7 0.824237 0.935976 0.842470
O O8 0.254618 0.579913 0.517234
O O9 0.970146 0.301717 0.375896
O O10 0.783528 0.520131 0.794834
O O11 0.457171 0.938507 0.718308
O O12 0.001460 0.875672 0.965312
O O13 0.333588 0.216036 0.000255
O O14 0.255324 0.253910 0.638521
#
# Coordination Sequence:
#
# PCOD9029507 Si02
#       7
#     2   2   2   2   2   2   2
#     4  10  19  31  49  76 101 127 166 204 234 286
#     4  10  17  32  50  76 101 133 157 200 238 296
#     4   9  14  27  52  72  98 125 168 201 242 276
#     4   9  18  29  48  74 106 125 162 199 252 286
#     4  10  19  31  49  76 101 127 166 204 234 286
#     4  10  17  32  50  76 101 133 157 200 238 296
#     4   8  16  28  46  80  94 122 170 208 232 298
#
# _framework density 24.602173000000001
#
# number of rings (size 3 to 8) (size 9 to 14) (size 15 to 20)
#    0.000    2.571    2.857    0.857    0.000    2.286 
#    0.000    2.857    0.000    0.000    0.000  140.000 
#    0.000    0.000    0.000    0.000    0.000    0.000 
#
# Total GULP energy -78167.218755 kJ/mol
# GULP energy per Si atom -5583.372768 kJ/mol
# Density = 2.454618 g / cm^3
# Si number density = 24.602173 Si / 1000 Ang^3
#
#
#
# Elastic Constant Matrix: (Units=GPa)
#
#
# Indices 1 2 3 4 5 6 
#
# 1 137.4675 14.7367 36.1705 2.8188 1.5023 -10.7872
# 2 14.7367 43.7028 6.2788 2.9466 8.6144 -1.2073
# 3 36.1705 6.2788 92.1047 0.6192 -8.7224 5.9151
# 4 2.8188 2.9466 0.6192 27.4410 2.1759 -0.9732
# 5 1.5023 8.6144 -8.7224 2.1759 59.3843 26.3477
# 6 -10.7872 -1.2073 5.9151 -0.9732 26.3477 30.3244
#
#
#
# Elastic Compliance Matrix: (Units=1/GPa)
#
#
# Indices 1 2 3 4 5 6 
#
# 1 0.009227 -0.001473 -0.004389 -0.000104 -0.004018 0.007568
# 2 -0.001473 0.025389 -0.002250 -0.001723 -0.006996 0.006949
# 3 -0.004389 -0.002250 0.014124 -0.000589 0.007318 -0.010783
# 4 -0.000104 -0.001723 -0.000589 0.037002 -0.002800 0.003630
# 5 -0.004018 -0.006996 0.007318 -0.002800 0.033465 -0.032302
# 6 0.007568 0.006949 -0.010783 0.003630 -0.032302 0.066231
#
#
# Mechanical properties :
#
#
# Convention : Reuss Voigt Hill
#
# Bulk Modulus (GPa) = 30.75345 43.07190 36.91267
# Shear Modulus (GPa) = 23.52951 37.83586 30.68269
#
# Velocity S-wave (km/s) = 3.09593 3.92587 3.53534
# Velocity P-wave (km/s) = 5.03062 6.17214 5.63038
#
# Compressibility (1/GPa) = 0.03251668
#
# Stress axis : x y z
#
# Youngs Moduli (GPa) = 108.37668 39.38739 70.80339
#
# Poissons Ratio (x) = 0.05801 0.31076
# Poissons Ratio (y) = 0.15961 0.15928
# Poissons Ratio (z) = 0.47567 0.08861
#
# Static dielectric constant tensor:
#      x y z
#    x 1.969210 -0.052380 -0.062760 
#    y -0.052380 2.007320 0.083370 
#    z -0.062760 0.083370 1.989180 
# 
# From -- ./inp_files/231544.got.cif
#   From: 2010.05.17/outbox.cif.g08.bks.cpg/sg2_116_cif.got.tgz:231544.got - 2010.06.03 11:33:40.
