data_PCOD9029956
_publ_section_title
;
Structure prediction by ZEFSAII (Michael W. Deem and Ramdas Pophale) SiO2 
 PCOD9029956
Probable space group: P -1
;
_chemical_formula_sum "Si O2"
_cell_formula_units_Z 11
_cell_length_a 9.414505
_cell_length_b 6.725459
_cell_length_c 16.502863
_cell_angle_alpha 45.399515
_cell_angle_beta 143.734809
_cell_angle_gamma 118.611787
_cell_volume 430.540398
_symmetry_space_group_name_H-M "P -1"
_symmetry_group_IT_number 2
_symmetry_cell_setting 'triclinic'
loop_
_space_group_symop_operation_xyz
x,y,z
-x,-y,-z
loop_
_atom_site_type_symbol
_atom_site_label
_atom_site_fract_x
_atom_site_fract_y
_atom_site_fract_z
Si Si1 0.312525 0.655005 0.558836
Si Si2 0.101095 0.539943 0.666497
Si Si3 0.626475 0.181831 0.175842
Si Si4 0.830285 0.749833 0.760452
Si Si5 0.177835 0.170297 0.078736
Si Si6 0.500000 0.000000 0.000000
O O1 0.248484 0.610240 0.634943
O O2 0.604184 0.586668 0.700443
O O3 0.164383 0.483576 0.480844
O O4 0.223688 0.986932 0.399871
O O5 0.126926 0.769404 0.681190
O O6 0.254619 0.229731 0.854349
O O7 0.444734 0.095248 0.183711
O O8 0.633985 0.997660 0.151771
O O9 0.500000 0.500000 0.000000
O O10 0.827753 0.873047 0.815040
O O11 0.075120 0.514224 0.925050
O O12 0.000000 0.000000 0.000000
#
# Coordination Sequence:
#
# PCOD9029956 Si02
#       6
#     2   2   2   2   2   1
#     4  10  22  43  68  99 144 179 214 274 351 402
#     4  10  22  42  69 101 134 174 228 279 333 398
#     4  10  23  41  67 102 125 169 236 282 328 384
#     4  10  24  45  68  97 144 177 217 280 332 415
#     4  11  25  42  71 100 131 179 235 273 332 401
#     4  10  24  40  74  90 134 172 230 290 316 384
#
# _framework density 25.549285999999999
#
# number of rings (size 3 to 8) (size 9 to 14) (size 15 to 20)
#    0.000    1.818    1.818    0.000   12.727    0.000 
#    0.000   10.909    0.000    0.000    0.000    0.000 
#    0.000    0.000    0.000    0.000    0.000    0.000 
#
# Total GULP energy -61395.135040 kJ/mol
# GULP energy per Si atom -5581.375913 kJ/mol
# Density = 2.549113 g / cm^3
# Si number density = 25.549286 Si / 1000 Ang^3
#
#
#
# Elastic Constant Matrix: (Units=GPa)
#
#
# Indices 1 2 3 4 5 6 
#
# 1 80.7725 61.0762 8.5921 15.4316 12.7120 -2.1065
# 2 61.0762 126.4363 23.1261 53.8397 -2.6035 -30.2911
# 3 8.5921 23.1261 76.4459 19.7577 4.1745 -5.7931
# 4 15.4316 53.8397 19.7577 76.9705 4.9868 -6.2691
# 5 12.7120 -2.6035 4.1745 4.9868 33.9065 0.9245
# 6 -2.1065 -30.2911 -5.7931 -6.2691 0.9245 43.2488
#
#
#
# Elastic Compliance Matrix: (Units=1/GPa)
#
#
# Indices 1 2 3 4 5 6 
#
# 1 0.027298 -0.019571 0.000659 0.007986 -0.012697 -0.010861
# 2 -0.019571 0.028018 -0.001906 -0.014618 0.011436 0.016051
# 3 0.000659 -0.001906 0.014309 -0.002328 -0.001821 0.000315
# 4 0.007986 -0.014618 -0.002328 0.022106 -0.006895 -0.006810
# 5 -0.012697 0.011436 -0.001821 -0.006895 0.036223 0.005373
# 6 -0.010861 0.016051 0.000315 -0.006810 0.005373 0.032775
#
#
# Mechanical properties :
#
#
# Convention : Reuss Voigt Hill
#
# Bulk Modulus (GPa) = 35.72948 52.13818 43.93383
# Shear Modulus (GPa) = 23.61885 43.54918 33.58402
#
# Velocity S-wave (km/s) = 3.04376 4.13306 3.62951
# Velocity P-wave (km/s) = 5.13493 6.57476 5.89894
#
# Compressibility (1/GPa) = 0.02798809
#
# Stress axis : x y z
#
# Youngs Moduli (GPa) = 36.63219 35.69182 69.88734
#
# Poissons Ratio (x) = 0.69853 -0.04604
# Poissons Ratio (y) = 0.71693 0.13321
# Poissons Ratio (z) = -0.02413 0.06803
#
# Static dielectric constant tensor:
#      x y z
#    x 1.973580 0.070090 -0.022650 
#    y 0.070090 2.031730 -0.013070 
#    z -0.022650 -0.013070 2.061710 
# 
# From -- ./inp_files/143701.got.cif
#   From: 2010.05.17/outbox.cif.g08.bks.cpg/sg2_72_cif.got.tgz:143701.got - 2010.06.03 11:33:40.
