data_PCOD9029634
_publ_section_title
;
Structure prediction by ZEFSAII (Michael W. Deem and Ramdas Pophale) SiO2 
 PCOD9029634
Probable space group: P -1
;
_chemical_formula_sum "Si O2"
_cell_formula_units_Z 16
_cell_length_a 19.856799
_cell_length_b 8.478942
_cell_length_c 16.533629
_cell_angle_alpha 42.258622
_cell_angle_beta 20.892419
_cell_angle_gamma 45.131097
_cell_volume 666.425341
_symmetry_space_group_name_H-M "P -1"
_symmetry_group_IT_number 2
_symmetry_cell_setting 'triclinic'
loop_
_space_group_symop_operation_xyz
x,y,z
-x,-y,-z
loop_
_atom_site_type_symbol
_atom_site_label
_atom_site_fract_x
_atom_site_fract_y
_atom_site_fract_z
Si Si1 0.046074 0.480419 0.085430
Si Si2 0.967334 0.347969 0.405798
Si Si3 0.328481 0.053863 0.111347
Si Si4 0.162794 0.009434 0.058380
Si Si5 0.505532 0.936650 0.798807
Si Si6 0.864179 0.678007 0.532273
Si Si7 0.674761 0.112202 0.376945
Si Si8 0.290936 0.215177 0.684666
O O1 0.154811 0.718394 0.878538
O O2 0.166121 0.278209 0.980579
O O3 0.000783 0.383075 0.260954
O O4 0.845510 0.553997 0.242423
O O5 0.805345 0.164262 0.669808
O O6 0.901418 0.582242 0.436614
O O7 0.173681 0.249509 0.243128
O O8 0.423340 0.103356 0.899644
O O9 0.500000 0.000000 0.000000
O O10 0.209658 0.012471 0.910120
O O11 0.959854 0.924561 0.339814
O O12 0.320524 0.856534 0.989382
O O13 0.640786 0.736764 0.766043
O O14 0.616867 0.052609 0.556173
O O15 0.000000 0.500000 0.500000
O O16 0.497596 0.242153 0.478975
O O17 0.708936 0.879603 0.371307
#
# Coordination Sequence:
#
# PCOD9029634 Si02
#       8
#     2   2   2   2   2   2   2   2
#     4  12  23  41  69 102 143 180 225 280 340 408
#     4  11  26  45  67 101 134 178 231 281 337 412
#     4  11  25  46  70  95 137 178 228 286 345 397
#     4  11  25  43  66 102 143 182 226 282 344 413
#     4  11  24  45  70 100 140 178 229 288 338 407
#     4  12  26  43  72  98 134 183 237 286 346 404
#     4  10  23  42  69 104 139 180 225 281 340 410
#     4  10  22  42  68 100 142 182 227 269 345 417
#
# _framework density 24.008692
#
# number of rings (size 3 to 8) (size 9 to 14) (size 15 to 20)
#    0.000    1.000    1.250    4.500    3.500    7.000 
#    0.000    0.000    0.000    0.000    0.000    0.000 
#    0.000    0.000    0.000    0.000    0.000    0.000 
#
# Total GULP energy -89475.476001 kJ/mol
# GULP energy per Si atom -5592.217250 kJ/mol
# Density = 2.395405 g / cm^3
# Si number density = 24.008692 Si / 1000 Ang^3
#
#
#
# Elastic Constant Matrix: (Units=GPa)
#
#
# Indices 1 2 3 4 5 6 
#
# 1 96.5491 20.2659 29.7348 14.0322 6.5784 -14.9299
# 2 20.2659 61.5538 22.2134 31.5849 -19.7562 -11.4810
# 3 29.7348 22.2134 72.3631 27.0801 -1.8253 -9.7125
# 4 14.0322 31.5849 27.0801 30.9232 -11.5171 -6.4786
# 5 6.5784 -19.7562 -1.8253 -11.5171 45.0610 19.4640
# 6 -14.9299 -11.4810 -9.7125 -6.4786 19.4640 31.8708
#
#
#
# Elastic Compliance Matrix: (Units=1/GPa)
#
#
# Indices 1 2 3 4 5 6 
#
# 1 0.014279 -0.004239 -0.003495 -0.000193 -0.007996 0.008941
# 2 -0.004239 0.038010 0.004595 -0.037991 0.007381 0.000876
# 3 -0.003495 0.004595 0.023635 -0.024588 -0.005110 0.005343
# 4 -0.000193 -0.037991 -0.024588 0.094827 0.010152 -0.008193
# 5 -0.007996 0.007381 -0.005110 0.010152 0.039709 -0.024832
# 6 0.008941 0.000876 0.005343 -0.008193 -0.024832 0.051009
#
#
# Mechanical properties :
#
#
# Convention : Reuss Voigt Hill
#
# Bulk Modulus (GPa) = 14.35860 41.65490 28.00675
# Shear Modulus (GPa) = 17.18425 32.12113 24.65269
#
# Velocity S-wave (km/s) = 2.67825 3.66169 3.20788
# Velocity P-wave (km/s) = 3.94432 5.93843 5.04096
#
# Compressibility (1/GPa) = 0.06964469
#
# Stress axis : x y z
#
# Youngs Moduli (GPa) = 70.03137 26.30864 42.31042
#
# Poissons Ratio (x) = 0.11153 0.14789
# Poissons Ratio (y) = 0.29689 -0.19441
# Poissons Ratio (z) = 0.24479 -0.12089
#
# Static dielectric constant tensor:
#      x y z
#    x 1.931990 -0.033580 0.005600 
#    y -0.033580 1.915150 0.019900 
#    z 0.005600 0.019900 1.863950 
# 
# From -- ./inp_files/577544.got.cif
#   From: 2010.05.17/outbox.cif.g08.bks.cpg/sg2_289_cif.got.tgz:577544.got - 2010.06.03 11:33:40.
