data_PCOD9029475
_publ_section_title
;
Structure prediction by ZEFSAII (Michael W. Deem and Ramdas Pophale) SiO2 
 PCOD9029475
Probable space group: P -1
;
_chemical_formula_sum "Si O2"
_cell_formula_units_Z 16
_cell_length_a 16.127554
_cell_length_b 9.639118
_cell_length_c 29.165474
_cell_angle_alpha 143.952888
_cell_angle_beta 18.323436
_cell_angle_gamma 135.325756
_cell_volume 798.802557
_symmetry_space_group_name_H-M "P -1"
_symmetry_group_IT_number 2
_symmetry_cell_setting 'triclinic'
loop_
_space_group_symop_operation_xyz
x,y,z
-x,-y,-z
loop_
_atom_site_type_symbol
_atom_site_label
_atom_site_fract_x
_atom_site_fract_y
_atom_site_fract_z
Si Si1 0.151905 0.350336 0.627919
Si Si2 0.939859 0.030216 0.724792
Si Si3 0.045082 0.713433 0.386034
Si Si4 0.307894 0.308413 0.284481
Si Si5 0.075957 0.665529 0.903036
Si Si6 0.355332 0.520073 0.407868
Si Si7 0.803706 0.180360 0.220827
Si Si8 0.408740 0.569750 0.921245
O O1 0.479328 0.226842 0.413336
O O2 0.103981 0.635075 0.744243
O O3 0.070923 0.208674 0.675454
O O4 0.990419 0.317976 0.658074
O O5 0.738453 0.947256 0.773449
O O6 0.760541 0.170822 0.898549
O O7 0.166633 0.785185 0.559444
O O8 0.344186 0.565359 0.210047
O O9 0.821864 0.598063 0.496470
O O10 0.000000 0.000000 0.500000
O O11 0.431514 0.331597 0.274726
O O12 0.462229 0.394513 0.185306
O O13 0.000000 0.500000 0.500000
O O14 0.356304 0.466367 0.719799
O O15 0.162437 0.742789 0.828772
O O16 0.810184 0.577428 0.010781
O O17 0.981146 0.893397 0.049465
#
# Coordination Sequence:
#
# PCOD9029475 Si02
#       8
#     2   2   2   2   2   2   2   2
#     4  11  23  44  71 102 134 184 224 277 346 402
#     4  11  24  44  69  99 141 173 224 285 339 401
#     4  12  25  41  74 101 135 180 229 274 340 405
#     4  10  22  42  67  95 133 176 221 271 340 400
#     4  11  24  45  68  99 138 179 230 281 336 400
#     4  11  25  45  69  98 135 186 224 275 339 409
#     4  10  23  44  69  96 142 179 225 286 334 402
#     4  12  25  44  70 101 137 178 222 288 339 393
#
# _framework density 20.029980999999999
#
# number of rings (size 3 to 8) (size 9 to 14) (size 15 to 20)
#    0.000    1.000    5.000    1.875    7.000    2.500 
#    0.000    0.000    0.000    0.000    0.000    0.000 
#    0.000    0.000    0.000    0.000    0.000    0.000 
#
# Total GULP energy -89361.423603 kJ/mol
# GULP energy per Si atom -5585.088975 kJ/mol
# Density = 1.998439 g / cm^3
# Si number density = 20.029981 Si / 1000 Ang^3
#
#
#
# Elastic Constant Matrix: (Units=GPa)
#
#
# Indices 1 2 3 4 5 6 
#
# 1 89.7167 35.0808 58.3317 -5.1350 15.8515 32.8591
# 2 35.0808 109.4971 60.8016 -26.5033 27.1080 49.5363
# 3 58.3317 60.8016 122.5475 -13.3157 19.1965 30.7052
# 4 -5.1350 -26.5033 -13.3157 44.1783 -5.7781 -0.4135
# 5 15.8515 27.1080 19.1965 -5.7781 56.1424 21.2984
# 6 32.8591 49.5363 30.7052 -0.4135 21.2984 68.1611
#
#
#
# Elastic Compliance Matrix: (Units=1/GPa)
#
#
# Indices 1 2 3 4 5 6 
#
# 1 0.017857 0.001580 -0.007564 0.000575 -0.000853 -0.006079
# 2 0.001580 0.020875 -0.006549 0.010275 -0.002640 -0.012095
# 3 -0.007564 -0.006549 0.014531 -0.000472 -0.000481 0.002007
# 4 0.000575 0.010275 -0.000472 0.028770 0.000896 -0.007637
# 5 -0.000853 -0.002640 -0.000481 0.000896 0.021120 -0.004047
# 6 -0.006079 -0.012095 0.002007 -0.007637 -0.004047 0.026706
#
#
# Mechanical properties :
#
#
# Convention : Reuss Voigt Hill
#
# Bulk Modulus (GPa) = 35.46530 70.02104 52.74317
# Shear Modulus (GPa) = 30.42785 44.86618 37.64702
#
# Velocity S-wave (km/s) = 3.90181 4.73795 4.34006
# Velocity P-wave (km/s) = 6.16793 8.06008 7.17664
#
# Compressibility (1/GPa) = 0.02819658
#
# Stress axis : x y z
#
# Youngs Moduli (GPa) = 56.00179 47.90311 68.81975
#
# Poissons Ratio (x) = -0.07567 0.52057
# Poissons Ratio (y) = -0.08846 0.45067
# Poissons Ratio (z) = 0.42361 0.31370
#
# Static dielectric constant tensor:
#      x y z
#    x 1.717270 0.027780 -0.004970 
#    y 0.027780 1.712450 0.007350 
#    z -0.004970 0.007350 1.693630 
# 
# From -- ./inp_files/619282.got.cif
#   From: 2010.05.17/outbox.cif.g08.bks.cpg/sg2_310_cif.got.tgz:619282.got - 2010.06.03 11:33:40.
