data_PCOD9029597
_publ_section_title
;
Structure prediction by ZEFSAII (Michael W. Deem and Ramdas Pophale) SiO2 
 PCOD9029597
Probable space group: P -1
;
_chemical_formula_sum "Si O2"
_cell_formula_units_Z 14
_cell_length_a 14.495366
_cell_length_b 9.122671
_cell_length_c 9.373899
_cell_angle_alpha 113.578925
_cell_angle_beta 152.281023
_cell_angle_gamma 72.771787
_cell_volume 523.529137
_symmetry_space_group_name_H-M "P -1"
_symmetry_group_IT_number 2
_symmetry_cell_setting 'triclinic'
loop_
_space_group_symop_operation_xyz
x,y,z
-x,-y,-z
loop_
_atom_site_type_symbol
_atom_site_label
_atom_site_fract_x
_atom_site_fract_y
_atom_site_fract_z
Si Si1 0.763544 0.649026 0.443768
Si Si2 0.953748 0.122107 0.673041
Si Si3 0.353676 0.752352 0.190498
Si Si4 0.225003 0.057585 0.258217
Si Si5 0.721646 0.840915 0.099291
Si Si6 0.486914 0.555147 0.757368
Si Si7 0.068316 0.642076 0.496783
O O1 0.783288 0.838563 0.568952
O O2 0.594660 0.610553 0.076882
O O3 0.940017 0.549765 0.594794
O O4 0.700950 0.559968 0.475371
O O5 0.160520 0.092961 0.857610
O O6 0.904457 0.286020 0.598157
O O7 0.033630 0.110079 0.934255
O O8 0.765975 0.992871 0.321494
O O9 0.567361 0.855758 0.490634
O O10 0.241377 0.868359 0.182229
O O11 0.404371 0.574976 0.234453
O O12 0.242299 0.717483 0.871206
O O13 0.510531 0.725299 0.768470
O O14 0.872330 0.715258 0.304247
#
# Coordination Sequence:
#
# PCOD9029597 Si02
#       7
#     2   2   2   2   2   2   2
#     4   9  19  31  51  77 106 132 159 213 260 294
#     4   9  18  33  53  76  99 135 170 209 247 297
#     4   9  17  29  53  74  96 136 172 203 238 302
#     4  10  17  32  50  77 107 130 160 211 263 295
#     4   9  17  33  57  73  97 135 180 206 232 304
#     4   9  18  34  52  77 101 132 175 206 245 297
#     4   9  17  34  54  76  96 134 180 197 244 298
#
# _framework density 26.741586000000002
#
# number of rings (size 3 to 8) (size 9 to 14) (size 15 to 20)
#    0.857    2.000    1.429    0.857    0.000    2.857 
#    0.000    4.286    0.000    0.000    0.000    0.000 
#    0.000    0.000    0.000    0.000    0.000    0.000 
#
# Total GULP energy -77959.264688 kJ/mol
# GULP energy per Si atom -5568.518906 kJ/mol
# Density = 2.668072 g / cm^3
# Si number density = 26.741586 Si / 1000 Ang^3
#
#
#
# Elastic Constant Matrix: (Units=GPa)
#
#
# Indices 1 2 3 4 5 6 
#
# 1 57.2000 28.2157 20.0369 16.3960 14.1340 -2.0733
# 2 28.2157 136.5392 32.3004 37.0972 -24.4249 -16.6837
# 3 20.0369 32.3004 78.4226 23.9641 -3.3876 -4.4127
# 4 16.3960 37.0972 23.9641 40.7171 -2.5472 2.4744
# 5 14.1340 -24.4249 -3.3876 -2.5472 38.4062 16.5747
# 6 -2.0733 -16.6837 -4.4127 2.4744 16.5747 39.3411
#
#
#
# Elastic Compliance Matrix: (Units=1/GPa)
#
#
# Indices 1 2 3 4 5 6 
#
# 1 0.027458 -0.005735 -0.003441 -0.005247 -0.017055 0.006145
# 2 -0.005735 0.012787 -0.000726 -0.008475 0.008814 0.001859
# 3 -0.003441 -0.000726 0.016378 -0.007599 0.001170 0.001333
# 4 -0.005247 -0.008475 -0.007599 0.039477 0.001954 -0.008029
# 5 -0.017055 0.008814 0.001170 0.001954 0.045129 -0.016166
# 6 0.006145 0.001859 0.001333 -0.008029 -0.016166 0.033996
#
#
# Mechanical properties :
#
#
# Convention : Reuss Voigt Hill
#
# Bulk Modulus (GPa) = 27.16033 48.14087 37.65060
# Shear Modulus (GPa) = 24.11946 36.46679 30.29312
#
# Velocity S-wave (km/s) = 3.00650 3.69680 3.36937
# Velocity P-wave (km/s) = 4.71494 6.02189 5.40804
#
# Compressibility (1/GPa) = 0.03681840
#
# Stress axis : x y z
#
# Youngs Moduli (GPa) = 36.41969 78.20209 61.05931
#
# Poissons Ratio (x) = 0.44845 0.21011
# Poissons Ratio (y) = 0.20885 0.04436
# Poissons Ratio (z) = 0.12532 0.05681
#
# Static dielectric constant tensor:
#      x y z
#    x 2.282800 0.007300 0.088510 
#    y 0.007300 2.071280 -0.011370 
#    z 0.088510 -0.011370 2.108390 
# 
# From -- ./inp_files/463270.got.cif
#   From: 2010.05.17/outbox.cif.g08.bks.cpg/sg2_232_cif.got.tgz:463270.got - 2010.06.03 11:33:40.
