data_PCOD9029576
_publ_section_title
;
Structure prediction by ZEFSAII (Michael W. Deem and Ramdas Pophale) SiO2 
 PCOD9029576
Probable space group: P -1
;
_chemical_formula_sum "Si O2"
_cell_formula_units_Z 13
_cell_length_a 13.390628
_cell_length_b 9.433892
_cell_length_c 5.071277
_cell_angle_alpha 109.220306
_cell_angle_beta 95.333746
_cell_angle_gamma 117.873725
_cell_volume 510.818753
_symmetry_space_group_name_H-M "P -1"
_symmetry_group_IT_number 2
_symmetry_cell_setting 'triclinic'
loop_
_space_group_symop_operation_xyz
x,y,z
-x,-y,-z
loop_
_atom_site_type_symbol
_atom_site_label
_atom_site_fract_x
_atom_site_fract_y
_atom_site_fract_z
Si Si1 0.000000 0.500000 0.500000
Si Si2 0.800744 0.282022 0.518170
Si Si3 0.365872 0.262297 0.248894
Si Si4 0.534202 0.126927 0.335129
Si Si5 0.150006 0.958073 0.256154
Si Si6 0.285647 0.325228 0.762265
Si Si7 0.911121 0.631229 0.073435
O O1 0.870499 0.305733 0.283003
O O2 0.959173 0.606702 0.344876
O O3 0.674843 0.254613 0.442535
O O4 0.798479 0.143825 0.632638
O O5 0.898609 0.488473 0.761288
O O6 0.462602 0.223964 0.354973
O O7 0.348980 0.382803 0.530321
O O8 0.240421 0.072700 0.114933
O O9 0.375468 0.326775 0.995833
O O10 0.500000 0.000000 0.500000
O O11 0.500000 0.000000 0.000000
O O12 0.010185 0.823378 0.107585
O O13 0.178229 0.124544 0.551649
O O14 0.219574 0.412154 0.928595
#
# Coordination Sequence:
#
# PCOD9029576 Si02
#       7
#     1   2   2   2   2   2   2
#     4  10  24  42  66  96 144 170 226 272 350 398
#     4  11  24  41  67 103 136 175 228 285 343 394
#     4  10  22  42  67  98 132 173 233 277 326 397
#     4  12  24  43  73 101 135 176 234 282 337 395
#     4   9  20  39  64  99 131 177 220 280 326 405
#     4  10  23  42  67  96 138 178 225 270 343 400
#     4  11  24  41  64 101 133 184 218 283 340 408
#
# _framework density 25.449338999999998
#
# number of rings (size 3 to 8) (size 9 to 14) (size 15 to 20)
#    0.923    0.615    1.538    4.154    4.308    6.769 
#    0.000    1.538    0.000    0.000    0.000    0.000 
#    0.000    0.000    0.000    0.000    0.000    0.000 
#
# Total GULP energy -72526.407410 kJ/mol
# GULP energy per Si atom -5578.954416 kJ/mol
# Density = 2.539142 g / cm^3
# Si number density = 25.449339 Si / 1000 Ang^3
#
#
#
# Elastic Constant Matrix: (Units=GPa)
#
#
# Indices 1 2 3 4 5 6 
#
# 1 124.1198 -0.3767 19.9143 4.1677 7.8470 5.3205
# 2 -0.3767 80.1071 29.0210 -0.8145 -1.2717 21.1822
# 3 19.9143 29.0210 76.3792 -6.0486 -11.8092 7.7070
# 4 4.1677 -0.8145 -6.0486 36.2966 4.8599 0.1808
# 5 7.8470 -1.2717 -11.8092 4.8599 32.9535 4.2856
# 6 5.3205 21.1822 7.7070 0.1808 4.2856 35.1133
#
#
#
# Elastic Compliance Matrix: (Units=1/GPa)
#
#
# Indices 1 2 3 4 5 6 
#
# 1 0.008863 0.001484 -0.003300 -0.001138 -0.002918 -0.001152
# 2 0.001484 0.017099 -0.006109 -0.000679 -0.000596 -0.009123
# 3 -0.003300 -0.006109 0.017515 0.002286 0.006551 -0.000470
# 4 -0.001138 -0.000679 0.002286 0.028471 -0.003177 0.000322
# 5 -0.002918 -0.000596 0.006551 -0.003177 0.034461 -0.004826
# 6 -0.001152 -0.009123 -0.000470 0.000322 -0.004826 0.034848
#
#
# Mechanical properties :
#
#
# Convention : Reuss Voigt Hill
#
# Bulk Modulus (GPa) = 36.19628 41.96928 39.08278
# Shear Modulus (GPa) = 30.06305 36.34250 33.20278
#
# Velocity S-wave (km/s) = 3.44072 3.78303 3.61593
# Velocity P-wave (km/s) = 5.48074 5.96732 5.72920
#
# Compressibility (1/GPa) = 0.02762715
#
# Stress axis : x y z
#
# Youngs Moduli (GPa) = 112.83272 58.48127 57.09229
#
# Poissons Ratio (x) = -0.08677 0.18838
# Poissons Ratio (y) = -0.16741 0.34880
# Poissons Ratio (z) = 0.37230 0.35728
#
# Static dielectric constant tensor:
#      x y z
#    x 2.227470 0.146980 -0.140330 
#    y 0.146980 2.083580 -0.004400 
#    z -0.140330 -0.004400 2.077550 
# 
# From -- ./inp_files/65024.got.cif
#   From: 2010.05.17/outbox.cif.g08.bks.cpg/sg2_33_cif.got.tgz:65024.got - 2010.06.03 11:33:40.
