data_PCOD9029727
_publ_section_title
;
Structure prediction by ZEFSAII (Michael W. Deem and Ramdas Pophale) SiO2 
 PCOD9029727
Probable space group: P -1
;
_chemical_formula_sum "Si O2"
_cell_formula_units_Z 14
_cell_length_a 7.317015
_cell_length_b 20.590911
_cell_length_c 5.393394
_cell_angle_alpha 87.832581
_cell_angle_beta 101.628458
_cell_angle_gamma 138.493581
_cell_volume 519.381628
_symmetry_space_group_name_H-M "P -1"
_symmetry_group_IT_number 2
_symmetry_cell_setting 'triclinic'
loop_
_space_group_symop_operation_xyz
x,y,z
-x,-y,-z
loop_
_atom_site_type_symbol
_atom_site_label
_atom_site_fract_x
_atom_site_fract_y
_atom_site_fract_z
Si Si1 0.785805 0.630088 0.500971
Si Si2 0.331810 0.589301 0.666886
Si Si3 0.471443 0.764108 0.214682
Si Si4 0.861401 0.567242 0.034760
Si Si5 0.710010 0.161539 0.189393
Si Si6 0.767921 0.923620 0.655658
Si Si7 0.853216 0.817053 0.949359
O O1 0.506224 0.594469 0.512128
O O2 0.784403 0.595738 0.238572
O O3 0.831692 0.592657 0.754088
O O4 0.043529 0.748763 0.572512
O O5 0.305458 0.541352 0.921954
O O6 0.555361 0.707105 0.769504
O O7 0.000000 0.500000 0.500000
O O8 0.528397 0.816800 0.471613
O O9 0.199240 0.646474 0.156877
O O10 0.391502 0.802054 0.000417
O O11 0.754820 0.800134 0.208476
O O12 0.122515 0.844942 0.939127
O O13 0.420373 0.068977 0.273523
O O14 0.905626 0.905626 0.872245
O O15 0.000000 0.000000 0.500000
#
# Coordination Sequence:
#
# PCOD9029727 Si02
#       7
#     2   2   2   2   2   2   2
#     4  10  22  44  65  94 134 190 230 277 333 411
#     4  11  24  40  63  98 137 178 227 288 334 392
#     4  10  22  42  68  90 133 175 223 274 340 404
#     4  11  22  43  68  93 137 184 237 271 336 404
#     4   9  21  42  66  92 135 176 222 270 344 398
#     4  11  23  43  70  98 129 168 217 285 351 412
#     4  10  24  45  62  98 132 173 228 277 335 410
#
# _framework density 26.955134000000001
#
# number of rings (size 3 to 8) (size 9 to 14) (size 15 to 20)
#    0.000    1.714    1.429    1.714    4.000    4.571 
#   18.000    1.429    0.000    0.000    0.000    0.000 
#    0.000    0.000    0.000    0.000    0.000    0.000 
#
# Total GULP energy -78249.459725 kJ/mol
# GULP energy per Si atom -5589.247123 kJ/mol
# Density = 2.689378 g / cm^3
# Si number density = 26.955134 Si / 1000 Ang^3
#
#
#
# Elastic Constant Matrix: (Units=GPa)
#
#
# Indices 1 2 3 4 5 6 
#
# 1 165.5791 76.9215 30.2857 -22.3026 -32.7787 52.3629
# 2 76.9215 96.4714 23.4839 -29.8804 -3.9728 41.4248
# 3 30.2857 23.4839 80.9244 -4.1129 -2.6724 18.5049
# 4 -22.3026 -29.8804 -4.1129 54.2953 5.0169 -8.7368
# 5 -32.7787 -3.9728 -2.6724 5.0169 47.7409 -14.7656
# 6 52.3629 41.4248 18.5049 -8.7368 -14.7656 48.0360
#
#
#
# Elastic Compliance Matrix: (Units=1/GPa)
#
#
# Indices 1 2 3 4 5 6 
#
# 1 0.012446 -0.007446 -0.001213 -0.000441 0.006425 -0.004783
# 2 -0.007446 0.025078 -0.001102 0.009182 -0.008379 -0.013990
# 3 -0.001213 -0.001102 0.013873 -0.000512 -0.001186 -0.003529
# 4 -0.000441 0.009182 -0.000512 0.022895 -0.003232 -0.004070
# 5 0.006425 -0.008379 -0.001186 -0.003232 0.027584 0.008571
# 6 -0.004783 -0.013990 -0.003529 -0.004070 0.008571 0.041351
#
#
# Mechanical properties :
#
#
# Convention : Reuss Voigt Hill
#
# Bulk Modulus (GPa) = 31.37373 67.15079 49.26226
# Shear Modulus (GPa) = 28.83958 44.16670 36.50314
#
# Velocity S-wave (km/s) = 3.27450 4.05226 3.68396
# Velocity P-wave (km/s) = 5.09519 6.84548 6.03413
#
# Compressibility (1/GPa) = 0.03187380
#
# Stress axis : x y z
#
# Youngs Moduli (GPa) = 80.34903 39.87629 72.08338
#
# Poissons Ratio (x) = 0.29693 0.08746
# Poissons Ratio (y) = 0.59830 0.07940
# Poissons Ratio (z) = 0.09749 0.04392
#
# Static dielectric constant tensor:
#      x y z
#    x 2.136890 0.011890 0.047700 
#    y 0.011890 2.159090 -0.003930 
#    z 0.047700 -0.003930 2.192850 
# 
# From -- ./inp_files/56192.got.cif
#   From: 2010.05.17/outbox.cif.g08.bks.cpg/sg2_29_cif.got.tgz:56192.got - 2010.06.03 11:33:40.
