data_PCOD9029843
_publ_section_title
;
Structure prediction by ZEFSAII (Michael W. Deem and Ramdas Pophale) SiO2 
 PCOD9029843
Probable space group: P -1
;
_chemical_formula_sum "Si O2"
_cell_formula_units_Z 13
_cell_length_a 13.139798
_cell_length_b 11.959201
_cell_length_c 5.668911
_cell_angle_alpha 128.708422
_cell_angle_beta 115.164646
_cell_angle_gamma 44.585912
_cell_volume 487.643843
_symmetry_space_group_name_H-M "P -1"
_symmetry_group_IT_number 2
_symmetry_cell_setting 'triclinic'
loop_
_space_group_symop_operation_xyz
x,y,z
-x,-y,-z
loop_
_atom_site_type_symbol
_atom_site_label
_atom_site_fract_x
_atom_site_fract_y
_atom_site_fract_z
Si Si1 0.355474 0.750627 0.659108
Si Si2 0.500000 0.500000 0.000000
Si Si3 0.121382 0.395609 0.275602
Si Si4 0.142420 0.106247 0.613024
Si Si5 0.356347 0.405612 0.008162
Si Si6 0.670394 0.873495 0.513750
Si Si7 0.839050 0.311426 0.456583
O O1 0.494978 0.721346 0.857637
O O2 0.281128 0.715909 0.756895
O O3 0.227059 0.946784 0.680622
O O4 0.426520 0.603208 0.320110
O O5 0.580254 0.592897 0.174714
O O6 0.265491 0.203910 0.268861
O O7 0.157493 0.534181 0.451364
O O8 0.000000 0.500000 0.500000
O O9 0.082015 0.306988 0.922393
O O10 0.255272 0.055163 0.450696
O O11 0.005333 0.131901 0.404257
O O12 0.222585 0.607515 0.236842
O O13 0.285969 0.306455 0.814497
O O14 0.500000 0.000000 0.500000
#
# Coordination Sequence:
#
# PCOD9029843 Si02
#       7
#     2   1   2   2   2   2   2
#     4  11  26  45  72 101 142 182 230 290 351 410
#     4  10  22  42  68  96 138 176 228 272 350 416
#     4  12  25  45  73 100 140 189 234 281 352 418
#     4  12  25  47  67 105 143 179 234 295 344 409
#     4  11  24  42  69 101 133 184 229 283 345 412
#     4  12  26  41  71 104 137 181 236 290 348 409
#     4  11  23  46  69  97 139 184 229 287 347 410
#
# _framework density 26.658798000000001
#
# number of rings (size 3 to 8) (size 9 to 14) (size 15 to 20)
#    0.000    0.615    3.077    5.538    6.462    1.231 
#    0.000    0.769    0.000    0.000    0.000    0.000 
#    0.000    0.000    0.000    0.000    0.000    0.000 
#
# Total GULP energy -72412.278008 kJ/mol
# GULP energy per Si atom -5570.175231 kJ/mol
# Density = 2.659812 g / cm^3
# Si number density = 26.658798 Si / 1000 Ang^3
#
#
#
# Elastic Constant Matrix: (Units=GPa)
#
#
# Indices 1 2 3 4 5 6 
#
# 1 214.9040 39.6164 13.0635 -14.0409 -2.0618 -3.0063
# 2 39.6164 115.5595 -15.7722 -1.7195 4.4055 -2.9087
# 3 13.0635 -15.7722 63.5984 3.5025 19.2669 -9.6846
# 4 -14.0409 -1.7195 3.5025 26.4743 -3.2541 0.0780
# 5 -2.0618 4.4055 19.2669 -3.2541 40.3922 -6.7345
# 6 -3.0063 -2.9087 -9.6846 0.0780 -6.7345 54.7274
#
#
#
# Elastic Compliance Matrix: (Units=1/GPa)
#
#
# Indices 1 2 3 4 5 6 
#
# 1 0.005447 -0.002227 -0.002447 0.003308 0.001952 -0.000017
# 2 -0.002227 0.010097 0.004118 -0.001462 -0.003171 0.000755
# 3 -0.002447 0.004118 0.021142 -0.005144 -0.010653 0.002522
# 4 0.003308 -0.001462 -0.005144 0.040857 0.006054 -0.000120
# 5 0.001952 -0.003171 -0.010653 0.006054 0.031084 0.001870
# 6 -0.000017 0.000755 0.002522 -0.000120 0.001870 0.018988
#
#
# Mechanical properties :
#
#
# Convention : Reuss Voigt Hill
#
# Bulk Modulus (GPa) = 28.11120 51.98636 40.04878
# Shear Modulus (GPa) = 35.56536 48.12904 41.84720
#
# Velocity S-wave (km/s) = 3.65649 4.25358 3.96628
# Velocity P-wave (km/s) = 5.32863 6.60809 6.00255
#
# Compressibility (1/GPa) = 0.03557301
#
# Stress axis : x y z
#
# Youngs Moduli (GPa) = 183.58140 99.03775 47.29908
#
# Poissons Ratio (x) = 0.22056 0.11575
# Poissons Ratio (y) = 0.40884 -0.19476
# Poissons Ratio (z) = 0.44927 -0.40780
#
# Static dielectric constant tensor:
#      x y z
#    x 2.009180 -0.315080 0.225020 
#    y -0.315080 1.058850 0.010850 
#    z 0.225020 0.010850 2.455450 
# 
# From -- ./inp_files/26311.got.cif
#   From: 2010.05.17/outbox.cif.g08.bks.cpg/sg2_14_cif.got.tgz:26311.got - 2010.06.03 11:33:40.
