data_PCOD9029105
_publ_section_title
;
Structure prediction by ZEFSAII (Michael W. Deem and Ramdas Pophale) SiO2 
 PCOD9029105
Probable space group: P -1
;
_chemical_formula_sum "Si O2"
_cell_formula_units_Z 16
_cell_length_a 17.448995
_cell_length_b 12.323669
_cell_length_c 20.699049
_cell_angle_alpha 29.137177
_cell_angle_beta 160.693769
_cell_angle_gamma 140.700422
_cell_volume 680.359771
_symmetry_space_group_name_H-M "P -1"
_symmetry_group_IT_number 2
_symmetry_cell_setting 'triclinic'
loop_
_space_group_symop_operation_xyz
x,y,z
-x,-y,-z
loop_
_atom_site_type_symbol
_atom_site_label
_atom_site_fract_x
_atom_site_fract_y
_atom_site_fract_z
Si Si1 0.013069 0.551972 0.875380
Si Si2 0.516156 0.074393 0.095659
Si Si3 0.490791 0.470757 0.764726
Si Si4 0.007402 0.749779 0.401741
Si Si5 0.487473 0.213447 0.271451
Si Si6 0.656384 0.725787 0.608908
Si Si7 0.713709 0.536607 0.523687
Si Si8 0.726202 0.370419 0.200296
O O1 0.789798 0.729568 0.645050
O O2 0.918799 0.469273 0.777297
O O3 0.239243 0.645024 0.990591
O O4 0.135727 0.350989 0.130235
O O5 0.662939 0.167327 0.217400
O O6 0.661737 0.813899 0.327174
O O7 0.460748 0.276863 0.891561
O O8 0.254623 0.071774 0.915390
O O9 0.507325 0.701413 0.695582
O O10 0.288592 0.549040 0.507437
O O11 0.242872 0.796042 0.535004
O O12 0.048863 0.728380 0.522574
O O13 0.000000 0.500000 0.500000
O O14 0.469750 0.967898 0.360628
O O15 0.281503 0.426866 0.962236
O O16 0.512549 0.536389 0.588820
O O17 0.500000 0.500000 0.000000
#
# Coordination Sequence:
#
# PCOD9029105 Si02
#       8
#     2   2   2   2   2   2   2   2
#     4  10  24  43  64  92 127 171 215 261 317 371
#     4  11  23  39  64  98 130 167 209 261 325 377
#     4  10  23  44  62  97 131 163 207 270 325 380
#     4  11  20  37  63  97 128 164 212 261 322 373
#     4  10  22  42  66  92 131 167 209 271 316 368
#     4  10  24  46  65  92 127 169 223 265 306 369
#     4  11  25  42  67  91 131 170 219 256 311 394
#     4   9  19  35  57  95 129 157 205 266 311 372
#
# _framework density 23.516970000000001
#
# number of rings (size 3 to 8) (size 9 to 14) (size 15 to 20)
#    0.000    1.750    3.750    0.750    8.750    4.500 
#    2.250    1.250    0.000    0.000    0.000    0.000 
#    0.000    0.000    0.000    0.000    0.000    0.000 
#
# Total GULP energy -89344.821472 kJ/mol
# GULP energy per Si atom -5584.051342 kJ/mol
# Density = 2.346344 g / cm^3
# Si number density = 23.516970 Si / 1000 Ang^3
#
#
#
# Elastic Constant Matrix: (Units=GPa)
#
#
# Indices 1 2 3 4 5 6 
#
# 1 89.0398 36.3272 13.0988 14.1606 -10.0961 -15.5544
# 2 36.3272 102.2000 36.4733 9.4872 -9.2014 -19.8053
# 3 13.0988 36.4733 54.6359 18.8350 -15.6141 -13.3467
# 4 14.1606 9.4872 18.8350 44.6194 -11.3168 -2.5111
# 5 -10.0961 -9.2014 -15.6141 -11.3168 26.4711 12.9685
# 6 -15.5544 -19.8053 -13.3467 -2.5111 12.9685 42.4060
#
#
#
# Elastic Compliance Matrix: (Units=1/GPa)
#
#
# Indices 1 2 3 4 5 6 
#
# 1 0.014180 -0.004812 0.002430 -0.003796 0.002158 0.002834
# 2 -0.004812 0.015136 -0.009644 0.001771 -0.003138 0.003333
# 3 0.002430 -0.009644 0.030878 -0.008865 0.010897 0.002248
# 4 -0.003796 0.001771 -0.008865 0.028859 0.008331 -0.004194
# 5 0.002158 -0.003138 0.010897 0.008331 0.053997 -0.013264
# 6 0.002834 0.003333 0.002248 -0.004194 -0.013264 0.030694
#
#
# Mechanical properties :
#
#
# Convention : Reuss Voigt Hill
#
# Bulk Modulus (GPa) = 27.66802 46.40826 37.03814
# Shear Modulus (GPa) = 23.82754 33.36440 28.59597
#
# Velocity S-wave (km/s) = 3.18654 3.77070 3.49086
# Velocity P-wave (km/s) = 5.03283 6.22369 5.65967
#
# Compressibility (1/GPa) = 0.03614281
#
# Stress axis : x y z
#
# Youngs Moduli (GPa) = 70.52165 66.06866 32.38597
#
# Poissons Ratio (x) = 0.31790 -0.07870
# Poissons Ratio (y) = 0.33933 0.31232
# Poissons Ratio (z) = -0.17138 0.63715
#
# Static dielectric constant tensor:
#      x y z
#    x 1.970860 0.002560 0.056030 
#    y 0.002560 1.874530 -0.027500 
#    z 0.056030 -0.027500 2.050330 
# 
# From -- ./inp_files/600033.got.cif
#   From: 2010.05.17/outbox.cif.g08.bks.cpg/sg2_301_cif.got.tgz:600033.got - 2010.06.03 11:33:40.
