data_PCOD9029411
_publ_section_title
;
Structure prediction by ZEFSAII (Michael W. Deem and Ramdas Pophale) SiO2 
 PCOD9029411
Probable space group: P -1
;
_chemical_formula_sum "Si O2"
_cell_formula_units_Z 16
_cell_length_a 9.296319
_cell_length_b 18.252282
_cell_length_c 7.427363
_cell_angle_alpha 116.424217
_cell_angle_beta 50.234445
_cell_angle_gamma 136.934348
_cell_volume 660.885125
_symmetry_space_group_name_H-M "P -1"
_symmetry_group_IT_number 2
_symmetry_cell_setting 'triclinic'
loop_
_space_group_symop_operation_xyz
x,y,z
-x,-y,-z
loop_
_atom_site_type_symbol
_atom_site_label
_atom_site_fract_x
_atom_site_fract_y
_atom_site_fract_z
Si Si1 0.621447 0.924964 0.896296
Si Si2 0.042172 0.766992 0.134493
Si Si3 0.585446 0.429558 0.879841
Si Si4 0.263184 0.187564 0.054405
Si Si5 0.358407 0.101832 0.550859
Si Si6 0.956943 0.416876 0.078701
Si Si7 0.802833 0.120119 0.221954
Si Si8 0.543367 0.706764 0.502282
O O1 0.730193 0.958703 0.640315
O O2 0.328633 0.859285 0.054442
O O3 0.669344 0.851870 0.875958
O O4 0.734483 0.026485 0.042338
O O5 0.827210 0.765510 0.375049
O O6 0.977407 0.656033 0.115247
O O7 0.047451 0.778273 0.924414
O O8 0.435191 0.314840 0.993501
O O9 0.553755 0.388608 0.659699
O O10 0.864090 0.513561 0.820624
O O11 0.500000 0.500000 0.000000
O O12 0.232058 0.112270 0.830938
O O13 0.989052 0.145282 0.253361
O O14 0.559017 0.095620 0.456333
O O15 0.491125 0.218275 0.491273
O O16 0.664505 0.342035 0.240901
O O17 0.000000 0.500000 0.000000
#
# Coordination Sequence:
#
# PCOD9029411 Si02
#       8
#     2   2   2   2   2   2   2   2
#     4  11  24  43  69 102 134 175 223 280 335 388
#     4  11  21  44  64  93 138 170 223 276 326 397
#     4  11  22  42  66  94 126 180 218 264 334 391
#     4  11  24  45  65  99 140 170 224 282 328 397
#     4  10  22  42  67  93 131 179 215 270 335 388
#     4  12  24  41  66  97 134 165 221 276 324 397
#     4  11  21  44  69  96 134 175 223 278 330 399
#     4  11  22  42  69  91 129 178 216 267 332 388
#
# _framework density 24.209956999999999
#
# number of rings (size 3 to 8) (size 9 to 14) (size 15 to 20)
#    0.000    1.000    6.250    3.000    0.000    1.500 
#    4.500    0.000    0.000    0.000    0.000    0.000 
#    0.000    0.000    0.000    0.000    0.000    0.000 
#
# Total GULP energy -89193.916102 kJ/mol
# GULP energy per Si atom -5574.619756 kJ/mol
# Density = 2.415485 g / cm^3
# Si number density = 24.209957 Si / 1000 Ang^3
#
#
#
# Elastic Constant Matrix: (Units=GPa)
#
#
# Indices 1 2 3 4 5 6 
#
# 1 157.9964 47.0780 43.6513 -12.7715 -31.8136 -5.1920
# 2 47.0780 88.5567 31.3988 17.9617 -19.8345 -10.5921
# 3 43.6513 31.3988 79.1278 9.9513 -30.2883 5.0564
# 4 -12.7715 17.9617 9.9513 39.5437 4.6153 -7.1785
# 5 -31.8136 -19.8345 -30.2883 4.6153 42.1848 0.5308
# 6 -5.1920 -10.5921 5.0564 -7.1785 0.5308 52.7053
#
#
#
# Elastic Compliance Matrix: (Units=1/GPa)
#
#
# Indices 1 2 3 4 5 6 
#
# 1 0.009559 -0.004464 -0.003641 0.006036 0.001821 0.001198
# 2 -0.004464 0.017349 -0.001649 -0.009093 0.004578 0.001920
# 3 -0.003641 -0.001649 0.021479 -0.008052 0.012832 -0.003976
# 4 0.006036 -0.009093 -0.008052 0.035301 -0.009422 0.004443
# 5 0.001821 0.004578 0.012832 -0.009422 0.037497 -0.001793
# 6 0.001198 0.001920 -0.003976 0.004443 -0.001793 0.020482
#
#
# Mechanical properties :
#
#
# Convention : Reuss Voigt Hill
#
# Bulk Modulus (GPa) = 34.62595 63.32633 48.97614
# Shear Modulus (GPa) = 29.27388 40.45694 34.86541
#
# Velocity S-wave (km/s) = 3.48108 4.09233 3.79902
# Velocity P-wave (km/s) = 5.52183 6.96731 6.28626
#
# Compressibility (1/GPa) = 0.02888008
#
# Stress axis : x y z
#
# Youngs Moduli (GPa) = 104.61138 57.63926 46.55759
#
# Poissons Ratio (x) = 0.25732 0.16950
# Poissons Ratio (y) = 0.46701 0.07676
# Poissons Ratio (z) = 0.38086 0.09503
#
# Static dielectric constant tensor:
#      x y z
#    x 1.943090 0.172690 -0.335110 
#    y 0.172690 2.544760 -1.608270 
#    z -0.335110 -1.608270 6.409990 
# 
# From -- ./inp_files/218198.got.cif
#   From: 2010.05.17/outbox.cif.g08.bks.cpg/sg2_110_cif.got.tgz:218198.got - 2010.06.03 11:33:40.
