data_PCOD9029844
_publ_section_title
;
Structure prediction by ZEFSAII (Michael W. Deem and Ramdas Pophale) SiO2 
 PCOD9029844
Probable space group: P -1
;
_chemical_formula_sum "Si O2"
_cell_formula_units_Z 15
_cell_length_a 12.845687
_cell_length_b 5.318318
_cell_length_c 11.611089
_cell_angle_alpha 66.724189
_cell_angle_beta 124.045066
_cell_angle_gamma 112.504061
_cell_volume 590.032038
_symmetry_space_group_name_H-M "P -1"
_symmetry_group_IT_number 2
_symmetry_cell_setting 'triclinic'
loop_
_space_group_symop_operation_xyz
x,y,z
-x,-y,-z
loop_
_atom_site_type_symbol
_atom_site_label
_atom_site_fract_x
_atom_site_fract_y
_atom_site_fract_z
Si Si1 0.379034 0.298185 0.078211
Si Si2 0.148607 0.039552 0.119213
Si Si3 0.500000 0.000000 0.000000
Si Si4 0.462777 0.040265 0.600202
Si Si5 0.217772 0.647071 0.581832
Si Si6 0.979356 0.286964 0.375434
Si Si7 0.436101 0.305328 0.746952
Si Si8 0.915274 0.569049 0.827220
O O1 0.233111 0.212297 0.040785
O O2 0.402065 0.168900 0.995118
O O3 0.457182 0.161113 0.247935
O O4 0.442605 0.624955 0.094669
O O5 0.167126 0.220289 0.213081
O O6 0.173703 0.730252 0.205280
O O7 0.000000 0.000000 0.000000
O O8 0.597549 0.011659 0.171796
O O9 0.309849 0.932821 0.544725
O O10 0.500000 0.000000 0.500000
O O11 0.488608 0.316792 0.647605
O O12 0.096649 0.532731 0.445898
O O13 0.316412 0.440999 0.667827
O O14 0.150570 0.653473 0.662216
O O15 0.995076 0.293987 0.246700
O O16 0.000000 0.000000 0.500000
O O17 0.000000 0.500000 0.000000
#
# Coordination Sequence:
#
# PCOD9029844 Si02
#       8
#     2   2   1   2   2   2   2   2
#     4  10  23  40  67  96 139 180 242 296 375 441
#     4  10  24  45  66 105 143 191 242 308 380 453
#     4  10  22  42  68  96 138 182 246 294 382 438
#     4  10  23  41  67  97 136 180 239 299 366 438
#     4  10  24  43  67 102 143 185 245 300 384 442
#     4  11  25  44  75 104 146 196 246 311 376 462
#     4  10  22  43  64 103 134 189 241 309 368 458
#     4  10  25  47  71 105 146 191 249 303 380 449
#
# _framework density 25.422346000000001
#
# number of rings (size 3 to 8) (size 9 to 14) (size 15 to 20)
#    0.000    1.867    0.000    1.200    9.333    5.333 
#   16.800    0.000    0.000    0.000    0.000    0.000 
#    0.000    0.000    0.000    0.000    0.000    0.000 
#
# Total GULP energy -83567.129503 kJ/mol
# GULP energy per Si atom -5571.141967 kJ/mol
# Density = 2.536448 g / cm^3
# Si number density = 25.422346 Si / 1000 Ang^3
#
#
#
# Elastic Constant Matrix: (Units=GPa)
#
#
# Indices 1 2 3 4 5 6 
#
# 1 203.5131 59.5776 49.6562 31.9553 -42.1497 -4.4336
# 2 59.5776 127.5235 15.8404 18.3099 -18.4984 -24.5083
# 3 49.6562 15.8404 101.7289 4.0653 -47.5982 -3.0116
# 4 31.9553 18.3099 4.0653 23.5273 -5.4686 -0.1729
# 5 -42.1497 -18.4984 -47.5982 -5.4686 61.8199 14.0423
# 6 -4.4336 -24.5083 -3.0116 -0.1729 14.0423 50.2448
#
#
#
# Elastic Compliance Matrix: (Units=1/GPa)
#
#
# Indices 1 2 3 4 5 6 
#
# 1 0.007797 -0.002096 -0.001876 -0.007987 0.002825 -0.001264
# 2 -0.002096 0.010559 -0.000311 -0.005305 -0.000104 0.004958
# 3 -0.001876 -0.000311 0.016196 0.002749 0.011949 -0.002677
# 4 -0.007987 -0.005305 0.002749 0.057182 0.000863 -0.003172
# 5 0.002825 -0.000104 0.011949 0.000863 0.028979 -0.007181
# 6 -0.001264 0.004958 -0.002677 -0.003172 -0.007181 0.024045
#
#
# Mechanical properties :
#
#
# Convention : Reuss Voigt Hill
#
# Bulk Modulus (GPa) = 38.48277 75.87931 57.18104
# Shear Modulus (GPa) = 30.86707 47.63118 39.24912
#
# Velocity S-wave (km/s) = 3.48828 4.33320 3.93349
# Velocity P-wave (km/s) = 5.60306 7.41268 6.57047
#
# Compressibility (1/GPa) = 0.02598565
#
# Stress axis : x y z
#
# Youngs Moduli (GPa) = 128.26182 94.70794 61.74370
#
# Poissons Ratio (x) = 0.19849 0.11582
# Poissons Ratio (y) = 0.26881 0.01922
# Poissons Ratio (z) = 0.24059 0.02948
#
# Static dielectric constant tensor:
#      x y z
#    x 1.964160 0.105030 -0.022270 
#    y 0.105030 2.833330 -0.072700 
#    z -0.022270 -0.072700 2.037490 
# 
# From -- ./inp_files/408376.got.cif
#   From: 2010.05.17/outbox.cif.g08.bks.cpg/sg2_205_cif.got.tgz:408376.got - 2010.06.03 11:33:40.
