data_PCOD9029555
_publ_section_title
;
Structure prediction by ZEFSAII (Michael W. Deem and Ramdas Pophale) SiO2 
 PCOD9029555
Probable space group: P -1
;
_chemical_formula_sum "Si O2"
_cell_formula_units_Z 16
_cell_length_a 12.208413
_cell_length_b 8.890039
_cell_length_c 10.078990
_cell_angle_alpha 120.714834
_cell_angle_beta 54.672657
_cell_angle_gamma 121.112221
_cell_volume 728.064963
_symmetry_space_group_name_H-M "P -1"
_symmetry_group_IT_number 2
_symmetry_cell_setting 'triclinic'
loop_
_space_group_symop_operation_xyz
x,y,z
-x,-y,-z
loop_
_atom_site_type_symbol
_atom_site_label
_atom_site_fract_x
_atom_site_fract_y
_atom_site_fract_z
Si Si1 0.515344 0.162070 0.454380
Si Si2 0.120678 0.070065 0.054941
Si Si3 0.802574 0.289137 0.162115
Si Si4 0.903590 0.424248 0.878167
Si Si5 0.590874 0.912965 0.796596
Si Si6 0.477443 0.495503 0.241855
Si Si7 0.294774 0.491320 0.130273
Si Si8 0.919963 0.047769 0.697143
O O1 0.675294 0.279049 0.345996
O O2 0.441966 0.066856 0.326218
O O3 0.460300 0.319812 0.631697
O O4 0.500000 0.000000 0.500000
O O5 0.219465 0.275232 0.058232
O O6 0.053354 0.058347 0.241549
O O7 0.207993 0.925249 0.940798
O O8 0.000000 0.000000 0.000000
O O9 0.964169 0.390842 0.139366
O O10 0.802112 0.389580 0.064812
O O11 0.812089 0.406336 0.802148
O O12 0.974711 0.265877 0.777797
O O13 0.560794 0.693105 0.735219
O O14 0.754372 0.999971 0.759677
O O15 0.500000 0.000000 0.000000
O O16 0.346763 0.519864 0.257492
O O17 0.576339 0.458878 0.040077
O O18 0.000000 0.000000 0.500000
#
# Coordination Sequence:
#
# PCOD9029555 Si02
#       8
#     2   2   2   2   2   2   2   2
#     4  12  28  45  70 107 141 181 235 295 354 411
#     4  11  21  42  66  99 134 180 224 285 342 418
#     4  10  22  42  67  97 137 177 233 278 345 424
#     4  10  22  42  69  97 132 185 226 282 344 424
#     4  12  26  50  76  98 143 193 236 285 355 430
#     4  11  26  43  71 101 142 182 233 294 343 422
#     4  11  22  42  71 101 135 181 238 276 352 418
#     4  11  26  43  67 100 138 178 229 286 352 406
#
# _framework density 21.97606
#
# number of rings (size 3 to 8) (size 9 to 14) (size 15 to 20)
#    0.000    1.000    2.500    4.125    7.000    2.000 
#    0.000    1.250    0.000    0.000    0.000    0.000 
#    0.000    0.000    0.000    0.000    0.000    0.000 
#
# Total GULP energy -89316.019970 kJ/mol
# GULP energy per Si atom -5582.251248 kJ/mol
# Density = 2.192604 g / cm^3
# Si number density = 21.976060 Si / 1000 Ang^3
#
#
#
# Elastic Constant Matrix: (Units=GPa)
#
#
# Indices 1 2 3 4 5 6 
#
# 1 104.2670 1.6438 31.8152 -15.3232 34.8744 0.5499
# 2 1.6438 86.5635 -4.0275 -9.6393 6.9003 -7.5764
# 3 31.8152 -4.0275 89.0957 -11.2242 14.4424 3.0685
# 4 -15.3232 -9.6393 -11.2242 34.2489 -3.4703 8.0031
# 5 34.8744 6.9003 14.4424 -3.4703 38.9090 -2.2018
# 6 0.5499 -7.5764 3.0685 8.0031 -2.2018 27.1101
#
#
#
# Elastic Compliance Matrix: (Units=1/GPa)
#
#
# Indices 1 2 3 4 5 6 
#
# 1 0.015463 0.001010 -0.002625 0.005622 -0.012700 -0.002425
# 2 0.001010 0.012396 0.001069 0.003503 -0.003073 0.002039
# 3 -0.002625 0.001069 0.013179 0.003763 -0.002531 -0.002456
# 4 0.005622 0.003503 0.003763 0.035943 -0.004447 -0.010533
# 5 -0.012700 -0.003073 -0.002531 -0.004447 0.038405 0.004117
# 6 -0.002425 0.002039 -0.002456 -0.010533 0.004117 0.041227
#
#
# Mechanical properties :
#
#
# Convention : Reuss Voigt Hill
#
# Bulk Modulus (GPa) = 25.03446 37.64323 31.33884
# Shear Modulus (GPa) = 29.23628 36.75324 32.99476
#
# Velocity S-wave (km/s) = 3.65138 4.09396 3.87899
# Velocity P-wave (km/s) = 5.40307 6.28600 5.86118
#
# Compressibility (1/GPa) = 0.03994494
#
# Stress axis : x y z
#
# Youngs Moduli (GPa) = 64.67194 80.66924 75.88026
#
# Poissons Ratio (x) = -0.08150 0.19922
# Poissons Ratio (y) = -0.06534 -0.08110
# Poissons Ratio (z) = 0.16980 -0.08622
#
# Static dielectric constant tensor:
#      x y z
#    x 1.830410 0.008690 -0.002050 
#    y 0.008690 1.789810 -0.019910 
#    z -0.002050 -0.019910 1.840440 
# 
# From -- ./inp_files/244907.got.cif
#   From: 2010.05.17/outbox.cif.g08.bks.cpg/sg2_123_cif.got.tgz:244907.got - 2010.06.03 11:33:40.
