data_PCOD9029016
_publ_section_title
;
Structure prediction by ZEFSAII (Michael W. Deem and Ramdas Pophale) SiO2 
 PCOD9029016
Probable space group: P -1
;
_chemical_formula_sum "Si O2"
_cell_formula_units_Z 16
_cell_length_a 23.063495
_cell_length_b 12.888026
_cell_length_c 20.362426
_cell_angle_alpha 38.844249
_cell_angle_beta 163.082682
_cell_angle_gamma 151.674756
_cell_volume 742.602822
_symmetry_space_group_name_H-M "P -1"
_symmetry_group_IT_number 2
_symmetry_cell_setting 'triclinic'
loop_
_space_group_symop_operation_xyz
x,y,z
-x,-y,-z
loop_
_atom_site_type_symbol
_atom_site_label
_atom_site_fract_x
_atom_site_fract_y
_atom_site_fract_z
Si Si1 0.037405 0.654390 0.523437
Si Si2 0.349624 0.234713 0.451491
Si Si3 0.204068 0.030184 0.257059
Si Si4 0.097698 0.077367 0.761037
Si Si5 0.798920 0.458100 0.626000
Si Si6 0.243297 0.189457 0.614426
Si Si7 0.357778 0.891181 0.106392
Si Si8 0.905448 0.501883 0.203832
O O1 0.820919 0.678726 0.271851
O O2 0.016698 0.560210 0.618387
O O3 0.000000 0.500000 0.500000
O O4 0.371241 0.929409 0.739542
O O5 0.500000 0.500000 0.500000
O O6 0.255812 0.177310 0.303133
O O7 0.083778 0.054487 0.303561
O O8 0.550575 0.194321 0.700664
O O9 0.035312 0.763225 0.229021
O O10 0.522667 0.192593 0.488950
O O11 0.000000 0.000000 0.000000
O O12 0.896886 0.935050 0.547407
O O13 0.313358 0.051334 0.005045
O O14 0.690483 0.574329 0.430783
O O15 0.058599 0.648237 0.866609
O O16 0.939787 0.462269 0.712810
O O17 0.551346 0.287718 0.914575
O O18 0.000000 0.000000 0.500000
#
# Coordination Sequence:
#
# PCOD9029016 Si02
#       8
#     2   2   2   2   2   2   2   2
#     4  11  24  43  64 100 141 177 228 289 350 414
#     4  11  24  44  72 100 136 186 233 284 345 413
#     4  12  27  48  66 100 145 180 234 299 349 410
#     4  10  22  42  66 100 136 178 229 280 345 417
#     4  11  24  43  69  98 136 185 232 280 351 418
#     4  11  22  40  69 104 140 177 228 284 348 417
#     4  10  23  44  71 103 137 176 232 287 341 426
#     4  12  23  42  70  97 139 184 226 286 350 414
#
# _framework density 21.545840999999999
#
# number of rings (size 3 to 8) (size 9 to 14) (size 15 to 20)
#    0.000    1.000    1.250    7.125    1.750    4.000 
#    4.500    0.000    0.000    0.000    0.000    0.000 
#    0.000    0.000    0.000    0.000    0.000    0.000 
#
# Total GULP energy -89479.628315 kJ/mol
# GULP energy per Si atom -5592.476770 kJ/mol
# Density = 2.149680 g / cm^3
# Si number density = 21.545841 Si / 1000 Ang^3
#
#
#
# Elastic Constant Matrix: (Units=GPa)
#
#
# Indices 1 2 3 4 5 6 
#
# 1 132.2872 23.1195 56.3208 4.8489 -2.2644 -3.6165
# 2 23.1195 99.9000 43.7836 -15.9389 -2.4292 -1.5300
# 3 56.3208 43.7836 114.4975 -4.0821 6.5726 5.7787
# 4 4.8489 -15.9389 -4.0821 37.8914 1.5446 9.3894
# 5 -2.2644 -2.4292 6.5726 1.5446 34.7201 -2.8563
# 6 -3.6165 -1.5300 5.7787 9.3894 -2.8563 48.5315
#
#
#
# Elastic Compliance Matrix: (Units=1/GPa)
#
#
# Indices 1 2 3 4 5 6 
#
# 1 0.009951 -0.000434 -0.005023 -0.002550 0.001842 0.001928
# 2 -0.000434 0.012982 -0.004667 0.004933 0.001550 0.000069
# 3 -0.005023 -0.004667 0.013342 0.000871 -0.003423 -0.002480
# 4 -0.002550 0.004933 0.000871 0.030484 -0.001848 -0.006145
# 5 0.001842 0.001550 -0.003423 -0.001848 0.029984 0.002716
# 6 0.001928 0.000069 -0.002480 -0.006145 0.002716 0.022395
#
#
# Mechanical properties :
#
#
# Convention : Reuss Voigt Hill
#
# Bulk Modulus (GPa) = 62.39644 65.90362 64.15003
# Shear Modulus (GPa) = 34.54727 39.12600 36.83663
#
# Velocity S-wave (km/s) = 4.00863 4.26601 4.13932
# Velocity P-wave (km/s) = 7.10269 7.41075 7.25835
#
# Compressibility (1/GPa) = 0.01602656
#
# Stress axis : x y z
#
# Youngs Moduli (GPa) = 100.48880 77.03068 74.95122
#
# Poissons Ratio (x) = 0.03344 0.37647
# Poissons Ratio (y) = 0.04362 0.34982
# Poissons Ratio (z) = 0.50475 0.35952
#
# Static dielectric constant tensor:
#      x y z
#    x 1.753050 -0.027920 0.028430 
#    y -0.027920 1.787980 -0.000780 
#    z 0.028430 -0.000780 1.787800 
# 
# From -- ./inp_files/577965.got.cif
#   From: 2010.05.17/outbox.cif.g08.bks.cpg/sg2_289_cif.got.tgz:577965.got - 2010.06.03 11:33:40.
