data_PCOD9029787
_publ_section_title
;
Structure prediction by ZEFSAII (Michael W. Deem and Ramdas Pophale) SiO2 
 PCOD9029787
Probable space group: P -1
;
_chemical_formula_sum "Si O2"
_cell_formula_units_Z 16
_cell_length_a 22.064389
_cell_length_b 7.762283
_cell_length_c 16.261962
_cell_angle_alpha 113.766334
_cell_angle_beta 161.724804
_cell_angle_gamma 58.631896
_cell_volume 701.064053
_symmetry_space_group_name_H-M "P -1"
_symmetry_group_IT_number 2
_symmetry_cell_setting 'triclinic'
loop_
_space_group_symop_operation_xyz
x,y,z
-x,-y,-z
loop_
_atom_site_type_symbol
_atom_site_label
_atom_site_fract_x
_atom_site_fract_y
_atom_site_fract_z
Si Si1 0.082087 0.624378 0.808444
Si Si2 0.876735 0.760257 0.296810
Si Si3 0.686453 0.907119 0.792658
Si Si4 0.336363 0.241303 0.811010
Si Si5 0.355935 0.725284 0.909639
Si Si6 0.753962 0.434146 0.816024
Si Si7 0.463824 0.674101 0.221778
Si Si8 0.098413 0.658304 0.182704
O O1 0.146553 0.374369 0.833471
O O2 0.838012 0.745573 0.479612
O O3 0.115762 0.672936 0.954107
O O4 0.251019 0.660442 0.976702
O O5 0.796195 0.683673 0.259300
O O6 0.132478 0.704859 0.618952
O O7 0.740988 0.014333 0.161661
O O8 0.740134 0.667968 0.839128
O O9 0.500000 0.000000 0.500000
O O10 0.592183 0.087211 0.775888
O O11 0.920547 0.857269 0.044066
O O12 0.488467 0.332157 0.982388
O O13 0.500000 0.000000 0.000000
O O14 0.485869 0.645482 0.147295
O O15 0.500000 0.500000 0.500000
O O16 0.851408 0.288570 0.832910
O O17 0.678384 0.490718 0.508640
O O18 0.000000 0.500000 0.000000
#
# Coordination Sequence:
#
# PCOD9029787 Si02
#       8
#     2   2   2   2   2   2   2   2
#     4  12  24  42  68  98 137 181 225 294 349 407
#     4  10  22  47  65  95 138 176 226 292 345 413
#     4  11  22  42  69  92 136 186 225 284 342 407
#     4  10  23  43  66  98 136 176 233 288 342 420
#     4  10  23  42  71  97 131 183 229 282 357 411
#     4  11  22  43  67  99 137 179 230 284 348 410
#     4  12  23  44  67 101 138 184 231 286 353 413
#     4  10  22  42  68  94 138 177 232 275 338 416
#
# _framework density 22.822451999999998
#
# number of rings (size 3 to 8) (size 9 to 14) (size 15 to 20)
#    0.000    1.250    5.000    1.125    3.500    0.500 
#    4.500    2.500    0.000    0.000    0.000    0.000 
#    0.000    0.000    0.000    0.000    0.000    0.000 
#
# Total GULP energy -89363.254802 kJ/mol
# GULP energy per Si atom -5585.203425 kJ/mol
# Density = 2.277051 g / cm^3
# Si number density = 22.822452 Si / 1000 Ang^3
#
#
#
# Elastic Constant Matrix: (Units=GPa)
#
#
# Indices 1 2 3 4 5 6 
#
# 1 162.2229 28.1471 63.3868 6.9635 -10.6938 -4.9386
# 2 28.1471 49.8596 11.5280 4.5820 -0.5305 -5.9941
# 3 63.3868 11.5280 112.4248 -0.2068 -4.1011 -8.2963
# 4 6.9635 4.5820 -0.2068 36.6095 -2.4439 11.0370
# 5 -10.6938 -0.5305 -4.1011 -2.4439 40.9793 6.0044
# 6 -4.9386 -5.9941 -8.2963 11.0370 6.0044 44.5910
#
#
#
# Elastic Compliance Matrix: (Units=1/GPa)
#
#
# Indices 1 2 3 4 5 6 
#
# 1 0.008733 -0.003828 -0.004496 -0.000973 0.001777 -0.000382
# 2 -0.003828 0.022949 0.000018 -0.003352 -0.001440 0.003688
# 3 -0.004496 0.000018 0.011537 0.000428 -0.000224 0.001575
# 4 -0.000973 -0.003352 0.000428 0.030656 0.002811 -0.008445
# 5 0.001777 -0.001440 -0.000224 0.002811 0.025606 -0.004182
# 6 -0.000382 0.003688 0.001575 -0.008445 -0.004182 0.025826
#
#
# Mechanical properties :
#
#
# Convention : Reuss Voigt Hill
#
# Bulk Modulus (GPa) = 37.58367 58.95900 48.27134
# Shear Modulus (GPa) = 33.15934 39.19896 36.17915
#
# Velocity S-wave (km/s) = 3.81586 4.14884 3.98583
# Velocity P-wave (km/s) = 5.99316 6.98859 6.50993
#
# Compressibility (1/GPa) = 0.02660730
#
# Stress axis : x y z
#
# Youngs Moduli (GPa) = 114.51193 43.57469 86.67855
#
# Poissons Ratio (x) = 0.16680 0.38973
# Poissons Ratio (y) = 0.43834 -0.00160
# Poissons Ratio (z) = 0.51488 -0.00080
#
# Static dielectric constant tensor:
#      x y z
#    x 1.904370 0.017230 0.029730 
#    y 0.017230 1.935240 -0.000360 
#    z 0.029730 -0.000360 1.794040 
# 
# From -- ./inp_files/540528.got.cif
#   From: 2010.05.17/outbox.cif.g08.bks.cpg/sg2_271_cif.got.tgz:540528.got - 2010.06.03 11:33:40.
