data_PCOD9029722
_publ_section_title
;
Structure prediction by ZEFSAII (Michael W. Deem and Ramdas Pophale) SiO2 
 PCOD9029722
Probable space group: P -1
;
_chemical_formula_sum "Si O2"
_cell_formula_units_Z 15
_cell_length_a 11.309021
_cell_length_b 14.754730
_cell_length_c 8.635460
_cell_angle_alpha 129.693294
_cell_angle_beta 67.737713
_cell_angle_gamma 73.389938
_cell_volume 688.815687
_symmetry_space_group_name_H-M "P -1"
_symmetry_group_IT_number 2
_symmetry_cell_setting 'triclinic'
loop_
_space_group_symop_operation_xyz
x,y,z
-x,-y,-z
loop_
_atom_site_type_symbol
_atom_site_label
_atom_site_fract_x
_atom_site_fract_y
_atom_site_fract_z
Si Si1 0.737754 0.628423 0.839674
Si Si2 0.028673 0.236474 0.308407
Si Si3 0.117270 0.657557 0.150855
Si Si4 0.491334 0.370143 0.811809
Si Si5 0.564646 0.940104 0.076930
Si Si6 0.000000 0.000000 0.500000
Si Si7 0.802579 0.791191 0.229933
Si Si8 0.879543 0.983848 0.221657
O O1 0.916680 0.423259 0.494043
O O2 0.584691 0.650420 0.024606
O O3 0.645787 0.755490 0.877575
O O4 0.792334 0.691096 0.006244
O O5 0.968326 0.279030 0.563253
O O6 0.254100 0.100265 0.036471
O O7 0.988456 0.150370 0.130341
O O8 0.983881 0.667822 0.120194
O O9 0.332665 0.467540 0.862658
O O10 0.102059 0.799224 0.246227
O O11 0.694723 0.177946 0.463990
O O12 0.500000 0.500000 0.000000
O O13 0.389955 0.081145 0.433489
O O14 0.500000 0.000000 0.000000
O O15 0.975355 0.996079 0.320025
O O16 0.812521 0.909241 0.263582
#
# Coordination Sequence:
#
# PCOD9029722 Si02
#       8
#     2   2   2   2   2   1   2   2
#     4  11  24  43  67  96 140 172 221 269 333 398
#     4  11  24  41  64 101 131 178 211 283 328 389
#     4  10  23  42  66  97 130 171 227 272 327 392
#     4  11  22  42  66  98 123 177 224 266 322 398
#     4  12  22  40  63 100 140 168 216 271 334 389
#     4  10  22  42  68  90 128 178 224 274 318 402
#     4  11  22  42  67  99 129 183 213 270 336 395
#     4  11  22  42  72  92 131 174 225 271 334 393
#
# _framework density 21.776506000000001
#
# number of rings (size 3 to 8) (size 9 to 14) (size 15 to 20)
#    0.000    1.067    5.333    1.600    0.000    2.667 
#    2.400    0.000    0.000    4.000    0.000    0.000 
#    0.000    0.000    0.000    0.000    0.000    0.000 
#
# Total GULP energy -83617.921883 kJ/mol
# GULP energy per Si atom -5574.528126 kJ/mol
# Density = 2.172694 g / cm^3
# Si number density = 21.776506 Si / 1000 Ang^3
#
#
#
# Elastic Constant Matrix: (Units=GPa)
#
#
# Indices 1 2 3 4 5 6 
#
# 1 72.4968 40.8373 33.9376 7.8846 11.4305 -13.8536
# 2 40.8373 137.0638 44.3739 21.7880 -3.3909 -21.7768
# 3 33.9376 44.3739 98.5022 13.4672 8.5392 -21.8220
# 4 7.8846 21.7880 13.4672 36.1220 2.8278 -6.4910
# 5 11.4305 -3.3909 8.5392 2.8278 33.8479 5.3547
# 6 -13.8536 -21.7768 -21.8220 -6.4910 5.3547 41.7800
#
#
#
# Elastic Compliance Matrix: (Units=1/GPa)
#
#
# Indices 1 2 3 4 5 6 
#
# 1 0.019566 -0.004465 -0.003526 0.000863 -0.006763 0.003320
# 2 -0.004465 0.010467 -0.002521 -0.004379 0.003313 0.001553
# 3 -0.003526 -0.002521 0.014154 -0.001823 -0.003279 0.005046
# 4 0.000863 -0.004379 -0.001823 0.031498 -0.003276 0.002365
# 5 -0.006763 0.003313 -0.003279 -0.003276 0.034391 -0.007145
# 6 0.003320 0.001553 0.005046 0.002365 -0.007145 0.029764
#
#
# Mechanical properties :
#
#
# Convention : Reuss Voigt Hill
#
# Bulk Modulus (GPa) = 43.17281 60.70672 51.93976
# Shear Modulus (GPa) = 29.65825 34.94426 32.30126
#
# Velocity S-wave (km/s) = 3.69445 4.01019 3.85555
# Velocity P-wave (km/s) = 6.16985 7.02708 6.61237
#
# Compressibility (1/GPa) = 0.02316273
#
# Stress axis : x y z
#
# Youngs Moduli (GPa) = 51.10811 95.53460 70.65031
#
# Poissons Ratio (x) = 0.42658 0.24912
# Poissons Ratio (y) = 0.22821 0.17813
# Poissons Ratio (z) = 0.18022 0.24087
#
# Static dielectric constant tensor:
#      x y z
#    x 1.841240 0.025910 -0.023500 
#    y 0.025910 1.813180 -0.012390 
#    z -0.023500 -0.012390 1.773830 
# 
# From -- ./inp_files/202139.got.cif
#   From: 2010.05.17/outbox.cif.g08.bks.cpg/sg2_102_cif.got.tgz:202139.got - 2010.06.03 11:33:40.
