data_PCOD9029319
_publ_section_title
;
Structure prediction by ZEFSAII (Michael W. Deem and Ramdas Pophale) SiO2 
 PCOD9029319
Probable space group: P -1
;
_chemical_formula_sum "Si O2"
_cell_formula_units_Z 16
_cell_length_a 20.139481
_cell_length_b 8.352855
_cell_length_c 23.981657
_cell_angle_alpha 32.805371
_cell_angle_beta 161.034725
_cell_angle_gamma 138.568608
_cell_volume 686.602638
_symmetry_space_group_name_H-M "P -1"
_symmetry_group_IT_number 2
_symmetry_cell_setting 'triclinic'
loop_
_space_group_symop_operation_xyz
x,y,z
-x,-y,-z
loop_
_atom_site_type_symbol
_atom_site_label
_atom_site_fract_x
_atom_site_fract_y
_atom_site_fract_z
Si Si1 0.934470 0.784762 0.055814
Si Si2 0.909271 0.828248 0.592445
Si Si3 0.801841 0.754760 0.294393
Si Si4 0.751059 0.586970 0.791582
Si Si5 0.535283 0.850029 0.654497
Si Si6 0.469061 0.568955 0.889506
Si Si7 0.185817 0.498256 0.499435
Si Si8 0.189431 0.082739 0.961193
O O1 0.690998 0.801617 0.844376
O O2 0.937535 0.902851 0.086292
O O3 0.079237 0.440183 0.275065
O O4 0.000000 0.000000 0.000000
O O5 0.876360 0.699271 0.542471
O O6 0.125318 0.933383 0.740766
O O7 0.720149 0.129141 0.360177
O O8 0.599037 0.708708 0.113453
O O9 0.781525 0.675472 0.365900
O O10 0.000000 0.500000 0.500000
O O11 0.687983 0.770431 0.745249
O O12 0.612177 0.807654 0.570525
O O13 0.688214 0.268138 0.844491
O O14 0.000000 0.500000 0.000000
O O15 0.384521 0.622906 0.604148
O O16 0.670528 0.675866 0.997267
O O17 0.500000 0.500000 0.000000
O O18 0.986471 0.795582 0.261001
#
# Coordination Sequence:
#
# PCOD9029319 Si02
#       8
#     2   2   2   2   2   2   2   2
#     4  11  26  45  65  99 142 186 241 294 348 426
#     4  10  24  44  69  98 140 190 232 302 360 421
#     4  10  22  42  67 101 139 182 237 292 360 432
#     4  11  23  43  68 102 137 187 237 295 352 419
#     4  11  25  42  70 100 140 185 242 290 357 425
#     4  11  24  44  70 104 140 182 238 297 364 436
#     4  11  22  43  70 102 139 183 238 295 359 432
#     4  11  23  42  67 100 141 185 236 293 362 421
#
# _framework density 23.303142000000001
#
# number of rings (size 3 to 8) (size 9 to 14) (size 15 to 20)
#    0.000    1.250    1.250    4.125    7.000    5.500 
#    6.750    3.750    0.000    0.000    0.000    0.000 
#    0.000    0.000    0.000    0.000    0.000    0.000 
#
# Total GULP energy -89483.321694 kJ/mol
# GULP energy per Si atom -5592.707606 kJ/mol
# Density = 2.325010 g / cm^3
# Si number density = 23.303142 Si / 1000 Ang^3
#
#
#
# Elastic Constant Matrix: (Units=GPa)
#
#
# Indices 1 2 3 4 5 6 
#
# 1 73.6142 38.3243 32.3635 -1.5045 -13.7471 26.7019
# 2 38.3243 146.3084 35.9850 12.5248 -8.6075 17.2653
# 3 32.3635 35.9850 119.0409 -11.2859 -4.6776 7.7132
# 4 -1.5045 12.5248 -11.2859 39.3690 3.3577 -0.5254
# 5 -13.7471 -8.6075 -4.6776 3.3577 41.7642 0.7382
# 6 26.7019 17.2653 7.7132 -0.5254 0.7382 33.3138
#
#
#
# Elastic Compliance Matrix: (Units=1/GPa)
#
#
# Indices 1 2 3 4 5 6 
#
# 1 0.024760 -0.002862 -0.004470 -0.000288 0.007392 -0.017496
# 2 -0.002862 0.008652 -0.002020 -0.003544 0.000932 -0.001799
# 3 -0.004470 -0.002020 0.010373 0.003566 -0.001053 0.002307
# 4 -0.000288 -0.003544 0.003566 0.027792 -0.002691 0.001740
# 5 0.007392 0.000932 -0.001053 -0.002691 0.026788 -0.006800
# 6 -0.017496 -0.001799 0.002307 0.001740 -0.006800 0.044617
#
#
# Mechanical properties :
#
#
# Convention : Reuss Voigt Hill
#
# Bulk Modulus (GPa) = 39.86940 61.36767 50.61854
# Shear Modulus (GPa) = 29.40355 38.37546 33.88950
#
# Velocity S-wave (km/s) = 3.55601 4.06247 3.81765
# Velocity P-wave (km/s) = 5.83151 6.95677 6.41884
#
# Compressibility (1/GPa) = 0.02508189
#
# Stress axis : x y z
#
# Youngs Moduli (GPa) = 40.38731 115.58077 96.39950
#
# Poissons Ratio (x) = 0.33082 0.43086
# Poissons Ratio (y) = 0.11560 0.19474
# Poissons Ratio (z) = 0.18051 0.23349
#
# Static dielectric constant tensor:
#      x y z
#    x 1.862190 -0.004460 0.033080 
#    y -0.004460 1.923350 -0.013460 
#    z 0.033080 -0.013460 1.959650 
# 
# From -- ./inp_files/613572.got.cif
#   From: 2010.05.17/outbox.cif.g08.bks.cpg/sg2_307_cif.got.tgz:613572.got - 2010.06.03 11:33:40.
