data_PCOD9029968
_publ_section_title
;
Structure prediction by ZEFSAII (Michael W. Deem and Ramdas Pophale) SiO2 
 PCOD9029968
Probable space group: P -1
;
_chemical_formula_sum "Si O2"
_cell_formula_units_Z 14
_cell_length_a 7.432991
_cell_length_b 13.639344
_cell_length_c 12.114665
_cell_angle_alpha 142.767468
_cell_angle_beta 130.813334
_cell_angle_gamma 51.374586
_cell_volume 547.776153
_symmetry_space_group_name_H-M "P -1"
_symmetry_group_IT_number 2
_symmetry_cell_setting 'triclinic'
loop_
_space_group_symop_operation_xyz
x,y,z
-x,-y,-z
loop_
_atom_site_type_symbol
_atom_site_label
_atom_site_fract_x
_atom_site_fract_y
_atom_site_fract_z
Si Si1 0.864529 0.592565 0.136295
Si Si2 0.481287 0.252906 0.414159
Si Si3 0.496518 0.590277 0.833713
Si Si4 0.153513 0.940549 0.246281
Si Si5 0.331086 0.034859 0.626372
Si Si6 0.810760 0.684575 0.868000
Si Si7 0.009603 0.827952 0.780969
O O1 0.590438 0.572083 0.980515
O O2 0.850727 0.786663 0.296935
O O3 0.000000 0.500000 0.000000
O O4 0.005013 0.497066 0.210827
O O5 0.557460 0.412095 0.638394
O O6 0.386475 0.287777 0.283462
O O7 0.233261 0.238373 0.363374
O O8 0.655582 0.075704 0.357509
O O9 0.647316 0.706366 0.932558
O O10 0.222447 0.684457 0.785559
O O11 0.401047 0.931216 0.264917
O O12 0.252821 0.930964 0.401356
O O13 0.981694 0.114832 0.291074
O O14 0.991159 0.808017 0.043592
O O15 0.000000 0.000000 0.000000
#
# Coordination Sequence:
#
# PCOD9029968 Si02
#       7
#     2   2   2   2   2   2   2
#     4  10  24  45  64  96 136 178 221 270 334 400
#     4  11  23  43  70 100 131 173 228 273 331 394
#     4  11  24  43  65  95 142 176 216 274 337 395
#     4  10  22  42  69 102 132 172 227 273 334 401
#     4  10  23  45  71  97 134 177 223 279 334 392
#     4  11  24  43  66 102 134 170 225 273 337 395
#     4  11  22  43  67 100 133 174 226 272 329 396
#
# _framework density 25.557883
#
# number of rings (size 3 to 8) (size 9 to 14) (size 15 to 20)
#    0.000    1.429    1.429    3.429    2.000    1.143 
#    5.143    5.714    0.000    0.000    0.000    0.000 
#    0.000    0.000    0.000    0.000    0.000    0.000 
#
# Total GULP energy -78276.690031 kJ/mol
# GULP energy per Si atom -5591.192145 kJ/mol
# Density = 2.549971 g / cm^3
# Si number density = 25.557883 Si / 1000 Ang^3
#
#
#
# Elastic Constant Matrix: (Units=GPa)
#
#
# Indices 1 2 3 4 5 6 
#
# 1 52.9440 17.7320 12.1441 0.5647 21.3176 9.7532
# 2 17.7320 159.5028 10.9605 0.5281 -8.0918 21.0262
# 3 12.1441 10.9605 92.7071 -3.1013 14.4804 5.0670
# 4 0.5647 0.5281 -3.1013 45.5092 -0.6416 -6.7043
# 5 21.3176 -8.0918 14.4804 -0.6416 33.0304 -9.5835
# 6 9.7532 21.0262 5.0670 -6.7043 -9.5835 39.7793
#
#
#
# Elastic Compliance Matrix: (Units=1/GPa)
#
#
# Indices 1 2 3 4 5 6 
#
# 1 0.032808 -0.003289 0.000817 -0.002622 -0.026209 -0.013166
# 2 -0.003289 0.007152 -0.000888 -0.000351 0.003666 -0.002037
# 3 0.000817 -0.000888 0.012019 0.000302 -0.006837 -0.002858
# 4 -0.002622 -0.000351 0.000302 0.022890 0.003513 0.005494
# 5 -0.026209 0.003666 -0.006837 0.003513 0.056855 0.019648
# 6 -0.013166 -0.002037 -0.002858 0.005494 0.019648 0.035467
#
#
# Mechanical properties :
#
#
# Convention : Reuss Voigt Hill
#
# Bulk Modulus (GPa) = 22.09498 42.98082 32.53790
# Shear Modulus (GPa) = 26.45553 41.28494 33.87024
#
# Velocity S-wave (km/s) = 3.22082 4.02350 3.64433
# Velocity P-wave (km/s) = 4.74293 6.19986 5.51968
#
# Compressibility (1/GPa) = 0.04525914
#
# Stress axis : x y z
#
# Youngs Moduli (GPa) = 30.48009 139.82619 83.20259
#
# Poissons Ratio (x) = 0.45986 -0.06795
# Poissons Ratio (y) = 0.10024 0.07386
# Poissons Ratio (z) = -0.02489 0.12413
#
# Static dielectric constant tensor:
#      x y z
#    x 2.068520 -0.036530 -0.046140 
#    y -0.036530 2.128830 -0.045730 
#    z -0.046140 -0.045730 2.036220 
# 
# From -- ./inp_files/505997.got.cif
#   From: 2010.05.17/outbox.cif.g08.bks.cpg/sg2_253_cif.got.tgz:505997.got - 2010.06.03 11:33:40.
