data_PCOD9029953
_publ_section_title
;
Structure prediction by ZEFSAII (Michael W. Deem and Ramdas Pophale) SiO2 
 PCOD9029953
Probable space group: P -1
;
_chemical_formula_sum "Si O2"
_cell_formula_units_Z 16
_cell_length_a 15.547311
_cell_length_b 14.897230
_cell_length_c 9.152778
_cell_angle_alpha 129.733258
_cell_angle_beta 151.370231
_cell_angle_gamma 50.316731
_cell_volume 763.669771
_symmetry_space_group_name_H-M "P -1"
_symmetry_group_IT_number 2
_symmetry_cell_setting 'triclinic'
loop_
_space_group_symop_operation_xyz
x,y,z
-x,-y,-z
loop_
_atom_site_type_symbol
_atom_site_label
_atom_site_fract_x
_atom_site_fract_y
_atom_site_fract_z
Si Si1 0.916705 0.131471 0.448246
Si Si2 0.369128 0.916655 0.556886
Si Si3 0.016897 0.550166 0.739641
Si Si4 0.776963 0.272568 0.672071
Si Si5 0.609410 0.595938 0.196555
Si Si6 0.427989 0.874067 0.271939
Si Si7 0.378290 0.383930 0.111656
Si Si8 0.258295 0.149232 0.786106
O O1 0.857467 0.228852 0.588710
O O2 0.065674 0.170215 0.603695
O O3 0.735422 0.119255 0.078842
O O4 0.000000 0.000000 0.500000
O O5 0.272685 0.840498 0.442018
O O6 0.358581 0.874386 0.334082
O O7 0.269419 0.051336 0.575553
O O8 0.581751 0.899950 0.907088
O O9 0.000000 0.500000 0.500000
O O10 0.820092 0.556256 0.522292
O O11 0.073212 0.677497 0.960123
O O12 0.197088 0.469465 0.996661
O O13 0.579036 0.365107 0.463368
O O14 0.548910 0.738631 0.288689
O O15 0.500000 0.500000 0.000000
O O16 0.602791 0.586013 0.999446
O O17 0.500000 0.000000 0.500000
O O18 0.319703 0.258161 0.912778
#
# Coordination Sequence:
#
# PCOD9029953 Si02
#       8
#     2   2   2   2   2   2   2   2
#     4  12  25  44  71 105 147 181 237 298 356 433
#     4  10  23  41  71 100 139 185 228 293 355 422
#     4  10  25  43  70  96 137 177 238 287 347 419
#     4  11  23  45  73 102 139 185 235 290 362 421
#     4  11  26  46  70 101 147 186 236 300 356 418
#     4  12  27  43  73 105 144 186 240 296 357 419
#     4  10  22  45  70  98 137 189 231 289 350 429
#     4  10  22  42  69 100 142 181 236 284 359 422
#
# _framework density 20.951464999999999
#
# number of rings (size 3 to 8) (size 9 to 14) (size 15 to 20)
#    0.000    1.250    2.500    1.875   10.500    1.500 
#    0.000    1.250    0.000    0.000    0.000    0.000 
#    0.000    0.000    0.000    0.000    0.000    0.000 
#
# Total GULP energy -89267.335653 kJ/mol
# GULP energy per Si atom -5579.208478 kJ/mol
# Density = 2.090378 g / cm^3
# Si number density = 20.951465 Si / 1000 Ang^3
#
#
#
# Elastic Constant Matrix: (Units=GPa)
#
#
# Indices 1 2 3 4 5 6 
#
# 1 73.1891 22.7247 35.9885 -3.8313 26.3338 -2.5312
# 2 22.7247 90.7239 44.9678 -6.1291 27.8424 -7.9943
# 3 35.9885 44.9678 126.2672 21.6887 28.3825 -11.8581
# 4 -3.8313 -6.1291 21.6887 22.6331 2.2225 2.1398
# 5 26.3338 27.8424 28.3825 2.2225 41.5398 4.3827
# 6 -2.5312 -7.9943 -11.8581 2.1398 4.3827 31.8073
#
#
#
# Elastic Compliance Matrix: (Units=1/GPa)
#
#
# Indices 1 2 3 4 5 6 
#
# 1 0.020411 0.001857 -0.005763 0.010480 -0.010885 0.000737
# 2 0.001857 0.017784 -0.006536 0.012079 -0.009561 0.002685
# 3 -0.005763 -0.006536 0.016177 -0.018515 -0.002612 0.005535
# 4 0.010480 0.012079 -0.018515 0.068116 -0.005003 -0.006926
# 5 -0.010885 -0.009561 -0.002612 -0.005003 0.040435 -0.009478
# 6 0.000737 0.002685 0.005535 -0.006926 -0.009478 0.036009
#
#
# Mechanical properties :
#
#
# Convention : Reuss Voigt Hill
#
# Bulk Modulus (GPa) = 29.86112 55.28247 42.57179
# Shear Modulus (GPa) = 21.64711 31.62931 26.63821
#
# Velocity S-wave (km/s) = 3.21783 3.88963 3.56957
# Velocity P-wave (km/s) = 5.29994 6.82756 6.11167
#
# Compressibility (1/GPa) = 0.03348837
#
# Stress axis : x y z
#
# Youngs Moduli (GPa) = 48.99325 56.23133 61.81492
#
# Poissons Ratio (x) = -0.10445 0.35625
# Poissons Ratio (y) = -0.09100 0.40403
# Poissons Ratio (z) = 0.28235 0.36754
#
# Static dielectric constant tensor:
#      x y z
#    x 1.722280 -0.014290 0.013180 
#    y -0.014290 1.776410 -0.035870 
#    z 0.013180 -0.035870 1.734140 
# 
# From -- ./inp_files/315999.got.cif
#   From: 2010.05.17/outbox.cif.g08.bks.cpg/sg2_158_cif.got.tgz:315999.got - 2010.06.03 11:33:40.
