data_PCOD9029334
_publ_section_title
;
Structure prediction by ZEFSAII (Michael W. Deem and Ramdas Pophale) SiO2 
 PCOD9029334
Probable space group: P -1
;
_chemical_formula_sum "Si O2"
_cell_formula_units_Z 14
_cell_length_a 20.817341
_cell_length_b 5.341076
_cell_length_c 5.070995
_cell_angle_alpha 87.683723
_cell_angle_beta 81.813176
_cell_angle_gamma 64.096791
_cell_volume 501.863627
_symmetry_space_group_name_H-M "P -1"
_symmetry_group_IT_number 2
_symmetry_cell_setting 'triclinic'
loop_
_space_group_symop_operation_xyz
x,y,z
-x,-y,-z
loop_
_atom_site_type_symbol
_atom_site_label
_atom_site_fract_x
_atom_site_fract_y
_atom_site_fract_z
Si Si1 0.742869 0.159908 0.228963
Si Si2 0.602582 0.362574 0.044026
Si Si3 0.319292 0.139304 0.329539
Si Si4 0.893601 0.140839 0.121879
Si Si5 0.061982 0.201138 0.408876
Si Si6 0.562249 0.701469 0.547546
Si Si7 0.824315 0.651808 0.819061
O O1 0.703619 0.078804 0.493298
O O2 0.808649 0.237316 0.226881
O O3 0.679983 0.360912 0.063021
O O4 0.782272 0.879160 0.050485
O O5 0.565723 0.474823 0.339730
O O6 0.442065 0.415056 0.157955
O O7 0.627145 0.052412 0.925786
O O8 0.364321 0.255132 0.474906
O O9 0.241407 0.379348 0.281085
O O10 0.934247 0.036739 0.377662
O O11 0.929653 0.894128 0.896382
O O12 0.887492 0.401487 0.944500
O O13 0.136186 0.231754 0.413274
O O14 0.000000 0.500000 0.500000
O O15 0.500000 0.000000 0.500000
#
# Coordination Sequence:
#
# PCOD9029334 Si02
#       7
#     2   2   2   2   2   2   2
#     4  10  22  42  67 103 134 174 233 293 348 416
#     4  11  25  46  68  99 138 180 229 291 356 414
#     4  11  24  45  73  99 141 182 230 300 355 417
#     4  11  24  41  69  96 137 181 229 288 347 411
#     4  11  25  44  64  99 141 180 233 284 341 423
#     4  12  28  45  68 102 137 184 239 284 349 430
#     4  10  24  41  70 103 135 183 235 289 357 416
#
# _framework density 27.896025000000002
#
# number of rings (size 3 to 8) (size 9 to 14) (size 15 to 20)
#    0.000    1.143    2.857    1.714    8.000    2.286 
#    0.000    0.000    0.000    0.000    0.000    0.000 
#    0.000    0.000    0.000    0.000    0.000    0.000 
#
# Total GULP energy -78412.904364 kJ/mol
# GULP energy per Si atom -5600.921740 kJ/mol
# Density = 2.783253 g / cm^3
# Si number density = 27.896025 Si / 1000 Ang^3
#
#
#
# Elastic Constant Matrix: (Units=GPa)
#
#
# Indices 1 2 3 4 5 6 
#
# 1 94.8578 9.3440 42.2603 1.5182 2.2316 -8.4749
# 2 9.3440 112.5057 47.0095 8.6047 15.8586 -18.9049
# 3 42.2603 47.0095 164.7656 11.0503 14.2442 -8.6957
# 4 1.5182 8.6047 11.0503 66.9925 2.0522 8.9131
# 5 2.2316 15.8586 14.2442 2.0522 45.2359 -10.7516
# 6 -8.4749 -18.9049 -8.6957 8.9131 -10.7516 40.0959
#
#
#
# Elastic Compliance Matrix: (Units=1/GPa)
#
#
# Indices 1 2 3 4 5 6 
#
# 1 0.012113 0.000649 -0.003220 -0.000171 0.000770 0.002413
# 2 0.000649 0.011186 -0.002847 -0.001540 -0.001887 0.004630
# 3 -0.003220 -0.002847 0.007851 -0.000742 -0.001408 -0.000533
# 4 -0.000171 -0.001540 -0.000742 0.015916 -0.001068 -0.004748
# 5 0.000770 -0.001887 -0.001408 -0.001068 0.024601 0.005802
# 6 0.002413 0.004630 -0.000533 -0.004748 0.005802 0.030129
#
#
# Mechanical properties :
#
#
# Convention : Reuss Voigt Hill
#
# Bulk Modulus (GPa) = 49.22681 63.26187 56.24434
# Shear Modulus (GPa) = 41.87551 48.69919 45.28735
#
# Velocity S-wave (km/s) = 3.87864 4.18274 4.03356
# Velocity P-wave (km/s) = 6.14356 6.78631 6.47292
#
# Compressibility (1/GPa) = 0.02031413
#
# Stress axis : x y z
#
# Youngs Moduli (GPa) = 82.55753 89.39753 127.37548
#
# Poissons Ratio (x) = -0.05805 0.41012
# Poissons Ratio (y) = -0.05361 0.36267
# Poissons Ratio (z) = 0.26582 0.25454
#
# Static dielectric constant tensor:
#      x y z
#    x 2.256720 -0.021630 -0.023430 
#    y -0.021630 2.125710 -0.032810 
#    z -0.023430 -0.032810 2.128100 
# 
# From -- ./inp_files/121525.got.cif
#   From: 2010.05.17/outbox.cif.g08.bks.cpg/sg2_61_cif.got.tgz:121525.got - 2010.06.03 11:33:40.
