data_PCOD9029589
_publ_section_title
;
Structure prediction by ZEFSAII (Michael W. Deem and Ramdas Pophale) SiO2 
 PCOD9029589
Probable space group: P -1
;
_chemical_formula_sum "Si O2"
_cell_formula_units_Z 14
_cell_length_a 25.394621
_cell_length_b 15.158162
_cell_length_c 6.029188
_cell_angle_alpha 101.874340
_cell_angle_beta 69.651440
_cell_angle_gamma 162.623855
_cell_volume 580.228820
_symmetry_space_group_name_H-M "P -1"
_symmetry_group_IT_number 2
_symmetry_cell_setting 'triclinic'
loop_
_space_group_symop_operation_xyz
x,y,z
-x,-y,-z
loop_
_atom_site_type_symbol
_atom_site_label
_atom_site_fract_x
_atom_site_fract_y
_atom_site_fract_z
Si Si1 0.396615 0.283373 0.734098
Si Si2 0.590086 0.514373 0.951633
Si Si3 0.639762 0.109358 0.611955
Si Si4 0.234144 0.849022 0.266407
Si Si5 0.942485 0.567013 0.010480
Si Si6 0.897248 0.835642 0.813517
Si Si7 0.757085 0.433579 0.978443
O O1 0.500000 0.500000 0.500000
O O2 0.340823 0.278829 0.981746
O O3 0.562035 0.472778 0.704854
O O4 0.177542 0.897543 0.818740
O O5 0.358244 0.130135 0.170579
O O6 0.733466 0.662998 0.934206
O O7 0.640776 0.010357 0.654380
O O8 0.833170 0.413596 0.325022
O O9 0.680118 0.236527 0.826303
O O10 0.412788 0.792908 0.711640
O O11 0.000000 0.500000 0.500000
O O12 0.207075 0.737993 0.042938
O O13 0.937828 0.658765 0.951595
O O14 0.807025 0.595890 0.839086
O O15 0.000000 0.000000 0.500000
O O16 0.000000 0.000000 0.000000
#
# Coordination Sequence:
#
# PCOD9029589 Si02
#       7
#     2   2   2   2   2   2   2
#     4  11  26  45  68 100 140 195 246 305 372 447
#     4  11  26  46  69 101 144 188 245 308 373 441
#     4  10  22  42  67  98 138 183 243 297 374 439
#     4  11  23  43  66 103 141 182 242 304 373 437
#     4  11  24  41  73 100 139 194 245 301 371 450
#     4  12  29  48  76 112 149 199 250 309 378 455
#     4  10  23  43  68 102 139 185 238 308 364 439
#
# _framework density 24.128409000000001
#
# number of rings (size 3 to 8) (size 9 to 14) (size 15 to 20)
#    0.000    1.143    1.429    3.000    8.000    6.857 
#    0.000    0.000    0.000    0.000    0.000    0.000 
#    0.000    0.000    0.000    0.000    0.000    0.000 
#
# Total GULP energy -78049.394310 kJ/mol
# GULP energy per Si atom -5574.956736 kJ/mol
# Density = 2.407349 g / cm^3
# Si number density = 24.128409 Si / 1000 Ang^3
#
#
#
# Elastic Constant Matrix: (Units=GPa)
#
#
# Indices 1 2 3 4 5 6 
#
# 1 121.9907 23.9992 9.9202 7.4089 21.9704 11.6279
# 2 23.9992 70.6836 13.8332 -1.2817 2.9782 10.2154
# 3 9.9202 13.8332 107.7493 -9.4435 12.0242 11.9034
# 4 7.4089 -1.2817 -9.4435 16.5403 -2.6686 10.8096
# 5 21.9704 2.9782 12.0242 -2.6686 38.2646 -1.7852
# 6 11.6279 10.2154 11.9034 10.8096 -1.7852 48.8765
#
#
#
# Elastic Compliance Matrix: (Units=1/GPa)
#
#
# Indices 1 2 3 4 5 6 
#
# 1 0.010338 -0.003199 -0.000275 -0.005537 -0.006020 -0.000719
# 2 -0.003199 0.015952 -0.001148 0.004284 0.001105 -0.003200
# 3 -0.000275 -0.001148 0.011024 0.008763 -0.002812 -0.004420
# 4 -0.005537 0.004284 0.008763 0.081902 0.004887 -0.019647
# 5 -0.006020 0.001105 -0.002812 0.004887 0.030819 0.001931
# 6 -0.000719 -0.003200 -0.004420 -0.019647 0.001931 0.026792
#
#
# Mechanical properties :
#
#
# Convention : Reuss Voigt Hill
#
# Bulk Modulus (GPa) = 35.62549 43.99207 39.80878
# Shear Modulus (GPa) = 25.58496 37.58101 31.58298
#
# Velocity S-wave (km/s) = 3.25986 3.95085 3.62187
# Velocity P-wave (km/s) = 5.38200 6.25175 5.83311
#
# Compressibility (1/GPa) = 0.02806979
#
# Stress axis : x y z
#
# Youngs Moduli (GPa) = 96.72942 62.68799 90.71449
#
# Poissons Ratio (x) = 0.20054 0.02496
# Poissons Ratio (y) = 0.30944 0.10412
# Poissons Ratio (z) = 0.02661 0.07195
#
# Static dielectric constant tensor:
#      x y z
#    x 1.982400 0.104330 0.021690 
#    y 0.104330 2.051400 0.078720 
#    z 0.021690 0.078720 2.050430 
# 
# From -- ./inp_files/80357.got.cif
#   From: 2010.05.17/outbox.cif.g08.bks.cpg/sg2_41_cif.got.tgz:80357.got - 2010.06.03 11:33:40.
