data_PCOD9029313
_publ_section_title
;
Structure prediction by ZEFSAII (Michael W. Deem and Ramdas Pophale) SiO2 
 PCOD9029313
Probable space group: P -1
;
_chemical_formula_sum "Si O2"
_cell_formula_units_Z 12
_cell_length_a 13.149217
_cell_length_b 10.071773
_cell_length_c 10.917576
_cell_angle_alpha 47.812935
_cell_angle_beta 34.004582
_cell_angle_gamma 34.196966
_cell_volume 454.018706
_symmetry_space_group_name_H-M "P -1"
_symmetry_group_IT_number 2
_symmetry_cell_setting 'triclinic'
loop_
_space_group_symop_operation_xyz
x,y,z
-x,-y,-z
loop_
_atom_site_type_symbol
_atom_site_label
_atom_site_fract_x
_atom_site_fract_y
_atom_site_fract_z
Si Si1 0.669558 0.566098 0.048651
Si Si2 0.134673 0.042520 0.939189
Si Si3 0.261684 0.422427 0.771182
Si Si4 0.054954 0.945572 0.626419
Si Si5 0.905030 0.683354 0.591162
Si Si6 0.420503 0.343890 0.405717
O O1 0.524747 0.480619 0.215172
O O2 0.000000 0.500000 0.000000
O O3 0.948348 0.325887 0.938640
O O4 0.683508 0.715233 0.846363
O O5 0.402835 0.307460 0.827403
O O6 0.402193 0.879881 0.720487
O O7 0.000000 0.000000 0.000000
O O8 0.862012 0.021472 0.882021
O O9 0.403443 0.274657 0.601117
O O10 0.219590 0.663414 0.647338
O O11 0.000000 0.000000 0.500000
O O12 0.145758 0.073817 0.513379
O O13 0.145866 0.533967 0.524842
O O14 0.000000 0.500000 0.500000
#
# Coordination Sequence:
#
# PCOD9029313 Si02
#       6
#     2   2   2   2   2   2
#     4  10  22  42  67 101 135 178 237 291 343 417
#     4   9  21  40  68  98 135 177 232 286 339 406
#     4  11  21  44  73 100 136 186 235 291 352 415
#     4  11  22  43  70  99 144 184 226 294 347 412
#     4  12  25  43  70 100 145 187 231 287 355 417
#     4  11  22  42  73  98 138 184 237 288 350 411
#
# _framework density 26.430630000000001
#
# number of rings (size 3 to 8) (size 9 to 14) (size 15 to 20)
#    0.000    1.333    3.333    2.500    0.000    3.333 
#    0.000    0.833   11.000    0.000    0.000    0.000 
#    0.000    0.000    0.000    0.000    0.000    0.000 
#
# Total GULP energy -67055.817234 kJ/mol
# GULP energy per Si atom -5587.984769 kJ/mol
# Density = 2.637047 g / cm^3
# Si number density = 26.430630 Si / 1000 Ang^3
#
#
#
# Elastic Constant Matrix: (Units=GPa)
#
#
# Indices 1 2 3 4 5 6 
#
# 1 110.5213 25.3309 44.2383 1.8192 18.7278 24.7671
# 2 25.3309 106.9776 51.3120 -0.7486 10.8318 33.0312
# 3 44.2383 51.3120 177.8554 -17.2719 22.6162 9.2065
# 4 1.8192 -0.7486 -17.2719 57.2737 12.2065 -3.1350
# 5 18.7278 10.8318 22.6162 12.2065 61.0527 14.3293
# 6 24.7671 33.0312 9.2065 -3.1350 14.3293 46.0169
#
#
#
# Elastic Compliance Matrix: (Units=1/GPa)
#
#
# Indices 1 2 3 4 5 6 
#
# 1 0.011500 0.000426 -0.002681 -0.001266 -0.001012 -0.005730
# 2 0.000426 0.014180 -0.004069 -0.001970 0.001659 -0.010244
# 3 -0.002681 -0.004069 0.007958 0.003282 -0.002981 0.003923
# 4 -0.001266 -0.001970 0.003282 0.019886 -0.005512 0.004510
# 5 -0.001012 0.001659 -0.002981 -0.005512 0.020176 -0.006708
# 6 -0.005730 -0.010244 0.003923 0.004510 -0.006708 0.033780
#
#
# Mechanical properties :
#
#
# Convention : Reuss Voigt Hill
#
# Bulk Modulus (GPa) = 47.64259 70.79072 59.21666
# Shear Modulus (GPa) = 39.33183 51.16686 45.24935
#
# Velocity S-wave (km/s) = 3.86180 4.40465 4.14213
# Velocity P-wave (km/s) = 6.16030 7.26014 6.73272
#
# Compressibility (1/GPa) = 0.02098962
#
# Stress axis : x y z
#
# Youngs Moduli (GPa) = 86.95753 70.52247 125.66212
#
# Poissons Ratio (x) = -0.03002 0.33688
# Poissons Ratio (y) = -0.03701 0.51129
# Poissons Ratio (z) = 0.23312 0.28694
#
# Static dielectric constant tensor:
#      x y z
#    x 2.233740 0.016340 0.030740 
#    y 0.016340 2.178420 0.007890 
#    z 0.030740 0.007890 2.191640 
# 
# From -- ./inp_files/571927.got.cif
#   From: 2010.05.17/outbox.cif.g08.bks.cpg/sg2_286_cif.got.tgz:571927.got - 2010.06.03 11:33:40.
