data_PCOD9029394
_publ_section_title
;
Structure prediction by ZEFSAII (Michael W. Deem and Ramdas Pophale) SiO2 
 PCOD9029394
Probable space group: P -1
;
_chemical_formula_sum "Si O2"
_cell_formula_units_Z 16
_cell_length_a 16.261033
_cell_length_b 9.670644
_cell_length_c 9.265378
_cell_angle_alpha 80.849536
_cell_angle_beta 107.923509
_cell_angle_gamma 144.049563
_cell_volume 803.225688
_symmetry_space_group_name_H-M "P -1"
_symmetry_group_IT_number 2
_symmetry_cell_setting 'triclinic'
loop_
_space_group_symop_operation_xyz
x,y,z
-x,-y,-z
loop_
_atom_site_type_symbol
_atom_site_label
_atom_site_fract_x
_atom_site_fract_y
_atom_site_fract_z
Si Si1 0.413328 0.764311 0.074336
Si Si2 0.207568 0.887272 0.107793
Si Si3 0.397938 0.262035 0.894669
Si Si4 0.392419 0.233685 0.425756
Si Si5 0.117516 0.450653 0.047457
Si Si6 0.407845 0.766274 0.412371
Si Si7 0.895054 0.717428 0.635508
Si Si8 0.189522 0.087318 0.562240
O O1 0.495473 0.724720 0.101776
O O2 0.238123 0.547438 0.984659
O O3 0.409389 0.786534 0.239071
O O4 0.500000 0.000000 0.000000
O O5 0.180695 0.682928 0.108355
O O6 0.320080 0.100685 0.252220
O O7 0.042958 0.727986 0.073142
O O8 0.273670 0.029094 0.968122
O O9 0.317140 0.243755 0.727485
O O10 0.500000 0.500000 0.000000
O O11 0.500000 0.500000 0.500000
O O12 0.506417 0.261620 0.508267
O O13 0.249372 0.058940 0.479968
O O14 0.090396 0.299798 0.184230
O O15 0.248625 0.559517 0.432746
O O16 0.500000 0.000000 0.500000
O O17 0.846375 0.812110 0.553597
O O18 0.038261 0.859844 0.602553
#
# Coordination Sequence:
#
# PCOD9029394 Si02
#       8
#     2   2   2   2   2   2   2   2
#     4  11  23  43  67 100 130 173 228 283 327 405
#     4  11  24  43  71  98 137 183 219 280 354 397
#     4  12  25  43  67 101 135 178 226 281 342 401
#     4  12  23  43  66 100 133 174 227 275 339 405
#     4  10  22  46  69  98 140 175 228 277 343 409
#     4  11  24  42  67  96 133 175 222 275 337 399
#     4  10  22  42  67  92 132 178 217 279 335 398
#     4  11  23  44  66  94 135 176 225 278 334 408
#
# _framework density 19.919682999999999
#
# number of rings (size 3 to 8) (size 9 to 14) (size 15 to 20)
#    0.000    1.000    5.000    2.250    0.000    0.000 
#    6.750    2.500    0.000    0.000    0.000    0.000 
#    0.000    0.000    0.000    0.000    0.000    0.000 
#
# Total GULP energy -89068.887853 kJ/mol
# GULP energy per Si atom -5566.805491 kJ/mol
# Density = 1.987434 g / cm^3
# Si number density = 19.919683 Si / 1000 Ang^3
#
#
#
# Elastic Constant Matrix: (Units=GPa)
#
#
# Indices 1 2 3 4 5 6 
#
# 1 106.2812 43.7031 25.0132 11.6671 20.9188 20.5490
# 2 43.7031 100.0638 29.3372 -1.5262 6.1469 10.9910
# 3 25.0132 29.3372 86.2356 0.6732 17.0725 -4.8737
# 4 11.6671 -1.5262 0.6732 25.9251 4.6526 -2.4620
# 5 20.9188 6.1469 17.0725 4.6526 34.8835 -0.1629
# 6 20.5490 10.9910 -4.8737 -2.4620 -0.1629 45.8752
#
#
#
# Elastic Compliance Matrix: (Units=1/GPa)
#
#
# Indices 1 2 3 4 5 6 
#
# 1 0.015062 -0.005135 -0.001627 -0.006447 -0.006499 -0.006058
# 2 -0.005135 0.013308 -0.003538 0.002704 0.002100 -0.001112
# 3 -0.001627 -0.003538 0.014571 0.001473 -0.005714 0.003183
# 4 -0.006447 0.002704 0.001473 0.042575 -0.002988 0.004671
# 5 -0.006499 0.002100 -0.005714 -0.002988 0.035398 0.001766
# 6 -0.006058 -0.001112 0.003183 0.004671 0.001766 0.025373
#
#
# Mechanical properties :
#
#
# Convention : Reuss Voigt Hill
#
# Bulk Modulus (GPa) = 44.75967 54.29862 49.52915
# Shear Modulus (GPa) = 28.68074 34.30522 31.49298
#
# Velocity S-wave (km/s) = 3.79861 4.15441 3.98049
# Velocity P-wave (km/s) = 6.46205 7.09438 6.78558
#
# Compressibility (1/GPa) = 0.02234154
#
# Stress axis : x y z
#
# Youngs Moduli (GPa) = 66.39316 75.14411 68.62857
#
# Poissons Ratio (x) = 0.38585 0.11168
# Poissons Ratio (y) = 0.34092 0.24277
# Poissons Ratio (z) = 0.10804 0.26582
#
# Static dielectric constant tensor:
#      x y z
#    x 1.684910 0.023840 0.043890 
#    y 0.023840 1.736790 0.003050 
#    z 0.043890 0.003050 1.755900 
# 
# From -- ./inp_files/298329.got.cif
#   From: 2010.05.17/outbox.cif.g08.bks.cpg/sg2_150_cif.got.tgz:298329.got - 2010.06.03 11:33:40.
