data_PCOD9029052
_publ_section_title
;
Structure prediction by ZEFSAII (Michael W. Deem and Ramdas Pophale) SiO2 
 PCOD9029052
Probable space group: P -1
;
_chemical_formula_sum "Si O2"
_cell_formula_units_Z 16
_cell_length_a 10.176487
_cell_length_b 17.565179
_cell_length_c 5.162363
_cell_angle_alpha 67.297961
_cell_angle_beta 99.838732
_cell_angle_gamma 64.319954
_cell_volume 700.894214
_symmetry_space_group_name_H-M "P -1"
_symmetry_group_IT_number 2
_symmetry_cell_setting 'triclinic'
loop_
_space_group_symop_operation_xyz
x,y,z
-x,-y,-z
loop_
_atom_site_type_symbol
_atom_site_label
_atom_site_fract_x
_atom_site_fract_y
_atom_site_fract_z
Si Si1 0.201769 0.971996 0.041578
Si Si2 0.619394 0.506543 0.726601
Si Si3 0.659811 0.329688 0.285236
Si Si4 0.957685 0.461219 0.785095
Si Si5 0.487118 0.091974 0.514341
Si Si6 0.294441 0.853808 0.722685
Si Si7 0.881024 0.761920 0.716117
Si Si8 0.006216 0.801472 0.207660
O O1 0.078791 0.087944 0.857427
O O2 0.814518 0.075023 0.640869
O O3 0.210780 0.908863 0.884871
O O4 0.379637 0.950638 0.159884
O O5 0.500000 0.500000 0.500000
O O6 0.510770 0.608302 0.713294
O O7 0.772148 0.497342 0.666330
O O8 0.680635 0.412897 0.058582
O O9 0.670058 0.253593 0.177443
O O10 0.803346 0.264758 0.617781
O O11 0.000000 0.500000 0.500000
O O12 0.060094 0.343555 0.005113
O O13 0.000000 0.500000 0.000000
O O14 0.545760 0.145756 0.272255
O O15 0.308985 0.167034 0.448091
O O16 0.500000 0.000000 0.500000
O O17 0.948324 0.753126 0.462336
O O18 0.947452 0.805880 0.889948
#
# Coordination Sequence:
#
# PCOD9029052 Si02
#       8
#     2   2   2   2   2   2   2   2
#     4  10  23  42  66 107 146 188 241 295 378 427
#     4  11  27  51  82 106 149 207 255 318 384 459
#     4  11  27  47  76 105 148 192 267 302 378 454
#     4  12  29  51  76 116 156 189 253 324 388 448
#     4  10  22  42  66 103 143 191 241 293 366 450
#     4  10  25  42  66 105 141 194 239 303 363 437
#     4  12  25  42  73 105 141 195 240 299 379 444
#     4  12  24  44  73 105 141 193 249 298 364 444
#
# _framework density 22.827983
#
# number of rings (size 3 to 8) (size 9 to 14) (size 15 to 20)
#    0.750    0.250    2.500    3.000    8.750    2.000 
#    0.000    0.000    0.000    0.000    0.000    0.000 
#    0.000    0.000    0.000    0.000    0.000    0.000 
#
# Total GULP energy -89551.124752 kJ/mol
# GULP energy per Si atom -5596.945297 kJ/mol
# Density = 2.277603 g / cm^3
# Si number density = 22.827983 Si / 1000 Ang^3
#
#
#
# Elastic Constant Matrix: (Units=GPa)
#
#
# Indices 1 2 3 4 5 6 
#
# 1 122.6318 26.3755 38.5350 -14.6160 9.9721 -5.1916
# 2 26.3755 126.8134 36.1968 -16.8552 -0.8537 6.1036
# 3 38.5350 36.1968 95.4598 -3.2398 -0.3308 -7.8198
# 4 -14.6160 -16.8552 -3.2398 50.9171 -6.5874 9.7280
# 5 9.9721 -0.8537 -0.3308 -6.5874 39.1182 5.8210
# 6 -5.1916 6.1036 -7.8198 9.7280 5.8210 20.9926
#
#
#
# Elastic Compliance Matrix: (Units=1/GPa)
#
#
# Indices 1 2 3 4 5 6 
#
# 1 0.009915 -0.000907 -0.003502 0.001758 -0.002472 0.001282
# 2 -0.000907 0.010177 -0.003936 0.004568 0.002291 -0.007401
# 3 -0.003502 -0.003936 0.013850 -0.002821 -0.000579 0.006905
# 4 0.001758 0.004568 -0.002821 0.025202 0.006153 -0.015329
# 5 -0.002472 0.002291 -0.000579 0.006153 0.029123 -0.012419
# 6 0.001282 -0.007401 0.006905 -0.015329 -0.012419 0.063224
#
#
# Mechanical properties :
#
#
# Convention : Reuss Voigt Hill
#
# Bulk Modulus (GPa) = 57.96943 60.79104 59.38023
# Shear Modulus (GPa) = 28.74702 38.45876 33.60289
#
# Velocity S-wave (km/s) = 3.55250 4.10899 3.84083
# Velocity P-wave (km/s) = 6.50201 7.01424 6.76298
#
# Compressibility (1/GPa) = 0.01725047
#
# Stress axis : x y z
#
# Youngs Moduli (GPa) = 100.85757 98.26491 72.20332
#
# Poissons Ratio (x) = 0.08913 0.25288
# Poissons Ratio (y) = 0.09149 0.28419
# Poissons Ratio (z) = 0.35324 0.38676
#
# Static dielectric constant tensor:
#      x y z
#    x 1.927590 0.032090 0.019540 
#    y 0.032090 1.827740 0.012950 
#    z 0.019540 0.012950 1.864800 
# 
# From -- ./inp_files/47153.got.cif
#   From: 2010.05.17/outbox.cif.g08.bks.cpg/sg2_24_cif.got.tgz:47153.got - 2010.06.03 11:33:40.
