data_PCOD9029032
_publ_section_title
;
Structure prediction by ZEFSAII (Michael W. Deem and Ramdas Pophale) SiO2 
 PCOD9029032
Probable space group: P -1
;
_chemical_formula_sum "Si O2"
_cell_formula_units_Z 15
_cell_length_a 5.039715
_cell_length_b 14.501981
_cell_length_c 19.640383
_cell_angle_alpha 27.846279
_cell_angle_beta 120.731418
_cell_angle_gamma 126.883628
_cell_volume 535.553381
_symmetry_space_group_name_H-M "P -1"
_symmetry_group_IT_number 2
_symmetry_cell_setting 'triclinic'
loop_
_space_group_symop_operation_xyz
x,y,z
-x,-y,-z
loop_
_atom_site_type_symbol
_atom_site_label
_atom_site_fract_x
_atom_site_fract_y
_atom_site_fract_z
Si Si1 0.377288 0.718138 0.515864
Si Si2 0.762102 0.243009 0.381447
Si Si3 0.189531 0.822562 0.716115
Si Si4 0.775758 0.722632 0.361438
Si Si5 0.000000 0.500000 0.000000
Si Si6 0.460964 0.277617 0.820522
Si Si7 0.194017 0.294068 0.916952
Si Si8 0.120427 0.183671 0.133468
O O1 0.157835 0.730720 0.544686
O O2 0.487910 0.521278 0.664219
O O3 0.133917 0.702012 0.431726
O O4 0.703342 0.927703 0.423516
O O5 0.940322 0.252602 0.326207
O O6 0.658337 0.449638 0.226692
O O7 0.500000 0.000000 0.500000
O O8 0.960828 0.700829 0.826261
O O9 0.534976 0.791417 0.800302
O O10 0.500000 0.500000 0.500000
O O11 0.714415 0.779748 0.238521
O O12 0.840385 0.949544 0.259181
O O13 0.992463 0.620499 0.993579
O O14 0.804752 0.243832 0.885346
O O15 0.315313 0.205783 0.923864
O O16 0.237310 0.210915 0.051211
#
# Coordination Sequence:
#
# PCOD9029032 Si02
#       8
#     2   2   2   2   1   2   2   2
#     4   9  21  42  71 101 138 185 236 302 357 428
#     4   9  18  39  63  95 137 184 230 290 349 424
#     4  10  22  42  66 101 141 184 240 287 366 428
#     4  11  24  47  75 105 144 189 247 303 368 429
#     4  12  24  40  68 106 142 194 228 302 360 446
#     4  11  25  46  73 104 145 192 241 306 357 430
#     4  11  25  46  70 104 147 191 248 294 365 433
#     4  11  27  44  71 104 145 195 237 306 359 442
#
# _framework density 28.008414999999999
#
# number of rings (size 3 to 8) (size 9 to 14) (size 15 to 20)
#    0.000    1.600    1.333    2.400    3.733    2.133 
#    2.400    3.333    0.000    0.000    0.000    0.000 
#    0.000    0.000    0.000    0.000    0.000    0.000 
#
# Total GULP energy -83691.694103 kJ/mol
# GULP energy per Si atom -5579.446274 kJ/mol
# Density = 2.794467 g / cm^3
# Si number density = 28.008415 Si / 1000 Ang^3
#
#
#
# Elastic Constant Matrix: (Units=GPa)
#
#
# Indices 1 2 3 4 5 6 
#
# 1 94.2597 64.8777 18.3110 28.2157 -15.9323 -13.1162
# 2 64.8777 154.0891 37.2943 2.2761 8.9731 -4.8088
# 3 18.3110 37.2943 123.4482 -1.3280 -5.5977 -1.0226
# 4 28.2157 2.2761 -1.3280 61.2594 -6.3270 3.4621
# 5 -15.9323 8.9731 -5.5977 -6.3270 31.1032 7.0795
# 6 -13.1162 -4.8088 -1.0226 3.4621 7.0795 36.2805
#
#
#
# Elastic Compliance Matrix: (Units=1/GPa)
#
#
# Indices 1 2 3 4 5 6 
#
# 1 0.023099 -0.010108 0.000098 -0.009386 0.011570 0.005652
# 2 -0.010108 0.011714 -0.002377 0.003385 -0.008088 -0.000913
# 3 0.000098 -0.002377 0.008922 0.000536 0.002584 -0.000584
# 4 -0.009386 0.003385 0.000536 0.020769 -0.000361 -0.004841
# 5 0.011570 -0.008088 0.002584 -0.000361 0.041933 -0.004964
# 6 0.005652 -0.000913 -0.000584 -0.004841 -0.004964 0.030899
#
#
# Mechanical properties :
#
#
# Convention : Reuss Voigt Hill
#
# Bulk Modulus (GPa) = 52.74279 68.08477 60.41378
# Shear Modulus (GPa) = 29.68579 42.48289 36.08434
#
# Velocity S-wave (km/s) = 3.25912 3.89882 3.59324
# Velocity P-wave (km/s) = 5.74756 6.68051 6.23152
#
# Compressibility (1/GPa) = 0.01895994
#
# Stress axis : x y z
#
# Youngs Moduli (GPa) = 43.29217 85.37148 112.07836
#
# Poissons Ratio (x) = 0.86294 -0.01098
# Poissons Ratio (y) = 0.43760 0.26644
# Poissons Ratio (z) = -0.00424 0.20295
#
# Static dielectric constant tensor:
#      x y z
#    x 2.480140 0.122820 -0.127770 
#    y 0.122820 2.364910 -0.081040 
#    z -0.127770 -0.081040 2.253340 
# 
# From -- ./inp_files/583615.got.cif
#   From: 2010.05.17/outbox.cif.g08.bks.cpg/sg2_292_cif.got.tgz:583615.got - 2010.06.03 11:33:40.
