data_PCOD9029920
_publ_section_title
;
Structure prediction by ZEFSAII (Michael W. Deem and Ramdas Pophale) SiO2 
 PCOD9029920
Probable space group: P -1
;
_chemical_formula_sum "Si O2"
_cell_formula_units_Z 12
_cell_length_a 9.035622
_cell_length_b 14.341515
_cell_length_c 9.345144
_cell_angle_alpha 57.320815
_cell_angle_beta 33.054186
_cell_angle_gamma 72.416098
_cell_volume 525.256574
_symmetry_space_group_name_H-M "P -1"
_symmetry_group_IT_number 2
_symmetry_cell_setting 'triclinic'
loop_
_space_group_symop_operation_xyz
x,y,z
-x,-y,-z
loop_
_atom_site_type_symbol
_atom_site_label
_atom_site_fract_x
_atom_site_fract_y
_atom_site_fract_z
Si Si1 0.955353 0.736131 0.082010
Si Si2 0.136656 0.914950 0.043233
Si Si3 0.133121 0.060295 0.196474
Si Si4 0.770558 0.660985 0.759905
Si Si5 0.582323 0.394467 0.208661
Si Si6 0.562718 0.188678 0.944481
O O1 0.031291 0.804633 0.114623
O O2 0.639647 0.645976 0.446325
O O3 0.183029 0.671026 0.919635
O O4 0.967195 0.836254 0.874047
O O5 0.448972 0.905356 0.839991
O O6 0.083389 0.956452 0.210160
O O7 0.000000 0.000000 0.000000
O O8 0.460267 0.128120 0.925621
O O9 0.000000 0.000000 0.500000
O O10 0.589906 0.640722 0.774118
O O11 0.105653 0.728223 0.401894
O O12 0.726923 0.534006 0.967311
O O13 0.633229 0.734880 0.912888
#
# Coordination Sequence:
#
# PCOD9029920 Si02
#       6
#     2   2   2   2   2   2
#     4  11  24  45  73 104 139 179 238 286 334 411
#     4  10  22  42  68  99 133 180 235 281 329 403
#     4  11  27  46  70 101 145 190 227 282 352 414
#     4  11  23  41  74 103 138 177 229 286 352 407
#     4  11  22  44  72 106 135 179 232 290 343 406
#     4  12  23  44  67 104 139 183 224 284 352 410
#
# _framework density 22.845977000000001
#
# number of rings (size 3 to 8) (size 9 to 14) (size 15 to 20)
#    0.000    1.000    3.333    2.500    0.000    8.000 
#    0.000   11.667    0.000    0.000    0.000    0.000 
#    0.000    0.000    0.000    0.000    0.000    0.000 
#
# Total GULP energy -66879.176315 kJ/mol
# GULP energy per Si atom -5573.264693 kJ/mol
# Density = 2.279398 g / cm^3
# Si number density = 22.845977 Si / 1000 Ang^3
#
#
#
# Elastic Constant Matrix: (Units=GPa)
#
#
# Indices 1 2 3 4 5 6 
#
# 1 118.3592 58.9615 50.0501 -9.9586 9.9638 -14.5324
# 2 58.9615 118.5033 50.0266 6.4440 -4.3732 -35.5836
# 3 50.0501 50.0266 122.7821 -2.8214 -14.4907 -14.1008
# 4 -9.9586 6.4440 -2.8214 17.8968 -13.6502 5.9212
# 5 9.9638 -4.3732 -14.4907 -13.6502 30.8774 4.1951
# 6 -14.5324 -35.5836 -14.1008 5.9212 4.1951 45.6905
#
#
#
# Elastic Compliance Matrix: (Units=1/GPa)
#
#
# Indices 1 2 3 4 5 6 
#
# 1 0.013917 -0.006934 -0.003324 0.008416 -0.002929 -0.002821
# 2 -0.006934 0.019897 -0.005311 -0.025390 -0.010826 0.015936
# 3 -0.003324 -0.005311 0.013016 0.013259 0.012844 -0.004074
# 4 0.008416 -0.025390 0.013259 0.131716 0.063011 -0.035860
# 5 -0.002929 -0.010826 0.012844 0.063011 0.068378 -0.019843
# 6 -0.002821 0.015936 -0.004074 -0.035860 -0.019843 0.038611
#
#
# Mechanical properties :
#
#
# Convention : Reuss Voigt Hill
#
# Bulk Modulus (GPa) = 63.73031 75.30232 69.51632
# Shear Modulus (GPa) = 15.53253 32.26668 23.89960
#
# Velocity S-wave (km/s) = 2.61028 3.76221 3.23788
# Velocity P-wave (km/s) = 6.08613 7.20449 6.66880
#
# Compressibility (1/GPa) = 0.01569112
#
# Stress axis : x y z
#
# Youngs Moduli (GPa) = 71.85405 50.25865 76.82722
#
# Poissons Ratio (x) = 0.34850 0.25538
# Poissons Ratio (y) = 0.49825 0.40806
# Poissons Ratio (z) = 0.23885 0.26694
#
# Static dielectric constant tensor:
#      x y z
#    x 1.879800 -0.019570 -0.034050 
#    y -0.019570 1.855430 -0.053630 
#    z -0.034050 -0.053630 1.888120 
# 
# From -- ./inp_files/205794.got.cif
#   From: 2010.05.17/outbox.cif.g08.bks.cpg/sg2_103_cif.got.tgz:205794.got - 2010.06.03 11:33:40.
