data_PCOD9029639
_publ_section_title
;
Structure prediction by ZEFSAII (Michael W. Deem and Ramdas Pophale) SiO2 
 PCOD9029639
Probable space group: P -1
;
_chemical_formula_sum "Si O2"
_cell_formula_units_Z 14
_cell_length_a 22.487598
_cell_length_b 18.130751
_cell_length_c 11.345344
_cell_angle_alpha 27.143647
_cell_angle_beta 153.271734
_cell_angle_gamma 163.119122
_cell_volume 581.769222
_symmetry_space_group_name_H-M "P -1"
_symmetry_group_IT_number 2
_symmetry_cell_setting 'triclinic'
loop_
_space_group_symop_operation_xyz
x,y,z
-x,-y,-z
loop_
_atom_site_type_symbol
_atom_site_label
_atom_site_fract_x
_atom_site_fract_y
_atom_site_fract_z
Si Si1 0.872869 0.638440 0.829955
Si Si2 0.169458 0.148499 0.748348
Si Si3 0.508195 0.217632 0.930604
Si Si4 0.460610 0.673222 0.915328
Si Si5 0.776224 0.299828 0.953844
Si Si6 0.012077 0.896384 0.058889
Si Si7 0.417916 0.059762 0.493844
O O1 0.895529 0.776588 0.562416
O O2 0.822853 0.415662 0.000938
O O3 0.667926 0.489256 0.759085
O O4 0.075483 0.879532 0.926216
O O5 0.426578 0.376222 0.872541
O O6 0.051964 0.057211 0.792465
O O7 0.422025 0.189422 0.944624
O O8 0.340073 0.984784 0.868443
O O9 0.643129 0.187209 0.250171
O O10 0.493085 0.825092 0.645611
O O11 0.214374 0.416335 0.886478
O O12 0.616094 0.263804 0.647927
O O13 0.000000 0.500000 0.000000
O O14 0.218428 0.978167 0.293935
O O15 0.000000 0.000000 0.000000
#
# Coordination Sequence:
#
# PCOD9029639 Si02
#       7
#     2   2   2   2   2   2   2
#     4  11  22  45  64  94 140 172 226 272 328 399
#     4  10  25  44  67  97 133 179 223 282 321 397
#     4  10  22  42  68 101 128 177 217 275 339 395
#     4  11  22  44  67  97 133 171 226 274 338 392
#     4  10  23  42  65  98 135 173 215 272 336 399
#     4  11  25  44  68  97 130 180 228 273 334 389
#     4   9  25  42  66 101 129 170 220 280 331 392
#
# _framework density 24.064523999999999
#
# number of rings (size 3 to 8) (size 9 to 14) (size 15 to 20)
#    0.857    0.857    1.429    1.714    4.000    3.429 
#    2.571    0.000    0.000    0.000    0.000    0.000 
#    0.000    0.000    0.000    0.000    0.000    0.000 
#
# Total GULP energy -78020.446302 kJ/mol
# GULP energy per Si atom -5572.889022 kJ/mol
# Density = 2.400975 g / cm^3
# Si number density = 24.064524 Si / 1000 Ang^3
#
#
#
# Elastic Constant Matrix: (Units=GPa)
#
#
# Indices 1 2 3 4 5 6 
#
# 1 176.4739 41.7816 17.0787 -12.2943 -11.5257 28.1871
# 2 41.7816 99.8679 16.2802 8.1073 11.4637 26.7699
# 3 17.0787 16.2802 41.5589 1.6292 -14.0867 11.8021
# 4 -12.2943 8.1073 1.6292 22.6085 6.6321 4.3181
# 5 -11.5257 11.4637 -14.0867 6.6321 29.5110 -7.5329
# 6 28.1871 26.7699 11.8021 4.3181 -7.5329 50.3985
#
#
#
# Elastic Compliance Matrix: (Units=1/GPa)
#
#
# Indices 1 2 3 4 5 6 
#
# 1 0.007289 -0.002870 -0.000719 0.004986 0.001851 -0.002534
# 2 -0.002870 0.015652 -0.006982 -0.001934 -0.011803 -0.006672
# 3 -0.000719 -0.006982 0.034245 -0.006169 0.020067 -0.000380
# 4 0.004986 -0.001934 -0.006169 0.053545 -0.014068 -0.007007
# 5 0.001851 -0.011803 0.020067 -0.014068 0.054455 0.009879
# 6 -0.002534 -0.006672 -0.000380 -0.007007 0.009879 0.026969
#
#
# Mechanical properties :
#
#
# Convention : Reuss Voigt Hill
#
# Bulk Modulus (GPa) = 27.74495 52.02020 39.88257
# Shear Modulus (GPa) = 22.19133 36.68762 29.43948
#
# Velocity S-wave (km/s) = 3.04000 3.90879 3.50144
# Velocity P-wave (km/s) = 4.88637 6.48347 5.74073
#
# Compressibility (1/GPa) = 0.03604259
#
# Stress axis : x y z
#
# Youngs Moduli (GPa) = 137.20000 63.88771 29.20151
#
# Poissons Ratio (x) = 0.18336 0.02101
# Poissons Ratio (y) = 0.39376 0.20389
# Poissons Ratio (z) = 0.09871 0.44608
#
# Static dielectric constant tensor:
#      x y z
#    x 1.961760 -0.053860 0.013020 
#    y -0.053860 2.058470 0.010190 
#    z 0.013020 0.010190 1.954740 
# 
# From -- ./inp_files/472352.got.cif
#   From: 2010.05.17/outbox.cif.g08.bks.cpg/sg2_237_cif.got.tgz:472352.got - 2010.06.03 11:33:40.
