data_PCOD9029799
_publ_section_title
;
Structure prediction by ZEFSAII (Michael W. Deem and Ramdas Pophale) SiO2 
 PCOD9029799
Probable space group: P -1
;
_chemical_formula_sum "Si O2"
_cell_formula_units_Z 16
_cell_length_a 5.538050
_cell_length_b 9.122746
_cell_length_c 19.047441
_cell_angle_alpha 80.261620
_cell_angle_beta 54.176088
_cell_angle_gamma 89.959232
_cell_volume 763.184698
_symmetry_space_group_name_H-M "P -1"
_symmetry_group_IT_number 2
_symmetry_cell_setting 'triclinic'
loop_
_space_group_symop_operation_xyz
x,y,z
-x,-y,-z
loop_
_atom_site_type_symbol
_atom_site_label
_atom_site_fract_x
_atom_site_fract_y
_atom_site_fract_z
Si Si1 0.244793 0.741117 0.751423
Si Si2 0.242882 0.870102 0.032258
Si Si3 0.516299 0.615708 0.053118
Si Si4 0.560171 0.964598 0.573022
Si Si5 0.931523 0.240922 0.528139
Si Si6 0.726613 0.563038 0.765029
Si Si7 0.858053 0.520022 0.420990
Si Si8 0.908303 0.134306 0.087270
O O1 0.322019 0.854226 0.664489
O O2 0.515495 0.647624 0.740448
O O3 0.197752 0.838077 0.819939
O O4 0.937462 0.648684 0.783265
O O5 0.243592 0.717351 0.085949
O O6 0.303595 0.834165 0.943681
O O7 0.958890 0.960473 0.082149
O O8 0.500000 0.000000 0.000000
O O9 0.503753 0.543074 0.138095
O O10 0.500000 0.500000 0.000000
O O11 0.805163 0.740104 0.984291
O O12 0.830630 0.863782 0.530611
O O13 0.500000 0.000000 0.500000
O O14 0.631550 0.124455 0.586397
O O15 0.945182 0.379179 0.461725
O O16 0.011749 0.320268 0.581623
O O17 0.981129 0.495693 0.679819
O O18 0.500000 0.500000 0.500000
#
# Coordination Sequence:
#
# PCOD9029799 Si02
#       8
#     2   2   2   2   2   2   2   2
#     4  12  26  45  70 104 140 186 240 288 354 416
#     4   9  21  42  64  96 134 185 232 285 355 408
#     4  11  22  42  69 102 140 181 237 286 347 414
#     4  11  23  44  69  99 135 180 235 290 345 427
#     4  10  22  42  68  95 132 174 229 279 361 404
#     4  12  27  44  70 106 142 183 239 294 347 425
#     4  11  23  45  69  98 139 183 223 291 356 417
#     4  10  22  43  70  95 141 189 227 295 351 413
#
# _framework density 20.964780999999999
#
# number of rings (size 3 to 8) (size 9 to 14) (size 15 to 20)
#    0.000    1.250    2.500    3.000    7.000    1.000 
#   11.250    0.000    0.000    0.000    0.000    0.000 
#    0.000    0.000    0.000    0.000    0.000    0.000 
#
# Total GULP energy -89085.714788 kJ/mol
# GULP energy per Si atom -5567.857174 kJ/mol
# Density = 2.091706 g / cm^3
# Si number density = 20.964781 Si / 1000 Ang^3
#
#
#
# Elastic Constant Matrix: (Units=GPa)
#
#
# Indices 1 2 3 4 5 6 
#
# 1 67.5024 24.2828 4.7121 -2.8867 12.3407 5.6028
# 2 24.2828 109.5294 21.5369 0.9336 6.0400 7.1501
# 3 4.7121 21.5369 99.5471 -3.2214 10.5454 -14.6040
# 4 -2.8867 0.9336 -3.2214 34.3994 0.7894 4.8008
# 5 12.3407 6.0400 10.5454 0.7894 23.2216 5.4031
# 6 5.6028 7.1501 -14.6040 4.8008 5.4031 15.7790
#
#
#
# Elastic Compliance Matrix: (Units=1/GPa)
#
#
# Indices 1 2 3 4 5 6 
#
# 1 0.017827 -0.003493 0.000589 0.002112 -0.008451 -0.001951
# 2 -0.003493 0.011008 -0.003658 0.000129 0.002519 -0.008035
# 3 0.000589 -0.003658 0.014636 -0.000867 -0.010354 0.018804
# 4 0.002112 0.000129 -0.000867 0.030712 0.000807 -0.011232
# 5 -0.008451 0.002519 -0.010354 0.000807 0.058053 -0.027849
# 6 -0.001951 -0.008035 0.018804 -0.011232 -0.027849 0.098067
#
#
# Mechanical properties :
#
#
# Convention : Reuss Voigt Hill
#
# Bulk Modulus (GPa) = 32.95039 41.96027 37.45533
# Shear Modulus (GPa) = 19.72057 29.74981 24.73519
#
# Velocity S-wave (km/s) = 3.07033 3.77110 3.43861
# Velocity P-wave (km/s) = 5.32169 6.24657 5.80259
#
# Compressibility (1/GPa) = 0.03034866
#
# Stress axis : x y z
#
# Youngs Moduli (GPa) = 56.09540 90.84242 68.32255
#
# Poissons Ratio (x) = 0.31729 -0.04025
# Poissons Ratio (y) = 0.19592 0.24991
# Poissons Ratio (z) = -0.03305 0.33228
#
# Static dielectric constant tensor:
#      x y z
#    x 1.919950 -0.000720 -0.048190 
#    y -0.000720 1.766510 0.007820 
#    z -0.048190 0.007820 1.761560 
# 
# From -- ./inp_files/117093.got.cif
#   From: 2010.05.17/outbox.cif.g08.bks.cpg/sg2_59_cif.got.tgz:117093.got - 2010.06.03 11:33:40.
