data_PCOD9029838
_publ_section_title
;
Structure prediction by ZEFSAII (Michael W. Deem and Ramdas Pophale) SiO2 
 PCOD9029838
Probable space group: P -1
;
_chemical_formula_sum "Si O2"
_cell_formula_units_Z 14
_cell_length_a 27.331148
_cell_length_b 9.505898
_cell_length_c 9.227111
_cell_angle_alpha 133.103059
_cell_angle_beta 37.335998
_cell_angle_gamma 151.725133
_cell_volume 687.527817
_symmetry_space_group_name_H-M "P -1"
_symmetry_group_IT_number 2
_symmetry_cell_setting 'triclinic'
loop_
_space_group_symop_operation_xyz
x,y,z
-x,-y,-z
loop_
_atom_site_type_symbol
_atom_site_label
_atom_site_fract_x
_atom_site_fract_y
_atom_site_fract_z
Si Si1 0.733338 0.250009 0.765109
Si Si2 0.982078 0.796360 0.012569
Si Si3 0.250694 0.271247 0.834164
Si Si4 0.136196 0.724789 0.268675
Si Si5 0.878896 0.680110 0.489509
Si Si6 0.538732 0.609585 0.653222
Si Si7 0.728213 0.765634 0.911499
O O1 0.771217 0.180322 0.758776
O O2 0.840714 0.444723 0.525803
O O3 0.613251 0.941229 0.750753
O O4 0.730683 0.465595 0.987769
O O5 0.887628 0.481497 0.937960
O O6 0.123571 0.996291 0.856499
O O7 0.921143 0.722565 0.258607
O O8 0.000000 0.000000 0.000000
O O9 0.363647 0.387841 0.556871
O O10 0.239588 0.147554 0.931847
O O11 0.000000 0.500000 0.500000
O O12 0.185119 0.990375 0.245787
O O13 0.754641 0.586134 0.709619
O O14 0.000000 0.000000 0.500000
O O15 0.500000 0.500000 0.500000
O O16 0.409408 0.396670 0.893977
#
# Coordination Sequence:
#
# PCOD9029838 Si02
#       7
#     2   2   2   2   2   2   2
#     4  11  23  44  66  94 133 183 215 280 330 388
#     4  12  22  39  67  99 132 168 220 272 336 400
#     4  10  22  42  68  96 135 171 222 270 328 400
#     4  12  25  40  66  99 136 170 220 275 345 390
#     4  11  21  40  68  96 133 169 222 270 338 397
#     4  10  24  43  66  96 132 174 234 267 325 394
#     4  10  23  42  62  97 130 174 217 278 324 386
#
# _framework density 20.362812999999999
#
# number of rings (size 3 to 8) (size 9 to 14) (size 15 to 20)
#    0.000    1.143    4.286    2.571    4.000    6.286 
#    0.000    0.714    0.000    0.000    0.000    0.000 
#    0.000    0.000    0.000    0.000    0.000    0.000 
#
# Total GULP energy -77978.128570 kJ/mol
# GULP energy per Si atom -5569.866326 kJ/mol
# Density = 2.031647 g / cm^3
# Si number density = 20.362813 Si / 1000 Ang^3
#
#
#
# Elastic Constant Matrix: (Units=GPa)
#
#
# Indices 1 2 3 4 5 6 
#
# 1 99.0947 26.6005 23.6549 -5.9837 10.9259 -2.1478
# 2 26.6005 61.2805 -4.2687 1.5432 12.9949 5.7322
# 3 23.6549 -4.2687 83.6939 -8.5162 0.1926 12.8854
# 4 -5.9837 1.5432 -8.5162 34.1794 8.2797 0.5014
# 5 10.9259 12.9949 0.1926 8.2797 36.3342 -1.7171
# 6 -2.1478 5.7322 12.8854 0.5014 -1.7171 32.3323
#
#
#
# Elastic Compliance Matrix: (Units=1/GPa)
#
#
# Indices 1 2 3 4 5 6 
#
# 1 0.013153 -0.005951 -0.004362 0.001936 -0.002078 0.003527
# 2 -0.005951 0.021007 0.003735 0.000515 -0.006142 -0.005942
# 3 -0.004362 0.003735 0.014761 0.003124 -0.001142 -0.006944
# 4 0.001936 0.000515 0.003124 0.032385 -0.008264 -0.002149
# 5 -0.002078 -0.006142 -0.001142 -0.008264 0.032387 0.003254
# 6 0.003527 -0.005942 -0.006944 -0.002149 0.003254 0.035190
#
#
# Mechanical properties :
#
#
# Convention : Reuss Voigt Hill
#
# Bulk Modulus (GPa) = 27.96092 37.33804 32.64948
# Shear Modulus (GPa) = 28.74208 33.77468 31.25838
#
# Velocity S-wave (km/s) = 3.76107 4.07707 3.92225
# Velocity P-wave (km/s) = 5.71157 6.36706 6.04820
#
# Compressibility (1/GPa) = 0.03576420
#
# Stress axis : x y z
#
# Youngs Moduli (GPa) = 76.03066 47.60303 67.74473
#
# Poissons Ratio (x) = 0.28329 0.29551
# Poissons Ratio (y) = 0.45247 -0.25302
# Poissons Ratio (z) = 0.33166 -0.17779
#
# Static dielectric constant tensor:
#      x y z
#    x 1.727680 0.034180 -0.065120 
#    y 0.034180 1.659540 0.002960 
#    z -0.065120 0.002960 1.750970 
# 
# From -- ./inp_files/186236.got.cif
#   From: 2010.05.17/outbox.cif.g08.bks.cpg/sg2_94_cif.got.tgz:186236.got - 2010.06.03 11:33:40.
