data_PCOD9029496
_publ_section_title
;
Structure prediction by ZEFSAII (Michael W. Deem and Ramdas Pophale) SiO2 
 PCOD9029496
Probable space group: P -1
;
_chemical_formula_sum "Si O2"
_cell_formula_units_Z 16
_cell_length_a 9.607099
_cell_length_b 6.229664
_cell_length_c 16.885186
_cell_angle_alpha 103.185409
_cell_angle_beta 130.830297
_cell_angle_gamma 92.723695
_cell_volume 717.466857
_symmetry_space_group_name_H-M "P -1"
_symmetry_group_IT_number 2
_symmetry_cell_setting 'triclinic'
loop_
_space_group_symop_operation_xyz
x,y,z
-x,-y,-z
loop_
_atom_site_type_symbol
_atom_site_label
_atom_site_fract_x
_atom_site_fract_y
_atom_site_fract_z
Si Si1 0.874414 0.172198 0.477935
Si Si2 0.340624 0.259208 0.924302
Si Si3 0.465426 0.833663 0.547869
Si Si4 0.204601 0.375626 0.332946
Si Si5 0.882495 0.376891 0.323756
Si Si6 0.998810 0.430253 0.862914
Si Si7 0.502899 0.896163 0.874465
Si Si8 0.154121 0.862212 0.067292
O O1 0.664761 0.083365 0.429561
O O2 0.861530 0.273646 0.395062
O O3 0.000120 0.363482 0.599196
O O4 0.000000 0.000000 0.500000
O O5 0.137784 0.316003 0.854789
O O6 0.393583 0.091760 0.865548
O O7 0.500000 0.500000 0.000000
O O8 0.363866 0.131763 0.004936
O O9 0.336997 0.585821 0.449966
O O10 0.665904 0.796635 0.647780
O O11 0.500000 0.000000 0.500000
O O12 0.013627 0.273708 0.305090
O O13 0.138957 0.477295 0.237806
O O14 0.667523 0.334182 0.210791
O O15 0.888219 0.252812 0.872504
O O16 0.125886 0.649867 0.977064
O O17 0.638699 0.967374 0.856019
O O18 0.000000 0.000000 0.000000
#
# Coordination Sequence:
#
# PCOD9029496 Si02
#       8
#     2   2   2   2   2   2   2   2
#     4  10  22  43  65  96 131 168 214 271 328 395
#     4  11  22  40  63  95 129 167 225 274 323 390
#     4  10  22  42  67  96 129 166 216 269 327 401
#     4  10  23  42  65  94 127 169 216 272 330 389
#     4  10  23  41  64  94 129 168 216 272 328 389
#     4  11  24  42  66  92 133 176 220 281 329 397
#     4  11  24  40  66  94 129 173 221 277 328 395
#     4  11  24  44  61  92 134 175 222 274 332 395
#
# _framework density 22.300682999999999
#
# number of rings (size 3 to 8) (size 9 to 14) (size 15 to 20)
#    0.000    1.500    2.500    1.500    1.750    8.000 
#    0.000    0.000    0.000    0.000    0.000    0.000 
#    0.000    0.000    0.000    0.000    0.000    0.000 
#
# Total GULP energy -89469.707175 kJ/mol
# GULP energy per Si atom -5591.856698 kJ/mol
# Density = 2.224993 g / cm^3
# Si number density = 22.300683 Si / 1000 Ang^3
#
#
#
# Elastic Constant Matrix: (Units=GPa)
#
#
# Indices 1 2 3 4 5 6 
#
# 1 182.6105 65.0130 44.4700 -27.4278 31.3291 9.6285
# 2 65.0130 70.4142 12.5888 -21.6404 16.3055 -3.8266
# 3 44.4700 12.5888 75.3969 -21.1923 20.6760 -2.3419
# 4 -27.4278 -21.6404 -21.1923 34.1165 -6.1365 8.6537
# 5 31.3291 16.3055 20.6760 -6.1365 30.9689 0.3599
# 6 9.6285 -3.8266 -2.3419 8.6537 0.3599 41.6429
#
#
#
# Elastic Compliance Matrix: (Units=1/GPa)
#
#
# Indices 1 2 3 4 5 6 
#
# 1 0.009988 -0.007560 -0.003374 0.001373 -0.003559 -0.003448
# 2 -0.007560 0.025594 0.005540 0.011787 -0.007215 0.002024
# 3 -0.003374 0.005540 0.020595 0.011590 -0.010959 0.000134
# 4 0.001373 0.011787 0.011590 0.046045 -0.006115 -0.008098
# 5 -0.003559 -0.007215 -0.010959 -0.006115 0.045789 0.000419
# 6 -0.003448 0.002024 0.000134 -0.008098 0.000419 0.026684
#
#
# Mechanical properties :
#
#
# Convention : Reuss Voigt Hill
#
# Bulk Modulus (GPa) = 22.03143 63.61836 42.82489
# Shear Modulus (GPa) = 24.92355 35.10231 30.01293
#
# Velocity S-wave (km/s) = 3.34670 3.97173 3.67254
# Velocity P-wave (km/s) = 4.98343 7.04431 6.10151
#
# Compressibility (1/GPa) = 0.04538970
#
# Stress axis : x y z
#
# Youngs Moduli (GPa) = 100.12159 39.07115 48.55531
#
# Poissons Ratio (x) = 0.29537 0.16382
# Poissons Ratio (y) = 0.75689 -0.26899
# Poissons Ratio (z) = 0.33779 -0.21645
#
# Static dielectric constant tensor:
#      x y z
#    x 1.828940 -0.007990 -0.025670 
#    y -0.007990 1.903340 -0.123320 
#    z -0.025670 -0.123320 2.148220 
# 
# From -- ./inp_files/553570.got.cif
#   From: 2010.05.17/outbox.cif.g08.bks.cpg/sg2_277_cif.got.tgz:553570.got - 2010.06.03 11:33:40.
