data_PCOD9029227
_publ_section_title
;
Structure prediction by ZEFSAII (Michael W. Deem and Ramdas Pophale) SiO2 
 PCOD9029227
Probable space group: P -1
;
_chemical_formula_sum "Si O2"
_cell_formula_units_Z 14
_cell_length_a 19.225383
_cell_length_b 10.894293
_cell_length_c 7.795996
_cell_angle_alpha 39.880556
_cell_angle_beta 142.198910
_cell_angle_gamma 149.149493
_cell_volume 492.190964
_symmetry_space_group_name_H-M "P -1"
_symmetry_group_IT_number 2
_symmetry_cell_setting 'triclinic'
loop_
_space_group_symop_operation_xyz
x,y,z
-x,-y,-z
loop_
_atom_site_type_symbol
_atom_site_label
_atom_site_fract_x
_atom_site_fract_y
_atom_site_fract_z
Si Si1 0.390392 0.900930 0.113969
Si Si2 0.611826 0.705141 0.778773
Si Si3 0.913631 0.788736 0.873279
Si Si4 0.372875 0.588163 0.111564
Si Si5 0.849079 0.205156 0.823552
Si Si6 0.910499 0.213693 0.330837
Si Si7 0.308086 0.475779 0.588148
O O1 0.425663 0.766675 0.191345
O O2 0.354861 0.748944 0.383277
O O3 0.235117 0.833628 0.831393
O O4 0.521635 0.195266 0.053266
O O5 0.708050 0.650983 0.130638
O O6 0.683683 0.984799 0.671993
O O7 0.620043 0.631563 0.682657
O O8 0.443718 0.509124 0.727008
O O9 0.801918 0.581545 0.016805
O O10 0.830190 0.677166 0.644767
O O11 0.059510 0.826365 0.097377
O O12 0.931457 0.034449 0.655340
O O13 0.867922 0.147699 0.116235
O O14 0.938677 0.500342 0.678673
#
# Coordination Sequence:
#
# PCOD9029227 Si02
#       7
#     2   2   2   2   2   2   2
#     4  10  22  43  67  99 124 178 229 254 316 406
#     4  11  24  41  63 101 136 166 209 283 337 363
#     4  11  22  45  71  94 127 182 221 256 322 403
#     4  10  23  41  66  95 137 169 213 275 323 386
#     4  11  24  42  67 100 130 167 227 267 322 385
#     4  11  22  41  73  94 127 175 227 266 304 402
#     4  10  22  42  66  97 130 167 225 267 319 382
#
# _framework density 28.444243
#
# number of rings (size 3 to 8) (size 9 to 14) (size 15 to 20)
#    0.000    1.429    4.286    1.286    2.000    7.429 
#    2.571    0.714    0.000    0.000    0.000    0.000 
#    0.000    0.000    0.000    0.000    0.000    0.000 
#
# Total GULP energy -78337.831119 kJ/mol
# GULP energy per Si atom -5595.559366 kJ/mol
# Density = 2.837950 g / cm^3
# Si number density = 28.444243 Si / 1000 Ang^3
#
#
#
# Elastic Constant Matrix: (Units=GPa)
#
#
# Indices 1 2 3 4 5 6 
#
# 1 98.9545 42.7497 -14.0903 7.9029 13.3245 -15.0810
# 2 42.7497 182.5783 24.9004 -14.9027 -16.0840 -13.7109
# 3 -14.0903 24.9004 60.5880 -6.1427 -10.3830 -5.2329
# 4 7.9029 -14.9027 -6.1427 54.4595 -5.5025 -5.5493
# 5 13.3245 -16.0840 -10.3830 -5.5025 31.1250 -7.5779
# 6 -15.0810 -13.7109 -5.2329 -5.5493 -7.5779 48.4368
#
#
#
# Elastic Compliance Matrix: (Units=1/GPa)
#
#
# Indices 1 2 3 4 5 6 
#
# 1 0.014200 -0.004617 0.003765 -0.003439 -0.007335 0.001980
# 2 -0.004617 0.007888 -0.002762 0.003328 0.006168 0.001844
# 3 0.003765 -0.002762 0.019804 0.001763 0.004724 0.003471
# 4 -0.003439 0.003328 0.001763 0.021214 0.008459 0.003816
# 5 -0.007335 0.006168 0.004724 0.008459 0.043410 0.007733
# 6 0.001980 0.001844 0.003471 0.003816 0.007733 0.023806
#
#
# Mechanical properties :
#
#
# Convention : Reuss Voigt Hill
#
# Bulk Modulus (GPa) = 28.84699 49.91559 39.38129
# Shear Modulus (GPa) = 33.53369 46.04165 39.78767
#
# Velocity S-wave (km/s) = 3.43728 4.02763 3.74410
# Velocity P-wave (km/s) = 5.09085 6.26224 5.70668
#
# Compressibility (1/GPa) = 0.03466566
#
# Stress axis : x y z
#
# Youngs Moduli (GPa) = 70.42183 126.77188 50.49587
#
# Poissons Ratio (x) = 0.58524 -0.19012
# Poissons Ratio (y) = 0.32510 0.13946
# Poissons Ratio (z) = -0.26515 0.35011
#
# Static dielectric constant tensor:
#      x y z
#    x 2.215160 -0.029140 -0.062310 
#    y -0.029140 2.155540 0.015730 
#    z -0.062310 0.015730 2.314810 
# 
# From -- ./inp_files/345009.got.cif
#   From: 2010.05.17/outbox.cif.g08.bks.cpg/sg2_173_cif.got.tgz:345009.got - 2010.06.03 11:33:40.
