data_PCOD9029273
_publ_section_title
;
Structure prediction by ZEFSAII (Michael W. Deem and Ramdas Pophale) SiO2 
 PCOD9029273
Probable space group: P -1
;
_chemical_formula_sum "Si O2"
_cell_formula_units_Z 15
_cell_length_a 12.629850
_cell_length_b 17.503209
_cell_length_c 5.335941
_cell_angle_alpha 56.114859
_cell_angle_beta 80.855380
_cell_angle_gamma 45.194517
_cell_volume 637.605676
_symmetry_space_group_name_H-M "P -1"
_symmetry_group_IT_number 2
_symmetry_cell_setting 'triclinic'
loop_
_space_group_symop_operation_xyz
x,y,z
-x,-y,-z
loop_
_atom_site_type_symbol
_atom_site_label
_atom_site_fract_x
_atom_site_fract_y
_atom_site_fract_z
Si Si1 0.245846 0.048714 0.189419
Si Si2 0.500000 0.000000 0.500000
Si Si3 0.807198 0.696903 0.710728
Si Si4 0.689192 0.596125 0.185848
Si Si5 0.017275 0.349580 0.769307
Si Si6 0.526979 0.384808 0.077220
Si Si7 0.176151 0.897573 0.737315
Si Si8 0.617183 0.169589 0.823193
O O1 0.235548 0.957300 0.496374
O O2 0.327487 0.964648 0.053086
O O3 0.357095 0.047661 0.294756
O O4 0.070319 0.209498 0.958494
O O5 0.359035 0.140833 0.478199
O O6 0.882904 0.664371 0.467835
O O7 0.765349 0.617426 0.920228
O O8 0.925778 0.653177 0.974016
O O9 0.529397 0.749933 0.074342
O O10 0.828149 0.486587 0.535368
O O11 0.616905 0.550414 0.175684
O O12 0.700809 0.262353 0.098340
O O13 0.537725 0.294092 0.436749
O O14 0.500000 0.500000 0.000000
O O15 0.219444 0.886110 0.032685
O O16 0.000000 0.000000 0.500000
#
# Coordination Sequence:
#
# PCOD9029273 Si02
#       8
#     2   1   2   2   2   2   2   2
#     4  10  24  43  67 103 132 185 229 285 348 413
#     4  10  22  42  66  98 140 174 234 276 336 414
#     4  11  25  42  67 104 139 189 228 285 348 410
#     4  11  25  43  66  96 138 181 222 292 341 420
#     4  11  27  41  69 103 144 179 240 276 348 414
#     4  10  24  43  66  98 126 178 230 278 355 412
#     4  10  23  43  67  99 136 171 229 292 348 411
#     4  10  23  42  71  93 135 179 226 280 357 414
#
# _framework density 23.525514000000001
#
# number of rings (size 3 to 8) (size 9 to 14) (size 15 to 20)
#    0.000    1.600    0.000    3.200   11.200    8.533 
#    0.000    0.000    0.000    0.000    0.000    0.000 
#    0.000    0.000    0.000    0.000    0.000    0.000 
#
# Total GULP energy -83617.199179 kJ/mol
# GULP energy per Si atom -5574.479945 kJ/mol
# Density = 2.347197 g / cm^3
# Si number density = 23.525514 Si / 1000 Ang^3
#
#
#
# Elastic Constant Matrix: (Units=GPa)
#
#
# Indices 1 2 3 4 5 6 
#
# 1 84.7387 36.0115 19.2020 -16.2045 36.7952 6.9217
# 2 36.0115 88.7118 4.3157 -18.4973 5.0382 18.6453
# 3 19.2020 4.3157 64.7759 -12.1359 16.8875 -9.0373
# 4 -16.2045 -18.4973 -12.1359 39.7037 -2.4910 0.5311
# 5 36.7952 5.0382 16.8875 -2.4910 38.1546 -12.4829
# 6 6.9217 18.6453 -9.0373 0.5311 -12.4829 34.9672
#
#
#
# Elastic Compliance Matrix: (Units=1/GPa)
#
#
# Indices 1 2 3 4 5 6 
#
# 1 0.032749 -0.006159 -0.000839 0.008252 -0.035119 -0.016078
# 2 -0.006159 0.016190 0.000336 0.005334 0.001786 -0.006770
# 3 -0.000839 0.000336 0.018609 0.005072 -0.006337 0.002457
# 4 0.008252 0.005334 0.005072 0.031982 -0.011339 -0.007701
# 5 -0.035119 0.001786 -0.006337 -0.011339 0.071772 0.030156
# 6 -0.016078 -0.006770 0.002457 -0.007701 0.030156 0.046908
#
#
# Mechanical properties :
#
#
# Convention : Reuss Voigt Hill
#
# Bulk Modulus (GPa) = 18.44161 39.69830 29.06996
# Shear Modulus (GPa) = 20.03134 34.47823 27.25479
#
# Velocity S-wave (km/s) = 2.92117 3.83243 3.40740
# Velocity P-wave (km/s) = 4.38562 6.04107 5.27864
#
# Compressibility (1/GPa) = 0.05422520
#
# Stress axis : x y z
#
# Youngs Moduli (GPa) = 30.53491 61.76632 53.73669
#
# Poissons Ratio (x) = 0.38042 0.04509
# Poissons Ratio (y) = 0.18806 -0.01807
# Poissons Ratio (z) = 0.02562 -0.02077
#
# Static dielectric constant tensor:
#      x y z
#    x 1.866670 0.011060 -0.009180 
#    y 0.011060 1.978220 0.111330 
#    z -0.009180 0.111330 2.026540 
# 
# From -- ./inp_files/80103.got.cif
#   From: 2010.05.17/outbox.cif.g08.bks.cpg/sg2_41_cif.got.tgz:80103.got - 2010.06.03 11:33:40.
