data_PCOD9029966
_publ_section_title
;
Structure prediction by ZEFSAII (Michael W. Deem and Ramdas Pophale) SiO2 
 PCOD9029966
Probable space group: P -1
;
_chemical_formula_sum "Si O2"
_cell_formula_units_Z 10
_cell_length_a 14.665552
_cell_length_b 7.849929
_cell_length_c 11.645287
_cell_angle_alpha 70.418867
_cell_angle_beta 160.485024
_cell_angle_gamma 116.544136
_cell_volume 383.661853
_symmetry_space_group_name_H-M "P -1"
_symmetry_group_IT_number 2
_symmetry_cell_setting 'triclinic'
loop_
_space_group_symop_operation_xyz
x,y,z
-x,-y,-z
loop_
_atom_site_type_symbol
_atom_site_label
_atom_site_fract_x
_atom_site_fract_y
_atom_site_fract_z
Si Si1 0.237519 0.666700 0.329111
Si Si2 0.402746 0.102166 0.483349
Si Si3 0.948770 0.904374 0.710463
Si Si4 0.851147 0.121896 0.369587
Si Si5 0.760215 0.563529 0.389765
O O1 0.537920 0.748197 0.587244
O O2 0.243745 0.592206 0.482751
O O3 0.209514 0.874887 0.268244
O O4 0.000000 0.500000 0.000000
O O5 0.257502 0.145320 0.412272
O O6 0.731351 0.108571 0.901937
O O7 0.756997 0.733680 0.432070
O O8 0.990445 0.118102 0.660815
O O9 0.945497 0.326184 0.366246
O O10 0.000000 0.000000 0.500000
O O11 0.500000 0.000000 0.000000
O O12 0.500000 0.500000 0.000000
#
# Coordination Sequence:
#
# PCOD9029966 Si02
#       5
#     2   2   2   2   2
#     4  11  25  50  77 112 152 197 259 313 380 458
#     4  11  26  50  77 110 152 202 247 319 385 448
#     4  11  23  49  77 106 154 199 251 310 385 451
#     4  10  22  42  69 101 148 194 239 304 380 440
#     4  11  24  47  76 118 152 201 261 320 376 462
#
# _framework density 26.064619
#
# number of rings (size 3 to 8) (size 9 to 14) (size 15 to 20)
#    0.000    1.200    2.000    3.600    0.000    5.600 
#    7.200   10.000    0.000    0.000    0.000    0.000 
#    0.000    0.000    0.000    0.000    0.000    0.000 
#
# Total GULP energy -55823.364221 kJ/mol
# GULP energy per Si atom -5582.336422 kJ/mol
# Density = 2.600530 g / cm^3
# Si number density = 26.064619 Si / 1000 Ang^3
#
#
#
# Elastic Constant Matrix: (Units=GPa)
#
#
# Indices 1 2 3 4 5 6 
#
# 1 220.2422 68.2363 105.6963 11.5471 4.4202 39.8806
# 2 68.2363 121.8246 52.9347 17.7937 -5.4814 53.3749
# 3 105.6963 52.9347 183.1770 3.3876 -2.0381 16.4174
# 4 11.5471 17.7937 3.3876 40.2281 0.4225 -10.0534
# 5 4.4202 -5.4814 -2.0381 0.4225 61.2715 8.1063
# 6 39.8806 53.3749 16.4174 -10.0534 8.1063 83.4358
#
#
#
# Elastic Compliance Matrix: (Units=1/GPa)
#
#
# Indices 1 2 3 4 5 6 
#
# 1 0.007096 -0.001376 -0.003495 -0.001622 -0.000479 -0.001972
# 2 -0.001376 0.016341 -0.002768 -0.009294 0.002943 -0.010657
# 3 -0.003495 -0.002768 0.008048 0.002078 -0.000021 0.002110
# 4 -0.001622 -0.009294 0.002078 0.031875 -0.002237 0.010370
# 5 -0.000479 0.002943 -0.000021 -0.002237 0.017107 -0.003581
# 6 -0.001972 -0.010657 0.002110 0.010370 -0.003581 0.020928
#
#
# Mechanical properties :
#
#
# Convention : Reuss Voigt Hill
#
# Bulk Modulus (GPa) = 61.70754 108.77537 85.24146
# Shear Modulus (GPa) = 40.95751 56.87886 48.91818
#
# Velocity S-wave (km/s) = 3.96837 4.67650 4.33691
# Velocity P-wave (km/s) = 6.68756 8.42514 7.60613
#
# Compressibility (1/GPa) = 0.01620548
#
# Stress axis : x y z
#
# Youngs Moduli (GPa) = 140.92094 61.19394 124.24980
#
# Poissons Ratio (x) = 0.08423 0.43430
# Poissons Ratio (y) = 0.19397 0.34397
# Poissons Ratio (z) = 0.49258 0.16941
#
# Static dielectric constant tensor:
#      x y z
#    x 1.568850 0.773550 -1.084800 
#    y 0.773550 1.579700 1.034290 
#    z -1.084800 1.034290 0.453320 
# 
# From -- ./inp_files/442860.got.cif
#   From: 2010.05.17/outbox.cif.g08.bks.cpg/sg2_222_cif.got.tgz:442860.got - 2010.06.03 11:33:40.
