data_PCOD9029003
_publ_section_title
;
Structure prediction by ZEFSAII (Michael W. Deem and Ramdas Pophale) SiO2 
 PCOD9029003
Probable space group: P -1
;
_chemical_formula_sum "Si O2"
_cell_formula_units_Z 16
_cell_length_a 12.276511
_cell_length_b 8.591195
_cell_length_c 8.304052
_cell_angle_alpha 53.436328
_cell_angle_beta 89.104458
_cell_angle_gamma 100.859431
_cell_volume 681.726728
_symmetry_space_group_name_H-M "P -1"
_symmetry_group_IT_number 2
_symmetry_cell_setting 'triclinic'
loop_
_space_group_symop_operation_xyz
x,y,z
-x,-y,-z
loop_
_atom_site_type_symbol
_atom_site_label
_atom_site_fract_x
_atom_site_fract_y
_atom_site_fract_z
Si Si1 0.244056 0.004477 0.708362
Si Si2 0.097280 0.649232 0.505286
Si Si3 0.822515 0.881133 0.865652
Si Si4 0.383615 0.097723 0.353109
Si Si5 0.988061 0.194622 0.281053
Si Si6 0.434977 0.872352 0.939273
Si Si7 0.496360 0.503304 0.799548
Si Si8 0.735524 0.627267 0.318943
O O1 0.294548 0.958434 0.561103
O O2 0.260696 0.240331 0.600976
O O3 0.115263 0.887513 0.784875
O O4 0.316976 0.918875 0.885867
O O5 0.047094 0.659227 0.680163
O O6 0.206047 0.556320 0.555055
O O7 0.000000 0.500000 0.500000
O O8 0.126821 0.879111 0.297634
O O9 0.700159 0.839210 0.811697
O O10 0.895429 0.752832 0.847620
O O11 0.810250 0.795282 0.096588
O O12 0.484914 0.066215 0.258378
O O13 0.447069 0.267502 0.369905
O O14 0.000000 0.000000 0.500000
O O15 0.426873 0.648562 0.136635
O O16 0.500000 0.000000 0.000000
O O17 0.384658 0.440743 0.730465
O O18 0.500000 0.500000 0.000000
#
# Coordination Sequence:
#
# PCOD9029003 Si02
#       8
#     2   2   2   2   2   2   2   2
#     4  12  24  42  69 101 138 185 235 283 356 420
#     4  11  26  44  71 105 139 180 241 293 344 417
#     4  11  23  48  74  99 144 191 229 284 368 403
#     4  11  23  42  71  98 139 190 224 291 355 413
#     4  10  22  43  71  98 139 182 230 292 343 425
#     4  11  22  44  66  99 140 179 240 284 344 418
#     4  10  22  42  65  99 140 179 229 288 337 417
#     4  12  25  46  71 105 145 184 234 294 344 420
#
# _framework density 23.469816000000002
#
# number of rings (size 3 to 8) (size 9 to 14) (size 15 to 20)
#    0.000    1.000    6.250    1.875    3.500    4.000 
#    4.500    0.000    0.000    0.000    0.000    0.000 
#    0.000    0.000    0.000    0.000    0.000    0.000 
#
# Total GULP energy -89279.653877 kJ/mol
# GULP energy per Si atom -5579.978367 kJ/mol
# Density = 2.341640 g / cm^3
# Si number density = 23.469816 Si / 1000 Ang^3
#
#
#
# Elastic Constant Matrix: (Units=GPa)
#
#
# Indices 1 2 3 4 5 6 
#
# 1 106.0400 31.3708 -2.3048 -4.2960 20.6580 -11.3538
# 2 31.3708 133.9487 3.8654 2.2691 5.6671 -2.1445
# 3 -2.3048 3.8654 41.9465 -5.7752 -0.2348 -10.3763
# 4 -4.2960 2.2691 -5.7752 29.0879 -3.7340 -0.4119
# 5 20.6580 5.6671 -0.2348 -3.7340 38.2881 2.4848
# 6 -11.3538 -2.1445 -10.3763 -0.4119 2.4848 41.5618
#
#
#
# Elastic Compliance Matrix: (Units=1/GPa)
#
#
# Indices 1 2 3 4 5 6 
#
# 1 0.011927 -0.002557 0.002079 0.001642 -0.006145 0.004029
# 2 -0.002557 0.008107 -0.001207 -0.001247 0.000089 -0.000599
# 3 0.002079 -0.001207 0.026642 0.005704 -0.000694 0.007255
# 4 0.001642 -0.001247 0.005704 0.036231 0.002737 0.002004
# 5 -0.006145 0.000089 -0.000694 0.002737 0.029917 -0.003609
# 6 0.004029 -0.000599 0.007255 0.002004 -0.003609 0.027177
#
#
# Mechanical properties :
#
#
# Convention : Reuss Voigt Hill
#
# Bulk Modulus (GPa) = 23.09094 38.64421 30.86758
# Shear Modulus (GPa) = 31.68478 38.38781 35.03629
#
# Velocity S-wave (km/s) = 3.67825 4.04867 3.86790
# Velocity P-wave (km/s) = 5.28198 6.19330 5.75570
#
# Compressibility (1/GPa) = 0.04330703
#
# Stress axis : x y z
#
# Youngs Moduli (GPa) = 83.84301 123.35206 37.53537
#
# Poissons Ratio (x) = 0.31537 -0.07805
# Poissons Ratio (y) = 0.21436 0.04530
# Poissons Ratio (z) = -0.17433 0.14887
#
# Static dielectric constant tensor:
#      x y z
#    x 1.862560 0.066290 -0.041530 
#    y 0.066290 1.615160 -0.138100 
#    z -0.041530 -0.138100 1.974390 
# 
# From -- ./inp_files/237182.got.cif
#   From: 2010.05.17/outbox.cif.g08.bks.cpg/sg2_119_cif.got.tgz:237182.got - 2010.06.03 11:33:40.
