data_PCOD9029556
_publ_section_title
;
Structure prediction by ZEFSAII (Michael W. Deem and Ramdas Pophale) SiO2 
 PCOD9029556
Probable space group: P -1
;
_chemical_formula_sum "Si O2"
_cell_formula_units_Z 16
_cell_length_a 5.476037
_cell_length_b 8.329346
_cell_length_c 19.489124
_cell_angle_alpha 123.774184
_cell_angle_beta 118.335068
_cell_angle_gamma 64.008041
_cell_volume 631.636756
_symmetry_space_group_name_H-M "P -1"
_symmetry_group_IT_number 2
_symmetry_cell_setting 'triclinic'
loop_
_space_group_symop_operation_xyz
x,y,z
-x,-y,-z
loop_
_atom_site_type_symbol
_atom_site_label
_atom_site_fract_x
_atom_site_fract_y
_atom_site_fract_z
Si Si1 0.170467 0.850055 0.430643
Si Si2 0.066452 0.037095 0.311616
Si Si3 0.937449 0.325246 0.843432
Si Si4 0.481613 0.692692 0.883802
Si Si5 0.574265 0.905288 0.814727
Si Si6 0.013679 0.499703 0.743551
Si Si7 0.708137 0.627423 0.525684
Si Si8 0.460739 0.733781 0.037697
O O1 0.046424 0.655242 0.356165
O O2 0.499413 0.766195 0.475853
O O3 0.123160 0.961470 0.378604
O O4 0.000000 0.000000 0.500000
O O5 0.192282 0.230026 0.371604
O O6 0.730090 0.074098 0.258429
O O7 0.209581 0.853745 0.237892
O O8 0.758956 0.524700 0.900775
O O9 0.021943 0.398011 0.796254
O O10 0.215558 0.243111 0.905861
O O11 0.544121 0.851119 0.877995
O O12 0.306149 0.563449 0.786795
O O13 0.333654 0.774416 0.954353
O O14 0.784607 0.709893 0.766447
O O15 0.683325 0.108501 0.885742
O O16 0.500000 0.500000 0.500000
O O17 0.000000 0.500000 0.500000
O O18 0.500000 0.500000 0.000000
#
# Coordination Sequence:
#
# PCOD9029556 Si02
#       8
#     2   2   2   2   2   2   2   2
#     4  11  25  46  77 107 143 191 250 306 373 448
#     4  10  23  47  69  97 140 184 238 297 366 438
#     4   9  21  42  65  96 133 177 230 293 344 432
#     4  11  22  40  68  95 135 180 229 281 359 425
#     4  10  24  45  66  96 142 180 233 291 355 435
#     4  10  22  42  67  97 137 183 229 293 358 429
#     4  12  27  47  74 109 147 192 245 314 378 449
#     4  11  21  42  66 100 134 180 233 292 351 420
#
# _framework density 25.331018
#
# number of rings (size 3 to 8) (size 9 to 14) (size 15 to 20)
#    0.000    1.500    1.250    2.625    3.500    0.500 
#    9.000    0.000    0.000    0.000    0.000    0.000 
#    0.000    0.000    0.000    0.000    0.000    0.000 
#
# Total GULP energy -89530.366524 kJ/mol
# GULP energy per Si atom -5595.647908 kJ/mol
# Density = 2.527336 g / cm^3
# Si number density = 25.331018 Si / 1000 Ang^3
#
#
#
# Elastic Constant Matrix: (Units=GPa)
#
#
# Indices 1 2 3 4 5 6 
#
# 1 64.3286 35.6096 36.7502 8.0203 -8.7640 -0.3493
# 2 35.6096 130.9648 61.1944 15.7067 -13.5636 -20.7795
# 3 36.7502 61.1944 182.2608 29.7381 2.4626 10.1257
# 4 8.0203 15.7067 29.7381 54.9613 12.3538 10.9333
# 5 -8.7640 -13.5636 2.4626 12.3538 43.4489 -4.5291
# 6 -0.3493 -20.7795 10.1257 10.9333 -4.5291 38.0296
#
#
#
# Elastic Compliance Matrix: (Units=1/GPa)
#
#
# Indices 1 2 3 4 5 6 
#
# 1 0.019647 -0.003800 -0.002533 -0.001008 0.003149 -0.000557
# 2 -0.003800 0.013063 -0.003507 -0.004600 0.005866 0.010058
# 3 -0.002533 -0.003507 0.007669 -0.001584 -0.001982 -0.003762
# 4 -0.001008 -0.004600 -0.001584 0.024748 -0.009667 -0.010367
# 5 0.003149 0.005866 -0.001982 -0.009667 0.029390 0.010042
# 6 -0.000557 0.010058 -0.003762 -0.010367 0.010042 0.036964
#
#
# Mechanical properties :
#
#
# Convention : Reuss Voigt Hill
#
# Bulk Modulus (GPa) = 48.31130 71.62919 59.97025
# Shear Modulus (GPa) = 31.63342 43.55463 37.59402
#
# Velocity S-wave (km/s) = 3.53767 4.15109 3.85659
# Velocity P-wave (km/s) = 5.98333 7.16338 6.59978
#
# Compressibility (1/GPa) = 0.02069909
#
# Stress axis : x y z
#
# Youngs Moduli (GPa) = 50.89744 76.55426 130.39393
#
# Poissons Ratio (x) = 0.29091 0.33028
# Poissons Ratio (y) = 0.19341 0.45729
# Poissons Ratio (z) = 0.12892 0.26848
#
# Static dielectric constant tensor:
#      x y z
#    x 2.037560 0.008700 -0.016110 
#    y 0.008700 2.111510 0.064970 
#    z -0.016110 0.064970 1.994190 
# 
# From -- ./inp_files/582624.got.cif
#   From: 2010.05.17/outbox.cif.g08.bks.cpg/sg2_292_cif.got.tgz:582624.got - 2010.06.03 11:33:40.
