data_PCOD9029867
_publ_section_title
;
Structure prediction by ZEFSAII (Michael W. Deem and Ramdas Pophale) SiO2 
 PCOD9029867
Probable space group: P -1
;
_chemical_formula_sum "Si O2"
_cell_formula_units_Z 16
_cell_length_a 9.137791
_cell_length_b 5.118859
_cell_length_c 13.961857
_cell_angle_alpha 84.242133
_cell_angle_beta 96.973658
_cell_angle_gamma 94.241321
_cell_volume 643.701845
_symmetry_space_group_name_H-M "P -1"
_symmetry_group_IT_number 2
_symmetry_cell_setting 'triclinic'
loop_
_space_group_symop_operation_xyz
x,y,z
-x,-y,-z
loop_
_atom_site_type_symbol
_atom_site_label
_atom_site_fract_x
_atom_site_fract_y
_atom_site_fract_z
Si Si1 0.406540 0.591163 0.897669
Si Si2 0.458535 0.176910 0.580507
Si Si3 0.516042 0.135795 0.802936
Si Si4 0.764993 0.367232 0.574872
Si Si5 0.147410 0.945326 0.573019
Si Si6 0.093693 0.154407 0.313955
Si Si7 0.840967 0.012930 0.867541
Si Si8 0.898864 0.656477 0.056932
O O1 0.445501 0.895719 0.868909
O O2 0.234628 0.524288 0.905965
O O3 0.453074 0.409224 0.819630
O O4 0.500000 0.500000 0.000000
O O5 0.591805 0.404097 0.578704
O O6 0.500000 0.000000 0.500000
O O7 0.484170 0.064598 0.692819
O O8 0.280607 0.166118 0.564759
O O9 0.690988 0.151742 0.834228
O O10 0.795295 0.307273 0.467776
O O11 0.858554 0.597148 0.626293
O O12 0.814303 0.095411 0.637731
O O13 0.080111 0.907343 0.674697
O O14 0.000000 0.000000 0.500000
O O15 0.138206 0.199371 0.206224
O O16 0.835145 0.881257 0.976185
O O17 0.988106 0.203566 0.864756
O O18 0.000000 0.500000 0.000000
#
# Coordination Sequence:
#
# PCOD9029867 Si02
#       8
#     2   2   2   2   2   2   2   2
#     4  12  27  48  78 108 151 193 246 306 369 444
#     4  10  23  46  73 108 146 191 252 302 358 436
#     4  12  27  48  75 109 146 202 246 301 371 435
#     4  10  22  42  68  97 137 183 234 289 354 414
#     4   9  21  44  68 101 143 185 232 299 362 422
#     4  11  23  41  69 100 134 185 232 288 354 423
#     4  11  26  44  72 104 147 190 246 299 366 442
#     4  11  27  46  73 108 147 192 236 304 375 441
#
# _framework density 24.856228999999999
#
# number of rings (size 3 to 8) (size 9 to 14) (size 15 to 20)
#    0.000    1.250    2.500    1.500    8.750    0.000 
#    0.000   20.625    0.000    0.000    0.000    0.000 
#    0.000    0.000    0.000    0.000    0.000    0.000 
#
# Total GULP energy -89531.343680 kJ/mol
# GULP energy per Si atom -5595.708980 kJ/mol
# Density = 2.479965 g / cm^3
# Si number density = 24.856229 Si / 1000 Ang^3
#
#
#
# Elastic Constant Matrix: (Units=GPa)
#
#
# Indices 1 2 3 4 5 6 
#
# 1 171.9105 35.0586 26.2255 0.0902 -12.2445 38.4760
# 2 35.0586 83.4622 0.2684 19.8602 -7.0239 3.4403
# 3 26.2255 0.2684 75.2584 7.2592 -1.7832 0.5241
# 4 0.0902 19.8602 7.2592 22.0439 -0.5581 -1.3887
# 5 -12.2445 -7.0239 -1.7832 -0.5581 39.8455 -5.3934
# 6 38.4760 3.4403 0.5241 -1.3887 -5.3934 46.3554
#
#
#
# Elastic Compliance Matrix: (Units=1/GPa)
#
#
# Indices 1 2 3 4 5 6 
#
# 1 0.008814 -0.004459 -0.003442 0.004717 0.000928 -0.006697
# 2 -0.004459 0.017983 0.003167 -0.017047 0.001980 0.002051
# 3 -0.003442 0.003167 0.015211 -0.007696 0.000380 0.002263
# 4 0.004717 -0.017047 -0.007696 0.063158 -0.001124 -0.000801
# 5 0.000928 0.001980 0.000380 -0.001124 0.026013 0.002071
# 6 -0.006697 0.002051 0.002263 -0.000801 0.002071 0.027170
#
#
# Mechanical properties :
#
#
# Convention : Reuss Voigt Hill
#
# Bulk Modulus (GPa) = 30.73225 50.41512 40.57368
# Shear Modulus (GPa) = 27.98539 39.58753 33.78646
#
# Velocity S-wave (km/s) = 3.35907 3.99514 3.69083
# Velocity P-wave (km/s) = 5.23787 6.45045 5.87553
#
# Compressibility (1/GPa) = 0.03253911
#
# Stress axis : x y z
#
# Youngs Moduli (GPa) = 113.45714 55.60812 65.74091
#
# Poissons Ratio (x) = 0.24798 0.22627
# Poissons Ratio (y) = 0.50596 -0.20819
# Poissons Ratio (z) = 0.39050 -0.17610
#
# Static dielectric constant tensor:
#      x y z
#    x 1.981090 -0.013010 0.018060 
#    y -0.013010 1.990930 -0.065960 
#    z 0.018060 -0.065960 2.061090 
# 
# From -- ./inp_files/488565.got.cif
#   From: 2010.05.17/outbox.cif.g08.bks.cpg/sg2_245_cif.got.tgz:488565.got - 2010.06.03 11:33:40.
