data_PCOD9029122
_publ_section_title
;
Structure prediction by ZEFSAII (Michael W. Deem and Ramdas Pophale) SiO2 
 PCOD9029122
Probable space group: P -1
;
_chemical_formula_sum "Si O2"
_cell_formula_units_Z 12
_cell_length_a 8.489361
_cell_length_b 15.609946
_cell_length_c 12.733634
_cell_angle_alpha 24.686934
_cell_angle_beta 121.852922
_cell_angle_gamma 129.097778
_cell_volume 541.596741
_symmetry_space_group_name_H-M "P -1"
_symmetry_group_IT_number 2
_symmetry_cell_setting 'triclinic'
loop_
_space_group_symop_operation_xyz
x,y,z
-x,-y,-z
loop_
_atom_site_type_symbol
_atom_site_label
_atom_site_fract_x
_atom_site_fract_y
_atom_site_fract_z
Si Si1 0.087568 0.556334 0.624702
Si Si2 0.113539 0.878912 0.105740
Si Si3 0.295238 0.338027 0.551865
Si Si4 0.671909 0.386216 0.140204
Si Si5 0.789214 0.784793 0.571774
Si Si6 0.737205 0.963934 0.546788
O O1 0.022866 0.326055 0.791519
O O2 0.888568 0.594221 0.552494
O O3 0.199850 0.760030 0.354176
O O4 0.219530 0.565638 0.762203
O O5 0.255710 0.084956 0.854461
O O6 0.000000 0.000000 0.000000
O O7 0.500000 0.500000 0.500000
O O8 0.312373 0.340451 0.429912
O O9 0.706271 0.176956 0.338095
O O10 0.424228 0.266942 0.199159
O O11 0.771957 0.593740 0.863998
O O12 0.022492 0.960687 0.432977
O O13 0.697609 0.927177 0.448928
#
# Coordination Sequence:
#
# PCOD9029122 Si02
#       6
#     2   2   2   2   2   2
#     4  10  22  42  66  93 128 174 218 269 328 382
#     4   9  22  42  62  90 127 171 217 264 314 394
#     4  11  25  42  64  94 131 175 217 267 330 388
#     4  11  23  42  68  98 130 168 219 268 329 392
#     4  11  24  42  64 100 134 167 215 271 327 383
#     4  10  24  40  64  99 130 176 207 269 329 382
#
# _framework density 22.156706
#
# number of rings (size 3 to 8) (size 9 to 14) (size 15 to 20)
#    0.000    1.667    1.667    1.000    4.667    7.333 
#    3.000    0.000    0.000    0.000    0.000    0.000 
#    0.000    0.000    0.000    0.000    0.000    0.000 
#
# Total GULP energy -66999.123217 kJ/mol
# GULP energy per Si atom -5583.260268 kJ/mol
# Density = 2.210628 g / cm^3
# Si number density = 22.156706 Si / 1000 Ang^3
#
#
#
# Elastic Constant Matrix: (Units=GPa)
#
#
# Indices 1 2 3 4 5 6 
#
# 1 59.6157 55.1002 26.2238 3.8821 2.0415 -8.2337
# 2 55.1002 188.5815 88.5721 9.2066 4.0687 -24.8606
# 3 26.2238 88.5721 162.5745 -3.1565 -9.8058 0.6396
# 4 3.8821 9.2066 -3.1565 38.2797 -6.4709 -3.3716
# 5 2.0415 4.0687 -9.8058 -6.4709 23.9197 -8.5827
# 6 -8.2337 -24.8606 0.6396 -3.3716 -8.5827 45.4168
#
#
#
# Elastic Compliance Matrix: (Units=1/GPa)
#
#
# Indices 1 2 3 4 5 6 
#
# 1 0.023038 -0.006489 -0.000267 -0.000954 -0.001105 0.000348
# 2 -0.006489 0.010015 -0.004604 -0.002181 -0.002271 0.003779
# 3 -0.000267 -0.004604 0.009035 0.002513 0.004601 -0.001640
# 4 -0.000954 -0.002181 0.002513 0.028925 0.010271 0.002686
# 5 -0.001105 -0.002271 0.004601 0.010271 0.050080 0.008718
# 6 0.000348 0.003779 -0.001640 0.002686 0.008718 0.026020
#
#
# Mechanical properties :
#
#
# Convention : Reuss Voigt Hill
#
# Bulk Modulus (GPa) = 51.63388 83.39601 67.51495
# Shear Modulus (GPa) = 28.36268 37.58161 32.97215
#
# Velocity S-wave (km/s) = 3.58172 4.12293 3.86182
# Velocity P-wave (km/s) = 6.36078 7.77082 7.10089
#
# Compressibility (1/GPa) = 0.01936713
#
# Stress axis : x y z
#
# Youngs Moduli (GPa) = 43.40748 99.85343 110.68196
#
# Poissons Ratio (x) = 0.64799 0.02956
# Poissons Ratio (y) = 0.28169 0.50953
# Poissons Ratio (z) = 0.01159 0.45968
#
# Static dielectric constant tensor:
#      x y z
#    x 1.922260 -0.012980 0.020890 
#    y -0.012980 1.803450 -0.013590 
#    z 0.020890 -0.013590 1.812040 
# 
# From -- ./inp_files/393520.got.cif
#   From: 2010.05.17/outbox.cif.g08.bks.cpg/sg2_197_cif.got.tgz:393520.got - 2010.06.03 11:33:40.
