data_PCOD9029409
_publ_section_title
;
Structure prediction by ZEFSAII (Michael W. Deem and Ramdas Pophale) SiO2 
 PCOD9029409
Probable space group: P -1
;
_chemical_formula_sum "Si O2"
_cell_formula_units_Z 16
_cell_length_a 11.531096
_cell_length_b 14.755375
_cell_length_c 7.526944
_cell_angle_alpha 69.258927
_cell_angle_beta 65.999000
_cell_angle_gamma 39.142213
_cell_volume 736.863385
_symmetry_space_group_name_H-M "P -1"
_symmetry_group_IT_number 2
_symmetry_cell_setting 'triclinic'
loop_
_space_group_symop_operation_xyz
x,y,z
-x,-y,-z
loop_
_atom_site_type_symbol
_atom_site_label
_atom_site_fract_x
_atom_site_fract_y
_atom_site_fract_z
Si Si1 0.762829 0.343971 0.531529
Si Si2 0.587434 0.929636 0.776189
Si Si3 0.073692 0.135606 0.741539
Si Si4 0.502698 0.859281 0.554856
Si Si5 0.172780 0.891051 0.217387
Si Si6 0.544570 0.309157 0.126396
Si Si7 0.638383 0.435453 0.177068
Si Si8 0.794286 0.915232 0.925421
O O1 0.768626 0.222742 0.596306
O O2 0.764545 0.384733 0.305024
O O3 0.567888 0.470604 0.670699
O O4 0.933570 0.273323 0.605229
O O5 0.625462 0.845358 0.635645
O O6 0.482638 0.090105 0.672379
O O7 0.425740 0.962696 0.959177
O O8 0.773426 0.850372 0.825954
O O9 0.083853 0.167692 0.914642
O O10 0.994659 0.070960 0.805197
O O11 0.286245 0.007617 0.633362
O O12 0.522284 0.733968 0.662489
O O13 0.336552 0.806917 0.025568
O O14 0.145351 0.012416 0.228523
O O15 0.678044 0.314660 0.130141
O O16 0.387968 0.462023 0.015410
#
# Coordination Sequence:
#
# PCOD9029409 Si02
#       8
#     2   2   2   2   2   2   2   2
#     4   8  18  32  48  72 105 130 163 198 246 307
#     4   9  20  32  48  72 104 136 173 197 237 305
#     4   9  18  31  51  74 107 135 148 208 266 307
#     4  10  19  34  49  77 107 128 163 210 254 291
#     4   9  17  29  48  73 104 131 154 197 259 298
#     4  10  18  30  51  71 105 131 164 205 246 295
#     4   9  18  33  47  73 104 134 170 196 242 312
#     4  10  17  32  50  72 103 133 168 195 246 308
#
# _framework density 21.713657999999999
#
# number of rings (size 3 to 8) (size 9 to 14) (size 15 to 20)
#    0.750    2.000    2.500    0.375    1.750    0.000 
#    2.250    1.250    0.000    0.000    0.000   22.750 
#    0.000    0.000    0.000    0.000    0.000    0.000 
#
# Total GULP energy -89093.272633 kJ/mol
# GULP energy per Si atom -5568.329540 kJ/mol
# Density = 2.166424 g / cm^3
# Si number density = 21.713658 Si / 1000 Ang^3
#
#
#
# Elastic Constant Matrix: (Units=GPa)
#
#
# Indices 1 2 3 4 5 6 
#
# 1 135.2630 26.5437 34.1037 -10.6751 24.2369 5.3803
# 2 26.5437 33.6761 12.6314 -8.4031 2.0530 1.9182
# 3 34.1037 12.6314 71.8976 -9.9241 11.1168 1.0114
# 4 -10.6751 -8.4031 -9.9241 16.7783 -1.1732 -2.4159
# 5 24.2369 2.0530 11.1168 -1.1732 45.7604 -10.7080
# 6 5.3803 1.9182 1.0114 -2.4159 -10.7080 17.1752
#
#
#
# Elastic Compliance Matrix: (Units=1/GPa)
#
#
# Indices 1 2 3 4 5 6 
#
# 1 0.010802 -0.006572 -0.002847 0.000564 -0.006185 -0.006259
# 2 -0.006572 0.039050 -0.002237 0.014523 0.003062 0.001781
# 3 -0.002847 -0.002237 0.016985 0.006885 -0.002437 -0.000410
# 4 0.000564 0.014523 0.006885 0.072669 0.001307 0.008833
# 5 -0.006185 0.003062 -0.002437 0.001307 0.030520 0.020951
# 6 -0.006259 0.001781 -0.000410 0.008833 0.020951 0.074314
#
#
# Mechanical properties :
#
#
# Convention : Reuss Voigt Hill
#
# Bulk Modulus (GPa) = 22.97541 43.04382 33.00961
# Shear Modulus (GPa) = 17.72043 27.11330 22.41686
#
# Velocity S-wave (km/s) = 2.85984 3.53749 3.21656
# Velocity P-wave (km/s) = 4.63777 6.04579 5.38797
#
# Compressibility (1/GPa) = 0.04352480
#
# Stress axis : x y z
#
# Youngs Moduli (GPa) = 92.57310 25.60826 58.87510
#
# Poissons Ratio (x) = 0.16831 0.16762
# Poissons Ratio (y) = 0.60842 0.13169
# Poissons Ratio (z) = 0.26356 0.05728
#
# Static dielectric constant tensor:
#      x y z
#    x 1.809210 -0.010340 0.010800 
#    y -0.010340 1.848520 0.017550 
#    z 0.010800 0.017550 1.916520 
# 
# From -- ./inp_files/264668.got.cif
#   From: 2010.05.17/outbox.cif.g08.bks.cpg/sg2_133_cif.got.tgz:264668.got - 2010.06.03 11:33:40.
