data_PCOD9029380
_publ_section_title
;
Structure prediction by ZEFSAII (Michael W. Deem and Ramdas Pophale) SiO2 
 PCOD9029380
Probable space group: P -1
;
_chemical_formula_sum "Si O2"
_cell_formula_units_Z 16
_cell_length_a 7.891966
_cell_length_b 7.791793
_cell_length_c 18.557791
_cell_angle_alpha 45.101484
_cell_angle_beta 102.992252
_cell_angle_gamma 123.247122
_cell_volume 650.215868
_symmetry_space_group_name_H-M "P -1"
_symmetry_group_IT_number 2
_symmetry_cell_setting 'triclinic'
loop_
_space_group_symop_operation_xyz
x,y,z
-x,-y,-z
loop_
_atom_site_type_symbol
_atom_site_label
_atom_site_fract_x
_atom_site_fract_y
_atom_site_fract_z
Si Si1 0.225154 0.327090 0.219700
Si Si2 0.590176 0.824625 0.024492
Si Si3 0.153151 0.565508 0.693260
Si Si4 0.449097 0.851112 0.847869
Si Si5 0.494111 0.825756 0.478510
Si Si6 0.988409 0.635432 0.103748
Si Si7 0.191627 0.772634 0.347973
Si Si8 0.539280 0.596288 0.294045
O O1 0.437205 0.505943 0.138152
O O2 0.319595 0.426003 0.279632
O O3 0.084209 0.444885 0.150902
O O4 0.118658 0.984888 0.300850
O O5 0.838086 0.033577 0.002614
O O6 0.500000 0.000000 0.000000
O O7 0.554211 0.820399 0.937479
O O8 0.030581 0.389188 0.804573
O O9 0.301830 0.459742 0.714843
O O10 0.995642 0.499826 0.632444
O O11 0.301745 0.912556 0.621094
O O12 0.619213 0.035470 0.747551
O O13 0.376381 0.066679 0.797142
O O14 0.244642 0.537027 0.899334
O O15 0.291038 0.720750 0.441900
O O16 0.498768 0.556133 0.586872
O O17 0.500000 0.000000 0.500000
#
# Coordination Sequence:
#
# PCOD9029380 Si02
#       8
#     2   2   2   2   2   2   2   2
#     4  11  22  43  67  92 131 169 208 263 318 375
#     4  10  22  42  67  91 131 164 214 260 318 372
#     4  11  22  43  66  95 130 167 210 264 317 375
#     4  12  23  43  67  94 131 167 212 265 313 376
#     4  10  22  42  67  91 131 164 214 260 318 372
#     4  11  22  43  66  95 130 167 210 264 317 375
#     4  12  23  43  67  94 131 167 212 265 313 376
#     4  11  22  43  67  92 131 169 208 263 318 375
#
# _framework density 24.607215
#
# number of rings (size 3 to 8) (size 9 to 14) (size 15 to 20)
#    0.000    1.000    7.500    0.750    0.000    5.000 
#    4.500    2.500    0.000    0.000    0.000    0.000 
#    0.000    0.000    0.000    0.000    0.000    0.000 
#
# Total GULP energy -89606.889628 kJ/mol
# GULP energy per Si atom -5600.430602 kJ/mol
# Density = 2.455121 g / cm^3
# Si number density = 24.607215 Si / 1000 Ang^3
#
#
#
# Elastic Constant Matrix: (Units=GPa)
#
#
# Indices 1 2 3 4 5 6 
#
# 1 76.0475 11.6809 4.5066 -3.3173 1.6500 12.5842
# 2 11.6809 101.5446 12.4725 5.3495 17.4136 23.0137
# 3 4.5066 12.4725 95.3977 6.0260 16.5861 -0.3563
# 4 -3.3173 5.3495 6.0260 42.5941 2.5145 7.1186
# 5 1.6500 17.4136 16.5861 2.5145 34.9847 3.8206
# 6 12.5842 23.0137 -0.3563 7.1186 3.8206 33.5722
#
#
#
# Elastic Compliance Matrix: (Units=1/GPa)
#
#
# Indices 1 2 3 4 5 6 
#
# 1 0.014277 -0.000466 -0.000844 0.002194 0.000407 -0.005553
# 2 -0.000466 0.012663 -0.000794 0.000114 -0.005043 -0.007965
# 3 -0.000844 -0.000794 0.011636 -0.001627 -0.005174 0.001918
# 4 0.002194 0.000114 -0.001627 0.024921 -0.000509 -0.006144
# 5 0.000407 -0.005043 -0.005174 -0.000509 0.033616 -0.000468
# 6 -0.005553 -0.007965 0.001918 -0.006144 -0.000468 0.038704
#
#
# Mechanical properties :
#
#
# Convention : Reuss Voigt Hill
#
# Bulk Modulus (GPa) = 29.09573 36.70109 32.89841
# Shear Modulus (GPa) = 33.00798 38.51885 35.76342
#
# Velocity S-wave (km/s) = 3.66648 3.96074 3.81645
# Velocity P-wave (km/s) = 5.45654 5.98864 5.72877
#
# Compressibility (1/GPa) = 0.03436931
#
# Stress axis : x y z
#
# Youngs Moduli (GPa) = 70.04313 78.97139 85.94328
#
# Poissons Ratio (x) = 0.03677 0.07251
# Poissons Ratio (y) = 0.03261 0.06822
# Poissons Ratio (z) = 0.05909 0.06268
#
# Static dielectric constant tensor:
#      x y z
#    x 1.983730 -0.039130 -0.038510 
#    y -0.039130 1.968890 -0.003850 
#    z -0.038510 -0.003850 1.951860 
# 
# From -- ./inp_files/556895.got.cif
#   From: 2010.05.17/outbox.cif.g08.bks.cpg/sg2_279_cif.got.tgz:556895.got - 2010.06.03 11:33:40.
