data_PCOD9029200
_publ_section_title
;
Structure prediction by ZEFSAII (Michael W. Deem and Ramdas Pophale) SiO2 
 PCOD9029200
Probable space group: P -1
;
_chemical_formula_sum "Si O2"
_cell_formula_units_Z 12
_cell_length_a 11.878445
_cell_length_b 7.055824
_cell_length_c 7.484451
_cell_angle_alpha 123.114248
_cell_angle_beta 103.327409
_cell_angle_gamma 69.141950
_cell_volume 490.454195
_symmetry_space_group_name_H-M "P -1"
_symmetry_group_IT_number 2
_symmetry_cell_setting 'triclinic'
loop_
_space_group_symop_operation_xyz
x,y,z
-x,-y,-z
loop_
_atom_site_type_symbol
_atom_site_label
_atom_site_fract_x
_atom_site_fract_y
_atom_site_fract_z
Si Si1 0.630463 0.336348 0.520785
Si Si2 0.294774 0.517511 0.992517
Si Si3 0.482253 0.057286 0.808591
Si Si4 0.138907 0.551142 0.439272
Si Si5 0.247155 0.035066 0.237713
Si Si6 0.884816 0.695753 0.349608
O O1 0.500000 0.500000 0.500000
O O2 0.745199 0.353818 0.459421
O O3 0.605586 0.086976 0.367554
O O4 0.665401 0.422928 0.767291
O O5 0.416081 0.327698 0.870804
O O6 0.194092 0.376813 0.869915
O O7 0.247588 0.781286 0.031688
O O8 0.612444 0.973722 0.722163
O O9 0.500000 0.000000 0.000000
O O10 0.103808 0.519263 0.615139
O O11 0.021229 0.697093 0.365028
O O12 0.180088 0.280455 0.242781
O O13 0.184606 0.084784 0.436721
#
# Coordination Sequence:
#
# PCOD9029200 Si02
#       6
#     2   2   2   2   2   2
#     4  12  23  44  64  95 133 167 215 264 322 379
#     4  12  25  39  67  99 129 172 213 265 324 375
#     4  12  25  41  64  97 132 171 213 264 329 379
#     4   9  21  46  69  91 132 170 211 268 314 385
#     4  10  22  42  66  96 129 165 216 268 311 387
#     4   9  22  45  67  96 127 169 219 259 321 377
#
# _framework density 24.467116000000001
#
# number of rings (size 3 to 8) (size 9 to 14) (size 15 to 20)
#    1.000    0.333    3.333    1.500    2.333    6.667 
#    0.000    3.333    0.000    0.000    0.000    0.000 
#    0.000    0.000    0.000    0.000    0.000    0.000 
#
# Total GULP energy -66917.377232 kJ/mol
# GULP energy per Si atom -5576.448103 kJ/mol
# Density = 2.441143 g / cm^3
# Si number density = 24.467116 Si / 1000 Ang^3
#
#
#
# Elastic Constant Matrix: (Units=GPa)
#
#
# Indices 1 2 3 4 5 6 
#
# 1 151.3988 46.4362 63.6309 15.9085 14.9106 -34.8070
# 2 46.4362 77.7458 50.8040 33.9905 -2.2083 -24.9142
# 3 63.6309 50.8040 117.2116 14.3298 17.1662 -14.7810
# 4 15.9085 33.9905 14.3298 48.8478 -0.2564 -2.1321
# 5 14.9106 -2.2083 17.1662 -0.2564 24.8574 -2.2698
# 6 -34.8070 -24.9142 -14.7810 -2.1321 -2.2698 40.4500
#
#
#
# Elastic Compliance Matrix: (Units=1/GPa)
#
#
# Indices 1 2 3 4 5 6 
#
# 1 0.010538 -0.001373 -0.003665 -0.001129 -0.003318 0.006637
# 2 -0.001373 0.036499 -0.012555 -0.020477 0.014024 0.016419
# 3 -0.003665 -0.012555 0.016248 0.004877 -0.010570 -0.005285
# 4 -0.001129 -0.020477 0.004877 0.033180 -0.005112 -0.010340
# 5 -0.003318 0.014024 -0.010570 -0.005112 0.051125 0.004520
# 6 0.006637 0.016419 -0.005285 -0.010340 0.004520 0.038324
#
#
# Mechanical properties :
#
#
# Convention : Reuss Voigt Hill
#
# Bulk Modulus (GPa) = 35.58648 74.23314 54.90981
# Shear Modulus (GPa) = 21.69531 35.19672 28.44602
#
# Velocity S-wave (km/s) = 2.98100 3.79691 3.41342
# Velocity P-wave (km/s) = 5.14050 7.04471 6.16655
#
# Compressibility (1/GPa) = 0.02810056
#
# Stress axis : x y z
#
# Youngs Moduli (GPa) = 94.89779 27.39784 61.54608
#
# Poissons Ratio (x) = 0.03761 0.22554
# Poissons Ratio (y) = 0.13028 0.77269
# Poissons Ratio (z) = 0.34776 0.34397
#
# Static dielectric constant tensor:
#      x y z
#    x 2.017250 0.023860 -0.047560 
#    y 0.023860 2.102600 -0.032720 
#    z -0.047560 -0.032720 1.940590 
# 
# From -- ./inp_files/188807.got.cif
#   From: 2010.05.17/outbox.cif.g08.bks.cpg/sg2_95_cif.got.tgz:188807.got - 2010.06.03 11:33:40.
