data_PCOD9029804
_publ_section_title
;
Structure prediction by ZEFSAII (Michael W. Deem and Ramdas Pophale) SiO2 
 PCOD9029804
Probable space group: P -1
;
_chemical_formula_sum "Si O2"
_cell_formula_units_Z 15
_cell_length_a 5.024965
_cell_length_b 22.384865
_cell_length_c 18.451813
_cell_angle_alpha 160.313089
_cell_angle_beta 86.605827
_cell_angle_gamma 102.561147
_cell_volume 611.948963
_symmetry_space_group_name_H-M "P -1"
_symmetry_group_IT_number 2
_symmetry_cell_setting 'triclinic'
loop_
_space_group_symop_operation_xyz
x,y,z
-x,-y,-z
loop_
_atom_site_type_symbol
_atom_site_label
_atom_site_fract_x
_atom_site_fract_y
_atom_site_fract_z
Si Si1 0.879409 0.810451 0.882020
Si Si2 0.396979 0.627963 0.567045
Si Si3 0.262580 0.001515 0.449214
Si Si4 0.119923 0.386305 0.085656
Si Si5 0.570287 0.195479 0.529618
Si Si6 0.709919 0.518375 0.311335
Si Si7 0.014877 0.935807 0.695646
Si Si8 0.500000 0.000000 0.000000
O O1 0.623385 0.804911 0.823499
O O2 0.812713 0.579820 0.626801
O O3 0.826994 0.885788 0.045801
O O4 0.215505 0.946665 0.003661
O O5 0.592589 0.567118 0.442586
O O6 0.276909 0.771420 0.700374
O O7 0.500000 0.000000 0.500000
O O8 0.446314 0.185857 0.601150
O O9 0.000000 0.000000 0.500000
O O10 0.101750 0.805353 0.176371
O O11 0.256239 0.581380 0.252923
O O12 0.407807 0.382694 0.113121
O O13 0.930537 0.420992 0.192781
O O14 0.781190 0.090193 0.398786
O O15 0.277075 0.066780 0.337366
O O16 0.886256 0.730909 0.509957
#
# Coordination Sequence:
#
# PCOD9029804 Si02
#       8
#     2   2   2   2   2   2   2   1
#     4  11  26  41  63  96 133 182 236 288 348 396
#     4  11  26  41  63  96 133 182 236 288 348 396
#     4  12  26  44  72 102 133 171 212 260 334 404
#     4  10  24  43  67 101 134 170 220 266 331 397
#     4  10  24  43  67 101 134 170 220 266 331 397
#     4  10  22  42  68  95 132 179 223 278 332 394
#     4  10  22  42  68  95 132 179 223 278 332 394
#     4  12  24  44  64  88 140 176 244 286 350 394
#
# _framework density 24.511848000000001
#
# number of rings (size 3 to 8) (size 9 to 14) (size 15 to 20)
#    0.000    1.333    1.333    2.400    7.467    1.067 
#    0.000    0.000    0.000    0.000    0.000    0.000 
#    0.000    0.000    0.000    0.000    0.000    0.000 
#
# Total GULP energy -83838.852591 kJ/mol
# GULP energy per Si atom -5589.256839 kJ/mol
# Density = 2.445606 g / cm^3
# Si number density = 24.511848 Si / 1000 Ang^3
#
#
#
# Elastic Constant Matrix: (Units=GPa)
#
#
# Indices 1 2 3 4 5 6 
#
# 1 75.2359 4.3179 11.3858 10.7251 0.9966 17.7061
# 2 4.3179 110.4841 19.6826 15.4882 -9.0180 16.6856
# 3 11.3858 19.6826 95.7120 7.9132 -0.6976 -1.2896
# 4 10.7251 15.4882 7.9132 36.4566 0.4403 -5.3502
# 5 0.9966 -9.0180 -0.6976 0.4403 30.4334 -14.2331
# 6 17.7061 16.6856 -1.2896 -5.3502 -14.2331 35.5981
#
#
#
# Elastic Compliance Matrix: (Units=1/GPa)
#
#
# Indices 1 2 3 4 5 6 
#
# 1 0.017912 0.002342 -0.002204 -0.007728 -0.006263 -0.013752
# 2 0.002342 0.011338 -0.002206 -0.006135 -0.000218 -0.007568
# 3 -0.002204 -0.002206 0.011247 -0.000445 0.001031 0.002884
# 4 -0.007728 -0.006135 -0.000445 0.034347 0.004277 0.013576
# 5 -0.006263 -0.000218 0.001031 0.004277 0.042784 0.021004
# 6 -0.013752 -0.007568 0.002884 0.013576 0.021004 0.049022
#
#
# Mechanical properties :
#
#
# Convention : Reuss Voigt Hill
#
# Bulk Modulus (GPa) = 27.50368 39.13385 33.31877
# Shear Modulus (GPa) = 27.33629 36.90068 32.11849
#
# Velocity S-wave (km/s) = 3.34313 3.88419 3.62377
# Velocity P-wave (km/s) = 5.11340 6.00964 5.57955
#
# Compressibility (1/GPa) = 0.03635877
#
# Stress axis : x y z
#
# Youngs Moduli (GPa) = 55.82883 88.20051 88.91170
#
# Poissons Ratio (x) = -0.20655 0.19599
# Poissons Ratio (y) = -0.13074 0.19618
# Poissons Ratio (z) = 0.12306 0.19461
#
# Static dielectric constant tensor:
#      x y z
#    x 3.600530 -0.854670 -0.873960 
#    y -0.854670 2.360800 0.448460 
#    z -0.873960 0.448460 2.419420 
# 
# From -- ./inp_files/551154.got.cif
#   From: 2010.05.17/outbox.cif.g08.bks.cpg/sg2_276_cif.got.tgz:551154.got - 2010.06.03 11:33:40.
