data_PCOD9029349
_publ_section_title
;
Structure prediction by ZEFSAII (Michael W. Deem and Ramdas Pophale) SiO2 
 PCOD9029349
Probable space group: P -1
;
_chemical_formula_sum "Si O2"
_cell_formula_units_Z 13
_cell_length_a 13.617962
_cell_length_b 11.092437
_cell_length_c 8.027237
_cell_angle_alpha 113.128298
_cell_angle_beta 90.883883
_cell_angle_gamma 33.211094
_cell_volume 478.339625
_symmetry_space_group_name_H-M "P -1"
_symmetry_group_IT_number 2
_symmetry_cell_setting 'triclinic'
loop_
_space_group_symop_operation_xyz
x,y,z
-x,-y,-z
loop_
_atom_site_type_symbol
_atom_site_label
_atom_site_fract_x
_atom_site_fract_y
_atom_site_fract_z
Si Si1 0.601882 0.403169 0.630784
Si Si2 0.000000 0.000000 0.500000
Si Si3 0.448852 0.912537 0.501997
Si Si4 0.874021 0.251484 0.005263
Si Si5 0.412495 0.288619 0.222516
Si Si6 0.004481 0.614962 0.429217
Si Si7 0.200006 0.017036 0.075461
O O1 0.500000 0.500000 0.500000
O O2 0.392822 0.671280 0.892871
O O3 0.829470 0.066747 0.514930
O O4 0.110910 0.826505 0.217777
O O5 0.724196 0.404175 0.619413
O O6 0.499679 0.833822 0.654997
O O7 0.500000 0.000000 0.500000
O O8 0.191400 0.189157 0.596924
O O9 0.622721 0.603538 0.244388
O O10 0.035485 0.185799 0.006793
O O11 0.000000 0.000000 0.000000
O O12 0.632036 0.060973 0.993464
O O13 0.242987 0.375546 0.224194
O O14 0.000000 0.500000 0.500000
O O15 0.946339 0.795838 0.663777
#
# Coordination Sequence:
#
# PCOD9029349 Si02
#       7
#     2   1   2   2   2   2   2
#     4  10  22  42  67 105 148 186 251 311 373 468
#     4  12  22  42  74 108 150 210 252 308 404 460
#     4  12  25  49  77 111 149 206 261 319 402 469
#     4  12  26  49  80 115 164 203 265 333 390 479
#     4  10  24  45  72 104 150 195 251 326 380 460
#     4  12  24  47  73 102 149 199 255 318 384 467
#     4  10  24  46  68 106 150 194 246 325 381 455
#
# _framework density 27.177341999999999
#
# number of rings (size 3 to 8) (size 9 to 14) (size 15 to 20)
#    0.923    0.000    4.615    1.846    0.000    3.077 
#    0.000    3.077    0.000    0.000    0.000    0.000 
#    0.000    0.000    0.000    0.000    0.000    0.000 
#
# Total GULP energy -72582.616395 kJ/mol
# GULP energy per Si atom -5583.278184 kJ/mol
# Density = 2.711549 g / cm^3
# Si number density = 27.177342 Si / 1000 Ang^3
#
#
#
# Elastic Constant Matrix: (Units=GPa)
#
#
# Indices 1 2 3 4 5 6 
#
# 1 176.3417 63.3084 -3.5084 8.0694 -15.7345 -15.1951
# 2 63.3084 188.5519 20.8828 -20.9813 -4.2877 -32.5278
# 3 -3.5084 20.8828 79.9367 -12.0911 -5.6936 -1.9645
# 4 8.0694 -20.9813 -12.0911 38.8607 -12.4330 -6.9228
# 5 -15.7345 -4.2877 -5.6936 -12.4330 45.8357 14.9533
# 6 -15.1951 -32.5278 -1.9645 -6.9228 14.9533 73.3859
#
#
#
# Elastic Compliance Matrix: (Units=1/GPa)
#
#
# Indices 1 2 3 4 5 6 
#
# 1 0.006857 -0.002631 0.000788 -0.002096 0.001727 -0.000275
# 2 -0.002631 0.007389 -0.001273 0.004659 -0.000139 0.003164
# 3 0.000788 -0.001273 0.013757 0.004386 0.003134 -0.000258
# 4 -0.002096 0.004659 0.004386 0.033254 0.008235 0.003208
# 5 0.001727 -0.000139 0.003134 0.008235 0.026397 -0.004222
# 6 -0.000275 0.003164 -0.000258 0.003208 -0.004222 0.016128
#
#
# Mechanical properties :
#
#
# Convention : Reuss Voigt Hill
#
# Bulk Modulus (GPa) = 45.93379 67.35511 56.64445
# Shear Modulus (GPa) = 42.63517 55.89295 49.26406
#
# Velocity S-wave (km/s) = 3.96508 4.53990 4.26219
# Velocity P-wave (km/s) = 6.15635 7.23313 6.71636
#
# Compressibility (1/GPa) = 0.02177047
#
# Stress axis : x y z
#
# Youngs Moduli (GPa) = 145.82901 135.33434 72.68789
#
# Poissons Ratio (x) = 0.35607 -0.05724
# Poissons Ratio (y) = 0.38368 0.09255
# Poissons Ratio (z) = -0.11484 0.17231
#
# Static dielectric constant tensor:
#      x y z
#    x 2.424770 0.103900 0.077150 
#    y 0.103900 2.247290 0.169300 
#    z 0.077150 0.169300 2.119860 
# 
# From -- ./inp_files/301319.got.cif
#   From: 2010.05.17/outbox.cif.g08.bks.cpg/sg2_151_cif.got.tgz:301319.got - 2010.06.03 11:33:40.
