data_PCOD9029971
_publ_section_title
;
Structure prediction by ZEFSAII (Michael W. Deem and Ramdas Pophale) SiO2 
 PCOD9029971
Probable space group: P -1
;
_chemical_formula_sum "Si O2"
_cell_formula_units_Z 16
_cell_length_a 11.467376
_cell_length_b 18.332020
_cell_length_c 20.640609
_cell_angle_alpha 160.303247
_cell_angle_beta 139.141444
_cell_angle_gamma 29.878768
_cell_volume 680.402656
_symmetry_space_group_name_H-M "P -1"
_symmetry_group_IT_number 2
_symmetry_cell_setting 'triclinic'
loop_
_space_group_symop_operation_xyz
x,y,z
-x,-y,-z
loop_
_atom_site_type_symbol
_atom_site_label
_atom_site_fract_x
_atom_site_fract_y
_atom_site_fract_z
Si Si1 0.222570 0.711795 0.596382
Si Si2 0.545081 0.195291 0.394469
Si Si3 0.648327 0.245983 0.905299
Si Si4 0.236408 0.199997 0.516254
Si Si5 0.377672 0.440742 0.198867
Si Si6 0.851846 0.768711 0.041598
Si Si7 0.036772 0.107642 0.039204
Si Si8 0.655662 0.659412 0.038105
O O1 0.500000 0.500000 0.500000
O O2 0.303718 0.508184 0.522772
O O3 0.978316 0.781446 0.527218
O O4 0.144780 0.029075 0.834471
O O5 0.659003 0.287899 0.563518
O O6 0.723160 0.971208 0.222531
O O7 0.495483 0.012804 0.256377
O O8 0.495810 0.390089 0.028483
O O9 0.680151 0.983464 0.668858
O O10 0.500000 0.500000 0.000000
O O11 0.914179 0.098500 0.917924
O O12 0.096721 0.543748 0.728441
O O13 0.500000 0.000000 0.500000
O O14 0.287678 0.332151 0.120123
O O15 0.250979 0.507355 0.131322
O O16 0.666429 0.140543 0.054590
O O17 0.124841 0.468652 0.927831
O O18 0.000000 0.000000 0.000000
#
# Coordination Sequence:
#
# PCOD9029971 Si02
#       8
#     2   2   2   2   2   2   2   2
#     4  10  22  45  71  99 141 181 231 294 359 415
#     4  10  22  42  69 102 133 184 232 295 351 425
#     4  12  26  47  70 102 147 188 235 295 365 425
#     4  12  26  47  73 104 147 189 240 296 362 433
#     4  11  23  43  68 104 138 177 245 290 353 427
#     4  10  23  43  69  99 143 182 228 299 353 420
#     4  12  26  44  72 104 138 186 240 296 354 432
#     4  11  24  42  67  98 142 184 231 293 354 420
#
# _framework density 23.515487
#
# number of rings (size 3 to 8) (size 9 to 14) (size 15 to 20)
#    0.000    1.000    2.500    5.250    1.750    3.000 
#    4.500    0.000    0.000    0.000    0.000    0.000 
#    0.000    0.000    0.000    0.000    0.000    0.000 
#
# Total GULP energy -89271.788837 kJ/mol
# GULP energy per Si atom -5579.486802 kJ/mol
# Density = 2.346197 g / cm^3
# Si number density = 23.515487 Si / 1000 Ang^3
#
#
#
# Elastic Constant Matrix: (Units=GPa)
#
#
# Indices 1 2 3 4 5 6 
#
# 1 91.1253 23.9947 -1.5942 7.9623 16.3600 -3.6933
# 2 23.9947 90.5193 -6.3806 4.1475 17.3835 -2.9484
# 3 -1.5942 -6.3806 62.5809 -19.0127 2.7794 21.2309
# 4 7.9623 4.1475 -19.0127 38.1426 -3.7648 5.8117
# 5 16.3600 17.3835 2.7794 -3.7648 28.7952 5.3323
# 6 -3.6933 -2.9484 21.2309 5.8117 5.3323 39.1467
#
#
#
# Elastic Compliance Matrix: (Units=1/GPa)
#
#
# Indices 1 2 3 4 5 6 
#
# 1 0.013465 -0.001870 -0.002625 -0.005356 -0.007784 0.004408
# 2 -0.001870 0.013163 0.000424 -0.001858 -0.007517 0.001885
# 3 -0.002625 0.000424 0.027108 0.017178 0.004205 -0.018041
# 4 -0.005356 -0.001858 0.017178 0.039824 0.010929 -0.017363
# 5 -0.007784 -0.007517 0.004205 0.010929 0.046857 -0.011586
# 6 0.004408 0.001885 -0.018041 -0.017363 -0.011586 0.040043
#
#
# Mechanical properties :
#
#
# Convention : Reuss Voigt Hill
#
# Bulk Modulus (GPa) = 21.93240 30.69613 26.31427
# Shear Modulus (GPa) = 24.53394 36.43062 30.48228
#
# Velocity S-wave (km/s) = 3.23353 3.94028 3.60427
# Velocity P-wave (km/s) = 4.82577 5.81231 5.34186
#
# Compressibility (1/GPa) = 0.04559464
#
# Stress axis : x y z
#
# Youngs Moduli (GPa) = 74.26885 75.96971 36.88917
#
# Poissons Ratio (x) = 0.14209 0.09682
# Poissons Ratio (y) = 0.13891 -0.01565
# Poissons Ratio (z) = 0.19493 -0.03223
#
# Static dielectric constant tensor:
#      x y z
#    x 2.047230 -0.050670 0.009590 
#    y -0.050670 1.948170 -0.041360 
#    z 0.009590 -0.041360 1.913010 
# 
# From -- ./inp_files/596064.got.cif
#   From: 2010.05.17/outbox.cif.g08.bks.cpg/sg2_299_cif.got.tgz:596064.got - 2010.06.03 11:33:40.
