data_PCOD9029481
_publ_section_title
;
Structure prediction by ZEFSAII (Michael W. Deem and Ramdas Pophale) SiO2 
 PCOD9029481
Probable space group: P -1
;
_chemical_formula_sum "Si O2"
_cell_formula_units_Z 14
_cell_length_a 13.653081
_cell_length_b 8.090366
_cell_length_c 5.796409
_cell_angle_alpha 123.680659
_cell_angle_beta 95.821837
_cell_angle_gamma 79.929539
_cell_volume 524.572439
_symmetry_space_group_name_H-M "P -1"
_symmetry_group_IT_number 2
_symmetry_cell_setting 'triclinic'
loop_
_space_group_symop_operation_xyz
x,y,z
-x,-y,-z
loop_
_atom_site_type_symbol
_atom_site_label
_atom_site_fract_x
_atom_site_fract_y
_atom_site_fract_z
Si Si1 0.645463 0.823637 0.573455
Si Si2 0.274736 0.606677 0.357791
Si Si3 0.605559 0.368086 0.207415
Si Si4 0.597763 0.786922 0.051769
Si Si5 0.014795 0.816801 0.186199
Si Si6 0.789416 0.094288 0.801955
Si Si7 0.915006 0.530161 0.697173
O O1 0.617073 0.601164 0.370888
O O2 0.607643 0.882352 0.871799
O O3 0.758745 0.873993 0.633879
O O4 0.605018 0.913629 0.384796
O O5 0.374815 0.660527 0.538438
O O6 0.312683 0.403235 0.067710
O O7 0.224159 0.806550 0.377523
O O8 0.191971 0.527499 0.440828
O O9 0.505142 0.304247 0.044269
O O10 0.700071 0.232126 0.015232
O O11 0.100962 0.868892 0.074175
O O12 0.055389 0.626366 0.208065
O O13 0.000000 0.000000 0.500000
O O14 0.921561 0.748859 0.977981
O O15 0.000000 0.500000 0.500000
#
# Coordination Sequence:
#
# PCOD9029481 Si02
#       7
#     2   2   2   2   2   2   2
#     4  11  25  43  68  99 138 181 229 277 342 402
#     4  10  22  42  67  95 134 177 226 282 340 407
#     4  11  24  45  66  93 138 176 228 278 338 404
#     4  11  25  45  69  99 139 186 226 281 340 405
#     4  10  24  42  66  99 135 172 225 286 346 413
#     4  11  25  40  67  97 133 177 224 284 340 412
#     4  10  22  43  69  96 131 179 228 280 345 409
#
# _framework density 26.688403000000001
#
# number of rings (size 3 to 8) (size 9 to 14) (size 15 to 20)
#    0.000    1.429    1.429    3.000    6.000    5.143 
#    0.000    0.000    0.000    0.000    0.000    0.000 
#    0.000    0.000    0.000    0.000    0.000    0.000 
#
# Total GULP energy -78150.327408 kJ/mol
# GULP energy per Si atom -5582.166243 kJ/mol
# Density = 2.662766 g / cm^3
# Si number density = 26.688403 Si / 1000 Ang^3
#
#
#
# Elastic Constant Matrix: (Units=GPa)
#
#
# Indices 1 2 3 4 5 6 
#
# 1 111.1291 31.5460 18.1538 3.5372 22.1540 29.0800
# 2 31.5460 131.2569 33.7606 8.2162 15.5838 32.3516
# 3 18.1538 33.7606 91.6456 -14.4649 17.9179 11.8438
# 4 3.5372 8.2162 -14.4649 43.1324 1.0438 3.9633
# 5 22.1540 15.5838 17.9179 1.0438 53.4169 5.1775
# 6 29.0800 32.3516 11.8438 3.9633 5.1775 33.2907
#
#
#
# Elastic Compliance Matrix: (Units=1/GPa)
#
#
# Indices 1 2 3 4 5 6 
#
# 1 0.012542 0.000122 -0.000425 -0.000152 -0.004096 -0.010267
# 2 0.000122 0.010905 -0.002944 -0.002199 -0.001310 -0.009191
# 3 -0.000425 -0.002944 0.013877 0.005501 -0.003552 -0.001807
# 4 -0.000152 -0.002199 0.005501 0.025727 -0.001398 -0.002534
# 5 -0.004096 -0.001310 -0.003552 -0.001398 0.021739 0.002901
# 6 -0.010267 -0.009191 -0.001807 -0.002534 0.002901 0.048431
#
#
# Mechanical properties :
#
#
# Convention : Reuss Voigt Hill
#
# Bulk Modulus (GPa) = 32.43894 55.66139 44.05017
# Shear Modulus (GPa) = 33.33474 42.67277 38.00375
#
# Velocity S-wave (km/s) = 3.53800 4.00299 3.77766
# Velocity P-wave (km/s) = 5.37318 6.50128 5.96396
#
# Compressibility (1/GPa) = 0.03082715
#
# Stress axis : x y z
#
# Youngs Moduli (GPa) = 79.73484 91.69894 72.06319
#
# Poissons Ratio (x) = -0.01115 0.03065
# Poissons Ratio (y) = -0.00969 0.21218
# Poissons Ratio (z) = 0.03392 0.27000
#
# Static dielectric constant tensor:
#      x y z
#    x 2.048230 -0.027950 -0.009290 
#    y -0.027950 2.147140 -0.082420 
#    z -0.009290 -0.082420 2.154100 
# 
# From -- ./inp_files/91243.got.cif
#   From: 2010.05.17/outbox.cif.g08.bks.cpg/sg2_46_cif.got.tgz:91243.got - 2010.06.03 11:33:40.
