data_PCOD9029355
_publ_section_title
;
Structure prediction by ZEFSAII (Michael W. Deem and Ramdas Pophale) SiO2 
 PCOD9029355
Probable space group: P -1
;
_chemical_formula_sum "Si O2"
_cell_formula_units_Z 10
_cell_length_a 9.867731
_cell_length_b 8.476839
_cell_length_c 7.992255
_cell_angle_alpha 69.811875
_cell_angle_beta 63.569487
_cell_angle_gamma 43.176710
_cell_volume 409.398134
_symmetry_space_group_name_H-M "P -1"
_symmetry_group_IT_number 2
_symmetry_cell_setting 'triclinic'
loop_
_space_group_symop_operation_xyz
x,y,z
-x,-y,-z
loop_
_atom_site_type_symbol
_atom_site_label
_atom_site_fract_x
_atom_site_fract_y
_atom_site_fract_z
Si Si1 0.797337 0.521612 0.270928
Si Si2 0.648030 0.694770 0.620715
Si Si3 0.939185 0.775629 0.459522
Si Si4 0.970551 0.094480 0.167525
Si Si5 0.656730 0.972511 0.049242
O O1 0.615994 0.650558 0.465574
O O2 0.807176 0.371131 0.180729
O O3 0.795646 0.710922 0.134010
O O4 0.994299 0.331478 0.351913
O O5 0.748252 0.804423 0.502908
O O6 0.846148 0.438612 0.675436
O O7 0.466797 0.848057 0.795751
O O8 0.907115 0.993481 0.362845
O O9 0.197443 0.997179 0.119106
O O10 0.000000 0.000000 0.000000
O O11 0.500000 0.000000 0.000000
#
# Coordination Sequence:
#
# PCOD9029355 Si02
#       5
#     2   2   2   2   2
#     4  10  22  42  67  86 130 184 209 244 331 402
#     4   9  21  43  70  89 131 175 219 251 325 397
#     4   9  21  43  70  89 131 175 219 251 325 397
#     4  12  26  42  67 101 132 164 218 276 322 370
#     4  12  26  42  67 101 132 164 218 276 322 370
#
# _framework density 24.426102
#
# number of rings (size 3 to 8) (size 9 to 14) (size 15 to 20)
#    1.200    0.400    0.000    4.200    2.800    0.800 
#    0.000    3.000    0.000    0.000    0.000    0.000 
#    0.000    0.000    0.000    0.000    0.000    0.000 
#
# Total GULP energy -55831.728300 kJ/mol
# GULP energy per Si atom -5583.172830 kJ/mol
# Density = 2.437051 g / cm^3
# Si number density = 24.426102 Si / 1000 Ang^3
#
#
#
# Elastic Constant Matrix: (Units=GPa)
#
#
# Indices 1 2 3 4 5 6 
#
# 1 76.0954 11.0740 31.2796 6.2583 2.3585 7.3020
# 2 11.0740 107.1614 26.5681 35.5323 -8.3659 22.0195
# 3 31.2796 26.5681 58.6551 8.1519 -3.1630 2.6318
# 4 6.2583 35.5323 8.1519 52.6421 9.6809 6.9954
# 5 2.3585 -8.3659 -3.1630 9.6809 44.0910 4.6578
# 6 7.3020 22.0195 2.6318 6.9954 4.6578 29.6824
#
#
#
# Elastic Compliance Matrix: (Units=1/GPa)
#
#
# Indices 1 2 3 4 5 6 
#
# 1 0.017446 0.001879 -0.009829 -0.001124 -0.000564 -0.004461
# 2 0.001879 0.016838 -0.006387 -0.010260 0.006042 -0.010917
# 3 -0.009829 -0.006387 0.024866 0.000936 0.000399 0.004669
# 4 -0.001124 -0.010260 0.000936 0.027030 -0.008039 0.002696
# 5 -0.000564 0.006042 0.000399 -0.008039 0.026350 -0.006619
# 6 -0.004461 -0.010917 0.004669 0.002696 -0.006619 0.042876
#
#
# Mechanical properties :
#
#
# Convention : Reuss Voigt Hill
#
# Bulk Modulus (GPa) = 32.81298 42.19504 37.50401
# Shear Modulus (GPa) = 25.74151 36.81578 31.27865
#
# Velocity S-wave (km/s) = 3.24983 3.88652 3.58235
# Velocity P-wave (km/s) = 5.24830 6.11981 5.70073
#
# Compressibility (1/GPa) = 0.03047574
#
# Stress axis : x y z
#
# Youngs Moduli (GPa) = 57.31911 59.38910 40.21610
#
# Poissons Ratio (x) = -0.11161 0.39528
# Poissons Ratio (y) = -0.10772 0.25688
# Poissons Ratio (z) = 0.56339 0.37935
#
# Static dielectric constant tensor:
#      x y z
#    x 1.983580 0.003060 0.059820 
#    y 0.003060 2.003070 0.056890 
#    z 0.059820 0.056890 1.940610 
# 
# From -- ./inp_files/236990.got.cif
#   From: 2010.05.17/outbox.cif.g08.bks.cpg/sg2_119_cif.got.tgz:236990.got - 2010.06.03 11:33:40.
