data_PCOD9029919
_publ_section_title
;
Structure prediction by ZEFSAII (Michael W. Deem and Ramdas Pophale) SiO2 
 PCOD9029919
Probable space group: P -1
;
_chemical_formula_sum "Si O2"
_cell_formula_units_Z 16
_cell_length_a 8.193819
_cell_length_b 12.189260
_cell_length_c 13.495057
_cell_angle_alpha 106.597409
_cell_angle_beta 145.419842
_cell_angle_gamma 85.854281
_cell_volume 699.459559
_symmetry_space_group_name_H-M "P -1"
_symmetry_group_IT_number 2
_symmetry_cell_setting 'triclinic'
loop_
_space_group_symop_operation_xyz
x,y,z
-x,-y,-z
loop_
_atom_site_type_symbol
_atom_site_label
_atom_site_fract_x
_atom_site_fract_y
_atom_site_fract_z
Si Si1 0.547939 0.487275 0.905121
Si Si2 0.468104 0.647902 0.469484
Si Si3 0.597816 0.890617 0.473811
Si Si4 0.912966 0.331297 0.518460
Si Si5 0.745070 0.940543 0.139948
Si Si6 0.087756 0.388399 0.170092
Si Si7 0.676161 0.722756 0.913145
Si Si8 0.242166 0.130128 0.659694
O O1 0.704195 0.616483 0.970636
O O2 0.219129 0.437362 0.678770
O O3 0.500000 0.500000 0.000000
O O4 0.761009 0.401441 0.988293
O O5 0.494002 0.767914 0.452229
O O6 0.257346 0.645314 0.460800
O O7 0.313423 0.524641 0.301190
O O8 0.793603 0.643052 0.671993
O O9 0.533300 0.863513 0.318072
O O10 0.500000 0.000000 0.500000
O O11 0.957347 0.948209 0.670197
O O12 0.669030 0.300891 0.301353
O O13 0.051211 0.222818 0.578089
O O14 0.636844 0.865481 0.167329
O O15 0.794177 0.848113 0.059465
O O16 0.500000 0.000000 0.000000
O O17 0.151842 0.293111 0.103606
O O18 0.000000 0.000000 0.500000
#
# Coordination Sequence:
#
# PCOD9029919 Si02
#       8
#     2   2   2   2   2   2   2   2
#     4  12  24  40  67 102 136 184 234 285 353 410
#     4  10  22  45  68 101 146 179 235 287 354 418
#     4  11  25  42  76 103 134 186 233 287 357 416
#     4  11  23  43  68  98 138 183 231 288 344 416
#     4  11  25  48  70 102 140 182 232 293 347 419
#     4  10  24  43  68 102 144 187 229 295 348 419
#     4  11  25  44  67  99 143 181 232 293 353 414
#     4  10  22  42  68  99 132 176 231 284 342 409
#
# _framework density 22.874804000000001
#
# number of rings (size 3 to 8) (size 9 to 14) (size 15 to 20)
#    0.000    1.250    1.250    4.500    3.500    5.000 
#    0.000    4.375    0.000    0.000    0.000    0.000 
#    0.000    0.000    0.000    0.000    0.000    0.000 
#
# Total GULP energy -89477.232264 kJ/mol
# GULP energy per Si atom -5592.327016 kJ/mol
# Density = 2.282274 g / cm^3
# Si number density = 22.874804 Si / 1000 Ang^3
#
#
#
# Elastic Constant Matrix: (Units=GPa)
#
#
# Indices 1 2 3 4 5 6 
#
# 1 77.9908 31.3247 24.9348 -5.0255 -13.0945 -13.5562
# 2 31.3247 127.4228 11.5091 -5.4222 -8.0075 -7.4490
# 3 24.9348 11.5091 93.0389 -4.5415 0.7259 -3.5056
# 4 -5.0255 -5.4222 -4.5415 47.8478 -7.4272 0.2852
# 5 -13.0945 -8.0075 0.7259 -7.4272 30.9458 4.3820
# 6 -13.5562 -7.4490 -3.5056 0.2852 4.3820 37.4304
#
#
#
# Elastic Compliance Matrix: (Units=1/GPa)
#
#
# Indices 1 2 3 4 5 6 
#
# 1 0.017391 -0.003149 -0.004051 0.002067 0.006495 0.004516
# 2 -0.003149 0.008768 -0.000192 0.000808 0.001070 0.000455
# 3 -0.004051 -0.000192 0.011885 0.000383 -0.001927 -0.000170
# 4 0.002067 0.000808 0.000383 0.022239 0.006408 0.000025
# 5 0.006495 0.001070 -0.001927 0.006408 0.037209 -0.002020
# 6 0.004516 0.000455 -0.000170 0.000025 -0.002020 0.028663
#
#
# Mechanical properties :
#
#
# Convention : Reuss Voigt Hill
#
# Bulk Modulus (GPa) = 42.99503 48.22108 45.60805
# Shear Modulus (GPa) = 33.62653 38.62372 36.12513
#
# Velocity S-wave (km/s) = 3.83825 4.11357 3.97829
# Velocity P-wave (km/s) = 6.20318 6.60970 6.40967
#
# Compressibility (1/GPa) = 0.02325850
#
# Stress axis : x y z
#
# Youngs Moduli (GPa) = 57.50201 114.05552 84.13994
#
# Poissons Ratio (x) = 0.35918 0.34084
# Poissons Ratio (y) = 0.18108 0.01618
# Poissons Ratio (z) = 0.23293 0.02194
#
# Static dielectric constant tensor:
#      x y z
#    x 2.396060 0.278910 0.400160 
#    y 0.278910 1.955610 0.232410 
#    z 0.400160 0.232410 2.245780 
# 
# From -- ./inp_files/500638.got.cif
#   From: 2010.05.17/outbox.cif.g08.bks.cpg/sg2_251_cif.got.tgz:500638.got - 2010.06.03 11:33:40.
