data_PCOD9029030
_publ_section_title
;
Structure prediction by ZEFSAII (Michael W. Deem and Ramdas Pophale) SiO2 
 PCOD9029030
Probable space group: P -1
;
_chemical_formula_sum "Si O2"
_cell_formula_units_Z 16
_cell_length_a 11.694844
_cell_length_b 9.374837
_cell_length_c 8.130843
_cell_angle_alpha 129.310297
_cell_angle_beta 75.719414
_cell_angle_gamma 108.613551
_cell_volume 652.452531
_symmetry_space_group_name_H-M "P -1"
_symmetry_group_IT_number 2
_symmetry_cell_setting 'triclinic'
loop_
_space_group_symop_operation_xyz
x,y,z
-x,-y,-z
loop_
_atom_site_type_symbol
_atom_site_label
_atom_site_fract_x
_atom_site_fract_y
_atom_site_fract_z
Si Si1 0.711984 0.291913 0.087571
Si Si2 0.064563 0.375587 0.774614
Si Si3 0.948862 0.763444 0.665597
Si Si4 0.260765 0.073948 0.308100
Si Si5 0.779875 0.134315 0.289595
Si Si6 0.742826 0.487227 0.745525
Si Si7 0.542280 0.640441 0.738187
Si Si8 0.766763 0.770819 0.221048
O O1 0.805439 0.490933 0.220681
O O2 0.719413 0.191164 0.187966
O O3 0.578532 0.315258 0.112404
O O4 0.752670 0.149597 0.841236
O O5 0.006615 0.318906 0.579146
O O6 0.093877 0.205969 0.749797
O O7 0.000000 0.500000 0.000000
O O8 0.859582 0.613047 0.700896
O O9 0.074710 0.839181 0.768940
O O10 0.858880 0.886340 0.710301
O O11 0.372129 0.170813 0.225086
O O12 0.288214 0.176353 0.549566
O O13 0.747352 0.274131 0.542801
O O14 0.741843 0.919564 0.205696
O O15 0.623124 0.537690 0.747890
O O16 0.744065 0.569350 0.989294
O O17 0.500000 0.500000 0.500000
#
# Coordination Sequence:
#
# PCOD9029030 Si02
#       8
#     2   2   2   2   2   2   2   2
#     4  12  25  45  75 100 134 194 234 276 347 421
#     4  11  25  44  69 101 146 187 223 283 355 412
#     4  10  22  42  66 101 140 180 232 282 344 419
#     4  10  25  43  68 104 141 180 230 286 349 411
#     4  12  24  41  72 105 135 183 237 285 344 410
#     4  11  23  44  71 102 137 180 235 289 339 412
#     4  11  21  48  74  96 135 185 240 281 338 421
#     4  11  27  43  66 107 145 173 229 292 349 402
#
# _framework density 24.522857999999999
#
# number of rings (size 3 to 8) (size 9 to 14) (size 15 to 20)
#    0.000    1.000    2.500    4.500    7.000    2.000 
#    0.000    5.000    0.000    0.000    0.000    0.000 
#    0.000    0.000    0.000    0.000    0.000    0.000 
#
# Total GULP energy -89491.967585 kJ/mol
# GULP energy per Si atom -5593.247974 kJ/mol
# Density = 2.446704 g / cm^3
# Si number density = 24.522858 Si / 1000 Ang^3
#
#
#
# Elastic Constant Matrix: (Units=GPa)
#
#
# Indices 1 2 3 4 5 6 
#
# 1 111.2751 13.3310 2.7383 -5.2113 -9.3841 -10.2664
# 2 13.3310 61.1051 10.3341 -0.7103 -2.4842 -12.1626
# 3 2.7383 10.3341 125.5298 -1.6837 1.0702 -5.4846
# 4 -5.2113 -0.7103 -1.6837 38.3047 -6.2544 5.6306
# 5 -9.3841 -2.4842 1.0702 -6.2544 40.0560 -0.0483
# 6 -10.2664 -12.1626 -5.4846 5.6306 -0.0483 30.4003
#
#
#
# Elastic Compliance Matrix: (Units=1/GPa)
#
#
# Indices 1 2 3 4 5 6 
#
# 1 0.009653 -0.001516 0.000017 0.001319 0.002376 0.002416
# 2 -0.001516 0.018255 -0.001193 -0.000796 0.000693 0.006725
# 3 0.000017 -0.001193 0.008110 0.000152 -0.000262 0.000963
# 4 0.001319 -0.000796 0.000152 0.027758 0.004584 -0.004979
# 5 0.002376 0.000693 -0.000262 0.004584 0.026288 0.000225
# 6 0.002416 0.006725 0.000963 -0.004979 0.000225 0.037497
#
#
# Mechanical properties :
#
#
# Convention : Reuss Voigt Hill
#
# Bulk Modulus (GPa) = 32.64155 38.96854 35.80504
# Shear Modulus (GPa) = 34.92692 39.85265 37.38979
#
# Velocity S-wave (km/s) = 3.77803 4.03565 3.90897
# Velocity P-wave (km/s) = 5.68954 6.13519 5.91656
#
# Compressibility (1/GPa) = 0.03063580
#
# Stress axis : x y z
#
# Youngs Moduli (GPa) = 103.59517 54.77913 123.29858
#
# Poissons Ratio (x) = 0.08305 -0.00212
# Poissons Ratio (y) = 0.15706 0.14704
# Poissons Ratio (z) = -0.00178 0.06532
#
# Static dielectric constant tensor:
#      x y z
#    x 1.940270 -0.007370 -0.006510 
#    y -0.007370 1.991640 0.001690 
#    z -0.006510 0.001690 2.004910 
# 
# From -- ./inp_files/245889.got.cif
#   From: 2010.05.17/outbox.cif.g08.bks.cpg/sg2_123_cif.got.tgz:245889.got - 2010.06.03 11:33:40.
