data_PCOD9029012
_publ_section_title
;
Structure prediction by ZEFSAII (Michael W. Deem and Ramdas Pophale) SiO2 
 PCOD9029012
Probable space group: P -1
;
_chemical_formula_sum "Si O2"
_cell_formula_units_Z 14
_cell_length_a 5.454839
_cell_length_b 25.251190
_cell_length_c 25.022639
_cell_angle_alpha 161.610983
_cell_angle_beta 108.805847
_cell_angle_gamma 77.793682
_cell_volume 976.401617
_symmetry_space_group_name_H-M "P -1"
_symmetry_group_IT_number 2
_symmetry_cell_setting 'triclinic'
loop_
_space_group_symop_operation_xyz
x,y,z
-x,-y,-z
loop_
_atom_site_type_symbol
_atom_site_label
_atom_site_fract_x
_atom_site_fract_y
_atom_site_fract_z
Si Si1 0.114027 0.620520 0.825890
Si Si2 0.346827 0.030303 0.254507
Si Si3 0.944382 0.227040 0.450691
Si Si4 0.443904 0.308054 0.166012
Si Si5 0.307747 0.511469 0.546641
Si Si6 0.306826 0.930681 0.823591
Si Si7 0.793616 0.858230 0.766692
O O1 0.308800 0.618588 0.787278
O O2 0.071163 0.433533 0.673135
O O3 0.808836 0.618572 0.787257
O O4 0.253026 0.816402 0.049535
O O5 0.674077 0.126167 0.369443
O O6 0.267605 0.072414 0.228798
O O7 0.171901 0.126208 0.369486
O O8 0.839900 0.225222 0.378815
O O9 0.550579 0.322160 0.247449
O O10 0.328077 0.098724 0.949156
O O11 0.500000 0.500000 0.500000
O O12 0.294637 0.349899 0.430820
O O13 0.000000 0.500000 0.500000
O O14 0.601033 0.924782 0.854872
O O15 0.116723 0.924898 0.854987
#
# Coordination Sequence:
#
# PCOD9029012 Si02
#       7
#     2   2   2   2   2   2   2
#     4  12  19  32  54  71  78  96 100 114 134 136
#     4  10  18  32  46  70  80  86 108 115 122 148
#     4  10  18  28  44  68  88  92 100 119 128 137
#     4  12  20  35  53  64  76  88 103 113 128 140
#     4  12  26  40  48  63  73  87 105 112 124 143
#     4  10  17  32  49  68  73  84  98 115 120 136
#     4  10  18  35  49  56  80  82  94 118 122 130
#
# _framework density 14.338362
#
# number of rings (size 3 to 8) (size 9 to 14) (size 15 to 20)
#    0.000    1.143    5.714    6.000    0.000    0.000 
#    0.000    4.286    0.000    0.000    0.000    0.000 
#    0.000    0.000    0.000    0.000    0.000    0.000 
#
# Total GULP energy -77962.710033 kJ/mol
# GULP energy per Si atom -5568.765002 kJ/mol
# Density = 1.430573 g / cm^3
# Si number density = 14.338362 Si / 1000 Ang^3
#
#
#
# Elastic Constant Matrix: (Units=GPa)
#
#
# Indices 1 2 3 4 5 6 
#
# 1 156.8796 2.8269 29.3324 9.0435 5.2149 4.0671
# 2 2.8269 0.5779 6.1797 1.8884 0.0450 0.0583
# 3 29.3324 6.1797 66.2640 20.2229 -1.1064 0.1252
# 4 9.0435 1.8884 20.2229 6.1759 -0.0968 0.1131
# 5 5.2149 0.0450 -1.1064 -0.0968 15.2742 4.7477
# 6 4.0671 0.0583 0.1252 0.1131 4.7477 1.5145
#
#
#
# Elastic Compliance Matrix: (Units=1/GPa)
#
#
# Indices 1 2 3 4 5 6 
#
# 1 1.484936-20.950867 5.500272-11.615427 28.901109-93.367029
# 2 -20.950868**************************************************
# 3 5.500272**********267.001162**********120.166940**********
# 4 -11.615427****************************************761.654364
# 5 28.901109**********120.166939**********565.990030**********
# 6 -93.367029********************761.654358********************
#
#
# Mechanical properties :
#
#
# Convention : Reuss Voigt Hill
#
# Bulk Modulus (GPa) = 0.00010 33.37771 16.68890
# Shear Modulus (GPa) = 0.00020 16.95176 8.47598
#
# Velocity S-wave (km/s) = 0.01182 3.44214 2.43397
# Velocity P-wave (km/s) = 0.01596 6.25515 4.42307
#
# Compressibility (1/GPa) = *************
#
# Stress axis : x y z
#
# Youngs Moduli (GPa) = 0.67343 0.00009 0.00375
#
# Poissons Ratio (x) = 0.00191 -0.02060
# Poissons Ratio (y) = 14.10894 1.90433
# Poissons Ratio (z) = -3.70405 0.04631
#
# Static dielectric constant tensor:
#      x y z
#    x 1.571810 0.002870 -0.002080 
#    y 0.002870 1.392170 0.054680 
#    z -0.002080 0.054680 1.576970 
# 
# From -- ./inp_files/605178.got.cif
#   From: 2010.05.17/outbox.cif.g08.bks.cpg/sg2_303_cif.got.tgz:605178.got - 2010.06.03 11:33:40.
