data_PCOD9029512
_publ_section_title
;
Structure prediction by ZEFSAII (Michael W. Deem and Ramdas Pophale) SiO2 
 PCOD9029512
Probable space group: P -1
;
_chemical_formula_sum "Si O2"
_cell_formula_units_Z 16
_cell_length_a 11.559336
_cell_length_b 9.674130
_cell_length_c 21.414033
_cell_angle_alpha 44.862253
_cell_angle_beta 27.875594
_cell_angle_gamma 36.678702
_cell_volume 668.785064
_symmetry_space_group_name_H-M "P -1"
_symmetry_group_IT_number 2
_symmetry_cell_setting 'triclinic'
loop_
_space_group_symop_operation_xyz
x,y,z
-x,-y,-z
loop_
_atom_site_type_symbol
_atom_site_label
_atom_site_fract_x
_atom_site_fract_y
_atom_site_fract_z
Si Si1 0.433654 0.576656 0.078811
Si Si2 0.754433 0.936261 0.285610
Si Si3 0.213407 0.757705 0.423329
Si Si4 0.618023 0.671453 0.373878
Si Si5 0.354762 0.578156 0.774140
Si Si6 0.128779 0.209136 0.306119
Si Si7 0.670502 0.080213 0.144585
Si Si8 0.285261 0.274392 0.010815
O O1 0.498768 0.349086 0.157741
O O2 0.655862 0.637110 0.981805
O O3 0.099058 0.781627 0.182298
O O4 0.500000 0.500000 0.000000
O O5 0.589004 0.800195 0.415955
O O6 0.649153 0.193682 0.273573
O O7 0.698975 0.926970 0.239453
O O8 0.449920 0.749491 0.361514
O O9 0.380067 0.562872 0.355065
O O10 0.974318 0.754334 0.582739
O O11 0.069064 0.010463 0.378362
O O12 0.500000 0.500000 0.500000
O O13 0.961358 0.459770 0.275625
O O14 0.366691 0.402608 0.877833
O O15 0.042431 0.663054 0.863645
O O16 0.480311 0.086071 0.175734
O O17 0.000000 0.000000 0.000000
O O18 0.500000 0.000000 0.000000
#
# Coordination Sequence:
#
# PCOD9029512 Si02
#       8
#     2   2   2   2   2   2   2   2
#     4  12  25  40  66  99 135 182 228 282 348 401
#     4  12  23  43  64  98 139 176 225 288 343 418
#     4  10  23  43  68  96 130 182 236 285 345 411
#     4  10  22  42  70  96 131 176 229 294 340 395
#     4  11  26  42  67  98 141 191 224 279 359 416
#     4  10  22  42  67  96 134 172 235 296 336 401
#     4  12  24  38  66 101 135 174 224 287 349 401
#     4  11  25  45  63  98 148 179 230 285 341 420
#
# _framework density 23.92398
#
# number of rings (size 3 to 8) (size 9 to 14) (size 15 to 20)
#    0.000    1.000    6.250    0.000    3.500    2.000 
#    0.000    3.125    0.000    0.000    0.000    0.000 
#    0.000    0.000    0.000    0.000    0.000    0.000 
#
# Total GULP energy -89136.956547 kJ/mol
# GULP energy per Si atom -5571.059784 kJ/mol
# Density = 2.386953 g / cm^3
# Si number density = 23.923980 Si / 1000 Ang^3
#
#
#
# Elastic Constant Matrix: (Units=GPa)
#
#
# Indices 1 2 3 4 5 6 
#
# 1 102.4461 49.0660 26.5672 1.8759 -20.8775 3.8873
# 2 49.0660 181.8608 25.9083 0.4561 0.4253 0.7019
# 3 26.5672 25.9083 73.4426 13.2431 -13.2525 15.5634
# 4 1.8759 0.4561 13.2431 34.9577 7.2964 -14.2989
# 5 -20.8775 0.4253 -13.2525 7.2964 30.5779 -2.5818
# 6 3.8873 0.7019 15.5634 -14.2989 -2.5818 49.7752
#
#
#
# Elastic Compliance Matrix: (Units=1/GPa)
#
#
# Indices 1 2 3 4 5 6 
#
# 1 0.013812 -0.003531 -0.001462 -0.002413 0.009356 -0.000779
# 2 -0.003531 0.006831 -0.002688 0.002625 -0.004166 0.001558
# 3 -0.001462 -0.002688 0.021995 -0.014816 0.011229 -0.010399
# 4 -0.002413 0.002625 -0.014816 0.044793 -0.017379 0.016750
# 5 0.009356 -0.004166 0.011229 -0.017379 0.047596 -0.006707
# 6 -0.000779 0.001558 -0.010399 0.016750 -0.006707 0.027845
#
#
# Mechanical properties :
#
#
# Convention : Reuss Voigt Hill
#
# Bulk Modulus (GPa) = 36.66259 62.31471 49.48865
# Shear Modulus (GPa) = 26.69149 40.14268 33.41708
#
# Velocity S-wave (km/s) = 3.34380 4.10069 3.74144
# Velocity P-wave (km/s) = 5.50145 6.96595 6.27656
#
# Compressibility (1/GPa) = 0.02727576
#
# Stress axis : x y z
#
# Youngs Moduli (GPa) = 72.40133 146.38255 45.46563
#
# Poissons Ratio (x) = 0.51687 0.06649
# Poissons Ratio (y) = 0.25564 0.12220
# Poissons Ratio (z) = 0.10587 0.39345
#
# Static dielectric constant tensor:
#      x y z
#    x 2.062320 -0.327300 0.045510 
#    y -0.327300 4.057030 -0.926350 
#    z 0.045510 -0.926350 2.500160 
# 
# From -- ./inp_files/609779.got.cif
#   From: 2010.05.17/outbox.cif.g08.bks.cpg/sg2_305_cif.got.tgz:609779.got - 2010.06.03 11:33:40.
