data_PCOD9029011
_publ_section_title
;
Structure prediction by ZEFSAII (Michael W. Deem and Ramdas Pophale) SiO2 
 PCOD9029011
Probable space group: P -1
;
_chemical_formula_sum "Si O2"
_cell_formula_units_Z 16
_cell_length_a 19.104833
_cell_length_b 10.612407
_cell_length_c 17.289143
_cell_angle_alpha 41.333267
_cell_angle_beta 21.023214
_cell_angle_gamma 31.691532
_cell_volume 642.908384
_symmetry_space_group_name_H-M "P -1"
_symmetry_group_IT_number 2
_symmetry_cell_setting 'triclinic'
loop_
_space_group_symop_operation_xyz
x,y,z
-x,-y,-z
loop_
_atom_site_type_symbol
_atom_site_label
_atom_site_fract_x
_atom_site_fract_y
_atom_site_fract_z
Si Si1 0.760554 0.679468 0.409787
Si Si2 0.648365 0.223458 0.503385
Si Si3 0.424543 0.909067 0.204282
Si Si4 0.960222 0.872609 0.223928
Si Si5 0.206632 0.993198 0.081961
Si Si6 0.252968 0.400317 0.238909
Si Si7 0.230946 0.097730 0.841044
Si Si8 0.115888 0.152075 0.280537
O O1 0.484773 0.865205 0.645020
O O2 0.905909 0.767233 0.257773
O O3 0.861276 0.408933 0.449585
O O4 0.803011 0.686143 0.271137
O O5 0.500000 0.500000 0.500000
O O6 0.941899 0.058560 0.303244
O O7 0.516663 0.241683 0.709480
O O8 0.699180 0.046822 0.462017
O O9 0.308665 0.177639 0.233444
O O10 0.227473 0.947722 0.326992
O O11 0.683556 0.794819 0.947642
O O12 0.179000 0.629778 0.158865
O O13 0.035701 0.044380 0.050582
O O14 0.149535 0.077965 0.191039
O O15 0.489732 0.730143 0.917305
O O16 0.228774 0.119704 0.926233
O O17 0.000000 0.500000 0.500000
#
# Coordination Sequence:
#
# PCOD9029011 Si02
#       8
#     2   2   2   2   2   2   2   2
#     4  11  23  44  68  97 138 186 230 284 357 410
#     4  11  26  44  68 102 143 187 229 283 352 422
#     4  10  22  42  66 100 134 180 234 276 351 416
#     4  11  23  43  71 101 135 182 234 292 351 410
#     4  10  25  44  63 106 133 180 233 287 348 407
#     4  11  20  41  73  99 132 178 230 293 346 410
#     4  10  25  41  63 100 139 177 234 288 341 428
#     4  10  23  41  67  97 132 181 230 287 343 410
#
# _framework density 24.886904000000001
#
# number of rings (size 3 to 8) (size 9 to 14) (size 15 to 20)
#    0.000    1.500    2.500    1.125    5.250    6.000 
#    2.250    0.000    0.000    0.000    0.000    0.000 
#    0.000    0.000    0.000    0.000    0.000    0.000 
#
# Total GULP energy -89236.231914 kJ/mol
# GULP energy per Si atom -5577.264495 kJ/mol
# Density = 2.483026 g / cm^3
# Si number density = 24.886904 Si / 1000 Ang^3
#
#
#
# Elastic Constant Matrix: (Units=GPa)
#
#
# Indices 1 2 3 4 5 6 
#
# 1 117.4748 24.1235 4.6970 -6.6620 27.1952 -6.3377
# 2 24.1235 90.7700 -6.3506 3.2253 5.2816 -4.4720
# 3 4.6970 -6.3506 80.7160 2.4755 7.1420 0.6177
# 4 -6.6620 3.2253 2.4755 33.5520 -11.5616 5.5216
# 5 27.1952 5.2816 7.1420 -11.5616 42.7081 -6.8765
# 6 -6.3377 -4.4720 0.6177 5.5216 -6.8765 26.2339
#
#
#
# Elastic Compliance Matrix: (Units=1/GPa)
#
#
# Indices 1 2 3 4 5 6 
#
# 1 0.010496 -0.002425 -0.000257 0.000110 -0.006235 0.000471
# 2 -0.002425 0.011931 0.001170 -0.002151 -0.000426 0.001762
# 3 -0.000257 0.001170 0.012802 -0.001973 -0.002731 -0.000465
# 4 0.000110 -0.002151 -0.001973 0.034101 0.008931 -0.005130
# 5 -0.006235 -0.000426 -0.002731 0.008931 0.031077 0.004752
# 6 0.000471 0.001762 -0.000465 -0.005130 0.004752 0.040869
#
#
# Mechanical properties :
#
#
# Convention : Reuss Voigt Hill
#
# Bulk Modulus (GPa) = 31.05158 37.10008 34.07583
# Shear Modulus (GPa) = 32.25084 38.26483 35.25783
#
# Velocity S-wave (km/s) = 3.60376 3.92541 3.76802
# Velocity P-wave (km/s) = 5.46080 5.95693 5.71425
#
# Compressibility (1/GPa) = 0.03220448
#
# Stress axis : x y z
#
# Youngs Moduli (GPa) = 95.27631 83.81326 78.11402
#
# Poissons Ratio (x) = 0.20327 0.02007
# Poissons Ratio (y) = 0.23108 -0.09140
# Poissons Ratio (z) = 0.02448 -0.09806
#
# Static dielectric constant tensor:
#      x y z
#    x 2.143710 -0.080500 -0.041020 
#    y -0.080500 1.970640 -0.067970 
#    z -0.041020 -0.067970 2.022260 
# 
# From -- ./inp_files/577954.got.cif
#   From: 2010.05.17/outbox.cif.g08.bks.cpg/sg2_289_cif.got.tgz:577954.got - 2010.06.03 11:33:40.
