data_PCOD9029108
_publ_section_title
;
Structure prediction by ZEFSAII (Michael W. Deem and Ramdas Pophale) SiO2 
 PCOD9029108
Probable space group: P -1
;
_chemical_formula_sum "Si O2"
_cell_formula_units_Z 16
_cell_length_a 9.022731
_cell_length_b 21.895260
_cell_length_c 10.013904
_cell_angle_alpha 127.438011
_cell_angle_beta 127.515931
_cell_angle_gamma 27.979489
_cell_volume 722.996690
_symmetry_space_group_name_H-M "P -1"
_symmetry_group_IT_number 2
_symmetry_cell_setting 'triclinic'
loop_
_space_group_symop_operation_xyz
x,y,z
-x,-y,-z
loop_
_atom_site_type_symbol
_atom_site_label
_atom_site_fract_x
_atom_site_fract_y
_atom_site_fract_z
Si Si1 0.772953 0.396671 0.404446
Si Si2 0.703830 0.703334 0.580669
Si Si3 0.721715 0.681324 0.865483
Si Si4 0.891953 0.205941 0.630631
Si Si5 0.049211 0.818280 0.678610
Si Si6 0.231113 0.976292 0.011075
Si Si7 0.329899 0.987937 0.808469
Si Si8 0.335372 0.543792 0.112050
O O1 0.500000 0.500000 0.500000
O O2 0.972696 0.262461 0.402717
O O3 0.602414 0.431332 0.217849
O O4 0.002269 0.390410 0.484863
O O5 0.814849 0.643456 0.710862
O O6 0.431373 0.733934 0.437162
O O7 0.548726 0.841767 0.690621
O O8 0.418511 0.726036 0.787458
O O9 0.047523 0.577750 0.990869
O O10 0.564360 0.819515 0.975660
O O11 0.996326 0.152567 0.464568
O O12 0.808061 0.324416 0.751068
O O13 0.141255 0.089741 0.720065
O O14 0.790327 0.942707 0.800578
O O15 0.110050 0.027853 0.861998
O O16 0.000000 0.000000 0.000000
O O17 0.500000 0.000000 0.000000
O O18 0.500000 0.500000 0.000000
#
# Coordination Sequence:
#
# PCOD9029108 Si02
#       8
#     2   2   2   2   2   2   2   2
#     4  12  25  44  60  93 131 163 218 270 317 362
#     4  10  22  42  67  91 129 169 209 260 315 384
#     4   9  20  42  66  93 122 167 211 257 317 384
#     4  11  24  43  66  95 125 172 215 253 322 389
#     4  10  22  42  66  92 132 162 204 271 324 371
#     4   9  19  38  64  94 128 152 196 262 316 369
#     4  11  22  41  69  98 127 165 210 256 317 390
#     4  12  25  42  66  89 124 172 226 261 307 382
#
# _framework density 22.130113000000001
#
# number of rings (size 3 to 8) (size 9 to 14) (size 15 to 20)
#    0.000    1.500    2.500    3.375    1.750    2.000 
#    6.750    1.875    0.000    0.000    0.000    0.000 
#    0.000    0.000    0.000    0.000    0.000    0.000 
#
# Total GULP energy -89325.731164 kJ/mol
# GULP energy per Si atom -5582.858198 kJ/mol
# Density = 2.207974 g / cm^3
# Si number density = 22.130113 Si / 1000 Ang^3
#
#
#
# Elastic Constant Matrix: (Units=GPa)
#
#
# Indices 1 2 3 4 5 6 
#
# 1 116.9611 10.7608 28.1508 -12.5728 -16.4410 -18.2976
# 2 10.7608 26.8830 14.1753 -14.3488 -10.6116 5.8675
# 3 28.1508 14.1753 69.4432 -14.4105 -13.8161 -13.0386
# 4 -12.5728 -14.3488 -14.4105 49.8242 -3.4752 0.4119
# 5 -16.4410 -10.6116 -13.8161 -3.4752 48.7473 3.0197
# 6 -18.2976 5.8675 -13.0386 0.4119 3.0197 32.2425
#
#
#
# Elastic Compliance Matrix: (Units=1/GPa)
#
#
# Indices 1 2 3 4 5 6 
#
# 1 0.010598 -0.002803 -0.001968 0.001404 0.002165 0.005508
# 2 -0.002803 0.059129 -0.008808 0.014721 0.011543 -0.017182
# 3 -0.001968 -0.008808 0.019630 0.002764 0.002675 0.008138
# 4 0.001404 0.014721 0.002764 0.025925 0.006414 -0.001697
# 5 0.002165 0.011543 0.002675 0.006414 0.025110 -0.002224
# 6 0.005508 -0.017182 0.008138 -0.001697 -0.002224 0.040789
#
#
# Mechanical properties :
#
#
# Convention : Reuss Voigt Hill
#
# Bulk Modulus (GPa) = 16.07755 35.49568 25.78662
# Shear Modulus (GPa) = 21.82723 36.84281 29.33502
#
# Velocity S-wave (km/s) = 3.14397 4.08466 3.64479
# Velocity P-wave (km/s) = 4.52329 6.19033 5.42127
#
# Compressibility (1/GPa) = 0.06219853
#
# Stress axis : x y z
#
# Youngs Moduli (GPa) = 94.35436 16.91229 50.94293
#
# Poissons Ratio (x) = 0.04740 0.10025
# Poissons Ratio (y) = 0.26447 0.44872
# Poissons Ratio (z) = 0.18568 0.14897
#
# Static dielectric constant tensor:
#      x y z
#    x 1.864490 -0.005840 0.025820 
#    y -0.005840 1.781140 -0.012080 
#    z 0.025820 -0.012080 1.814590 
# 
# From -- ./inp_files/223876.got.cif
#   From: 2010.05.17/outbox.cif.g08.bks.cpg/sg2_112_cif.got.tgz:223876.got - 2010.06.03 11:33:40.
