data_PCOD9029130
_publ_section_title
;
Structure prediction by ZEFSAII (Michael W. Deem and Ramdas Pophale) SiO2 
 PCOD9029130
Probable space group: P -1
;
_chemical_formula_sum "Si O2"
_cell_formula_units_Z 16
_cell_length_a 7.911579
_cell_length_b 17.684871
_cell_length_c 8.908096
_cell_angle_alpha 114.411278
_cell_angle_beta 129.378869
_cell_angle_gamma 98.924721
_cell_volume 706.436798
_symmetry_space_group_name_H-M "P -1"
_symmetry_group_IT_number 2
_symmetry_cell_setting 'triclinic'
loop_
_space_group_symop_operation_xyz
x,y,z
-x,-y,-z
loop_
_atom_site_type_symbol
_atom_site_label
_atom_site_fract_x
_atom_site_fract_y
_atom_site_fract_z
Si Si1 0.491678 0.625878 0.120899
Si Si2 0.569191 0.339112 0.550785
Si Si3 0.671378 0.114900 0.128222
Si Si4 0.643092 0.172187 0.485456
Si Si5 0.150893 0.948328 0.069168
Si Si6 0.963464 0.597955 0.370716
Si Si7 0.112529 0.231361 0.994384
Si Si8 0.466452 0.756102 0.986088
O O1 0.414483 0.612691 0.241741
O O2 0.761017 0.630557 0.254905
O O3 0.248462 0.523386 0.814972
O O4 0.509225 0.722155 0.141236
O O5 0.487031 0.224129 0.438271
O O6 0.323482 0.321982 0.300845
O O7 0.842493 0.389624 0.647074
O O8 0.731339 0.177167 0.366239
O O9 0.519009 0.142000 0.948624
O O10 0.895746 0.122624 0.158214
O O11 0.500000 0.000000 0.000000
O O12 0.461405 0.052294 0.332558
O O13 0.897465 0.238910 0.793062
O O14 0.056309 0.876528 0.100559
O O15 0.000000 0.000000 0.000000
O O16 0.171008 0.666775 0.677813
O O17 0.305084 0.231474 0.981401
#
# Coordination Sequence:
#
# PCOD9029130 Si02
#       8
#     2   2   2   2   2   2   2   2
#     4  11  25  42  72 101 129 181 218 277 346 393
#     4  11  23  42  68  97 135 170 220 276 330 400
#     4  10  22  42  66  93 132 174 218 275 324 391
#     4  11  22  42  63  93 132 174 219 270 327 395
#     4  11  22  41  64  93 135 170 221 276 327 391
#     4  10  23  46  67  99 141 167 225 278 333 409
#     4  11  23  39  62  92 129 175 215 271 326 388
#     4  11  23  43  67  97 133 175 222 274 334 398
#
# _framework density 22.648878
#
# number of rings (size 3 to 8) (size 9 to 14) (size 15 to 20)
#    0.000    1.250    3.750    2.625    3.500    0.000 
#    0.000    3.125    0.000    8.250    0.000    0.000 
#    0.000    0.000    0.000    0.000    0.000    0.000 
#
# Total GULP energy -89337.735426 kJ/mol
# GULP energy per Si atom -5583.608464 kJ/mol
# Density = 2.259733 g / cm^3
# Si number density = 22.648878 Si / 1000 Ang^3
#
#
#
# Elastic Constant Matrix: (Units=GPa)
#
#
# Indices 1 2 3 4 5 6 
#
# 1 70.9795 -1.5583 29.8815 -14.0038 12.9044 3.9041
# 2 -1.5583 70.6289 10.9254 -19.3512 14.2239 -5.2558
# 3 29.8815 10.9254 78.2922 -17.8552 14.0357 -1.6481
# 4 -14.0038 -19.3512 -17.8552 38.6216 0.7058 3.4418
# 5 12.9044 14.2239 14.0357 0.7058 26.2185 7.6986
# 6 3.9041 -5.2558 -1.6481 3.4418 7.6986 22.2884
#
#
#
# Elastic Compliance Matrix: (Units=1/GPa)
#
#
# Indices 1 2 3 4 5 6 
#
# 1 0.019554 0.005334 -0.004591 0.007843 -0.010215 -0.000190
# 2 0.005334 0.021947 0.001317 0.013107 -0.018106 0.008568
# 3 -0.004591 0.001317 0.017725 0.006950 -0.009490 0.004630
# 4 0.007843 0.013107 0.006950 0.038646 -0.016287 0.001888
# 5 -0.010215 -0.018106 -0.009490 -0.016287 0.065332 -0.023233
# 6 -0.000190 0.008568 0.004630 0.001888 -0.023233 0.054996
#
#
# Mechanical properties :
#
#
# Convention : Reuss Voigt Hill
#
# Bulk Modulus (GPa) = 15.78656 33.15532 24.47094
# Shear Modulus (GPa) = 21.25886 29.46916 25.36401
#
# Velocity S-wave (km/s) = 3.06703 3.61103 3.35009
# Velocity P-wave (km/s) = 4.41899 5.66186 5.07859
#
# Compressibility (1/GPa) = 0.06334503
#
# Stress axis : x y z
#
# Youngs Moduli (GPa) = 51.14166 45.56351 56.41712
#
# Poissons Ratio (x) = -0.24302 0.25902
# Poissons Ratio (y) = -0.27277 -0.07430
# Poissons Ratio (z) = 0.23480 -0.06001
#
# Static dielectric constant tensor:
#      x y z
#    x 1.851010 0.017830 0.000740 
#    y 0.017830 1.877040 0.011720 
#    z 0.000740 0.011720 1.894340 
# 
# From -- ./inp_files/218115.got.cif
#   From: 2010.05.17/outbox.cif.g08.bks.cpg/sg2_110_cif.got.tgz:218115.got - 2010.06.03 11:33:40.
