data_PCOD9029201
_publ_section_title
;
Structure prediction by ZEFSAII (Michael W. Deem and Ramdas Pophale) SiO2 
 PCOD9029201
Probable space group: P -1
;
_chemical_formula_sum "Si O2"
_cell_formula_units_Z 16
_cell_length_a 9.951618
_cell_length_b 7.191880
_cell_length_c 17.611025
_cell_angle_alpha 91.087819
_cell_angle_beta 73.837801
_cell_angle_gamma 45.755126
_cell_volume 824.560365
_symmetry_space_group_name_H-M "P -1"
_symmetry_group_IT_number 2
_symmetry_cell_setting 'triclinic'
loop_
_space_group_symop_operation_xyz
x,y,z
-x,-y,-z
loop_
_atom_site_type_symbol
_atom_site_label
_atom_site_fract_x
_atom_site_fract_y
_atom_site_fract_z
Si Si1 0.024078 0.343954 0.567030
Si Si2 0.195038 0.407928 0.667959
Si Si3 0.939584 0.761050 0.041740
Si Si4 0.257215 0.762784 0.040135
Si Si5 0.561673 0.267726 0.541618
Si Si6 0.308563 0.625139 0.334842
Si Si7 0.277949 0.996781 0.761264
Si Si8 0.041982 0.003236 0.236911
O O1 0.029291 0.461948 0.643050
O O2 0.000000 0.500000 0.500000
O O3 0.844501 0.367987 0.598914
O O4 0.241792 0.026928 0.525553
O O5 0.370034 0.317890 0.584207
O O6 0.289503 0.170873 0.710639
O O7 0.089274 0.682980 0.728625
O O8 0.808772 0.876100 0.140640
O O9 0.139524 0.692771 0.028265
O O10 0.000000 0.500000 0.000000
O O11 0.811516 0.001967 0.001712
O O12 0.174065 0.882065 0.138595
O O13 0.500000 0.500000 0.000000
O O14 0.500000 0.500000 0.500000
O O15 0.620912 0.290338 0.615025
O O16 0.185260 0.831666 0.285704
O O17 0.506036 0.319272 0.272983
O O18 0.115614 0.014988 0.747253
#
# Coordination Sequence:
#
# PCOD9029201 Si02
#       8
#     2   2   2   2   2   2   2   2
#     4  12  24  40  60  96 124 160 218 264 310 382
#     4  12  23  43  66  92 129 168 213 261 321 373
#     4  10  22  42  66  96 130 167 210 256 312 376
#     4  10  22  42  66  96 130 167 210 256 312 376
#     4  12  24  42  66  92 126 168 212 266 322 372
#     4  12  23  43  66  92 129 168 213 261 321 373
#     4  11  23  43  65  95 132 166 209 264 312 376
#     4  11  23  43  65  95 132 166 209 264 312 376
#
# _framework density 19.404281000000001
#
# number of rings (size 3 to 8) (size 9 to 14) (size 15 to 20)
#    0.000    0.750    2.500    6.000    0.000    0.500 
#    4.500    0.000    0.000    0.000    0.000    0.000 
#    0.000    0.000    0.000    0.000    0.000    0.000 
#
# Total GULP energy -89554.361461 kJ/mol
# GULP energy per Si atom -5597.147591 kJ/mol
# Density = 1.936012 g / cm^3
# Si number density = 19.404281 Si / 1000 Ang^3
#
#
#
# Elastic Constant Matrix: (Units=GPa)
#
#
# Indices 1 2 3 4 5 6 
#
# 1 36.3976 31.1799 6.5473 9.1725 -2.1362 -1.7200
# 2 31.1799 106.2271 37.0672 10.9286 -1.9424 5.0204
# 3 6.5473 37.0672 56.3691 9.8358 0.3781 6.4124
# 4 9.1725 10.9286 9.8358 41.9049 1.1133 -1.3157
# 5 -2.1362 -1.9424 0.3781 1.1133 37.1628 5.6488
# 6 -1.7200 5.0204 6.4124 -1.3157 5.6488 35.2513
#
#
#
# Elastic Compliance Matrix: (Units=1/GPa)
#
#
# Indices 1 2 3 4 5 6 
#
# 1 0.039165 -0.012501 0.004491 -0.006327 0.001374 0.002418
# 2 -0.012501 0.016313 -0.009234 0.000598 0.000407 -0.001296
# 3 0.004491 -0.009234 0.024410 -0.004405 0.000129 -0.003091
# 4 -0.006327 0.000598 -0.004405 0.026212 -0.001316 0.001596
# 5 0.001374 0.000407 0.000129 -0.001316 0.027732 -0.004507
# 6 0.002418 -0.001296 -0.003091 0.001596 -0.004507 0.030015
#
#
# Mechanical properties :
#
#
# Convention : Reuss Voigt Hill
#
# Bulk Modulus (GPa) = 22.02686 38.73139 30.37912
# Shear Modulus (GPa) = 23.42275 31.14376 27.28325
#
# Velocity S-wave (km/s) = 3.47809 4.01058 3.75379
# Velocity P-wave (km/s) = 5.24459 6.43816 5.87178
#
# Compressibility (1/GPa) = 0.04539912
#
# Stress axis : x y z
#
# Youngs Moduli (GPa) = 25.53306 61.30233 40.96629
#
# Poissons Ratio (x) = 0.76635 -0.18399
# Poissons Ratio (y) = 0.31919 0.37830
# Poissons Ratio (z) = -0.11467 0.56609
#
# Static dielectric constant tensor:
#      x y z
#    x 1.650750 0.001490 0.003550 
#    y 0.001490 1.632390 -0.005330 
#    z 0.003550 -0.005330 1.657160 
# 
# From -- ./inp_files/47193.got.cif
#   From: 2010.05.17/outbox.cif.g08.bks.cpg/sg2_24_cif.got.tgz:47193.got - 2010.06.03 11:33:40.
