data_PCOD9029131
_publ_section_title
;
Structure prediction by ZEFSAII (Michael W. Deem and Ramdas Pophale) SiO2 
 PCOD9029131
Probable space group: P -1
;
_chemical_formula_sum "Si O2"
_cell_formula_units_Z 16
_cell_length_a 8.032031
_cell_length_b 15.580066
_cell_length_c 5.603311
_cell_angle_alpha 87.747653
_cell_angle_beta 96.961258
_cell_angle_gamma 73.096310
_cell_volume 663.900727
_symmetry_space_group_name_H-M "P -1"
_symmetry_group_IT_number 2
_symmetry_cell_setting 'triclinic'
loop_
_space_group_symop_operation_xyz
x,y,z
-x,-y,-z
loop_
_atom_site_type_symbol
_atom_site_label
_atom_site_fract_x
_atom_site_fract_y
_atom_site_fract_z
Si Si1 0.395503 0.458733 0.798341
Si Si2 0.738277 0.772861 0.581469
Si Si3 0.833455 0.586817 0.897068
Si Si4 0.786847 0.060415 0.157077
Si Si5 0.868441 0.897633 0.885246
Si Si6 0.660633 0.162031 0.612537
Si Si7 0.736588 0.437925 0.622578
Si Si8 0.046279 0.747792 0.264464
O O1 0.554589 0.417924 0.649849
O O2 0.253278 0.547238 0.657777
O O3 0.500000 0.500000 0.000000
O O4 0.293411 0.395024 0.895497
O O5 0.817478 0.681775 0.761802
O O6 0.543609 0.782688 0.452113
O O7 0.878594 0.768456 0.399983
O O8 0.731217 0.865260 0.711232
O O9 0.740756 0.534076 0.705269
O O10 0.000000 0.500000 0.000000
O O11 0.701315 0.096278 0.392817
O O12 0.788407 0.960689 0.089199
O O13 0.703592 0.116777 0.892016
O O14 0.993028 0.057904 0.215643
O O15 0.996349 0.803966 0.011795
O O16 0.794127 0.221951 0.598913
O O17 0.890094 0.357783 0.759567
#
# Coordination Sequence:
#
# PCOD9029131 Si02
#       8
#     2   2   2   2   2   2   2   2
#     4   9  21  39  64  90 123 183 233 279 341 415
#     4  12  27  43  69 107 140 183 244 298 358 427
#     4  11  24  42  63  97 138 184 230 291 352 418
#     4  10  24  50  78 105 146 190 240 287 379 435
#     4  10  24  45  76 100 141 190 232 298 358 443
#     4  11  27  46  75 111 143 189 236 306 358 434
#     4  10  22  42  66  93 132 187 228 285 349 413
#     4  11  25  45  67 102 144 183 242 295 359 421
#
# _framework density 24.099986999999999
#
# number of rings (size 3 to 8) (size 9 to 14) (size 15 to 20)
#    0.000    1.500    1.250    1.500    8.750    8.500 
#    0.000    0.000    0.000    0.000    0.000    0.000 
#    0.000    0.000    0.000    0.000    0.000    0.000 
#
# Total GULP energy -89241.578229 kJ/mol
# GULP energy per Si atom -5577.598639 kJ/mol
# Density = 2.404513 g / cm^3
# Si number density = 24.099987 Si / 1000 Ang^3
#
#
#
# Elastic Constant Matrix: (Units=GPa)
#
#
# Indices 1 2 3 4 5 6 
#
# 1 127.3327 21.7910 21.6707 2.3495 12.6387 2.9845
# 2 21.7910 104.1517 15.8217 8.0732 5.7534 8.4342
# 3 21.6707 15.8217 69.5073 -9.4837 4.2911 -4.2715
# 4 2.3495 8.0732 -9.4837 35.5863 2.9696 5.6330
# 5 12.6387 5.7534 4.2911 2.9696 29.0797 -3.7927
# 6 2.9845 8.4342 -4.2715 5.6330 -3.7927 26.0006
#
#
#
# Elastic Compliance Matrix: (Units=1/GPa)
#
#
# Indices 1 2 3 4 5 6 
#
# 1 0.008843 -0.001139 -0.002440 -0.000464 -0.003399 -0.001442
# 2 -0.001139 0.010773 -0.002544 -0.002373 -0.001473 -0.003483
# 3 -0.002440 -0.002544 0.016612 0.004835 -0.001038 0.002636
# 4 -0.000464 -0.002373 0.004835 0.031195 -0.003974 -0.005721
# 5 -0.003399 -0.001473 -0.001038 -0.003974 0.037635 0.007048
# 6 -0.001442 -0.003483 0.002636 -0.005721 0.007048 0.042456
#
#
# Mechanical properties :
#
#
# Convention : Reuss Voigt Hill
#
# Bulk Modulus (GPa) = 41.69583 46.61762 44.15672
# Shear Modulus (GPa) = 29.80508 34.24721 32.02615
#
# Velocity S-wave (km/s) = 3.52053 3.77377 3.64934
# Velocity P-wave (km/s) = 5.81930 6.19466 6.00991
#
# Compressibility (1/GPa) = 0.02398321
#
# Stress axis : x y z
#
# Youngs Moduli (GPa) = 113.07950 92.82045 60.19572
#
# Poissons Ratio (x) = 0.10574 0.14687
# Poissons Ratio (y) = 0.12881 0.15314
# Poissons Ratio (z) = 0.27590 0.23614
#
# Static dielectric constant tensor:
#      x y z
#    x 2.222520 0.067340 -0.305640 
#    y 0.067340 1.982560 -0.084050 
#    z -0.305640 -0.084050 2.493360 
# 
# From -- ./inp_files/38022.got.cif
#   From: 2010.05.17/outbox.cif.g08.bks.cpg/sg2_20_cif.got.tgz:38022.got - 2010.06.03 11:33:40.
