data_PCOD9029018
_publ_section_title
;
Structure prediction by ZEFSAII (Michael W. Deem and Ramdas Pophale) SiO2 
 PCOD9029018
Probable space group: P -1
;
_chemical_formula_sum "Si O2"
_cell_formula_units_Z 14
_cell_length_a 7.829396
_cell_length_b 20.994170
_cell_length_c 8.680506
_cell_angle_alpha 46.630964
_cell_angle_beta 96.566215
_cell_angle_gamma 131.475531
_cell_volume 606.605811
_symmetry_space_group_name_H-M "P -1"
_symmetry_group_IT_number 2
_symmetry_cell_setting 'triclinic'
loop_
_space_group_symop_operation_xyz
x,y,z
-x,-y,-z
loop_
_atom_site_type_symbol
_atom_site_label
_atom_site_fract_x
_atom_site_fract_y
_atom_site_fract_z
Si Si1 0.077187 0.782643 0.745906
Si Si2 0.506528 0.077880 0.173973
Si Si3 0.692696 0.834244 0.808124
Si Si4 0.758908 0.327962 0.228438
Si Si5 0.584449 0.432012 0.589520
Si Si6 0.103376 0.689075 0.422909
Si Si7 0.516174 0.519167 0.787500
O O1 0.270578 0.877230 0.760492
O O2 0.124165 0.705929 0.804736
O O3 0.203962 0.900898 0.436381
O O4 0.751536 0.656809 0.980938
O O5 0.440384 0.142992 0.138367
O O6 0.681856 0.161043 0.898368
O O7 0.499579 0.741905 0.787266
O O8 0.637715 0.728525 0.091265
O O9 0.000000 0.000000 0.500000
O O10 0.698232 0.272777 0.488210
O O11 0.000000 0.500000 0.000000
O O12 0.500000 0.500000 0.500000
O O13 0.570701 0.429637 0.404920
O O14 0.906219 0.553650 0.500430
O O15 0.839327 0.626166 0.592358
O O16 0.500000 0.500000 0.000000
#
# Coordination Sequence:
#
# PCOD9029018 Si02
#       7
#     2   2   2   2   2   2   2
#     4  10  22  42  66 100 137 187 225 284 352 417
#     4  10  24  41  67  98 140 179 233 282 356 415
#     4  11  26  47  71 100 144 187 231 294 357 418
#     4  11  23  41  69 101 137 177 235 291 349 406
#     4  10  23  40  71  99 133 179 237 281 345 414
#     4  11  22  41  68 101 134 179 230 291 342 419
#     4  11  22  40  69 100 134 180 236 281 340 414
#
# _framework density 23.079239000000001
#
# number of rings (size 3 to 8) (size 9 to 14) (size 15 to 20)
#    0.000    1.429    4.286    0.000    4.000    5.714 
#    2.571    0.714    0.000    0.000    0.000    0.000 
#    0.000    0.000    0.000    0.000    0.000    0.000 
#
# Total GULP energy -77999.035581 kJ/mol
# GULP energy per Si atom -5571.359684 kJ/mol
# Density = 2.302671 g / cm^3
# Si number density = 23.079239 Si / 1000 Ang^3
#
#
#
# Elastic Constant Matrix: (Units=GPa)
#
#
# Indices 1 2 3 4 5 6 
#
# 1 49.6881 20.0763 47.1445 2.4078 0.9370 1.5409
# 2 20.0763 100.3596 63.3132 21.3116 13.2270 22.1977
# 3 47.1445 63.3132 262.4897 22.3715 -1.0171 12.7915
# 4 2.4078 21.3116 22.3715 49.5544 1.2559 8.4828
# 5 0.9370 13.2270 -1.0171 1.2559 31.7749 4.0270
# 6 1.5409 22.1977 12.7915 8.4828 4.0270 31.3872
#
#
#
# Elastic Compliance Matrix: (Units=1/GPa)
#
#
# Indices 1 2 3 4 5 6 
#
# 1 0.025084 -0.003425 -0.003930 0.001625 0.000201 0.002327
# 2 -0.003425 0.015471 -0.002413 -0.003884 -0.005240 -0.008068
# 3 -0.003930 -0.002413 0.005204 -0.001140 0.001343 -0.000086
# 4 0.001625 -0.003884 -0.001140 0.022801 0.001032 -0.003163
# 5 0.000201 -0.005240 0.001343 0.001032 0.033835 -0.001471
# 6 0.002327 -0.008068 -0.000086 -0.003163 -0.001471 0.038530
#
#
# Mechanical properties :
#
#
# Convention : Reuss Voigt Hill
#
# Bulk Modulus (GPa) = 38.13335 74.84504 56.48919
# Shear Modulus (GPa) = 29.55034 41.34352 35.44693
#
# Velocity S-wave (km/s) = 3.58213 4.23705 3.92328
# Velocity P-wave (km/s) = 5.80237 7.51244 6.71209
#
# Compressibility (1/GPa) = 0.02622376
#
# Stress axis : x y z
#
# Youngs Moduli (GPa) = 39.86670 64.63551 192.15709
#
# Poissons Ratio (x) = 0.22136 0.75522
# Poissons Ratio (y) = 0.13653 0.46363
# Poissons Ratio (z) = 0.15668 0.15595
#
# Static dielectric constant tensor:
#      x y z
#    x 2.117450 -0.200220 0.223370 
#    y -0.200220 2.228810 -0.163100 
#    z 0.223370 -0.163100 2.175300 
# 
# From -- ./inp_files/221851.got.cif
#   From: 2010.05.17/outbox.cif.g08.bks.cpg/sg2_111_cif.got.tgz:221851.got - 2010.06.03 11:33:40.
