data_PCOD9029853
_publ_section_title
;
Structure prediction by ZEFSAII (Michael W. Deem and Ramdas Pophale) SiO2 
 PCOD9029853
Probable space group: P -1
;
_chemical_formula_sum "Si O2"
_cell_formula_units_Z 16
_cell_length_a 7.114959
_cell_length_b 18.446113
_cell_length_c 9.945914
_cell_angle_alpha 114.611784
_cell_angle_beta 130.122584
_cell_angle_gamma 57.958649
_cell_volume 840.475473
_symmetry_space_group_name_H-M "P -1"
_symmetry_group_IT_number 2
_symmetry_cell_setting 'triclinic'
loop_
_space_group_symop_operation_xyz
x,y,z
-x,-y,-z
loop_
_atom_site_type_symbol
_atom_site_label
_atom_site_fract_x
_atom_site_fract_y
_atom_site_fract_z
Si Si1 0.457205 0.764095 0.649555
Si Si2 0.829460 0.959310 0.978599
Si Si3 0.206559 0.513428 0.206357
Si Si4 0.960216 0.245553 0.061250
Si Si5 0.288783 0.662345 0.720084
Si Si6 0.755867 0.030349 0.303006
Si Si7 0.929912 0.569304 0.402399
Si Si8 0.344505 0.667091 0.270662
O O1 0.771819 0.736372 0.786618
O O2 0.348676 0.725679 0.693574
O O3 0.330315 0.867053 0.670181
O O4 0.398243 0.725250 0.454931
O O5 0.963689 0.855670 0.957577
O O6 0.521433 0.984400 0.806258
O O7 0.832420 0.988865 0.157832
O O8 0.000000 0.000000 0.000000
O O9 0.477446 0.430999 0.256409
O O10 0.246187 0.599789 0.248236
O O11 0.087133 0.523741 0.307884
O O12 0.000000 0.500000 0.000000
O O13 0.753591 0.299756 0.120690
O O14 0.852455 0.274296 0.885338
O O15 0.027914 0.645629 0.544151
O O16 0.000000 0.000000 0.500000
O O17 0.615047 0.610131 0.275197
O O18 0.000000 0.500000 0.500000
#
# Coordination Sequence:
#
# PCOD9029853 Si02
#       8
#     2   2   2   2   2   2   2   2
#     4  11  23  43  65  91 129 163 207 264 311 371
#     4  10  22  44  66  96 134 165 208 263 323 387
#     4  12  26  40  62  90 123 170 213 257 311 370
#     4  11  25  41  66  95 124 166 209 261 314 372
#     4  12  23  41  62  89 125 165 212 255 314 365
#     4  10  22  42  68  97 128 168 210 260 323 386
#     4  12  24  41  62  87 123 169 210 258 313 364
#     4  12  24  42  63  91 129 163 215 260 308 374
#
# _framework density 19.036843000000001
#
# number of rings (size 3 to 8) (size 9 to 14) (size 15 to 20)
#    0.000    0.750    3.750    4.125    1.750    1.500 
#    2.250    0.000    0.000    0.000    0.000    0.000 
#    0.000    0.000    0.000    0.000    0.000    0.000 
#
# Total GULP energy -89445.285583 kJ/mol
# GULP energy per Si atom -5590.330349 kJ/mol
# Density = 1.899351 g / cm^3
# Si number density = 19.036843 Si / 1000 Ang^3
#
#
#
# Elastic Constant Matrix: (Units=GPa)
#
#
# Indices 1 2 3 4 5 6 
#
# 1 131.5745 32.5902 62.1423 13.4562 -21.9895 29.6397
# 2 32.5902 44.3427 37.0343 16.5138 -13.7368 23.4073
# 3 62.1423 37.0343 145.9196 -1.1098 0.3875 12.8733
# 4 13.4562 16.5138 -1.1098 28.5170 8.7403 -7.0622
# 5 -21.9895 -13.7368 0.3875 8.7403 14.4746 9.7411
# 6 29.6397 23.4073 12.8733 -7.0622 9.7411 26.5398
#
#
#
# Elastic Compliance Matrix: (Units=1/GPa)
#
#
# Indices 1 2 3 4 5 6 
#
# 1 0.008354 -0.011810 -0.000947 0.005750 -0.005355 0.005041
# 2 -0.011810 0.010611 0.001144 0.010784 -0.024635 0.015188
# 3 -0.000947 0.001144 0.007519 -0.003454 0.006070 -0.006745
# 4 0.005750 0.010784 -0.003454 0.014052 0.023447 -0.019124
# 5 -0.005355 -0.024635 0.006070 0.023447 0.003170 0.029839
# 6 0.005041 0.015188 -0.006745 -0.019124 0.029839 0.005885
#
#
# Mechanical properties :
#
#
# Convention : Reuss Voigt Hill
#
# Bulk Modulus (GPa) = 306.97678 65.04115 186.00897
# Shear Modulus (GPa) = 67.65540 26.57763 47.11651
#
# Velocity S-wave (km/s) = 5.96794 3.74052 4.98035
# Velocity P-wave (km/s) = 14.46003 7.27292 11.44526
#
# Compressibility (1/GPa) = 0.00325758
#
# Stress axis : x y z
#
# Youngs Moduli (GPa) = 119.69714 94.24305 132.99950
#
# Poissons Ratio (x) = 1.11302 0.12598
# Poissons Ratio (y) = 1.41363 -0.15215
# Poissons Ratio (z) = 0.11338 -0.10782
#
# Static dielectric constant tensor:
#      x y z
#    x 1.643070 -0.048570 0.064450 
#    y -0.048570 1.655860 -0.024690 
#    z 0.064450 -0.024690 1.704620 
# 
# From -- ./inp_files/46969.got.cif
#   From: 2010.05.17/outbox.cif.g08.bks.cpg/sg2_24_cif.got.tgz:46969.got - 2010.06.03 11:33:40.
