data_PCOD9029383
_publ_section_title
;
Structure prediction by ZEFSAII (Michael W. Deem and Ramdas Pophale) SiO2 
 PCOD9029383
Probable space group: P -1
;
_chemical_formula_sum "Si O2"
_cell_formula_units_Z 14
_cell_length_a 24.690612
_cell_length_b 5.370817
_cell_length_c 7.942964
_cell_angle_alpha 66.141842
_cell_angle_beta 44.546273
_cell_angle_gamma 57.831070
_cell_volume 624.891813
_symmetry_space_group_name_H-M "P -1"
_symmetry_group_IT_number 2
_symmetry_cell_setting 'triclinic'
loop_
_space_group_symop_operation_xyz
x,y,z
-x,-y,-z
loop_
_atom_site_type_symbol
_atom_site_label
_atom_site_fract_x
_atom_site_fract_y
_atom_site_fract_z
Si Si1 0.066526 0.545157 0.070963
Si Si2 0.467211 0.652735 0.210953
Si Si3 0.023516 0.860867 0.718118
Si Si4 0.792933 0.352257 0.780320
Si Si5 0.404889 0.217503 0.641966
Si Si6 0.627090 0.741387 0.919142
Si Si7 0.237541 0.241480 0.929061
O O1 0.165772 0.420012 0.908616
O O2 0.033377 0.280237 0.216192
O O3 0.040467 0.707858 0.906053
O O4 0.022484 0.791964 0.241715
O O5 0.414613 0.514064 0.476694
O O6 0.554858 0.608977 0.116437
O O7 0.500000 0.500000 0.000000
O O8 0.409709 0.987505 0.200264
O O9 0.113477 0.766835 0.461047
O O10 0.786450 0.556671 0.902723
O O11 0.768920 0.073972 0.950946
O O12 0.723416 0.531480 0.744872
O O13 0.374955 0.169381 0.906231
O O14 0.500000 0.000000 0.500000
O O15 0.333296 0.187787 0.691016
#
# Coordination Sequence:
#
# PCOD9029383 Si02
#       7
#     2   2   2   2   2   2   2
#     4  10  22  43  63  98 129 168 220 261 331 395
#     4  11  22  41  66  94 124 179 222 269 331 391
#     4  10  22  42  67  91 134 171 206 278 327 380
#     4  11  24  43  65  96 131 173 212 277 323 388
#     4  11  22  43  66  93 137 174 212 282 327 381
#     4  10  24  42  62  96 132 168 228 269 327 399
#     4  11  25  42  65  98 129 171 224 264 327 396
#
# _framework density 22.403876
#
# number of rings (size 3 to 8) (size 9 to 14) (size 15 to 20)
#    0.000    1.429    1.429    3.000    2.000    5.714 
#   12.857    0.000    0.000    0.000    0.000    0.000 
#    0.000    0.000    0.000    0.000    0.000    0.000 
#
# Total GULP energy -78162.564019 kJ/mol
# GULP energy per Si atom -5583.040287 kJ/mol
# Density = 2.235288 g / cm^3
# Si number density = 22.403876 Si / 1000 Ang^3
#
#
#
# Elastic Constant Matrix: (Units=GPa)
#
#
# Indices 1 2 3 4 5 6 
#
# 1 111.2756 55.6279 29.2825 10.1082 -36.2867 -7.6098
# 2 55.6279 -631.5409 -129.1601 -12.6593 97.4682 -274.0030
# 3 29.2825 -129.1601 52.7594 -1.1531 0.6462 -65.5113
# 4 10.1082 -12.6593 -1.1531 31.8349 1.3955 -19.2565
# 5 -36.2867 97.4682 0.6462 1.3955 26.9607 50.1280
# 6 -7.6098 -274.0030 -65.5113 -19.2565 50.1280 -64.4316
#
#
#
# Elastic Compliance Matrix: (Units=1/GPa)
#
#
# Indices 1 2 3 4 5 6 
#
# 1 0.011849 -0.000327 -0.000385 -0.000740 0.006563 0.005709
# 2 -0.000327 0.004192 -0.002667 -0.004817 0.004117 -0.010434
# 3 -0.000385 -0.002667 0.014367 0.000192 0.006076 0.001449
# 4 -0.000740 -0.004817 0.000192 0.035063 -0.001556 0.008689
# 5 0.006563 0.004117 0.006076 -0.001556 0.030897 0.000041
# 6 0.005709 -0.010434 0.001449 0.008689 0.000041 0.024137
#
#
# Mechanical properties :
#
#
# Convention : Reuss Voigt Hill
#
# Bulk Modulus (GPa) = 42.28143 -61.77834 -9.74846
# Shear Modulus (GPa) = 36.99675 -29.34430 3.82623
#
# Velocity S-wave (km/s) = 4.06810 -3.62302 1.30826
# Velocity P-wave (km/s) = 6.40150 6.71837 1.44174
#
# Compressibility (1/GPa) = 0.02365105
#
# Stress axis : x y z
#
# Youngs Moduli (GPa) = 84.39453 238.54543 69.60256
#
# Poissons Ratio (x) = 0.07802 0.02676
# Poissons Ratio (y) = 0.02760 0.18564
# Poissons Ratio (z) = 0.03245 0.63624
#
# Static dielectric constant tensor:
#      x y z
#    x 1.880330 -0.004770 -0.021970 
#    y -0.004770 1.856540 0.005590 
#    z -0.021970 0.005590 1.823790 
# 
# From -- ./inp_files/138128.got.cif
#   From: 2010.05.17/outbox.cif.g08.bks.cpg/sg2_70_cif.got.tgz:138128.got - 2010.06.03 11:33:40.
