data_PCOD9029237
_publ_section_title
;
Structure prediction by ZEFSAII (Michael W. Deem and Ramdas Pophale) SiO2 
 PCOD9029237
Probable space group: P -1
;
_chemical_formula_sum "Si O2"
_cell_formula_units_Z 16
_cell_length_a 6.263768
_cell_length_b 7.678603
_cell_length_c 20.755917
_cell_angle_alpha 54.856864
_cell_angle_beta 121.223926
_cell_angle_gamma 102.821468
_cell_volume 693.890107
_symmetry_space_group_name_H-M "P -1"
_symmetry_group_IT_number 2
_symmetry_cell_setting 'triclinic'
loop_
_space_group_symop_operation_xyz
x,y,z
-x,-y,-z
loop_
_atom_site_type_symbol
_atom_site_label
_atom_site_fract_x
_atom_site_fract_y
_atom_site_fract_z
Si Si1 0.219790 0.305170 0.074912
Si Si2 0.018870 0.288251 0.914285
Si Si3 0.654035 0.173085 0.453749
Si Si4 0.461758 0.260970 0.820244
Si Si5 0.450509 0.658549 0.333357
Si Si6 0.975699 0.929325 0.173715
Si Si7 0.792588 0.984474 0.379395
Si Si8 0.243523 0.628229 0.800813
O O1 0.491607 0.363191 0.123817
O O2 0.204230 0.232487 0.013935
O O3 0.130857 0.130838 0.147464
O O4 0.000000 0.500000 0.000000
O O5 0.071768 0.137971 0.892985
O O6 0.053328 0.524924 0.841212
O O7 0.734501 0.260035 0.895250
O O8 0.527264 0.406433 0.405417
O O9 0.941408 0.131893 0.530927
O O10 0.500000 0.000000 0.500000
O O11 0.666329 0.126236 0.388801
O O12 0.505952 0.298293 0.744509
O O13 0.299161 0.060502 0.841554
O O14 0.297506 0.457518 0.787543
O O15 0.617992 0.804834 0.369306
O O16 0.159175 0.747671 0.278089
O O17 0.835345 0.143505 0.292855
#
# Coordination Sequence:
#
# PCOD9029237 Si02
#       8
#     2   2   2   2   2   2   2   2
#     4  12  23  42  63 100 136 176 236 287 340 391
#     4  10  23  41  64  92 136 183 228 281 336 395
#     4  11  27  44  73 106 137 176 222 286 342 412
#     4  10  22  42  66  97 134 181 228 273 342 402
#     4  11  23  45  71 101 139 179 227 276 348 410
#     4  10  24  41  67  95 136 185 225 284 336 409
#     4  11  25  45  70 102 142 173 230 276 344 417
#     4  11  22  43  67  94 136 183 223 284 337 406
#
# _framework density 23.058403999999999
#
# number of rings (size 3 to 8) (size 9 to 14) (size 15 to 20)
#    0.000    1.250    3.750    1.125    5.250    3.000 
#    4.500    0.000    0.000    0.000    0.000    0.000 
#    0.000    0.000    0.000    0.000    0.000    0.000 
#
# Total GULP energy -89498.197957 kJ/mol
# GULP energy per Si atom -5593.637372 kJ/mol
# Density = 2.300592 g / cm^3
# Si number density = 23.058404 Si / 1000 Ang^3
#
#
#
# Elastic Constant Matrix: (Units=GPa)
#
#
# Indices 1 2 3 4 5 6 
#
# 1 76.7862 38.7271 30.4038 -8.7252 11.9224 26.9107
# 2 38.7271 127.8425 53.6465 1.0246 17.8364 19.8090
# 3 30.4038 53.6465 96.3681 -6.2715 14.1139 9.3254
# 4 -8.7252 1.0246 -6.2715 50.9025 5.6329 2.3829
# 5 11.9224 17.8364 14.1139 5.6329 27.1384 -6.3396
# 6 26.9107 19.8090 9.3254 2.3829 -6.3396 41.2673
#
#
#
# Elastic Compliance Matrix: (Units=1/GPa)
#
#
# Indices 1 2 3 4 5 6 
#
# 1 0.023121 -0.001752 -0.002552 0.005825 -0.012611 -0.015934
# 2 -0.001752 0.011792 -0.004836 -0.000339 -0.005384 -0.004233
# 3 -0.002552 -0.004836 0.014522 0.001849 -0.003628 0.000039
# 4 0.005825 -0.000339 0.001849 0.022249 -0.009504 -0.006798
# 5 -0.012611 -0.005384 -0.003628 -0.009504 0.054590 0.020563
# 6 -0.015934 -0.004233 0.000039 -0.006798 0.020563 0.040197
#
#
# Mechanical properties :
#
#
# Convention : Reuss Voigt Hill
#
# Bulk Modulus (GPa) = 32.09587 60.72796 46.41192
# Shear Modulus (GPa) = 25.62363 35.74292 30.68327
#
# Velocity S-wave (km/s) = 3.33716 3.94141 3.65180
# Velocity P-wave (km/s) = 5.36642 6.86343 6.16056
#
# Compressibility (1/GPa) = 0.03115666
#
# Stress axis : x y z
#
# Youngs Moduli (GPa) = 43.25061 84.80618 68.86318
#
# Poissons Ratio (x) = 0.14855 0.17571
# Poissons Ratio (y) = 0.07576 0.33299
# Poissons Ratio (z) = 0.11036 0.41008
#
# Static dielectric constant tensor:
#      x y z
#    x 1.895910 -0.035090 0.001890 
#    y -0.035090 1.923440 -0.028680 
#    z 0.001890 -0.028680 1.853820 
# 
# From -- ./inp_files/480644.got.cif
#   From: 2010.05.17/outbox.cif.g08.bks.cpg/sg2_241_cif.got.tgz:480644.got - 2010.06.03 11:33:40.
