data_PCOD9029009
_publ_section_title
;
Structure prediction by ZEFSAII (Michael W. Deem and Ramdas Pophale) SiO2 
 PCOD9029009
Probable space group: P -1
;
_chemical_formula_sum "Si O2"
_cell_formula_units_Z 12
_cell_length_a 8.242843
_cell_length_b 21.339478
_cell_length_c 23.608642
_cell_angle_alpha 168.196545
_cell_angle_beta 144.419909
_cell_angle_gamma 37.580670
_cell_volume 494.021746
_symmetry_space_group_name_H-M "P -1"
_symmetry_group_IT_number 2
_symmetry_cell_setting 'triclinic'
loop_
_space_group_symop_operation_xyz
x,y,z
-x,-y,-z
loop_
_atom_site_type_symbol
_atom_site_label
_atom_site_fract_x
_atom_site_fract_y
_atom_site_fract_z
Si Si1 0.063204 0.362686 0.784129
Si Si2 0.379935 0.801615 0.342445
Si Si3 0.325066 0.296505 0.225844
Si Si4 0.143093 0.625333 0.914023
Si Si5 0.822816 0.177663 0.061226
Si Si6 0.426473 0.180360 0.421213
O O1 0.740407 0.269901 0.606284
O O2 0.149270 0.546789 0.913238
O O3 0.237076 0.053611 0.562775
O O4 0.146974 0.572370 0.046464
O O5 0.641478 0.599214 0.254966
O O6 0.500000 0.000000 0.500000
O O7 0.500000 0.500000 0.500000
O O8 0.180180 0.424986 0.241762
O O9 0.045292 0.221104 0.113394
O O10 0.500000 0.000000 0.000000
O O11 0.265723 0.960843 0.227522
O O12 0.730233 0.499832 0.343924
O O13 0.581302 0.987531 0.791036
O O14 0.000000 0.000000 0.000000
#
# Coordination Sequence:
#
# PCOD9029009 Si02
#       6
#     2   2   2   2   2   2
#     4  11  24  41  70  98 131 176 224 264 334 404
#     4  10  22  42  66 100 130 176 220 269 335 391
#     4  11  25  41  65  99 123 174 226 262 336 395
#     4  10  24  43  67  92 141 168 218 287 319 392
#     4  11  25  44  67  92 140 171 221 287 326 389
#     4  11  25  43  65 102 128 178 222 268 343 390
#
# _framework density 24.290429
#
# number of rings (size 3 to 8) (size 9 to 14) (size 15 to 20)
#    0.000    1.333    0.000    5.500    4.667   13.333 
#    0.000    0.000    0.000    0.000    0.000    0.000 
#    0.000    0.000    0.000    0.000    0.000    0.000 
#
# Total GULP energy -67141.033078 kJ/mol
# GULP energy per Si atom -5595.086090 kJ/mol
# Density = 2.423514 g / cm^3
# Si number density = 24.290429 Si / 1000 Ang^3
#
#
#
# Elastic Constant Matrix: (Units=GPa)
#
#
# Indices 1 2 3 4 5 6 
#
# 1 46.3005 8.1368 25.3389 2.6535 8.3589 12.3633
# 2 8.1368 169.3685 68.8300 3.4543 3.0550 4.7844
# 3 25.3389 68.8300 161.3429 0.2798 -9.3142 11.1853
# 4 2.6535 3.4543 0.2798 60.7528 -6.0826 -1.5385
# 5 8.3589 3.0550 -9.3142 -6.0826 33.2269 -7.4953
# 6 12.3633 4.7844 11.1853 -1.5385 -7.4953 40.2444
#
#
#
# Elastic Compliance Matrix: (Units=1/GPa)
#
#
# Indices 1 2 3 4 5 6 
#
# 1 0.029044 0.001201 -0.005049 -0.002723 -0.011569 -0.009921
# 2 0.001201 0.007293 -0.003375 -0.000692 -0.002212 -0.000736
# 3 -0.005049 -0.003375 0.008648 0.000806 0.004235 0.000368
# 4 -0.002723 -0.000692 0.000806 0.017132 0.004609 0.002208
# 5 -0.011569 -0.002212 0.004235 0.004609 0.037449 0.009791
# 6 -0.009921 -0.000736 0.000368 0.002208 0.009791 0.029789
#
#
# Mechanical properties :
#
#
# Convention : Reuss Voigt Hill
#
# Bulk Modulus (GPa) = 32.74548 64.62480 48.68514
# Shear Modulus (GPa) = 32.47140 45.15858 38.81499
#
# Velocity S-wave (km/s) = 3.66019 4.31642 4.00178
# Velocity P-wave (km/s) = 5.60114 7.17668 6.43729
#
# Compressibility (1/GPa) = 0.03053857
#
# Stress axis : x y z
#
# Youngs Moduli (GPa) = 34.43079 137.11616 115.62764
#
# Poissons Ratio (x) = -0.16468 0.58381
# Poissons Ratio (y) = -0.04135 0.39028
# Poissons Ratio (z) = 0.17384 0.46281
#
# Static dielectric constant tensor:
#      x y z
#    x 1.887920 -0.019330 -0.072490 
#    y -0.019330 1.962960 -0.173820 
#    z -0.072490 -0.173820 1.962600 
# 
# From -- ./inp_files/504829.got.cif
#   From: 2010.05.17/outbox.cif.g08.bks.cpg/sg2_253_cif.got.tgz:504829.got - 2010.06.03 11:33:40.
