data_PCOD9029444
_publ_section_title
;
Structure prediction by ZEFSAII (Michael W. Deem and Ramdas Pophale) SiO2 
 PCOD9029444
Probable space group: P -1
;
_chemical_formula_sum "Si O2"
_cell_formula_units_Z 16
_cell_length_a 14.144839
_cell_length_b 12.687844
_cell_length_c 11.311031
_cell_angle_alpha 86.304130
_cell_angle_beta 161.997533
_cell_angle_gamma 91.523506
_cell_volume 622.092024
_symmetry_space_group_name_H-M "P -1"
_symmetry_group_IT_number 2
_symmetry_cell_setting 'triclinic'
loop_
_space_group_symop_operation_xyz
x,y,z
-x,-y,-z
loop_
_atom_site_type_symbol
_atom_site_label
_atom_site_fract_x
_atom_site_fract_y
_atom_site_fract_z
Si Si1 0.797000 0.903425 0.274345
Si Si2 0.935135 0.274920 0.673334
Si Si3 0.365234 0.059081 0.169615
Si Si4 0.777530 0.578777 0.532139
Si Si5 0.243829 0.859099 0.170207
Si Si6 0.594372 0.228166 0.057008
Si Si7 0.170064 0.285860 0.201250
Si Si8 0.797445 0.532162 0.139784
O O1 0.062445 0.804451 0.579843
O O2 0.571068 0.924094 0.892311
O O3 0.593722 0.873161 0.143743
O O4 0.000000 0.000000 0.500000
O O5 0.144055 0.353365 0.848538
O O6 0.635987 0.274691 0.235218
O O7 0.100330 0.154378 0.875558
O O8 0.939452 0.301817 0.814934
O O9 0.643501 0.079838 0.584988
O O10 0.248146 0.946147 0.066695
O O11 0.837686 0.610421 0.735315
O O12 0.075322 0.547102 0.809216
O O13 0.588056 0.683638 0.245172
O O14 0.552093 0.488020 0.253164
O O15 0.495476 0.759033 0.447118
O O16 0.935941 0.809955 0.838857
O O17 0.000000 0.500000 0.500000
#
# Coordination Sequence:
#
# PCOD9029444 Si02
#       8
#     2   2   2   2   2   2   2   2
#     4  11  24  38  62  96 133 176 222 271 326 384
#     4  10  24  45  71  97 135 176 228 278 331 396
#     4   9  22  40  65  98 129 178 222 270 317 405
#     4  12  27  44  71 101 133 174 225 280 334 397
#     4  10  22  42  67  94 138 176 218 261 337 399
#     4  11  24  42  65  93 134 175 222 273 326 403
#     4  11  25  43  69 101 135 176 214 280 333 394
#     4  12  26  47  73 100 130 179 225 278 340 394
#
# _framework density 25.719667999999999
#
# number of rings (size 3 to 8) (size 9 to 14) (size 15 to 20)
#    0.000    1.250    1.250    3.000    5.250    9.500 
#    0.000    0.000    0.000    0.000    0.000    0.000 
#    0.000    0.000    0.000    0.000    0.000    0.000 
#
# Total GULP energy -89673.948981 kJ/mol
# GULP energy per Si atom -5604.621811 kJ/mol
# Density = 2.566113 g / cm^3
# Si number density = 25.719668 Si / 1000 Ang^3
#
#
#
# Elastic Constant Matrix: (Units=GPa)
#
#
# Indices 1 2 3 4 5 6 
#
# 1 82.7510 18.0479 24.0582 -0.7163 -0.3683 -3.7822
# 2 18.0479 92.3114 19.5212 2.1609 -10.5407 19.9043
# 3 24.0582 19.5212 60.2430 1.9955 -1.2905 3.3786
# 4 -0.7163 2.1609 1.9955 46.5611 4.5188 0.3304
# 5 -0.3683 -10.5407 -1.2905 4.5188 36.5430 11.0737
# 6 -3.7822 19.9043 3.3786 0.3304 11.0737 50.6308
#
#
#
# Elastic Compliance Matrix: (Units=1/GPa)
#
#
# Indices 1 2 3 4 5 6 
#
# 1 0.014234 -0.002509 -0.005085 0.000697 -0.001680 0.002752
# 2 -0.002509 0.014189 -0.003039 -0.001119 0.006193 -0.006910
# 3 -0.005085 -0.003039 0.019669 -0.000778 0.000013 -0.000496
# 4 0.000697 -0.001119 -0.000778 0.021895 -0.003397 0.001144
# 5 -0.001680 0.006193 0.000013 -0.003397 0.032477 -0.009642
# 6 0.002752 -0.006910 -0.000496 0.001144 -0.009642 0.024807
#
#
# Mechanical properties :
#
#
# Convention : Reuss Voigt Hill
#
# Bulk Modulus (GPa) = 37.27603 39.84000 38.55802
# Shear Modulus (GPa) = 31.75037 38.32552 35.03794
#
# Velocity S-wave (km/s) = 3.51733 3.86440 3.69494
# Velocity P-wave (km/s) = 5.56957 5.95275 5.76434
#
# Compressibility (1/GPa) = 0.02682689
#
# Stress axis : x y z
#
# Youngs Moduli (GPa) = 70.25255 70.47574 50.84256
#
# Poissons Ratio (x) = 0.17684 0.25853
# Poissons Ratio (y) = 0.17628 0.15449
# Poissons Ratio (z) = 0.35722 0.21415
#
# Static dielectric constant tensor:
#      x y z
#    x 2.021790 -0.080970 -0.030330 
#    y -0.080970 2.067210 0.015650 
#    z -0.030330 0.015650 1.957670 
# 
# From -- ./inp_files/433631.got.cif
#   From: 2010.05.17/outbox.cif.g08.bks.cpg/sg2_217_cif.got.tgz:433631.got - 2010.06.03 11:33:40.
