data_PCOD9029203
_publ_section_title
;
Structure prediction by ZEFSAII (Michael W. Deem and Ramdas Pophale) SiO2 
 PCOD9029203
Probable space group: P -1
;
_chemical_formula_sum "Si O2"
_cell_formula_units_Z 16
_cell_length_a 11.611379
_cell_length_b 14.349449
_cell_length_c 8.016346
_cell_angle_alpha 109.941500
_cell_angle_beta 141.012791
_cell_angle_gamma 89.718323
_cell_volume 709.391834
_symmetry_space_group_name_H-M "P -1"
_symmetry_group_IT_number 2
_symmetry_cell_setting 'triclinic'
loop_
_space_group_symop_operation_xyz
x,y,z
-x,-y,-z
loop_
_atom_site_type_symbol
_atom_site_label
_atom_site_fract_x
_atom_site_fract_y
_atom_site_fract_z
Si Si1 0.538903 0.241309 0.578081
Si Si2 0.430594 0.561817 0.821182
Si Si3 0.459887 0.056813 0.153222
Si Si4 0.325661 0.397162 0.340402
Si Si5 0.132672 0.287834 0.744611
Si Si6 0.713006 0.977638 0.620183
Si Si7 0.971468 0.054422 0.268766
Si Si8 0.856979 0.370028 0.275888
O O1 0.561387 0.186476 0.395315
O O2 0.430667 0.321323 0.477488
O O3 0.394561 0.140715 0.478058
O O4 0.754372 0.308831 0.952571
O O5 0.276244 0.462079 0.471518
O O6 0.330843 0.634801 0.829476
O O7 0.500000 0.500000 0.000000
O O8 0.636230 0.641111 0.009474
O O9 0.543227 0.006731 0.366085
O O10 0.500000 0.000000 0.000000
O O11 0.221234 0.024760 0.886922
O O12 0.500000 0.500000 0.500000
O O13 0.140547 0.322736 0.966984
O O14 0.073709 0.163206 0.558669
O O15 0.982817 0.318614 0.484944
O O16 0.859414 0.978941 0.633756
O O17 0.861156 0.063270 0.976571
O O18 0.000000 0.500000 0.500000
#
# Coordination Sequence:
#
# PCOD9029203 Si02
#       8
#     2   2   2   2   2   2   2   2
#     4  11  22  44  73  94 137 192 221 275 354 397
#     4  11  21  42  64  91 133 174 224 278 336 398
#     4  11  25  45  66 101 143 171 222 287 340 407
#     4  10  23  43  63  98 139 174 219 280 340 400
#     4  11  23  40  64  94 134 168 220 282 335 393
#     4  10  22  43  70  95 132 176 229 279 329 411
#     4  10  22  42  66  96 130 172 228 271 333 407
#     4  12  22  38  68  97 124 173 232 272 323 408
#
# _framework density 22.554531999999998
#
# number of rings (size 3 to 8) (size 9 to 14) (size 15 to 20)
#    0.000    1.250    2.500    4.500    1.750    1.000 
#    9.000    0.000    0.000    0.000    0.000    0.000 
#    0.000    0.000    0.000    0.000    0.000    0.000 
#
# Total GULP energy -89369.343550 kJ/mol
# GULP energy per Si atom -5585.583972 kJ/mol
# Density = 2.250320 g / cm^3
# Si number density = 22.554532 Si / 1000 Ang^3
#
#
#
# Elastic Constant Matrix: (Units=GPa)
#
#
# Indices 1 2 3 4 5 6 
#
# 1 78.1714 9.1071 33.5082 10.2924 -8.4748 -25.1731
# 2 9.1071 81.8278 29.8552 -4.9129 0.4487 -8.3104
# 3 33.5082 29.8552 164.9171 23.2738 -29.2977 -10.4112
# 4 10.2924 -4.9129 23.2738 32.7841 -17.5077 -5.6805
# 5 -8.4748 0.4487 -29.2977 -17.5077 45.1804 0.3475
# 6 -25.1731 -8.3104 -10.4112 -5.6805 0.3475 31.7838
#
#
#
# Elastic Compliance Matrix: (Units=1/GPa)
#
#
# Indices 1 2 3 4 5 6 
#
# 1 0.018559 0.000212 -0.002578 -0.000851 0.001372 0.013743
# 2 0.000212 0.013964 -0.003052 0.004667 -0.000297 0.003657
# 3 -0.002578 -0.003052 0.008230 -0.003819 0.003410 -0.000864
# 4 -0.000851 0.004667 -0.003819 0.042740 0.013827 0.006783
# 5 0.001372 -0.000297 0.003410 0.013827 0.029931 0.004270
# 6 0.013743 0.003657 -0.000864 0.006783 0.004270 0.044186
#
#
# Mechanical properties :
#
#
# Convention : Reuss Voigt Hill
#
# Bulk Modulus (GPa) = 33.42429 52.20636 42.81533
# Shear Modulus (GPa) = 28.02427 38.77940 33.40183
#
# Velocity S-wave (km/s) = 3.52875 4.15102 3.85247
# Velocity P-wave (km/s) = 5.60841 6.79497 6.23000
#
# Compressibility (1/GPa) = 0.02991836
#
# Stress axis : x y z
#
# Youngs Moduli (GPa) = 53.88218 71.61377 121.50407
#
# Poissons Ratio (x) = -0.01519 0.31322
# Poissons Ratio (y) = -0.01143 0.37078
# Poissons Ratio (z) = 0.13890 0.21854
#
# Static dielectric constant tensor:
#      x y z
#    x 2.003630 0.082690 -0.071520 
#    y 0.082690 1.857560 0.001220 
#    z -0.071520 0.001220 1.875790 
# 
# From -- ./inp_files/274192.got.cif
#   From: 2010.05.17/outbox.cif.g08.bks.cpg/sg2_138_cif.got.tgz:274192.got - 2010.06.03 11:33:40.
