data_PCOD9029810
_publ_section_title
;
Structure prediction by ZEFSAII (Michael W. Deem and Ramdas Pophale) SiO2 
 PCOD9029810
Probable space group: P -1
;
_chemical_formula_sum "Si O2"
_cell_formula_units_Z 12
_cell_length_a 8.660323
_cell_length_b 17.057825
_cell_length_c 14.757405
_cell_angle_alpha 156.331853
_cell_angle_beta 79.529229
_cell_angle_gamma 118.815071
_cell_volume 517.124803
_symmetry_space_group_name_H-M "P -1"
_symmetry_group_IT_number 2
_symmetry_cell_setting 'triclinic'
loop_
_space_group_symop_operation_xyz
x,y,z
-x,-y,-z
loop_
_atom_site_type_symbol
_atom_site_label
_atom_site_fract_x
_atom_site_fract_y
_atom_site_fract_z
Si Si1 0.063824 0.923308 0.829181
Si Si2 0.446020 0.460124 0.827955
Si Si3 0.708871 0.090638 0.798310
Si Si4 0.441581 0.851885 0.948439
Si Si5 0.983524 0.937650 0.208287
Si Si6 0.267094 0.662638 0.116023
O O1 0.835512 0.535435 0.432277
O O2 0.077000 0.074582 0.900497
O O3 0.332628 0.077929 0.979701
O O4 0.000000 0.000000 0.000000
O O5 0.417068 0.198563 0.560888
O O6 0.750766 0.805213 0.149658
O O7 0.305029 0.467410 0.918800
O O8 0.270783 0.302377 0.588135
O O9 0.718656 0.285039 0.938265
O O10 0.980664 0.254928 0.972486
O O11 0.568038 0.000418 0.812091
O O12 0.500000 0.000000 0.000000
O O13 0.500000 0.000000 0.500000
O O14 0.000000 0.500000 0.000000
#
# Coordination Sequence:
#
# PCOD9029810 Si02
#       6
#     2   2   2   2   2   2
#     4  12  25  41  68  99 143 182 235 290 341 407
#     4  10  24  44  70  96 139 177 228 283 354 401
#     4  10  27  44  74  98 145 178 234 285 349 409
#     4  12  27  44  72 104 144 184 237 285 345 417
#     4  10  22  42  68  95 134 182 228 270 357 396
#     4  12  27  45  70 103 136 180 234 284 349 418
#
# _framework density 23.20523
#
# number of rings (size 3 to 8) (size 9 to 14) (size 15 to 20)
#    1.000    0.000    0.000    6.000    7.000    1.333 
#    0.000    0.000    0.000    0.000    0.000    0.000 
#    0.000    0.000    0.000    0.000    0.000    0.000 
#
# Total GULP energy -66968.895538 kJ/mol
# GULP energy per Si atom -5580.741295 kJ/mol
# Density = 2.315241 g / cm^3
# Si number density = 23.205230 Si / 1000 Ang^3
#
#
#
# Elastic Constant Matrix: (Units=GPa)
#
#
# Indices 1 2 3 4 5 6 
#
# 1 124.8581 43.0242 24.3474 -12.2565 8.3531 17.4792
# 2 43.0242 77.6991 10.4973 -11.7357 7.7272 -1.1893
# 3 24.3474 10.4973 51.2303 -4.2690 -8.8625 5.8397
# 4 -12.2565 -11.7357 -4.2690 28.2601 9.5140 0.1909
# 5 8.3531 7.7272 -8.8625 9.5140 48.3616 -6.0021
# 6 17.4792 -1.1893 5.8397 0.1909 -6.0021 55.7880
#
#
#
# Elastic Compliance Matrix: (Units=1/GPa)
#
#
# Indices 1 2 3 4 5 6 
#
# 1 0.011666 -0.005115 -0.004337 0.003350 -0.003105 -0.003656
# 2 -0.005115 0.017056 -0.001309 0.005657 -0.002976 0.001764
# 3 -0.004337 -0.001309 0.022745 -0.000740 0.005212 -0.000487
# 4 0.003350 0.005657 -0.000740 0.042540 -0.010248 -0.002100
# 5 -0.003105 -0.002976 0.005212 -0.010248 0.025044 0.003094
# 6 -0.003656 0.001764 -0.000487 -0.002100 0.003094 0.019499
#
#
# Mechanical properties :
#
#
# Convention : Reuss Voigt Hill
#
# Bulk Modulus (GPa) = 33.39427 45.50283 39.44855
# Shear Modulus (GPa) = 29.40251 38.20986 33.80618
#
# Velocity S-wave (km/s) = 3.56345 4.06224 3.82099
# Velocity P-wave (km/s) = 5.59937 6.45398 6.04180
#
# Compressibility (1/GPa) = 0.02994525
#
# Stress axis : x y z
#
# Youngs Moduli (GPa) = 85.72093 58.62873 43.96648
#
# Poissons Ratio (x) = 0.29987 0.19070
# Poissons Ratio (y) = 0.43844 0.05753
# Poissons Ratio (z) = 0.37181 0.07672
#
# Static dielectric constant tensor:
#      x y z
#    x 1.907910 0.038160 -0.004730 
#    y 0.038160 1.864860 0.021380 
#    z -0.004730 0.021380 1.914820 
# 
# From -- ./inp_files/132548.got.cif
#   From: 2010.05.17/outbox.cif.g08.bks.cpg/sg2_67_cif.got.tgz:132548.got - 2010.06.03 11:33:40.
