data_PCOD9029058
_publ_section_title
;
Structure prediction by ZEFSAII (Michael W. Deem and Ramdas Pophale) SiO2 
 PCOD9029058
Probable space group: P -1
;
_chemical_formula_sum "Si O2"
_cell_formula_units_Z 15
_cell_length_a 14.856266
_cell_length_b 10.513920
_cell_length_c 9.079275
_cell_angle_alpha 81.248714
_cell_angle_beta 59.696036
_cell_angle_gamma 129.367002
_cell_volume 668.999704
_symmetry_space_group_name_H-M "P -1"
_symmetry_group_IT_number 2
_symmetry_cell_setting 'triclinic'
loop_
_space_group_symop_operation_xyz
x,y,z
-x,-y,-z
loop_
_atom_site_type_symbol
_atom_site_label
_atom_site_fract_x
_atom_site_fract_y
_atom_site_fract_z
Si Si1 0.369875 0.756074 0.580455
Si Si2 0.278405 0.202605 0.077833
Si Si3 0.460211 0.947038 0.871145
Si Si4 0.566111 0.374036 0.027366
Si Si5 0.463292 0.592088 0.430144
Si Si6 0.129123 0.305101 0.542624
Si Si7 0.034165 0.583336 0.288564
Si Si8 0.000000 0.500000 0.000000
O O1 0.456055 0.704070 0.527102
O O2 0.164922 0.560655 0.850957
O O3 0.500000 0.000000 0.500000
O O4 0.391134 0.813991 0.380434
O O5 0.358974 0.431007 0.970558
O O6 0.374190 0.229237 0.134077
O O7 0.369852 0.224686 0.858959
O O8 0.052913 0.966742 0.302765
O O9 0.463758 0.799313 0.853808
O O10 0.257351 0.800282 0.039127
O O11 0.500000 0.000000 0.000000
O O12 0.729099 0.527802 0.740648
O O13 0.500000 0.500000 0.500000
O O14 0.264023 0.386895 0.543561
O O15 0.035044 0.341274 0.665642
O O16 0.000000 0.500000 0.500000
O O17 0.961266 0.438766 0.225144
#
# Coordination Sequence:
#
# PCOD9029058 Si02
#       8
#     2   2   2   2   2   2   2   1
#     4  12  26  46  72 104 147 192 244 311 378 446
#     4  10  23  41  69  99 140 188 243 312 370 443
#     4  12  23  42  73 107 144 196 245 303 388 450
#     4  10  22  42  66 104 142 181 246 309 364 455
#     4  11  26  46  71  97 142 194 248 312 375 447
#     4  11  21  44  69 101 143 188 248 304 375 446
#     4  12  23  42  72 108 150 194 242 313 379 445
#     4  12  26  46  70 112 152 192 252 316 370 454
#
# _framework density 22.421534999999999
#
# number of rings (size 3 to 8) (size 9 to 14) (size 15 to 20)
#    0.000    0.800    4.000    4.400    1.867    0.533 
#    0.000    1.333    0.000    0.000    0.000    0.000 
#    0.000    0.000    0.000    0.000    0.000    0.000 
#
# Total GULP energy -83553.893875 kJ/mol
# GULP energy per Si atom -5570.259592 kJ/mol
# Density = 2.237050 g / cm^3
# Si number density = 22.421535 Si / 1000 Ang^3
#
#
#
# Elastic Constant Matrix: (Units=GPa)
#
#
# Indices 1 2 3 4 5 6 
#
# 1 139.1407 39.4736 35.0536 -3.8675 -9.8112 -24.8302
# 2 39.4736 87.2050 20.6641 7.9804 -2.3016 -15.1070
# 3 35.0536 20.6641 88.2226 11.5964 -14.0554 -1.7091
# 4 -3.8675 7.9804 11.5964 46.4208 4.7484 -7.8974
# 5 -9.8112 -2.3016 -14.0554 4.7484 39.4059 6.6197
# 6 -24.8302 -15.1070 -1.7091 -7.8974 6.6197 45.0245
#
#
#
# Elastic Compliance Matrix: (Units=1/GPa)
#
#
# Indices 1 2 3 4 5 6 
#
# 1 0.009896 -0.003085 -0.003548 0.003084 -0.000169 0.004853
# 2 -0.003085 0.013916 -0.001913 -0.001612 -0.000905 0.002746
# 3 -0.003548 -0.001913 0.014615 -0.004798 0.005414 -0.003681
# 4 0.003084 -0.001612 -0.004798 0.024824 -0.005049 0.006074
# 5 -0.000169 -0.000905 0.005414 -0.005049 0.028712 -0.005298
# 6 0.004853 0.002746 -0.003681 0.006074 -0.005298 0.027513
#
#
# Mechanical properties :
#
#
# Convention : Reuss Voigt Hill
#
# Bulk Modulus (GPa) = 46.86913 56.10567 51.48740
# Shear Modulus (GPa) = 34.80016 40.79537 37.79776
#
# Velocity S-wave (km/s) = 3.94393 4.27016 4.11028
# Velocity P-wave (km/s) = 6.45666 7.02778 6.74826
#
# Compressibility (1/GPa) = 0.02133601
#
# Stress axis : x y z
#
# Youngs Moduli (GPa) = 101.05354 71.85938 68.42517
#
# Poissons Ratio (x) = 0.22166 0.24275
# Poissons Ratio (y) = 0.31171 0.13089
# Poissons Ratio (z) = 0.35850 0.13746
#
# Static dielectric constant tensor:
#      x y z
#    x 1.850750 0.067780 0.022670 
#    y 0.067780 1.952060 0.022350 
#    z 0.022670 0.022350 1.844200 
# 
# From -- ./inp_files/305120.got.cif
#   From: 2010.05.17/outbox.cif.g08.bks.cpg/sg2_153_cif.got.tgz:305120.got - 2010.06.03 11:33:40.
