data_PCOD9029299
_publ_section_title
;
Structure prediction by ZEFSAII (Michael W. Deem and Ramdas Pophale) SiO2 
 PCOD9029299
Probable space group: P -1
;
_chemical_formula_sum "Si O2"
_cell_formula_units_Z 16
_cell_length_a 15.399370
_cell_length_b 7.385637
_cell_length_c 18.285128
_cell_angle_alpha 42.556142
_cell_angle_beta 147.436659
_cell_angle_gamma 142.683312
_cell_volume 664.386559
_symmetry_space_group_name_H-M "P -1"
_symmetry_group_IT_number 2
_symmetry_cell_setting 'triclinic'
loop_
_space_group_symop_operation_xyz
x,y,z
-x,-y,-z
loop_
_atom_site_type_symbol
_atom_site_label
_atom_site_fract_x
_atom_site_fract_y
_atom_site_fract_z
Si Si1 0.534004 0.104128 0.409387
Si Si2 0.066040 0.653060 0.922327
Si Si3 0.100300 0.912869 0.313234
Si Si4 0.035446 0.082173 0.415866
Si Si5 0.633265 0.619121 0.232246
Si Si6 0.521293 0.804777 0.965541
Si Si7 0.869278 0.273401 0.766318
Si Si8 0.235256 0.722482 0.680518
O O1 0.707914 0.054062 0.532435
O O2 0.581338 0.451888 0.322729
O O3 0.500000 0.000000 0.500000
O O4 0.334043 0.908425 0.289621
O O5 0.016613 0.404723 0.896802
O O6 0.279242 0.911818 0.993962
O O7 0.946316 0.826911 0.771364
O O8 0.000000 0.500000 0.000000
O O9 0.100573 0.907833 0.225461
O O10 0.939003 0.588463 0.323278
O O11 0.119900 0.434351 0.355040
O O12 0.834875 0.904418 0.291193
O O13 0.000000 0.000000 0.500000
O O14 0.163918 0.936431 0.530577
O O15 0.504948 0.713993 0.066532
O O16 0.655256 0.367522 0.273575
O O17 0.500000 0.500000 0.000000
O O18 0.363829 0.861576 0.801554
#
# Coordination Sequence:
#
# PCOD9029299 Si02
#       8
#     2   2   2   2   2   2   2   2
#     4  10  23  41  65 102 139 179 225 281 345 408
#     4  12  27  45  69  99 139 182 233 280 339 417
#     4  11  22  46  68  97 142 175 227 286 339 406
#     4  12  21  39  67 100 131 171 228 286 330 400
#     4  11  21  40  71  95 130 181 226 280 341 399
#     4  10  22  42  67 100 135 175 230 281 338 411
#     4  11  25  43  68 102 138 177 227 286 346 400
#     4  11  22  38  71 101 129 178 229 276 342 396
#
# _framework density 24.082364999999999
#
# number of rings (size 3 to 8) (size 9 to 14) (size 15 to 20)
#    0.000    1.000    6.250    1.125    5.250    2.000 
#    0.000    3.750    0.000    0.000    0.000    0.000 
#    0.000    0.000    0.000    0.000    0.000    0.000 
#
# Total GULP energy -89511.116450 kJ/mol
# GULP energy per Si atom -5594.444778 kJ/mol
# Density = 2.402755 g / cm^3
# Si number density = 24.082365 Si / 1000 Ang^3
#
#
#
# Elastic Constant Matrix: (Units=GPa)
#
#
# Indices 1 2 3 4 5 6 
#
# 1 88.9941 10.8663 8.8121 -2.0661 -14.7107 5.8194
# 2 10.8663 85.9551 17.5511 11.4141 6.2376 23.6324
# 3 8.8121 17.5511 68.3036 10.7177 -6.9776 9.1156
# 4 -2.0661 11.4141 10.7177 41.2434 -1.4033 -2.9246
# 5 -14.7107 6.2376 -6.9776 -1.4033 32.1293 -3.5095
# 6 5.8194 23.6324 9.1156 -2.9246 -3.5095 43.5922
#
#
#
# Elastic Compliance Matrix: (Units=1/GPa)
#
#
# Indices 1 2 3 4 5 6 
#
# 1 0.012612 -0.002180 -0.000733 0.001653 0.006139 0.000257
# 2 -0.002180 0.015794 -0.002500 -0.004630 -0.005740 -0.008522
# 3 -0.000733 -0.002500 0.016563 -0.003675 0.003369 -0.001986
# 4 0.001653 -0.004630 -0.003675 0.027014 0.002592 0.005079
# 5 0.006139 -0.005740 0.003369 0.002592 0.036407 0.004693
# 6 0.000257 -0.008522 -0.001986 0.005079 0.004693 0.028659
#
#
# Mechanical properties :
#
#
# Convention : Reuss Voigt Hill
#
# Bulk Modulus (GPa) = 29.28872 35.30131 32.29502
# Shear Modulus (GPa) = 31.39576 37.12788 34.26182
#
# Velocity S-wave (km/s) = 3.61457 3.93071 3.77595
# Velocity P-wave (km/s) = 5.44137 5.94063 5.69647
#
# Compressibility (1/GPa) = 0.03414283
#
# Stress axis : x y z
#
# Youngs Moduli (GPa) = 79.29076 63.31372 60.37420
#
# Poissons Ratio (x) = 0.13803 0.04428
# Poissons Ratio (y) = 0.17287 0.15092
# Poissons Ratio (z) = 0.05815 0.15827
#
# Static dielectric constant tensor:
#      x y z
#    x 2.060440 -0.032320 -0.044540 
#    y -0.032320 1.904720 0.023340 
#    z -0.044540 0.023340 1.960670 
# 
# From -- ./inp_files/599391.got.cif
#   From: 2010.05.17/outbox.cif.g08.bks.cpg/sg2_300_cif.got.tgz:599391.got - 2010.06.03 11:33:40.
