data_PCOD9029746
_publ_section_title
;
Structure prediction by ZEFSAII (Michael W. Deem and Ramdas Pophale) SiO2 
 PCOD9029746
Probable space group: P -1
;
_chemical_formula_sum "Si O2"
_cell_formula_units_Z 14
_cell_length_a 11.542850
_cell_length_b 8.467877
_cell_length_c 22.723729
_cell_angle_alpha 136.202827
_cell_angle_beta 150.554806
_cell_angle_gamma 63.945601
_cell_volume 627.874614
_symmetry_space_group_name_H-M "P -1"
_symmetry_group_IT_number 2
_symmetry_cell_setting 'triclinic'
loop_
_space_group_symop_operation_xyz
x,y,z
-x,-y,-z
loop_
_atom_site_type_symbol
_atom_site_label
_atom_site_fract_x
_atom_site_fract_y
_atom_site_fract_z
Si Si1 0.321410 0.672345 0.714365
Si Si2 0.561997 0.606994 0.685901
Si Si3 0.345460 0.966373 0.257192
Si Si4 0.607289 0.812255 0.144177
Si Si5 0.834457 0.866243 0.450622
Si Si6 0.101108 0.597370 0.946629
Si Si7 0.752878 0.992055 0.641249
O O1 0.524671 0.697991 0.757961
O O2 0.306999 0.460976 0.698256
O O3 0.000000 0.500000 0.500000
O O4 0.406371 0.978147 0.850032
O O5 0.565842 0.788812 0.683617
O O6 0.299316 0.291668 0.478803
O O7 0.853326 0.617879 0.813988
O O8 0.261131 0.015875 0.296364
O O9 0.600476 0.931256 0.372848
O O10 0.117634 0.695800 0.047115
O O11 0.500000 0.500000 0.000000
O O12 0.404217 0.784720 0.100605
O O13 0.930052 0.979326 0.353365
O O14 0.000000 0.000000 0.500000
O O15 0.022675 0.289365 0.825188
O O16 0.500000 0.000000 0.500000
#
# Coordination Sequence:
#
# PCOD9029746 Si02
#       7
#     2   2   2   2   2   2   2
#     4  10  22  42  68  92 128 176 215 266 337 393
#     4  11  23  43  68  98 131 175 224 272 335 393
#     4  12  22  42  66  97 134 174 222 277 325 401
#     4  11  25  43  68  97 130 175 222 277 329 394
#     4  11  22  43  66  95 131 175 226 264 334 398
#     4  11  23  43  64  98 137 171 223 273 334 389
#     4  10  24  39  64  95 132 173 215 274 332 392
#
# _framework density 22.297446000000001
#
# number of rings (size 3 to 8) (size 9 to 14) (size 15 to 20)
#    0.000    1.143    2.857    3.857    8.000    0.000 
#    0.000    0.714    0.000    0.000    0.000    0.000 
#    0.000    0.000    0.000    0.000    0.000    0.000 
#
# Total GULP energy -78188.425200 kJ/mol
# GULP energy per Si atom -5584.887514 kJ/mol
# Density = 2.224670 g / cm^3
# Si number density = 22.297446 Si / 1000 Ang^3
#
#
#
# Elastic Constant Matrix: (Units=GPa)
#
#
# Indices 1 2 3 4 5 6 
#
# 1 58.1085 30.9785 0.6591 4.5507 -2.0851 11.7217
# 2 30.9785 162.2007 51.3063 33.0822 3.6763 10.3915
# 3 0.6591 51.3063 81.5935 22.4099 -6.6750 -0.2493
# 4 4.5507 33.0822 22.4099 47.1675 -11.7390 4.6915
# 5 -2.0851 3.6763 -6.6750 -11.7390 31.4187 4.3146
# 6 11.7217 10.3915 -0.2493 4.6915 4.3146 37.4040
#
#
#
# Elastic Compliance Matrix: (Units=1/GPa)
#
#
# Indices 1 2 3 4 5 6 
#
# 1 0.021015 -0.004959 0.002790 0.001707 0.004011 -0.005866
# 2 -0.004959 0.009889 -0.005137 -0.005126 -0.004483 -0.000067
# 3 0.002790 -0.005137 0.016803 -0.004058 0.002722 0.000860
# 4 0.001707 -0.005126 -0.004058 0.029863 0.011588 -0.004220
# 5 0.004011 -0.004483 0.002722 0.011588 0.038333 -0.005869
# 6 -0.005866 -0.000067 0.000860 -0.004220 -0.005869 0.029804
#
#
# Mechanical properties :
#
#
# Convention : Reuss Voigt Hill
#
# Bulk Modulus (GPa) = 30.21688 51.97674 41.09681
# Shear Modulus (GPa) = 29.17973 37.79529 33.48751
#
# Velocity S-wave (km/s) = 3.62146 4.12157 3.87958
# Velocity P-wave (km/s) = 5.57385 6.78314 6.20801
#
# Compressibility (1/GPa) = 0.03309408
#
# Stress axis : x y z
#
# Youngs Moduli (GPa) = 47.58493 101.12536 59.51176
#
# Poissons Ratio (x) = 0.50153 -0.16605
# Poissons Ratio (y) = 0.23600 0.30572
# Poissons Ratio (z) = -0.13277 0.51950
#
# Static dielectric constant tensor:
#      x y z
#    x 1.839280 0.007390 -0.001460 
#    y 0.007390 1.854260 0.028740 
#    z -0.001460 0.028740 1.840620 
# 
# From -- ./inp_files/182292.got.cif
#   From: 2010.05.17/outbox.cif.g08.bks.cpg/sg2_92_cif.got.tgz:182292.got - 2010.06.03 11:33:40.
