data_PCOD9029208
_publ_section_title
;
Structure prediction by ZEFSAII (Michael W. Deem and Ramdas Pophale) SiO2 
 PCOD9029208
Probable space group: P -1
;
_chemical_formula_sum "Si O2"
_cell_formula_units_Z 12
_cell_length_a 5.591041
_cell_length_b 4.969648
_cell_length_c 18.391894
_cell_angle_alpha 79.994648
_cell_angle_beta 59.716091
_cell_angle_gamma 87.970062
_cell_volume 433.761125
_symmetry_space_group_name_H-M "P -1"
_symmetry_group_IT_number 2
_symmetry_cell_setting 'triclinic'
loop_
_space_group_symop_operation_xyz
x,y,z
-x,-y,-z
loop_
_atom_site_type_symbol
_atom_site_label
_atom_site_fract_x
_atom_site_fract_y
_atom_site_fract_z
Si Si1 0.764516 0.208675 0.452643
Si Si2 0.395970 0.115876 0.865230
Si Si3 0.126458 0.261232 0.041556
Si Si4 0.289703 0.934122 0.373575
Si Si5 0.669138 0.480158 0.320759
Si Si6 0.736255 0.625633 0.825848
O O1 0.820596 0.228563 0.528859
O O2 0.718774 0.479116 0.400917
O O3 0.500000 0.000000 0.500000
O O4 0.015139 0.064694 0.381132
O O5 0.503183 0.431701 0.830022
O O6 0.116202 0.962916 0.883750
O O7 0.647525 0.933015 0.813563
O O8 0.318903 0.104042 0.964034
O O9 0.262591 0.395878 0.085884
O O10 0.000000 0.500000 0.000000
O O11 0.484256 0.725947 0.315112
O O12 0.490477 0.199286 0.347282
O O13 0.965802 0.463799 0.239825
#
# Coordination Sequence:
#
# PCOD9029208 Si02
#       6
#     2   2   2   2   2   2
#     4   9  21  41  70  96 128 175 224 269 331 401
#     4  11  25  44  69  96 130 178 227 276 338 402
#     4  11  25  44  69 100 128 175 233 279 333 404
#     4  10  22  42  66  96 133 173 221 277 327 402
#     4  11  24  43  62  99 135 175 220 276 342 399
#     4  12  26  43  67  97 139 175 222 281 340 402
#
# _framework density 27.664997
#
# number of rings (size 3 to 8) (size 9 to 14) (size 15 to 20)
#    0.000    1.333    1.667    2.500    4.667   10.000 
#    3.000    0.000    0.000    0.000    0.000    0.000 
#    0.000    0.000    0.000    0.000    0.000    0.000 
#
# Total GULP energy -67234.536345 kJ/mol
# GULP energy per Si atom -5602.878029 kJ/mol
# Density = 2.760203 g / cm^3
# Si number density = 27.664997 Si / 1000 Ang^3
#
#
#
# Elastic Constant Matrix: (Units=GPa)
#
#
# Indices 1 2 3 4 5 6 
#
# 1 72.0973 37.2134 20.8994 0.1248 -4.4568 -7.5065
# 2 37.2134 160.8730 26.2350 12.7441 -11.5302 2.6299
# 3 20.8994 26.2350 111.9036 23.2211 -38.8837 -4.5090
# 4 0.1248 12.7441 23.2211 40.9460 -11.0289 -11.7423
# 5 -4.4568 -11.5302 -38.8837 -11.0289 57.2343 -1.3924
# 6 -7.5065 2.6299 -4.5090 -11.7423 -1.3924 56.3366
#
#
#
# Elastic Compliance Matrix: (Units=1/GPa)
#
#
# Indices 1 2 3 4 5 6 
#
# 1 0.017004 -0.003801 -0.003204 0.003549 -0.000864 0.002905
# 2 -0.003801 0.007405 -0.000460 -0.002314 0.000404 -0.001361
# 3 -0.003204 -0.000460 0.013456 -0.005473 0.007738 -0.000278
# 4 0.003549 -0.002314 -0.005473 0.030712 0.002170 0.006598
# 5 -0.000864 0.000404 0.007738 0.002170 0.023198 0.001511
# 6 0.002905 -0.001361 -0.000278 0.006598 0.001511 0.019591
#
#
# Mechanical properties :
#
#
# Convention : Reuss Voigt Hill
#
# Bulk Modulus (GPa) = 43.60523 57.06330 50.33426
# Shear Modulus (GPa) = 37.32929 48.27177 42.80053
#
# Velocity S-wave (km/s) = 3.67731 4.18169 3.93759
# Velocity P-wave (km/s) = 5.81603 6.63225 6.23751
#
# Compressibility (1/GPa) = 0.02293303
#
# Stress axis : x y z
#
# Youngs Moduli (GPa) = 58.80989 135.04369 74.31661
#
# Poissons Ratio (x) = 0.51336 0.23811
# Poissons Ratio (y) = 0.22356 0.03422
# Poissons Ratio (z) = 0.18843 0.06218
#
# Static dielectric constant tensor:
#      x y z
#    x 2.171970 -0.019760 0.081220 
#    y -0.019760 2.072200 -0.006930 
#    z 0.081220 -0.006930 2.245460 
# 
# From -- ./inp_files/8553.got.cif
#   From: 2010.05.17/outbox.cif.g08.bks.cpg/sg2_5_cif.got.tgz:8553.got - 2010.06.03 11:33:40.
