data_PCOD9029533
_publ_section_title
;
Structure prediction by ZEFSAII (Michael W. Deem and Ramdas Pophale) SiO2 
 PCOD9029533
Probable space group: P -1
;
_chemical_formula_sum "Si O2"
_cell_formula_units_Z 14
_cell_length_a 11.034548
_cell_length_b 6.917474
_cell_length_c 20.381707
_cell_angle_alpha 68.438851
_cell_angle_beta 39.976316
_cell_angle_gamma 98.351937
_cell_volume 650.463691
_symmetry_space_group_name_H-M "P -1"
_symmetry_group_IT_number 2
_symmetry_cell_setting 'triclinic'
loop_
_space_group_symop_operation_xyz
x,y,z
-x,-y,-z
loop_
_atom_site_type_symbol
_atom_site_label
_atom_site_fract_x
_atom_site_fract_y
_atom_site_fract_z
Si Si1 0.212887 0.269119 0.611812
Si Si2 0.050469 0.715955 0.794875
Si Si3 0.263229 0.478665 0.794408
Si Si4 0.759897 0.563284 0.706495
Si Si5 0.813800 0.283976 0.830806
Si Si6 0.866170 0.826576 0.981801
Si Si7 0.146936 0.239407 0.493489
O O1 0.500000 0.500000 0.500000
O O2 0.183352 0.333289 0.542212
O O3 0.993782 0.223155 0.750572
O O4 0.161827 0.982340 0.667928
O O5 0.243870 0.698088 0.749712
O O6 0.872680 0.436495 0.856455
O O7 0.912117 0.733355 0.908585
O O8 0.132037 0.333168 0.938008
O O9 0.576125 0.668689 0.645231
O O10 0.097871 0.181518 0.855193
O O11 0.866826 0.480268 0.723762
O O12 0.433976 0.312056 0.876460
O O13 0.849648 0.598640 0.589289
O O14 0.889671 0.886647 0.634211
O O15 0.500000 0.000000 0.000000
#
# Coordination Sequence:
#
# PCOD9029533 Si02
#       7
#     2   2   2   2   2   2   2
#     4  12  27  43  66 100 132 175 224 274 333 401
#     4  12  23  40  67  94 134 174 216 272 335 386
#     4  10  22  42  67  97 131 173 224 272 326 398
#     4  10  22  43  67  94 130 172 218 272 330 392
#     4  12  27  43  66 100 132 175 224 274 333 401
#     4  10  22  42  67  97 131 173 224 272 326 398
#     4  10  22  43  67  94 130 172 218 272 330 392
#
# _framework density 21.523107
#
# number of rings (size 3 to 8) (size 9 to 14) (size 15 to 20)
#    0.000    1.143    1.429    4.714    4.000    2.857 
#    0.000    1.429    0.000    0.000    0.000    0.000 
#    0.000    0.000    0.000    0.000    0.000    0.000 
#
# Total GULP energy -78167.505732 kJ/mol
# GULP energy per Si atom -5583.393267 kJ/mol
# Density = 2.147412 g / cm^3
# Si number density = 21.523107 Si / 1000 Ang^3
#
#
#
# Elastic Constant Matrix: (Units=GPa)
#
#
# Indices 1 2 3 4 5 6 
#
# 1 106.6021 33.5101 11.0693 13.1923 16.8149 15.8718
# 2 33.5101 78.6214 15.6558 12.4392 2.0888 12.7148
# 3 11.0693 15.6558 50.9989 5.0720 -11.9711 5.1684
# 4 13.1923 12.4392 5.0720 21.6647 12.9759 6.3274
# 5 16.8149 2.0888 -11.9711 12.9759 45.6778 2.8589
# 6 15.8718 12.7148 5.1684 6.3274 2.8589 43.3434
#
#
#
# Elastic Compliance Matrix: (Units=1/GPa)
#
#
# Indices 1 2 3 4 5 6 
#
# 1 0.012057 -0.004016 -0.002000 -0.001279 -0.004257 -0.002531
# 2 -0.004016 0.016366 -0.002748 -0.006956 0.002119 -0.002127
# 3 -0.002000 -0.002748 0.024041 -0.008356 0.009583 -0.000741
# 4 -0.001279 -0.006956 -0.008356 0.066229 -0.019912 -0.004850
# 5 -0.004257 0.002119 0.009583 -0.019912 0.031491 0.000624
# 6 -0.002531 -0.002127 -0.000741 -0.004850 0.000624 0.025378
#
#
# Mechanical properties :
#
#
# Convention : Reuss Voigt Hill
#
# Bulk Modulus (GPa) = 28.62225 39.63256 34.12741
# Shear Modulus (GPa) = 24.42162 33.86966 29.14564
#
# Velocity S-wave (km/s) = 3.37214 3.97122 3.68388
# Velocity P-wave (km/s) = 5.33751 6.28342 5.82968
#
# Compressibility (1/GPa) = 0.03493785
#
# Stress axis : x y z
#
# Youngs Moduli (GPa) = 82.93631 61.10085 41.59518
#
# Poissons Ratio (x) = 0.24539 0.08318
# Poissons Ratio (y) = 0.33308 0.11429
# Poissons Ratio (z) = 0.16586 0.16789
#
# Static dielectric constant tensor:
#      x y z
#    x 2.081850 0.210630 -0.029240 
#    y 0.210630 1.881720 -0.078620 
#    z -0.029240 -0.078620 1.821720 
# 
# From -- ./inp_files/68489.got.cif
#   From: 2010.05.17/outbox.cif.g08.bks.cpg/sg2_35_cif.got.tgz:68489.got - 2010.06.03 11:33:40.
