data_PCOD9029089
_publ_section_title
;
Structure prediction by ZEFSAII (Michael W. Deem and Ramdas Pophale) SiO2 
 PCOD9029089
Probable space group: P -1
;
_chemical_formula_sum "Si O2"
_cell_formula_units_Z 16
_cell_length_a 9.035791
_cell_length_b 11.107516
_cell_length_c 13.441352
_cell_angle_alpha 137.731392
_cell_angle_beta 117.325058
_cell_angle_gamma 74.589047
_cell_volume 799.931995
_symmetry_space_group_name_H-M "P -1"
_symmetry_group_IT_number 2
_symmetry_cell_setting 'triclinic'
loop_
_space_group_symop_operation_xyz
x,y,z
-x,-y,-z
loop_
_atom_site_type_symbol
_atom_site_label
_atom_site_fract_x
_atom_site_fract_y
_atom_site_fract_z
Si Si1 0.332555 0.265817 0.670359
Si Si2 0.855909 0.473062 0.708717
Si Si3 0.923191 0.981714 0.686159
Si Si4 0.083855 0.855268 0.002948
Si Si5 0.659721 0.338303 0.155122
Si Si6 0.135016 0.651895 0.584360
Si Si7 0.652770 0.488726 0.849051
Si Si8 0.879444 0.711417 0.199751
O O1 0.240165 0.109361 0.478560
O O2 0.271113 0.456221 0.731629
O O3 0.531497 0.316203 0.747012
O O4 0.272593 0.237292 0.747399
O O5 0.810687 0.412713 0.546042
O O6 0.708733 0.461494 0.737451
O O7 0.985356 0.347324 0.717553
O O8 0.951034 0.675428 0.859041
O O9 0.041030 0.827232 0.650353
O O10 0.878945 0.067656 0.828961
O O11 0.029729 0.129922 0.741646
O O12 0.248985 0.797186 0.965648
O O13 0.000000 0.000000 0.000000
O O14 0.713007 0.314534 0.270381
O O15 0.537529 0.653190 0.914564
O O16 0.000000 0.500000 0.500000
O O17 0.806879 0.546867 0.005128
#
# Coordination Sequence:
#
# PCOD9029089 Si02
#       8
#     2   2   2   2   2   2   2   2
#     4  10  22  43  66  89 131 175 207 259 336 375
#     4  12  23  41  69  96 124 181 216 264 318 395
#     4  12  23  37  68 104 123 164 224 279 301 382
#     4  12  22  38  68  98 126 168 223 264 316 382
#     4  10  22  42  66  90 128 178 209 256 333 388
#     4  12  19  41  68  93 131 170 220 263 322 385
#     4  10  24  42  66  95 131 175 211 262 332 393
#     4  12  22  42  69  95 131 167 228 262 318 388
#
# _framework density 20.0017
#
# number of rings (size 3 to 8) (size 9 to 14) (size 15 to 20)
#    0.750    0.000    7.500    1.125    0.000    0.500 
#    0.000    4.375    0.000    0.000    0.000    0.000 
#    0.000    0.000    0.000    0.000    0.000    0.000 
#
# Total GULP energy -89368.978572 kJ/mol
# GULP energy per Si atom -5585.561161 kJ/mol
# Density = 1.995617 g / cm^3
# Si number density = 20.001700 Si / 1000 Ang^3
#
#
#
# Elastic Constant Matrix: (Units=GPa)
#
#
# Indices 1 2 3 4 5 6 
#
# 1 80.1365 22.6263 22.0357 -2.9120 -23.0229 17.5280
# 2 22.6263 82.9640 28.8897 -13.4177 -2.0431 24.0141
# 3 22.0357 28.8897 113.6089 -23.3370 -23.7312 18.2438
# 4 -2.9120 -13.4177 -23.3370 29.4467 11.0827 -2.7906
# 5 -23.0229 -2.0431 -23.7312 11.0827 34.7998 -10.9779
# 6 17.5280 24.0141 18.2438 -2.7906 -10.9779 24.1888
#
#
#
# Elastic Compliance Matrix: (Units=1/GPa)
#
#
# Indices 1 2 3 4 5 6 
#
# 1 0.017761 -0.004197 -0.000416 -0.005250 0.011735 -0.003670
# 2 -0.004197 0.021481 -0.001633 0.010893 -0.012933 -0.021666
# 3 -0.000416 -0.001633 0.012385 0.006932 0.004411 -0.004617
# 4 -0.005250 0.010893 0.006932 0.049474 -0.018583 -0.014965
# 5 0.011735 -0.012933 0.004411 -0.018583 0.051712 0.022335
# 6 -0.003670 -0.021666 -0.004617 -0.014965 0.022335 0.077403
#
#
# Mechanical properties :
#
#
# Convention : Reuss Voigt Hill
#
# Bulk Modulus (GPa) = 25.55172 47.09032 36.32102
# Shear Modulus (GPa) = 19.55016 31.23089 25.39052
#
# Velocity S-wave (km/s) = 3.12977 3.95576 3.56675
# Velocity P-wave (km/s) = 5.08558 6.66771 5.92965
#
# Compressibility (1/GPa) = 0.03913630
#
# Stress axis : x y z
#
# Youngs Moduli (GPa) = 56.30192 46.55219 80.74452
#
# Poissons Ratio (x) = 0.19538 0.03355
# Poissons Ratio (y) = 0.23630 0.13186
# Poissons Ratio (z) = 0.02339 0.07602
#
# Static dielectric constant tensor:
#      x y z
#    x 1.734240 -0.009250 -0.008730 
#    y -0.009250 1.691160 0.001110 
#    z -0.008730 0.001110 1.694320 
# 
# From -- ./inp_files/383601.got.cif
#   From: 2010.05.17/outbox.cif.g08.bks.cpg/sg2_192_cif.got.tgz:383601.got - 2010.06.03 11:33:40.
