data_PCOD9029653
_publ_section_title
;
Structure prediction by ZEFSAII (Michael W. Deem and Ramdas Pophale) SiO2 
 PCOD9029653
Probable space group: P -1
;
_chemical_formula_sum "Si O2"
_cell_formula_units_Z 14
_cell_length_a 9.147799
_cell_length_b 15.389625
_cell_length_c 5.860301
_cell_angle_alpha 66.265134
_cell_angle_beta 52.374879
_cell_angle_gamma 60.197284
_cell_volume 561.088947
_symmetry_space_group_name_H-M "P -1"
_symmetry_group_IT_number 2
_symmetry_cell_setting 'triclinic'
loop_
_space_group_symop_operation_xyz
x,y,z
-x,-y,-z
loop_
_atom_site_type_symbol
_atom_site_label
_atom_site_fract_x
_atom_site_fract_y
_atom_site_fract_z
Si Si1 0.096133 0.997079 0.161020
Si Si2 0.711444 0.782428 0.596949
Si Si3 0.402049 0.089661 0.812317
Si Si4 0.082657 0.392903 0.774120
Si Si5 0.921398 0.290048 0.419775
Si Si6 0.406387 0.786898 0.212014
Si Si7 0.280226 0.527510 0.266460
O O1 0.265228 0.888031 0.118708
O O2 0.000000 0.000000 0.500000
O O3 0.182402 0.087898 0.006293
O O4 0.000000 0.000000 0.000000
O O5 0.576747 0.888560 0.500700
O O6 0.826273 0.700681 0.386351
O O7 0.886703 0.796760 0.567609
O O8 0.572928 0.735434 0.920705
O O9 0.472123 0.177300 0.753961
O O10 0.500000 0.000000 0.000000
O O11 0.240116 0.449870 0.567318
O O12 0.874663 0.467030 0.793339
O O13 0.022670 0.351701 0.104622
O O14 0.749592 0.260708 0.493408
O O15 0.798026 0.362391 0.660803
O O16 0.500000 0.500000 0.000000
#
# Coordination Sequence:
#
# PCOD9029653 Si02
#       7
#     2   2   2   2   2   2   2
#     4  11  27  46  74 105 145 192 250 310 379 446
#     4  11  24  43  69  97 142 185 244 300 364 440
#     4  10  25  44  69 100 140 186 242 303 366 434
#     4  10  23  41  67 101 140 181 238 291 362 430
#     4  11  24  43  69 102 141 186 236 300 362 438
#     4  11  26  42  69 100 140 186 244 299 375 435
#     4  10  22  42  68 101 140 183 231 290 360 438
#
# _framework density 24.951478999999999
#
# number of rings (size 3 to 8) (size 9 to 14) (size 15 to 20)
#    0.000    1.429    0.000    3.000   10.000    6.286 
#    0.000    0.000    0.000    0.000    0.000    0.000 
#    0.000    0.000    0.000    0.000    0.000    0.000 
#
# Total GULP energy -78055.510099 kJ/mol
# GULP energy per Si atom -5575.393578 kJ/mol
# Density = 2.489469 g / cm^3
# Si number density = 24.951479 Si / 1000 Ang^3
#
#
#
# Elastic Constant Matrix: (Units=GPa)
#
#
# Indices 1 2 3 4 5 6 
#
# 1 159.3428 28.4920 71.2853 -1.2125 -10.4468 -7.5358
# 2 28.4920 57.9016 23.1281 8.5359 -5.4009 -14.0217
# 3 71.2853 23.1281 165.3527 3.3696 -27.6671 -25.0806
# 4 -1.2125 8.5359 3.3696 42.3121 -2.0345 -5.8360
# 5 -10.4468 -5.4009 -27.6671 -2.0345 41.9742 -8.5275
# 6 -7.5358 -14.0217 -25.0806 -5.8360 -8.5275 31.1317
#
#
#
# Elastic Compliance Matrix: (Units=1/GPa)
#
#
# Indices 1 2 3 4 5 6 
#
# 1 0.008394 -0.003556 -0.003815 0.000795 -0.001431 -0.002886
# 2 -0.003556 0.022065 0.000838 -0.002967 0.004480 0.010424
# 3 -0.003815 0.000838 0.010492 0.000699 0.008197 0.010283
# 4 0.000795 -0.002967 0.000699 0.024976 0.002457 0.004774
# 5 -0.001431 0.004480 0.008197 0.002457 0.033189 0.017827
# 6 -0.002886 0.010424 0.010283 0.004774 0.017827 0.050180
#
#
# Mechanical properties :
#
#
# Convention : Reuss Voigt Hill
#
# Bulk Modulus (GPa) = 35.86073 69.82312 52.84193
# Shear Modulus (GPa) = 29.12774 40.39637 34.76206
#
# Velocity S-wave (km/s) = 3.42039 4.02804 3.73659
# Velocity P-wave (km/s) = 5.47743 7.04825 6.31189
#
# Compressibility (1/GPa) = 0.02788565
#
# Stress axis : x y z
#
# Youngs Moduli (GPa) = 119.13269 45.31972 95.31020
#
# Poissons Ratio (x) = 0.16117 0.36357
# Poissons Ratio (y) = 0.42367 -0.07987
# Poissons Ratio (z) = 0.45445 -0.03798
#
# Static dielectric constant tensor:
#      x y z
#    x 2.049740 0.024590 0.079150 
#    y 0.024590 2.091490 -0.002200 
#    z 0.079150 -0.002200 2.106410 
# 
# From -- ./inp_files/46447.got.cif
#   From: 2010.05.17/outbox.cif.g08.bks.cpg/sg2_24_cif.got.tgz:46447.got - 2010.06.03 11:33:40.
