data_PCOD9029169
_publ_section_title
;
Structure prediction by ZEFSAII (Michael W. Deem and Ramdas Pophale) SiO2 
 PCOD9029169
Probable space group: P -1
;
_chemical_formula_sum "Si O2"
_cell_formula_units_Z 13
_cell_length_a 17.558436
_cell_length_b 10.136967
_cell_length_c 16.622550
_cell_angle_alpha 132.911590
_cell_angle_beta 162.831609
_cell_angle_gamma 48.722391
_cell_volume 639.057065
_symmetry_space_group_name_H-M "P -1"
_symmetry_group_IT_number 2
_symmetry_cell_setting 'triclinic'
loop_
_space_group_symop_operation_xyz
x,y,z
-x,-y,-z
loop_
_atom_site_type_symbol
_atom_site_label
_atom_site_fract_x
_atom_site_fract_y
_atom_site_fract_z
Si Si1 0.322730 0.502308 0.558895
Si Si2 0.264125 0.002657 0.081990
Si Si3 0.261188 0.426385 0.277759
Si Si4 0.000000 0.500000 0.500000
Si Si5 0.844916 0.355091 0.103675
Si Si6 0.251401 0.920806 0.676750
Si Si7 0.234421 0.094656 0.558309
O O1 0.282821 0.488676 0.417572
O O2 0.256524 0.707231 0.601662
O O3 0.118018 0.380364 0.346631
O O4 0.612896 0.454811 0.861846
O O5 0.228284 0.853460 0.052327
O O6 0.283422 0.209118 0.211403
O O7 0.006199 0.987306 0.763410
O O8 0.509776 0.936070 0.249253
O O9 0.500000 0.500000 0.500000
O O10 0.000000 0.500000 0.000000
O O11 0.876616 0.432640 0.258745
O O12 0.832933 0.694007 0.406700
O O13 0.259850 0.985977 0.621107
O O14 0.000000 0.000000 0.500000
O O15 0.500000 0.000000 0.000000
#
# Coordination Sequence:
#
# PCOD9029169 Si02
#       7
#     2   2   2   1   2   2   2
#     4  12  25  43  66  98 133 169 220 272 323 389
#     4  11  24  43  66  94 127 170 219 269 321 386
#     4  12  26  46  71  96 130 174 221 274 332 387
#     4  10  22  42  66  94 134 174 212 260 322 392
#     4  11  25  42  66  98 132 172 216 267 326 388
#     4  12  24  39  62  92 130 168 210 268 329 387
#     4  11  23  40  66  95 128 169 220 266 321 392
#
# _framework density 20.342471
#
# number of rings (size 3 to 8) (size 9 to 14) (size 15 to 20)
#    0.000    0.615    0.000    9.231    0.000    8.000 
#    0.000    0.000    0.000    0.000    0.000    0.000 
#    0.000    0.000    0.000    0.000    0.000    0.000 
#
# Total GULP energy -72467.235697 kJ/mol
# GULP energy per Si atom -5574.402746 kJ/mol
# Density = 2.029617 g / cm^3
# Si number density = 20.342471 Si / 1000 Ang^3
#
#
#
# Elastic Constant Matrix: (Units=GPa)
#
#
# Indices 1 2 3 4 5 6 
#
# 1 65.5493 -0.6387 32.1994 8.8088 3.2120 8.6666
# 2 -0.6387 95.6367 2.5218 20.0165 0.8184 -4.4737
# 3 32.1994 2.5218 120.1426 -5.0673 6.3147 -3.4830
# 4 8.8088 20.0165 -5.0673 37.0607 10.9171 -10.2325
# 5 3.2120 0.8184 6.3147 10.9171 44.8728 -1.0300
# 6 8.6666 -4.4737 -3.4830 -10.2325 -1.0300 29.0659
#
#
#
# Elastic Compliance Matrix: (Units=1/GPa)
#
#
# Indices 1 2 3 4 5 6 
#
# 1 0.021168 0.001979 -0.006538 -0.010344 0.001647 -0.010373
# 2 0.001979 0.012120 -0.001272 -0.008179 0.001767 -0.001694
# 3 -0.006538 -0.001272 0.010608 0.005734 -0.002283 0.004963
# 4 -0.010344 -0.008179 0.005734 0.042233 -0.009801 0.017033
# 5 0.001647 0.001767 -0.002283 -0.009801 0.024770 -0.003065
# 6 -0.010373 -0.001694 0.004963 0.017033 -0.003065 0.043719
#
#
# Mechanical properties :
#
#
# Convention : Reuss Voigt Hill
#
# Bulk Modulus (GPa) = 31.02255 38.83263 34.92759
# Shear Modulus (GPa) = 28.24465 38.68296 33.46381
#
# Velocity S-wave (km/s) = 3.73024 4.36545 4.06029
# Velocity P-wave (km/s) = 5.81689 6.67386 6.26006
#
# Compressibility (1/GPa) = 0.03223462
#
# Stress axis : x y z
#
# Youngs Moduli (GPa) = 47.24222 82.50527 94.26727
#
# Poissons Ratio (x) = -0.16330 0.61634
# Poissons Ratio (y) = -0.09351 0.11989
# Poissons Ratio (z) = 0.30888 0.10493
#
# Static dielectric constant tensor:
#      x y z
#    x 1.830310 0.026560 -0.021020 
#    y 0.026560 1.727100 0.002490 
#    z -0.021020 0.002490 1.704500 
# 
# From -- ./inp_files/75598.got.cif
#   From: 2010.05.17/outbox.cif.g08.bks.cpg/sg2_38_cif.got.tgz:75598.got - 2010.06.03 11:33:40.
