data_PCOD9029778
_publ_section_title
;
Structure prediction by ZEFSAII (Michael W. Deem and Ramdas Pophale) SiO2 
 PCOD9029778
Probable space group: P -1
;
_chemical_formula_sum "Si O2"
_cell_formula_units_Z 13
_cell_length_a 6.999480
_cell_length_b 11.930671
_cell_length_c 13.496924
_cell_angle_alpha 147.673281
_cell_angle_beta 121.613013
_cell_angle_gamma 71.709220
_cell_volume 492.221758
_symmetry_space_group_name_H-M "P -1"
_symmetry_group_IT_number 2
_symmetry_cell_setting 'triclinic'
loop_
_space_group_symop_operation_xyz
x,y,z
-x,-y,-z
loop_
_atom_site_type_symbol
_atom_site_label
_atom_site_fract_x
_atom_site_fract_y
_atom_site_fract_z
Si Si1 0.589159 0.183491 0.243359
Si Si2 0.727893 0.672630 0.570340
Si Si3 0.178845 0.769070 0.043205
Si Si4 0.539667 0.134991 0.507819
Si Si5 0.916097 0.704499 0.269204
Si Si6 0.102939 0.061443 0.738924
Si Si7 0.000000 0.000000 0.000000
O O1 0.694105 0.424566 0.405924
O O2 0.369253 0.213538 0.273925
O O3 0.747048 0.087092 0.286470
O O4 0.500000 0.000000 0.000000
O O5 0.599902 0.698683 0.452267
O O6 0.979044 0.846453 0.774901
O O7 0.018129 0.829764 0.130253
O O8 0.429905 0.938937 0.255076
O O9 0.070922 0.806293 0.938068
O O10 0.185791 0.527109 0.883250
O O11 0.810858 0.260537 0.659636
O O12 0.500000 0.000000 0.500000
O O13 0.790997 0.743625 0.164233
O O14 0.921411 0.889188 0.489725
#
# Coordination Sequence:
#
# PCOD9029778 Si02
#       7
#     2   2   2   2   2   2   1
#     4  11  23  39  69  97 127 172 223 268 329 401
#     4  10  23  43  64  93 133 173 215 277 330 392
#     4  11  24  44  71  96 135 183 215 274 341 391
#     4  11  23  43  70  99 132 179 225 269 338 402
#     4  11  24  45  71  95 138 177 218 281 333 394
#     4  11  23  41  70 102 128 174 230 270 329 404
#     4  10  22  42  68  94 132 178 222 266 334 400
#
# _framework density 26.410858999999999
#
# number of rings (size 3 to 8) (size 9 to 14) (size 15 to 20)
#    0.000    1.231    3.077    2.308    4.308    0.000 
#    0.000   21.538    3.385    0.000    0.000    0.000 
#    0.000    0.000    0.000    0.000    0.000    0.000 
#
# Total GULP energy -72524.394732 kJ/mol
# GULP energy per Si atom -5578.799595 kJ/mol
# Density = 2.635075 g / cm^3
# Si number density = 26.410859 Si / 1000 Ang^3
#
#
#
# Elastic Constant Matrix: (Units=GPa)
#
#
# Indices 1 2 3 4 5 6 
#
# 1 66.1379 35.8403 6.7376 -7.8351 -2.4750 -7.7817
# 2 35.8403 253.6350 52.0113 12.6062 4.0381 16.7125
# 3 6.7376 52.0113 93.9490 26.7439 -5.6665 7.6078
# 4 -7.8351 12.6062 26.7439 63.3986 6.3341 5.8237
# 5 -2.4750 4.0381 -5.6665 6.3341 38.8778 5.6750
# 6 -7.7817 16.7125 7.6078 5.8237 5.6750 30.9909
#
#
#
# Elastic Compliance Matrix: (Units=1/GPa)
#
#
# Indices 1 2 3 4 5 6 
#
# 1 0.017724 -0.002824 -0.000910 0.002609 0.000032 0.005700
# 2 -0.002824 0.005022 -0.002390 -0.000026 -0.000651 -0.002706
# 3 -0.000910 -0.002390 0.014026 -0.005720 0.003450 -0.001939
# 4 0.002609 -0.000026 -0.005720 0.018952 -0.003633 -0.000823
# 5 0.000032 -0.000651 0.003450 -0.003633 0.027595 -0.004859
# 6 0.005700 -0.002706 -0.001939 -0.000823 -0.004859 0.036679
#
#
# Mechanical properties :
#
#
# Convention : Reuss Voigt Hill
#
# Bulk Modulus (GPa) = 40.77779 66.98893 53.88336
# Shear Modulus (GPa) = 35.60717 47.92898 41.76808
#
# Velocity S-wave (km/s) = 3.67577 4.26460 3.98109
# Velocity P-wave (km/s) = 5.78691 7.04758 6.44813
#
# Compressibility (1/GPa) = 0.02452315
#
# Stress axis : x y z
#
# Youngs Moduli (GPa) = 56.42152 199.13113 71.29473
#
# Poissons Ratio (x) = 0.56227 0.06490
# Poissons Ratio (y) = 0.15931 0.17043
# Poissons Ratio (z) = 0.05136 0.47602
#
# Static dielectric constant tensor:
#      x y z
#    x 1.997490 -0.029180 -0.214600 
#    y -0.029180 2.108270 -0.003610 
#    z -0.214600 -0.003610 1.805450 
# 
# From -- ./inp_files/377203.got.cif
#   From: 2010.05.17/outbox.cif.g08.bks.cpg/sg2_189_cif.got.tgz:377203.got - 2010.06.03 11:33:40.
