data_PCOD9029296
_publ_section_title
;
Structure prediction by ZEFSAII (Michael W. Deem and Ramdas Pophale) SiO2 
 PCOD9029296
Probable space group: P -1
;
_chemical_formula_sum "Si O2"
_cell_formula_units_Z 16
_cell_length_a 7.740717
_cell_length_b 25.768657
_cell_length_c 5.425668
_cell_angle_alpha 88.371103
_cell_angle_beta 65.459526
_cell_angle_gamma 45.954773
_cell_volume 649.135839
_symmetry_space_group_name_H-M "P -1"
_symmetry_group_IT_number 2
_symmetry_cell_setting 'triclinic'
loop_
_space_group_symop_operation_xyz
x,y,z
-x,-y,-z
loop_
_atom_site_type_symbol
_atom_site_label
_atom_site_fract_x
_atom_site_fract_y
_atom_site_fract_z
Si Si1 0.722615 0.092154 0.083141
Si Si2 0.230985 0.151691 0.643619
Si Si3 0.603294 0.686650 0.201701
Si Si4 0.373430 0.468755 0.137295
Si Si5 0.652070 0.309819 0.152156
Si Si6 0.791433 0.472387 0.272571
Si Si7 0.635007 0.021050 0.783716
Si Si8 0.146439 0.854019 0.355599
O O1 0.448979 0.149561 0.414060
O O2 0.604391 0.082196 0.926311
O O3 0.809850 0.131579 0.945163
O O4 0.000000 0.000000 0.000000
O O5 0.455859 0.064695 0.636124
O O6 0.056303 0.154873 0.541109
O O7 0.985936 0.224192 0.957893
O O8 0.497961 0.676659 0.506279
O O9 0.445826 0.774547 0.300355
O O10 0.487704 0.688229 0.007835
O O11 0.945289 0.615277 0.976307
O O12 0.602428 0.380734 0.117469
O O13 0.144572 0.519873 0.490437
O O14 0.500000 0.500000 0.000000
O O15 0.268938 0.474995 0.922817
O O16 0.500000 0.500000 0.500000
O O17 0.968173 0.936712 0.574931
O O18 0.500000 0.000000 0.000000
#
# Coordination Sequence:
#
# PCOD9029296 Si02
#       8
#     2   2   2   2   2   2   2   2
#     4  12  25  42  66 103 134 185 247 298 354 419
#     4  11  25  45  67  98 140 189 234 297 356 418
#     4  11  25  45  68 105 138 184 230 293 354 422
#     4  10  22  42  67 100 133 179 225 277 346 422
#     4  11  25  44  70 102 143 179 235 288 359 418
#     4  10  22  42  68  98 137 174 230 273 355 413
#     4  12  22  42  69  96 138 189 237 290 355 421
#     4  11  24  45  68 100 142 186 241 296 357 423
#
# _framework density 24.648156
#
# number of rings (size 3 to 8) (size 9 to 14) (size 15 to 20)
#    0.000    1.000    2.500    3.750    1.750    6.000 
#    4.500    0.000    0.000    0.000    0.000    0.000 
#    0.000    0.000    0.000    0.000    0.000    0.000 
#
# Total GULP energy -89385.637118 kJ/mol
# GULP energy per Si atom -5586.602320 kJ/mol
# Density = 2.459206 g / cm^3
# Si number density = 24.648156 Si / 1000 Ang^3
#
#
#
# Elastic Constant Matrix: (Units=GPa)
#
#
# Indices 1 2 3 4 5 6 
#
# 1 69.4715 16.6506 40.0010 5.2003 -7.2796 -3.3270
# 2 16.6506 157.6685 70.8287 14.6884 -11.7933 -1.1198
# 3 40.0010 70.8287 200.8960 6.6430 -12.7779 -9.9527
# 4 5.2003 14.6884 6.6430 56.4460 -6.1821 -0.1270
# 5 -7.2796 -11.7933 -12.7779 -6.1821 44.4004 1.0589
# 6 -3.3270 -1.1198 -9.9527 -0.1270 1.0589 28.4326
#
#
#
# Elastic Compliance Matrix: (Units=1/GPa)
#
#
# Indices 1 2 3 4 5 6 
#
# 1 0.016467 -0.000153 -0.003051 -0.000938 0.001632 0.000788
# 2 -0.000153 0.007757 -0.002617 -0.001580 0.001078 -0.000676
# 3 -0.003051 -0.002617 0.006635 0.000263 0.000707 0.001837
# 4 -0.000938 -0.001580 0.000263 0.018409 0.002067 -0.000075
# 5 0.001632 0.001078 0.000707 0.002067 0.023577 -0.000388
# 6 0.000788 -0.000676 0.001837 -0.000075 -0.000388 0.035894
#
#
# Mechanical properties :
#
#
# Convention : Reuss Voigt Hill
#
# Bulk Modulus (GPa) = 52.03867 75.88853 63.96360
# Shear Modulus (GPa) = 39.43635 45.89287 42.66461
#
# Velocity S-wave (km/s) = 4.00430 4.31968 4.16498
# Velocity P-wave (km/s) = 6.52209 7.46559 7.00973
#
# Compressibility (1/GPa) = 0.01921648
#
# Stress axis : x y z
#
# Youngs Moduli (GPa) = 60.72869 128.91071 150.71282
#
# Poissons Ratio (x) = 0.01979 0.45979
# Poissons Ratio (y) = 0.00932 0.39442
# Poissons Ratio (z) = 0.18527 0.33736
#
# Static dielectric constant tensor:
#      x y z
#    x 2.176540 -0.023640 0.093610 
#    y -0.023640 1.957420 -0.030670 
#    z 0.093610 -0.030670 2.085960 
# 
# From -- ./inp_files/56388.got.cif
#   From: 2010.05.17/outbox.cif.g08.bks.cpg/sg2_29_cif.got.tgz:56388.got - 2010.06.03 11:33:40.
