data_PCOD9029338
_publ_section_title
;
Structure prediction by ZEFSAII (Michael W. Deem and Ramdas Pophale) SiO2 
 PCOD9029338
Probable space group: P -1
;
_chemical_formula_sum "Si O2"
_cell_formula_units_Z 14
_cell_length_a 14.667781
_cell_length_b 15.668395
_cell_length_c 9.477102
_cell_angle_alpha 38.598472
_cell_angle_beta 151.937502
_cell_angle_gamma 139.474238
_cell_volume 620.524903
_symmetry_space_group_name_H-M "P -1"
_symmetry_group_IT_number 2
_symmetry_cell_setting 'triclinic'
loop_
_space_group_symop_operation_xyz
x,y,z
-x,-y,-z
loop_
_atom_site_type_symbol
_atom_site_label
_atom_site_fract_x
_atom_site_fract_y
_atom_site_fract_z
Si Si1 0.398107 0.719601 0.549827
Si Si2 0.779661 0.808803 0.140598
Si Si3 0.281594 0.906356 0.363638
Si Si4 0.866143 0.840203 0.531043
Si Si5 0.970813 0.436036 0.884853
Si Si6 0.817481 0.284757 0.253290
Si Si7 0.480973 0.156978 0.743480
O O1 0.250680 0.793008 0.343232
O O2 0.495222 0.811162 0.429883
O O3 0.251199 0.583201 0.457229
O O4 0.584246 0.721041 0.905187
O O5 0.740266 0.815668 0.245072
O O6 0.972257 0.748581 0.458191
O O7 0.837898 0.972329 0.957084
O O8 0.265062 0.819507 0.596527
O O9 0.500000 0.000000 0.500000
O O10 0.723867 0.826367 0.489585
O O11 0.982661 0.716981 0.848265
O O12 0.000000 0.000000 0.500000
O O13 0.126487 0.548154 0.857236
O O14 0.000000 0.500000 0.000000
O O15 0.661933 0.253949 0.952726
O O16 0.500000 0.000000 0.000000
#
# Coordination Sequence:
#
# PCOD9029338 Si02
#       7
#     2   2   2   2   2   2   2
#     4  11  24  43  67  99 145 182 234 292 350 414
#     4  11  22  42  71 105 139 183 237 297 352 414
#     4  10  22  42  67 103 140 181 234 294 346 416
#     4  12  26  47  78 103 138 193 243 290 354 426
#     4  12  25  50  70 104 147 188 234 299 353 426
#     4  12  25  44  71 100 146 189 234 292 360 419
#     4  12  23  42  71 104 137 187 241 288 347 422
#
# _framework density 22.561544999999999
#
# number of rings (size 3 to 8) (size 9 to 14) (size 15 to 20)
#    0.000    0.571    2.857    7.286    0.000    4.000 
#    0.000    0.000    0.000    0.000    0.000    0.000 
#    0.000    0.000    0.000    0.000    0.000    0.000 
#
# Total GULP energy -78259.734162 kJ/mol
# GULP energy per Si atom -5589.981012 kJ/mol
# Density = 2.251019 g / cm^3
# Si number density = 22.561545 Si / 1000 Ang^3
#
#
#
# Elastic Constant Matrix: (Units=GPa)
#
#
# Indices 1 2 3 4 5 6 
#
# 1 63.1436 12.3952 17.3431 -0.2880 -1.0223 -9.8669
# 2 12.3952 99.7139 39.0759 8.0748 4.6387 3.0203
# 3 17.3431 39.0759 89.5188 9.3165 -3.2719 -8.9472
# 4 -0.2880 8.0748 9.3165 50.6449 -4.6293 -7.1659
# 5 -1.0223 4.6387 -3.2719 -4.6293 42.6656 -2.5924
# 6 -9.8669 3.0203 -8.9472 -7.1659 -2.5924 32.5110
#
#
#
# Elastic Compliance Matrix: (Units=1/GPa)
#
#
# Indices 1 2 3 4 5 6 
#
# 1 0.017641 -0.001619 -0.002316 0.001618 0.000919 0.005297
# 2 -0.001619 0.012761 -0.005533 -0.001767 -0.002271 -0.003770
# 3 -0.002316 -0.005533 0.014588 -0.001127 0.001768 0.003718
# 4 0.001618 -0.001767 -0.001127 0.021239 0.002768 0.005247
# 5 0.000919 -0.002271 0.001768 0.002768 0.024357 0.003529
# 6 0.005297 -0.003770 0.003718 0.005247 0.003529 0.035178
#
#
# Mechanical properties :
#
#
# Convention : Reuss Voigt Hill
#
# Bulk Modulus (GPa) = 38.38213 43.33386 40.85800
# Shear Modulus (GPa) = 32.59765 37.40176 34.99970
#
# Velocity S-wave (km/s) = 3.80522 4.07598 3.94293
# Velocity P-wave (km/s) = 6.02954 6.43430 6.23520
#
# Compressibility (1/GPa) = 0.02605379
#
# Stress axis : x y z
#
# Youngs Moduli (GPa) = 56.68634 78.36348 68.54885
#
# Poissons Ratio (x) = 0.12690 0.15878
# Poissons Ratio (y) = 0.09180 0.37925
# Poissons Ratio (z) = 0.13130 0.43355
#
# Static dielectric constant tensor:
#      x y z
#    x 1.857130 -0.006060 0.032330 
#    y -0.006060 1.915220 -0.012100 
#    z 0.032330 -0.012100 1.918900 
# 
# From -- ./inp_files/314544.got.cif
#   From: 2010.05.17/outbox.cif.g08.bks.cpg/sg2_158_cif.got.tgz:314544.got - 2010.06.03 11:33:40.
