data_PCOD9029637
_publ_section_title
;
Structure prediction by ZEFSAII (Michael W. Deem and Ramdas Pophale) SiO2 
 PCOD9029637
Probable space group: P -1
;
_chemical_formula_sum "Si O2"
_cell_formula_units_Z 15
_cell_length_a 9.970377
_cell_length_b 13.173363
_cell_length_c 10.951648
_cell_angle_alpha 123.587460
_cell_angle_beta 51.577142
_cell_angle_gamma 148.478975
_cell_volume 588.205267
_symmetry_space_group_name_H-M "P -1"
_symmetry_group_IT_number 2
_symmetry_cell_setting 'triclinic'
loop_
_space_group_symop_operation_xyz
x,y,z
-x,-y,-z
loop_
_atom_site_type_symbol
_atom_site_label
_atom_site_fract_x
_atom_site_fract_y
_atom_site_fract_z
Si Si1 0.292229 0.283694 0.308065
Si Si2 0.031245 0.389514 0.577400
Si Si3 0.323236 0.036749 0.894521
Si Si4 0.442850 0.839045 0.621920
Si Si5 0.699937 0.714390 0.983121
Si Si6 0.936504 0.592747 0.159574
Si Si7 0.500000 0.000000 0.500000
Si Si8 0.743201 0.997390 0.817622
O O1 0.214745 0.369511 0.464345
O O2 0.253899 0.277093 0.181066
O O3 0.611535 0.429424 0.247234
O O4 0.143817 0.077645 0.297919
O O5 0.215710 0.610148 0.596804
O O6 0.921611 0.336925 0.742153
O O7 0.784388 0.236177 0.523320
O O8 0.362152 0.940928 0.720957
O O9 0.994424 0.868792 0.981597
O O10 0.412509 0.075334 0.011703
O O11 0.417203 0.213540 0.895787
O O12 0.630845 0.949866 0.470768
O O13 0.570131 0.907927 0.730802
O O14 0.500000 0.500000 0.000000
O O15 0.046640 0.774551 0.152661
O O16 0.000000 0.500000 0.000000
#
# Coordination Sequence:
#
# PCOD9029637 Si02
#       8
#     2   2   2   2   2   2   1   2
#     4  11  26  46  72 107 152 194 245 304 373 437
#     4  12  27  49  74 108 150 197 243 310 370 440
#     4  10  23  41  67 104 142 190 245 298 369 425
#     4  12  25  44  71 102 148 191 245 308 363 437
#     4  10  22  42  68 100 144 197 243 298 361 440
#     4  12  26  44  75 112 142 190 250 303 368 438
#     4  12  28  48  70 106 142 196 252 288 370 454
#     4  11  24  43  71 106 146 192 242 307 363 436
#
# _framework density 25.501300000000001
#
# number of rings (size 3 to 8) (size 9 to 14) (size 15 to 20)
#    0.000    0.800    2.667    3.600    3.733    3.733 
#    0.000    0.000    0.000    0.000    0.000    0.000 
#    0.000    0.000    0.000    0.000    0.000    0.000 
#
# Total GULP energy -83816.993792 kJ/mol
# GULP energy per Si atom -5587.799586 kJ/mol
# Density = 2.544326 g / cm^3
# Si number density = 25.501300 Si / 1000 Ang^3
#
#
#
# Elastic Constant Matrix: (Units=GPa)
#
#
# Indices 1 2 3 4 5 6 
#
# 1 128.1295 68.5968 56.6114 17.6658 2.1275 -18.5463
# 2 68.5968 194.2837 45.8217 42.6203 -11.6562 -52.1807
# 3 56.6114 45.8217 128.3894 39.5732 -7.0265 -10.5669
# 4 17.6658 42.6203 39.5732 36.5041 -2.3939 0.7320
# 5 2.1275 -11.6562 -7.0265 -2.3939 61.3753 7.5275
# 6 -18.5463 -52.1807 -10.5669 0.7320 7.5275 66.6764
#
#
#
# Elastic Compliance Matrix: (Units=1/GPa)
#
#
# Indices 1 2 3 4 5 6 
#
# 1 0.011656 -0.004283 -0.005317 0.005041 -0.001527 -0.000835
# 2 -0.004283 0.011465 0.003089 -0.014757 0.001085 0.008310
# 3 -0.005317 0.003089 0.014547 -0.016779 0.001381 0.003272
# 4 0.005041 -0.014757 -0.016779 0.060584 -0.000895 -0.013370
# 5 -0.001527 0.001085 0.001381 -0.000895 0.016828 -0.001247
# 6 -0.000835 0.008310 0.003272 -0.013370 -0.001247 0.022075
#
#
# Mechanical properties :
#
#
# Convention : Reuss Voigt Hill
#
# Bulk Modulus (GPa) = 40.57456 88.09581 64.33519
# Shear Modulus (GPa) = 31.56661 51.56267 41.56464
#
# Velocity S-wave (km/s) = 3.52212 4.50150 4.04159
# Velocity P-wave (km/s) = 5.69963 7.85103 6.86019
#
# Compressibility (1/GPa) = 0.02464598
#
# Stress axis : x y z
#
# Youngs Moduli (GPa) = 85.78925 87.21859 68.74057
#
# Poissons Ratio (x) = 0.37359 0.36550
# Poissons Ratio (y) = 0.36747 -0.21232
# Poissons Ratio (z) = 0.45614 -0.26939
#
# Static dielectric constant tensor:
#      x y z
#    x 1.881440 0.155910 -0.366680 
#    y 0.155910 1.997780 0.156600 
#    z -0.366680 0.156600 1.403560 
# 
# From -- ./inp_files/390966.got.cif
#   From: 2010.05.17/outbox.cif.g08.bks.cpg/sg2_196_cif.got.tgz:390966.got - 2010.06.03 11:33:40.
