data_PCOD9029289
_publ_section_title
;
Structure prediction by ZEFSAII (Michael W. Deem and Ramdas Pophale) SiO2 
 PCOD9029289
Probable space group: P -1
;
_chemical_formula_sum "Si O2"
_cell_formula_units_Z 16
_cell_length_a 16.783054
_cell_length_b 5.330653
_cell_length_c 14.943312
_cell_angle_alpha 94.432560
_cell_angle_beta 150.924968
_cell_angle_gamma 92.208711
_cell_volume 632.010690
_symmetry_space_group_name_H-M "P -1"
_symmetry_group_IT_number 2
_symmetry_cell_setting 'triclinic'
loop_
_space_group_symop_operation_xyz
x,y,z
-x,-y,-z
loop_
_atom_site_type_symbol
_atom_site_label
_atom_site_fract_x
_atom_site_fract_y
_atom_site_fract_z
Si Si1 0.771035 0.459028 0.460487
Si Si2 0.851598 0.146641 0.878698
Si Si3 0.536064 0.284396 0.789675
Si Si4 0.378843 0.010117 0.798447
Si Si5 0.108331 0.487740 0.240898
Si Si6 0.132838 0.726287 0.785485
Si Si7 0.845880 0.797775 0.301105
Si Si8 0.587116 0.733546 0.526705
O O1 0.588382 0.520733 0.303646
O O2 0.840306 0.344818 0.615736
O O3 0.936149 0.694281 0.618572
O O4 0.750351 0.257838 0.354115
O O5 0.858938 0.339147 0.809342
O O6 0.670668 0.959779 0.683689
O O7 0.922759 0.311207 0.040561
O O8 0.000000 0.000000 0.000000
O O9 0.459100 0.067677 0.781499
O O10 0.519185 0.234306 0.665587
O O11 0.730144 0.336688 0.011472
O O12 0.290856 0.231975 0.754603
O O13 0.500000 0.000000 0.000000
O O14 0.246796 0.317422 0.362088
O O15 0.129473 0.480535 0.710148
O O16 0.195376 0.016058 0.814810
O O17 0.000000 0.000000 0.500000
O O18 0.500000 0.500000 0.500000
#
# Coordination Sequence:
#
# PCOD9029289 Si02
#       8
#     2   2   2   2   2   2   2   2
#     4  11  25  44  68 101 143 191 239 310 362 441
#     4   9  18  37  65  92 128 172 230 287 354 437
#     4  11  26  45  68 107 142 189 249 298 373 445
#     4  12  24  42  72  96 142 191 239 301 366 431
#     4   9  20  40  65  98 130 183 241 287 364 435
#     4  12  27  47  71 108 150 193 251 308 372 446
#     4  12  25  45  73 105 144 196 251 305 370 442
#     4  10  22  42  66  99 140 183 230 302 370 435
#
# _framework density 25.316030999999999
#
# number of rings (size 3 to 8) (size 9 to 14) (size 15 to 20)
#    0.000    1.250    2.500    2.625    1.750    4.500 
#    2.250    0.000    0.000    0.000    0.000    0.000 
#    0.000    0.000    0.000    0.000    0.000    0.000 
#
# Total GULP energy -89174.441258 kJ/mol
# GULP energy per Si atom -5573.402579 kJ/mol
# Density = 2.525841 g / cm^3
# Si number density = 25.316031 Si / 1000 Ang^3
#
#
#
# Elastic Constant Matrix: (Units=GPa)
#
#
# Indices 1 2 3 4 5 6 
#
# 1 114.1590 22.1980 43.1245 10.6384 -8.5524 -2.4434
# 2 22.1980 65.9771 29.7944 7.0995 -20.0784 -6.5014
# 3 43.1245 29.7944 208.8145 0.3779 -31.0035 14.3489
# 4 10.6384 7.0995 0.3779 42.3549 3.2157 6.3175
# 5 -8.5524 -20.0784 -31.0035 3.2157 39.3108 -6.1384
# 6 -2.4434 -6.5014 14.3489 6.3175 -6.1384 32.6581
#
#
#
# Elastic Compliance Matrix: (Units=1/GPa)
#
#
# Indices 1 2 3 4 5 6 
#
# 1 0.010154 -0.002106 -0.001891 -0.002436 0.000101 0.001662
# 2 -0.002106 0.021101 -0.001500 -0.004956 0.010741 0.007680
# 3 -0.001891 -0.001500 0.006035 0.000836 0.003097 -0.002672
# 4 -0.002436 -0.004956 0.000836 0.026646 -0.005796 -0.007780
# 5 0.000101 0.010741 0.003097 -0.005796 0.035194 0.008521
# 6 0.001662 0.007680 -0.002672 -0.007780 0.008521 0.036554
#
#
# Mechanical properties :
#
#
# Convention : Reuss Voigt Hill
#
# Bulk Modulus (GPa) = 38.02738 64.35380 51.19059
# Shear Modulus (GPa) = 32.16606 42.45366 37.30986
#
# Velocity S-wave (km/s) = 3.56839 4.09950 3.84313
# Velocity P-wave (km/s) = 5.65964 6.91977 6.32118
#
# Compressibility (1/GPa) = 0.02629684
#
# Stress axis : x y z
#
# Youngs Moduli (GPa) = 98.48591 47.39008 165.68846
#
# Poissons Ratio (x) = 0.09979 0.31337
# Poissons Ratio (y) = 0.20737 0.24852
# Poissons Ratio (z) = 0.18627 0.07108
#
# Static dielectric constant tensor:
#      x y z
#    x 2.082210 0.045580 -0.024740 
#    y 0.045580 2.071240 0.027050 
#    z -0.024740 0.027050 2.062550 
# 
# From -- ./inp_files/45557.got.cif
#   From: 2010.05.17/outbox.cif.g08.bks.cpg/sg2_23_cif.got.tgz:45557.got - 2010.06.03 11:33:40.
