data_PCOD9029773
_publ_section_title
;
Structure prediction by ZEFSAII (Michael W. Deem and Ramdas Pophale) SiO2 
 PCOD9029773
Probable space group: P -1
;
_chemical_formula_sum "Si O2"
_cell_formula_units_Z 16
_cell_length_a 8.992670
_cell_length_b 8.419984
_cell_length_c 11.595584
_cell_angle_alpha 114.628036
_cell_angle_beta 62.041056
_cell_angle_gamma 95.446549
_cell_volume 699.432795
_symmetry_space_group_name_H-M "P -1"
_symmetry_group_IT_number 2
_symmetry_cell_setting 'triclinic'
loop_
_space_group_symop_operation_xyz
x,y,z
-x,-y,-z
loop_
_atom_site_type_symbol
_atom_site_label
_atom_site_fract_x
_atom_site_fract_y
_atom_site_fract_z
Si Si1 0.355783 0.054837 0.408657
Si Si2 0.860572 0.780631 0.671793
Si Si3 0.115557 0.574425 0.881616
Si Si4 0.210476 0.731302 0.417275
Si Si5 0.809123 0.544276 0.826837
Si Si6 0.446149 0.174986 0.914125
Si Si7 0.249005 0.906373 0.044732
Si Si8 0.537416 0.615180 0.408464
O O1 0.266366 0.170567 0.372387
O O2 0.435331 0.188360 0.501778
O O3 0.220792 0.939878 0.477416
O O4 0.486807 0.903871 0.255434
O O5 0.783515 0.654215 0.751168
O O6 0.040247 0.699399 0.534222
O O7 0.873433 0.961290 0.791093
O O8 0.293890 0.467004 0.745518
O O9 0.991340 0.576964 0.817917
O O10 0.159492 0.760981 0.968055
O O11 0.000000 0.500000 0.000000
O O12 0.201298 0.654521 0.267801
O O13 0.373710 0.635301 0.393195
O O14 0.665362 0.635482 0.991902
O O15 0.598608 0.175323 0.951057
O O16 0.331191 0.032090 0.962830
O O17 0.500000 0.500000 0.500000
#
# Coordination Sequence:
#
# PCOD9029773 Si02
#       8
#     2   2   2   2   2   2   2   2
#     4  11  24  40  69  98 132 166 217 282 334 382
#     4  10  22  42  68  94 130 174 218 265 331 406
#     4  12  28  41  67  99 142 171 221 283 338 384
#     4  12  25  40  69  97 133 170 225 274 329 393
#     4  11  24  42  66  96 131 180 219 266 331 406
#     4   9  20  40  69  93 127 171 225 263 326 397
#     4   9  20  41  65  95 129 174 216 270 326 396
#     4  12  26  47  69  95 135 180 225 272 329 404
#
# _framework density 22.875678000000001
#
# number of rings (size 3 to 8) (size 9 to 14) (size 15 to 20)
#    0.000    1.250    0.000    5.625    7.000    3.500 
#    0.000    0.000    0.000    0.000    0.000    0.000 
#    0.000    0.000    0.000    0.000    0.000    0.000 
#
# Total GULP energy -89558.037782 kJ/mol
# GULP energy per Si atom -5597.377361 kJ/mol
# Density = 2.282361 g / cm^3
# Si number density = 22.875678 Si / 1000 Ang^3
#
#
#
# Elastic Constant Matrix: (Units=GPa)
#
#
# Indices 1 2 3 4 5 6 
#
# 1 96.5966 17.6302 49.3941 29.2004 12.6085 15.1215
# 2 17.6302 80.4865 20.1063 4.5622 12.9237 29.0810
# 3 49.3941 20.1063 125.4069 16.4127 -13.4337 18.0837
# 4 29.2004 4.5622 16.4127 45.1963 10.0225 13.1435
# 5 12.6085 12.9237 -13.4337 10.0225 43.5707 14.1412
# 6 15.1215 29.0810 18.0837 13.1435 14.1412 38.0762
#
#
#
# Elastic Compliance Matrix: (Units=1/GPa)
#
#
# Indices 1 2 3 4 5 6 
#
# 1 0.016395 -0.001603 -0.006033 -0.007740 -0.005037 0.002121
# 2 -0.001603 0.017860 -0.001017 0.003826 -0.001745 -0.013194
# 3 -0.006033 -0.001017 0.012163 -0.000586 0.007632 -0.005235
# 4 -0.007740 0.003826 -0.000586 0.030221 -0.003162 -0.008828
# 5 -0.005037 -0.001745 0.007632 -0.003162 0.031550 -0.010917
# 6 0.002121 -0.013194 -0.005235 -0.008828 -0.010917 0.045086
#
#
# Mechanical properties :
#
#
# Convention : Reuss Voigt Hill
#
# Bulk Modulus (GPa) = 34.35112 52.97236 43.66174
# Shear Modulus (GPa) = 27.73392 39.72593 33.72992
#
# Velocity S-wave (km/s) = 3.48570 4.17178 3.84407
# Velocity P-wave (km/s) = 5.59009 6.81262 6.23141
#
# Compressibility (1/GPa) = 0.02911113
#
# Stress axis : x y z
#
# Youngs Moduli (GPa) = 60.99464 55.99064 82.21989
#
# Poissons Ratio (x) = 0.08975 0.49603
# Poissons Ratio (y) = 0.09777 0.08365
# Poissons Ratio (z) = 0.36798 0.05696
#
# Static dielectric constant tensor:
#      x y z
#    x 1.821540 -0.015890 0.005490 
#    y -0.015890 1.885250 0.002860 
#    z 0.005490 0.002860 1.872790 
# 
# From -- ./inp_files/243648.got.cif
#   From: 2010.05.17/outbox.cif.g08.bks.cpg/sg2_122_cif.got.tgz:243648.got - 2010.06.03 11:33:40.
