data_PCOD9029341
_publ_section_title
;
Structure prediction by ZEFSAII (Michael W. Deem and Ramdas Pophale) SiO2 
 PCOD9029341
Probable space group: P -1
;
_chemical_formula_sum "Si O2"
_cell_formula_units_Z 15
_cell_length_a 24.053568
_cell_length_b 6.091247
_cell_length_c 6.225736
_cell_angle_alpha 76.913247
_cell_angle_beta 120.670133
_cell_angle_gamma 127.107107
_cell_volume 621.293703
_symmetry_space_group_name_H-M "P -1"
_symmetry_group_IT_number 2
_symmetry_cell_setting 'triclinic'
loop_
_space_group_symop_operation_xyz
x,y,z
-x,-y,-z
loop_
_atom_site_type_symbol
_atom_site_label
_atom_site_fract_x
_atom_site_fract_y
_atom_site_fract_z
Si Si1 0.500000 0.500000 0.000000
Si Si2 0.115937 0.671016 0.665282
Si Si3 0.028029 0.831028 0.711647
Si Si4 0.280784 0.449385 0.107347
Si Si5 0.361107 0.192320 0.512246
Si Si6 0.224476 0.635697 0.591565
Si Si7 0.127588 0.279621 0.101045
Si Si8 0.434277 0.057498 0.344084
O O1 0.587610 0.584611 0.251407
O O2 0.451896 0.240493 0.130098
O O3 0.102036 0.874259 0.716905
O O4 0.194379 0.768218 0.666892
O O5 0.042741 0.488236 0.395626
O O6 0.112069 0.469818 0.884851
O O7 0.000000 0.000000 0.500000
O O8 0.057482 0.962558 0.976027
O O9 0.318760 0.281646 0.250109
O O10 0.208009 0.331195 0.154377
O O11 0.349103 0.767009 0.227397
O O12 0.253182 0.476528 0.814180
O O13 0.430205 0.196528 0.521789
O O14 0.294500 0.887682 0.535824
O O15 0.149527 0.404627 0.352371
O O16 0.500000 0.000000 0.500000
#
# Coordination Sequence:
#
# PCOD9029341 Si02
#       8
#     1   2   2   2   2   2   2   2
#     4  12  26  46  74 104 130 192 232 284 364 420
#     4   9  21  43  69 103 145 189 236 299 347 424
#     4   9  19  42  70 101 149 186 236 298 350 411
#     4  11  25  45  67 103 144 183 230 300 355 424
#     4  12  27  47  71 105 140 185 239 293 355 432
#     4  11  24  46  72 106 144 189 243 293 365 421
#     4  10  22  42  67 104 141 187 236 298 353 423
#     4  12  26  47  69 101 141 180 233 296 350 429
#
# _framework density 24.143173000000001
#
# number of rings (size 3 to 8) (size 9 to 14) (size 15 to 20)
#    0.000    1.333    4.000    0.400    1.867    3.200 
#    7.200    6.000    0.000    0.000    0.000    0.000 
#    0.000    0.000    0.000    0.000    0.000    0.000 
#
# Total GULP energy -83673.066504 kJ/mol
# GULP energy per Si atom -5578.204434 kJ/mol
# Density = 2.408822 g / cm^3
# Si number density = 24.143173 Si / 1000 Ang^3
#
#
#
# Elastic Constant Matrix: (Units=GPa)
#
#
# Indices 1 2 3 4 5 6 
#
# 1 115.4221 25.6650 31.3914 -26.4989 12.3999 -24.4476
# 2 25.6650 59.7006 24.3154 -8.1247 -0.1823 0.7498
# 3 31.3914 24.3154 95.5320 1.5257 16.0829 -2.4150
# 4 -26.4989 -8.1247 1.5257 45.8459 4.9609 -0.2485
# 5 12.3999 -0.1823 16.0829 4.9609 28.6059 -1.0611
# 6 -24.4476 0.7498 -2.4150 -0.2485 -1.0611 30.2843
#
#
#
# Elastic Compliance Matrix: (Units=1/GPa)
#
#
# Indices 1 2 3 4 5 6 
#
# 1 0.015956 -0.004638 -0.002795 0.009267 -0.006513 0.012620
# 2 -0.004638 0.020795 -0.004646 0.000650 0.004476 -0.004467
# 3 -0.002795 -0.004646 0.013603 -0.002235 -0.006126 -0.001289
# 4 0.009267 0.000650 -0.002235 0.028195 -0.007376 0.007259
# 5 -0.006513 0.004476 -0.006126 -0.007376 0.042369 -0.004434
# 6 0.012620 -0.004467 -0.001289 0.007259 -0.004434 0.043120
#
#
# Mechanical properties :
#
#
# Convention : Reuss Voigt Hill
#
# Bulk Modulus (GPa) = 38.17397 48.15537 43.16467
# Shear Modulus (GPa) = 25.39012 33.56608 29.47810
#
# Velocity S-wave (km/s) = 3.24643 3.73271 3.49803
# Velocity P-wave (km/s) = 5.46793 6.21020 5.85084
#
# Compressibility (1/GPa) = 0.02619586
#
# Stress axis : x y z
#
# Youngs Moduli (GPa) = 62.67392 48.08941 73.51355
#
# Poissons Ratio (x) = 0.22305 0.20545
# Poissons Ratio (y) = 0.29070 0.34151
# Poissons Ratio (z) = 0.17516 0.22340
#
# Static dielectric constant tensor:
#      x y z
#    x 1.955500 0.064010 -0.022460 
#    y 0.064010 2.264170 0.104140 
#    z -0.022460 0.104140 1.972200 
# 
# From -- ./inp_files/12841.got.cif
#   From: 2010.05.17/outbox.cif.g08.bks.cpg/sg2_7_cif.got.tgz:12841.got - 2010.06.03 11:33:40.
