data_PCOD9029439
_publ_section_title
;
Structure prediction by ZEFSAII (Michael W. Deem and Ramdas Pophale) SiO2 
 PCOD9029439
Probable space group: P -1
;
_chemical_formula_sum "Si O2"
_cell_formula_units_Z 16
_cell_length_a 16.099769
_cell_length_b 11.237029
_cell_length_c 11.251159
_cell_angle_alpha 118.015548
_cell_angle_beta 65.091451
_cell_angle_gamma 156.395723
_cell_volume 719.291948
_symmetry_space_group_name_H-M "P -1"
_symmetry_group_IT_number 2
_symmetry_cell_setting 'triclinic'
loop_
_space_group_symop_operation_xyz
x,y,z
-x,-y,-z
loop_
_atom_site_type_symbol
_atom_site_label
_atom_site_fract_x
_atom_site_fract_y
_atom_site_fract_z
Si Si1 0.225723 0.234322 0.940340
Si Si2 0.581739 0.820202 0.865067
Si Si3 0.185813 0.637119 0.464956
Si Si4 0.969043 0.070114 0.317893
Si Si5 0.389909 0.783938 0.637339
Si Si6 0.626632 0.527905 0.420008
Si Si7 0.274672 0.718156 0.940381
Si Si8 0.129880 0.994625 0.117040
O O1 0.405993 0.579436 0.962499
O O2 0.199582 0.130947 0.779896
O O3 0.251840 0.164069 0.997926
O O4 0.000000 0.000000 0.000000
O O5 0.470888 0.674472 0.735235
O O6 0.718830 0.868157 0.813424
O O7 0.749020 0.156435 0.953792
O O8 0.296115 0.763874 0.586655
O O9 0.000000 0.500000 0.500000
O O10 0.099525 0.374397 0.378531
O O11 0.362564 0.890047 0.378493
O O12 0.850870 0.882804 0.421177
O O13 0.086141 0.088837 0.224619
O O14 0.346548 0.564212 0.550882
O O15 0.308601 0.729937 0.787220
O O16 0.500000 0.500000 0.500000
O O17 0.086349 0.373825 0.935290
O O18 0.500000 0.000000 0.000000
#
# Coordination Sequence:
#
# PCOD9029439 Si02
#       8
#     2   2   2   2   2   2   2   2
#     4   9  20  39  63  93 132 175 221 272 344 408
#     4  11  24  40  65 103 134 180 228 287 347 418
#     4  11  27  48  70 102 136 188 239 287 349 420
#     4  10  22  42  67  94 135 176 225 285 350 406
#     4  11  26  47  71 102 142 185 232 289 356 411
#     4  11  23  44  69 100 136 180 233 287 346 426
#     4  12  23  44  67  96 143 180 230 283 351 419
#     4  11  23  39  63 105 132 178 229 281 357 410
#
# _framework density 22.244098999999999
#
# number of rings (size 3 to 8) (size 9 to 14) (size 15 to 20)
#    0.000    1.250    2.500    3.000    7.000    3.500 
#    2.250    0.000    0.000    0.000    0.000    0.000 
#    0.000    0.000    0.000    0.000    0.000    0.000 
#
# Total GULP energy -89156.269717 kJ/mol
# GULP energy per Si atom -5572.266857 kJ/mol
# Density = 2.219347 g / cm^3
# Si number density = 22.244099 Si / 1000 Ang^3
#
#
#
# Elastic Constant Matrix: (Units=GPa)
#
#
# Indices 1 2 3 4 5 6 
#
# 1 109.4750 30.0542 11.9847 -6.4086 -16.3022 5.3955
# 2 30.0542 136.5047 16.2789 1.4827 -13.4927 -27.6015
# 3 11.9847 16.2789 44.7960 -6.9242 -10.2959 -14.3542
# 4 -6.4086 1.4827 -6.9242 30.9471 -8.8565 2.8586
# 5 -16.3022 -13.4927 -10.2959 -8.8565 36.7542 2.4605
# 6 5.3955 -27.6015 -14.3542 2.8586 2.4605 40.9459
#
#
#
# Elastic Compliance Matrix: (Units=1/GPa)
#
#
# Indices 1 2 3 4 5 6 
#
# 1 0.011228 -0.002748 -0.001780 0.003818 0.004695 -0.004505
# 2 -0.002748 0.009470 -0.000495 -0.001355 0.001352 0.006586
# 3 -0.001780 -0.000495 0.028995 0.007715 0.008407 0.009022
# 4 0.003818 -0.001355 0.007715 0.038774 0.012847 -0.002191
# 5 0.004695 0.001352 0.008407 0.012847 0.035222 0.000226
# 6 -0.004505 0.006586 0.009022 -0.002191 0.000226 0.032758
#
#
# Mechanical properties :
#
#
# Convention : Reuss Voigt Hill
#
# Bulk Modulus (GPa) = 25.22180 45.26793 35.24487
# Shear Modulus (GPa) = 27.82301 37.22664 32.52483
#
# Velocity S-wave (km/s) = 3.54051 4.09534 3.82799
# Velocity P-wave (km/s) = 5.29876 6.53890 5.95122
#
# Compressibility (1/GPa) = 0.03964824
#
# Stress axis : x y z
#
# Youngs Moduli (GPa) = 89.05975 105.59928 34.48883
#
# Poissons Ratio (x) = 0.29021 0.06138
# Poissons Ratio (y) = 0.24476 0.01706
# Poissons Ratio (z) = 0.15849 0.05223
#
# Static dielectric constant tensor:
#      x y z
#    x 2.036410 -0.018710 -0.009240 
#    y -0.018710 1.859630 0.011740 
#    z -0.009240 0.011740 1.879470 
# 
# From -- ./inp_files/465116.got.cif
#   From: 2010.05.17/outbox.cif.g08.bks.cpg/sg2_233_cif.got.tgz:465116.got - 2010.06.03 11:33:40.
