data_PCOD9029873
_publ_section_title
;
Structure prediction by ZEFSAII (Michael W. Deem and Ramdas Pophale) SiO2 
 PCOD9029873
Probable space group: P -1
;
_chemical_formula_sum "Si O2"
_cell_formula_units_Z 16
_cell_length_a 14.545260
_cell_length_b 14.267129
_cell_length_c 10.921762
_cell_angle_alpha 49.169395
_cell_angle_beta 147.248963
_cell_angle_gamma 144.413614
_cell_volume 710.250892
_symmetry_space_group_name_H-M "P -1"
_symmetry_group_IT_number 2
_symmetry_cell_setting 'triclinic'
loop_
_space_group_symop_operation_xyz
x,y,z
-x,-y,-z
loop_
_atom_site_type_symbol
_atom_site_label
_atom_site_fract_x
_atom_site_fract_y
_atom_site_fract_z
Si Si1 0.677021 0.929321 0.645278
Si Si2 0.818635 0.351284 0.331818
Si Si3 0.917085 0.696803 0.498370
Si Si4 0.608685 0.993099 0.763909
Si Si5 0.186269 0.277945 0.393950
Si Si6 0.468817 0.400440 0.169629
Si Si7 0.320148 0.495086 0.130711
Si Si8 0.013576 0.005710 0.745120
O O1 0.709853 0.042767 0.695813
O O2 0.616642 0.777791 0.782493
O O3 0.865657 0.972901 0.726015
O O4 0.473509 0.908557 0.371672
O O5 0.912226 0.274437 0.433282
O O6 0.599432 0.198417 0.284778
O O7 0.000000 0.500000 0.500000
O O8 0.758802 0.416713 0.097878
O O9 0.977034 0.744182 0.666350
O O10 0.708976 0.508909 0.409830
O O11 0.856750 0.807990 0.297041
O O12 0.811908 0.023690 0.032140
O O13 0.193007 0.376611 0.204083
O O14 0.426899 0.383778 0.639567
O O15 0.145465 0.120883 0.431091
O O16 0.310752 0.395052 0.092691
O O17 0.500000 0.500000 0.000000
#
# Coordination Sequence:
#
# PCOD9029873 Si02
#       8
#     2   2   2   2   2   2   2   2
#     4  11  23  43  68 101 141 181 232 291 355 425
#     4  12  25  45  68 105 145 180 234 299 359 418
#     4  11  24  41  67  97 140 180 232 291 341 416
#     4  11  25  42  67 104 141 179 234 295 347 426
#     4  10  23  44  67  99 135 191 241 279 343 431
#     4  11  21  41  67  99 132 183 230 285 359 413
#     4  10  22  42  68  97 141 182 234 289 344 420
#     4  12  23  46  71  99 142 187 231 289 357 410
#
# _framework density 22.527251
#
# number of rings (size 3 to 8) (size 9 to 14) (size 15 to 20)
#    0.000    1.000    2.500    5.250    0.000    3.500 
#    2.250    1.250    0.000    0.000    0.000    0.000 
#    0.000    0.000    0.000    0.000    0.000    0.000 
#
# Total GULP energy -89193.416615 kJ/mol
# GULP energy per Si atom -5574.588538 kJ/mol
# Density = 2.247598 g / cm^3
# Si number density = 22.527251 Si / 1000 Ang^3
#
#
#
# Elastic Constant Matrix: (Units=GPa)
#
#
# Indices 1 2 3 4 5 6 
#
# 1 138.3207 28.5426 18.2365 5.8033 -5.5106 11.7138
# 2 28.5426 74.0757 30.5907 -10.2406 -4.2547 4.1852
# 3 18.2365 30.5907 93.5660 -25.1686 -4.0860 2.7166
# 4 5.8033 -10.2406 -25.1686 34.4578 5.1057 -2.5332
# 5 -5.5106 -4.2547 -4.0860 5.1057 32.7553 -4.1608
# 6 11.7138 4.1852 2.7166 -2.5332 -4.1608 25.1099
#
#
#
# Elastic Compliance Matrix: (Units=1/GPa)
#
#
# Indices 1 2 3 4 5 6 
#
# 1 0.008547 -0.002905 -0.001616 -0.003895 0.001015 -0.003553
# 2 -0.002905 0.016766 -0.004274 0.002195 0.000733 -0.000634
# 3 -0.001616 -0.004274 0.015087 0.010143 -0.000426 0.000787
# 4 -0.003895 0.002195 0.010143 0.038689 -0.004694 0.003479
# 5 0.001015 0.000733 -0.000426 -0.004694 0.032018 0.004282
# 6 -0.003553 -0.000634 0.000787 0.003479 0.004282 0.042563
#
#
# Mechanical properties :
#
#
# Convention : Reuss Voigt Hill
#
# Bulk Modulus (GPa) = 43.84476 51.18913 47.51695
# Shear Modulus (GPa) = 27.95421 33.70411 30.82916
#
# Velocity S-wave (km/s) = 3.52647 3.87220 3.70337
# Velocity P-wave (km/s) = 6.00721 6.53946 6.27898
#
# Compressibility (1/GPa) = 0.02280774
#
# Stress axis : x y z
#
# Youngs Moduli (GPa) = 117.00176 59.64584 66.28227
#
# Poissons Ratio (x) = 0.17329 0.10713
# Poissons Ratio (y) = 0.33992 0.28332
# Poissons Ratio (z) = 0.18910 0.25495
#
# Static dielectric constant tensor:
#      x y z
#    x 1.909010 0.021770 -0.014000 
#    y 0.021770 1.879360 0.014750 
#    z -0.014000 0.014750 1.964050 
# 
# From -- ./inp_files/455574.got.cif
#   From: 2010.05.17/outbox.cif.g08.bks.cpg/sg2_228_cif.got.tgz:455574.got - 2010.06.03 11:33:40.
