data_PCOD9029499
_publ_section_title
;
Structure prediction by ZEFSAII (Michael W. Deem and Ramdas Pophale) SiO2 
 PCOD9029499
Probable space group: P -1
;
_chemical_formula_sum "Si O2"
_cell_formula_units_Z 14
_cell_length_a 19.276158
_cell_length_b 23.334824
_cell_length_c 5.530223
_cell_angle_alpha 121.206957
_cell_angle_beta 126.697790
_cell_angle_gamma 15.972182
_cell_volume 530.595846
_symmetry_space_group_name_H-M "P -1"
_symmetry_group_IT_number 2
_symmetry_cell_setting 'triclinic'
loop_
_space_group_symop_operation_xyz
x,y,z
-x,-y,-z
loop_
_atom_site_type_symbol
_atom_site_label
_atom_site_fract_x
_atom_site_fract_y
_atom_site_fract_z
Si Si1 0.873578 0.841103 0.942636
Si Si2 0.322144 0.136097 0.684216
Si Si3 0.644214 0.294145 0.313541
Si Si4 0.769488 0.318637 0.946858
Si Si5 0.898088 0.005286 0.693554
Si Si6 0.233278 0.343205 0.837193
Si Si7 0.313760 0.438575 0.240418
O O1 0.875438 0.781786 0.607432
O O2 0.559119 0.094237 0.899676
O O3 0.025822 0.794602 0.061170
O O4 0.043350 0.684902 0.181995
O O5 0.191926 0.305740 0.824834
O O6 0.500000 0.000000 0.500000
O O7 0.500000 0.000000 0.000000
O O8 0.603848 0.374172 0.632380
O O9 0.478737 0.444519 0.064412
O O10 0.497944 0.332403 0.164261
O O11 0.962050 0.083321 0.467863
O O12 0.958696 0.159749 0.220929
O O13 0.567132 0.248130 0.541932
O O14 0.000000 0.000000 0.000000
O O15 0.000000 0.500000 0.500000
O O16 0.204610 0.443347 0.035790
#
# Coordination Sequence:
#
# PCOD9029499 Si02
#       7
#     2   2   2   2   2   2   2
#     4  10  23  44  69 100 142 179 239 291 367 431
#     4  10  23  47  73 102 145 186 236 306 366 434
#     4  10  22  43  64  90 142 177 228 291 345 426
#     4  10  22  42  67  96 130 187 226 288 355 416
#     4  12  24  38  65 100 139 178 237 280 354 427
#     4  11  23  44  76  98 138 187 240 299 370 433
#     4  11  23  42  67  98 142 185 234 297 354 425
#
# _framework density 26.385428999999998
#
# number of rings (size 3 to 8) (size 9 to 14) (size 15 to 20)
#    0.000    1.429    2.857    1.714    4.000    0.000 
#    2.571    7.143    0.000    0.000    0.000    0.000 
#    0.000    0.000    0.000    0.000    0.000    0.000 
#
# Total GULP energy -77936.214846 kJ/mol
# GULP energy per Si atom -5566.872489 kJ/mol
# Density = 2.632537 g / cm^3
# Si number density = 26.385429 Si / 1000 Ang^3
#
#
#
# Elastic Constant Matrix: (Units=GPa)
#
#
# Indices 1 2 3 4 5 6 
#
# 1 149.4794 50.6421 60.7077 3.4077 11.7195 33.1928
# 2 50.6421 102.4409 27.4427 -39.7666 -7.5918 9.4106
# 3 60.7077 27.4427 105.8119 -27.4268 15.3346 9.8682
# 4 3.4077 -39.7666 -27.4268 60.3670 15.0240 7.8220
# 5 11.7195 -7.5918 15.3346 15.0240 55.7844 -13.4890
# 6 33.1928 9.4106 9.8682 7.8220 -13.4890 55.0446
#
#
#
# Elastic Compliance Matrix: (Units=1/GPa)
#
#
# Indices 1 2 3 4 5 6 
#
# 1 0.013532 -0.007592 -0.007465 -0.008416 -0.000642 -0.004485
# 2 -0.007592 0.018270 0.003776 0.014719 -0.001317 -0.001637
# 3 -0.007465 0.003776 0.017317 0.012822 -0.006793 -0.002735
# 4 -0.008416 0.014719 0.012822 0.036404 -0.011423 -0.007713
# 5 -0.000642 -0.001317 -0.006793 -0.011423 0.025151 0.009617
# 6 -0.004485 -0.001637 -0.002735 -0.007713 0.009617 0.025095
#
#
# Mechanical properties :
#
#
# Convention : Reuss Voigt Hill
#
# Bulk Modulus (GPa) = 37.65389 70.59080 54.12234
# Shear Modulus (GPa) = 29.90744 48.83518 39.37131
#
# Velocity S-wave (km/s) = 3.37038 4.30680 3.86704
# Velocity P-wave (km/s) = 5.42657 7.17936 6.36360
#
# Compressibility (1/GPa) = 0.02655768
#
# Stress axis : x y z
#
# Youngs Moduli (GPa) = 73.90002 54.73434 57.74677
#
# Poissons Ratio (x) = 0.41556 0.43105
# Poissons Ratio (y) = 0.56107 -0.21807
# Poissons Ratio (z) = 0.55163 -0.20669
#
# Static dielectric constant tensor:
#      x y z
#    x 2.022260 0.113240 0.093020 
#    y 0.113240 2.012430 -0.177830 
#    z 0.093020 -0.177830 1.939270 
# 
# From -- ./inp_files/120677.got.cif
#   From: 2010.05.17/outbox.cif.g08.bks.cpg/sg2_61_cif.got.tgz:120677.got - 2010.06.03 11:33:40.
