data_PCOD9029753
_publ_section_title
;
Structure prediction by ZEFSAII (Michael W. Deem and Ramdas Pophale) SiO2 
 PCOD9029753
Probable space group: P -1
;
_chemical_formula_sum "Si O2"
_cell_formula_units_Z 10
_cell_length_a 5.371921
_cell_length_b 9.042958
_cell_length_c 11.214798
_cell_angle_alpha 92.562315
_cell_angle_beta 100.743281
_cell_angle_gamma 55.974264
_cell_volume 442.412991
_symmetry_space_group_name_H-M "P -1"
_symmetry_group_IT_number 2
_symmetry_cell_setting 'triclinic'
loop_
_space_group_symop_operation_xyz
x,y,z
-x,-y,-z
loop_
_atom_site_type_symbol
_atom_site_label
_atom_site_fract_x
_atom_site_fract_y
_atom_site_fract_z
Si Si1 0.650789 0.609187 0.511726
Si Si2 0.808348 0.303042 0.022678
Si Si3 0.246954 0.011683 0.891853
Si Si4 0.719610 0.800998 0.744254
Si Si5 0.241783 0.975656 0.423181
O O1 0.500000 0.500000 0.500000
O O2 0.652118 0.690171 0.643685
O O3 0.000000 0.500000 0.500000
O O4 0.442765 0.767232 0.404336
O O5 0.774506 0.151707 0.074377
O O6 0.059571 0.305043 0.128041
O O7 0.500000 0.500000 0.000000
O O8 0.949363 0.207909 0.903317
O O9 0.396508 0.966175 0.773319
O O10 0.500000 0.000000 0.000000
O O11 0.878711 0.883222 0.688298
O O12 0.500000 0.000000 0.500000
O O13 0.000000 0.000000 0.500000
#
# Coordination Sequence:
#
# PCOD9029753 Si02
#       5
#     2   2   2   2   2
#     4  11  24  44  64 104 139 175 241 293 333 419
#     4  10  22  44  70 102 140 176 234 292 344 431
#     4   9  21  43  65  98 137 175 236 284 353 420
#     4  10  23  42  68  95 139 192 221 284 363 409
#     4  10  22  42  68  92 135 183 228 283 346 414
#
# _framework density 22.603316
#
# number of rings (size 3 to 8) (size 9 to 14) (size 15 to 20)
#    0.000    2.000    0.000    2.400    8.400    3.200 
#   14.400    0.000    0.000    0.000    0.000    0.000 
#    0.000    0.000    0.000    0.000    0.000    0.000 
#
# Total GULP energy -55788.617105 kJ/mol
# GULP energy per Si atom -5578.861710 kJ/mol
# Density = 2.255187 g / cm^3
# Si number density = 22.603316 Si / 1000 Ang^3
#
#
#
# Elastic Constant Matrix: (Units=GPa)
#
#
# Indices 1 2 3 4 5 6 
#
# 1 140.5359 52.3583 48.3177 25.7004 -9.2101 -1.0246
# 2 52.3583 151.6158 49.6165 28.5166 2.6074 -19.1787
# 3 48.3177 49.6165 121.5035 32.2422 3.3337 -9.0973
# 4 25.7004 28.5166 32.2422 32.3698 -8.9173 -2.0226
# 5 -9.2101 2.6074 3.3337 -8.9173 42.9347 12.2015
# 6 -1.0246 -19.1787 -9.0973 -2.0226 12.2015 53.0492
#
#
#
# Elastic Compliance Matrix: (Units=1/GPa)
#
#
# Indices 1 2 3 4 5 6 
#
# 1 0.009353 -0.002222 -0.002283 -0.002684 0.002224 -0.001628
# 2 -0.002222 0.009367 -0.000908 -0.006269 -0.003333 0.003715
# 3 -0.002283 -0.000908 0.012780 -0.011189 -0.004437 0.002413
# 4 -0.002684 -0.006269 -0.011189 0.052991 0.013171 -0.005246
# 5 0.002224 -0.003333 -0.004437 0.013171 0.029374 -0.008177
# 6 -0.001628 0.003715 0.002413 -0.005246 -0.008177 0.022257
#
#
# Mechanical properties :
#
#
# Convention : Reuss Voigt Hill
#
# Bulk Modulus (GPa) = 48.37081 79.36005 63.86543
# Shear Modulus (GPa) = 32.50141 43.22828 37.86484
#
# Velocity S-wave (km/s) = 3.79609 4.37793 4.09735
# Velocity P-wave (km/s) = 6.37652 7.79366 7.12043
#
# Compressibility (1/GPa) = 0.02067362
#
# Stress axis : x y z
#
# Youngs Moduli (GPa) = 106.91738 106.76298 78.24560
#
# Poissons Ratio (x) = 0.23727 0.17861
# Poissons Ratio (y) = 0.23761 0.07105
# Poissons Ratio (z) = 0.24406 0.09695
#
# Static dielectric constant tensor:
#      x y z
#    x 1.807090 -0.367490 0.211470 
#    y -0.367490 1.452660 0.192970 
#    z 0.211470 0.192970 1.861240 
# 
# From -- ./inp_files/20004.got.cif
#   From: 2010.05.17/outbox.cif.g08.bks.cpg/sg2_11_cif.got.tgz:20004.got - 2010.06.03 11:33:40.
