data_PCOD9029525
_publ_section_title
;
Structure prediction by ZEFSAII (Michael W. Deem and Ramdas Pophale) SiO2 
 PCOD9029525
Probable space group: P -1
;
_chemical_formula_sum "Si O2"
_cell_formula_units_Z 14
_cell_length_a 7.756851
_cell_length_b 9.804928
_cell_length_c 8.178871
_cell_angle_alpha 68.989736
_cell_angle_beta 74.266997
_cell_angle_gamma 79.735912
_cell_volume 556.662002
_symmetry_space_group_name_H-M "P -1"
_symmetry_group_IT_number 2
_symmetry_cell_setting 'triclinic'
loop_
_space_group_symop_operation_xyz
x,y,z
-x,-y,-z
loop_
_atom_site_type_symbol
_atom_site_label
_atom_site_fract_x
_atom_site_fract_y
_atom_site_fract_z
Si Si1 0.260213 0.420193 0.945034
Si Si2 0.519116 0.875428 0.911132
Si Si3 0.650779 0.062906 0.550582
Si Si4 0.148186 0.953598 0.784133
Si Si5 0.858218 0.507545 0.691033
Si Si6 0.515151 0.383929 0.401744
Si Si7 0.035673 0.238120 0.851312
O O1 0.418597 0.290453 0.989316
O O2 0.144580 0.440884 0.134803
O O3 0.345783 0.565169 0.793753
O O4 0.155277 0.357611 0.844593
O O5 0.331644 0.892638 0.854709
O O6 0.672625 0.941418 0.734157
O O7 0.500000 0.000000 0.000000
O O8 0.828455 0.078790 0.396314
O O9 0.571904 0.227557 0.535689
O O10 0.500000 0.000000 0.500000
O O11 0.121427 0.128015 0.741822
O O12 0.997385 0.870953 0.945717
O O13 0.680872 0.601584 0.634489
O O14 0.000000 0.500000 0.500000
O O15 0.857993 0.331801 0.792293
O O16 0.500000 0.500000 0.500000
#
# Coordination Sequence:
#
# PCOD9029525 Si02
#       7
#     2   2   2   2   2   2   2
#     4  12  25  46  73 102 142 187 243 291 352 420
#     4  11  21  40  71 100 132 179 239 289 348 416
#     4  10  23  41  71  95 137 178 233 286 345 412
#     4  10  22  42  67  96 138 181 231 284 356 410
#     4  12  27  42  69 101 146 183 229 290 361 418
#     4  12  26  47  75 107 137 188 244 295 350 424
#     4  11  24  43  67  99 143 183 226 291 355 421
#
# _framework density 25.149909999999998
#
# number of rings (size 3 to 8) (size 9 to 14) (size 15 to 20)
#    0.000    0.857    1.429    6.000    8.000    1.143 
#    0.000    0.714    0.000    0.000    0.000    0.000 
#    0.000    0.000    0.000    0.000    0.000    0.000 
#
# Total GULP energy -78154.182550 kJ/mol
# GULP energy per Si atom -5582.441611 kJ/mol
# Density = 2.509267 g / cm^3
# Si number density = 25.149910 Si / 1000 Ang^3
#
#
#
# Elastic Constant Matrix: (Units=GPa)
#
#
# Indices 1 2 3 4 5 6 
#
# 1 36.4702 5.7594 -6.0414 -7.9779 -3.4834 -14.9215
# 2 5.7594 105.9643 -3.9851 -4.4223 -2.4440 -17.1494
# 3 -6.0414 -3.9851 93.8297 6.6224 -14.7241 12.9893
# 4 -7.9779 -4.4223 6.6224 42.9479 -5.7259 0.7228
# 5 -3.4834 -2.4440 -14.7241 -5.7259 31.7414 -6.0076
# 6 -14.9215 -17.1494 12.9893 0.7228 -6.0076 29.2195
#
#
#
# Elastic Compliance Matrix: (Units=1/GPa)
#
#
# Indices 1 2 3 4 5 6 
#
# 1 0.039564 0.002240 0.000494 0.008537 0.010691 0.023286
# 2 0.002240 0.010757 -0.000200 0.001796 0.002835 0.008084
# 3 0.000494 -0.000200 0.012075 -0.001101 0.004637 -0.004252
# 4 0.008537 0.001796 -0.001101 0.025980 0.006500 0.006597
# 5 0.010691 0.002835 0.004637 0.006500 0.038651 0.012849
# 6 0.023286 0.008084 -0.004252 0.006597 0.012849 0.055229
#
#
# Mechanical properties :
#
#
# Convention : Reuss Voigt Hill
#
# Bulk Modulus (GPa) = 14.82301 25.30333 20.06317
# Shear Modulus (GPa) = 25.04063 36.81717 30.92890
#
# Velocity S-wave (km/s) = 3.15882 3.83026 3.51063
# Velocity P-wave (km/s) = 4.38302 5.44463 4.94241
#
# Compressibility (1/GPa) = 0.06746267
#
# Stress axis : x y z
#
# Youngs Moduli (GPa) = 25.27576 92.96562 82.81640
#
# Poissons Ratio (x) = -0.20821 -0.04091
# Poissons Ratio (y) = -0.05661 0.01656
# Poissons Ratio (z) = -0.01249 0.01859
#
# Static dielectric constant tensor:
#      x y z
#    x 2.072160 -0.016600 -0.049100 
#    y -0.016600 1.952970 0.027490 
#    z -0.049100 0.027490 2.108480 
# 
# From -- ./inp_files/157211.got.cif
#   From: 2010.05.17/outbox.cif.g08.bks.cpg/sg2_79_cif.got.tgz:157211.got - 2010.06.03 11:33:40.
