data_PCOD9029851
_publ_section_title
;
Structure prediction by ZEFSAII (Michael W. Deem and Ramdas Pophale) SiO2 
 PCOD9029851
Probable space group: P -1
;
_chemical_formula_sum "Si O2"
_cell_formula_units_Z 16
_cell_length_a 12.109807
_cell_length_b 28.893622
_cell_length_c 24.159049
_cell_angle_alpha 168.933052
_cell_angle_beta 27.888099
_cell_angle_gamma 152.679881
_cell_volume 737.868179
_symmetry_space_group_name_H-M "P -1"
_symmetry_group_IT_number 2
_symmetry_cell_setting 'triclinic'
loop_
_space_group_symop_operation_xyz
x,y,z
-x,-y,-z
loop_
_atom_site_type_symbol
_atom_site_label
_atom_site_fract_x
_atom_site_fract_y
_atom_site_fract_z
Si Si1 0.721544 0.948805 0.270189
Si Si2 0.791877 0.920770 0.336232
Si Si3 0.888510 0.150065 0.159946
Si Si4 0.613833 0.370509 0.632030
Si Si5 0.817287 0.662815 0.292246
Si Si6 0.627367 0.504475 0.626133
Si Si7 0.315825 0.430526 0.449254
Si Si8 0.837882 0.409482 0.689821
O O1 0.451799 0.998054 0.443292
O O2 0.802559 0.964980 0.317137
O O3 0.876957 0.175339 0.432054
O O4 0.704056 0.666919 0.929212
O O5 0.022186 0.088075 0.460438
O O6 0.778529 0.631015 0.011691
O O7 0.784564 0.233170 0.360906
O O8 0.773258 0.300814 0.342238
O O9 0.178518 0.242147 0.145364
O O10 0.783025 0.864025 0.859946
O O11 0.346035 0.288988 0.630108
O O12 0.631835 0.327564 0.638573
O O13 0.619291 0.533358 0.274020
O O14 0.000000 0.500000 0.000000
O O15 0.585847 0.481145 0.551470
O O16 0.500000 0.500000 0.500000
O O17 0.079315 0.524398 0.682275
#
# Coordination Sequence:
#
# PCOD9029851 Si02
#       8
#     2   2   2   2   2   2   2   2
#     4  10  22  43  68  92 132 178 219 269 330 392
#     4  10  23  44  64  96 134 172 223 271 324 394
#     4  10  23  44  69  93 132 174 224 265 326 396
#     4  10  22  42  68  97 127 172 224 267 327 392
#     4  11  23  43  71  98 133 172 222 276 330 382
#     4  10  24  44  70  93 132 176 216 273 333 381
#     4  12  28  42  63 105 135 169 221 276 328 394
#     4  11  25  41  68  95 133 175 223 263 333 398
#
# _framework density 21.684090999999999
#
# number of rings (size 3 to 8) (size 9 to 14) (size 15 to 20)
#    0.000    1.500    2.500    0.750   10.500    0.500 
#    0.000    1.875    0.000    0.000    0.000    0.000 
#    0.000    0.000    0.000    0.000    0.000    0.000 
#
# Total GULP energy -89477.203380 kJ/mol
# GULP energy per Si atom -5592.325211 kJ/mol
# Density = 2.163474 g / cm^3
# Si number density = 21.684091 Si / 1000 Ang^3
#
#
#
# Elastic Constant Matrix: (Units=GPa)
#
#
# Indices 1 2 3 4 5 6 
#
# 1 117.1165 37.2200 16.5073 8.3694 15.3709 8.3004
# 2 37.2200 78.6171 32.6362 -19.1075 12.6773 9.2859
# 3 16.5073 32.6362 110.9523 4.1276 6.4503 4.1589
# 4 8.3694 -19.1075 4.1276 29.0471 1.3823 0.4158
# 5 15.3709 12.6773 6.4503 1.3823 33.0243 10.5633
# 6 8.3004 9.2859 4.1589 0.4158 10.5633 37.7799
#
#
#
# Elastic Compliance Matrix: (Units=1/GPa)
#
#
# Indices 1 2 3 4 5 6 
#
# 1 0.011736 -0.007602 0.000942 -0.008403 -0.002356 -0.000062
# 2 -0.007602 0.024925 -0.006563 0.019782 -0.004736 -0.002627
# 3 0.000942 -0.006563 0.011017 -0.006163 0.000114 0.000229
# 4 -0.008403 0.019782 -0.006163 0.050955 -0.004047 -0.001767
# 5 -0.002356 -0.004736 0.000114 -0.004047 0.036015 -0.008356
# 6 -0.000062 -0.002627 0.000229 -0.001767 -0.008356 0.029459
#
#
# Mechanical properties :
#
#
# Convention : Reuss Voigt Hill
#
# Bulk Modulus (GPa) = 47.09759 53.26810 50.18284
# Shear Modulus (GPa) = 25.29965 34.65843 29.97904
#
# Velocity S-wave (km/s) = 3.41946 4.00225 3.72228
# Velocity P-wave (km/s) = 6.11206 6.78058 6.45498
#
# Compressibility (1/GPa) = 0.02123251
#
# Stress axis : x y z
#
# Youngs Moduli (GPa) = 85.20826 40.11974 90.76705
#
# Poissons Ratio (x) = 0.30500 -0.08551
# Poissons Ratio (y) = 0.64778 0.59569
# Poissons Ratio (z) = -0.08027 0.26330
#
# Static dielectric constant tensor:
#      x y z
#    x 1.800480 -0.029940 -0.013510 
#    y -0.029940 1.813670 0.004450 
#    z -0.013510 0.004450 1.790970 
# 
# From -- ./inp_files/611055.got.cif
#   From: 2010.05.17/outbox.cif.g08.bks.cpg/sg2_306_cif.got.tgz:611055.got - 2010.06.03 11:33:40.
