data_PCOD9029521
_publ_section_title
;
Structure prediction by ZEFSAII (Michael W. Deem and Ramdas Pophale) SiO2 
 PCOD9029521
Probable space group: P -1
;
_chemical_formula_sum "Si O2"
_cell_formula_units_Z 16
_cell_length_a 9.081383
_cell_length_b 13.792506
_cell_length_c 14.151490
_cell_angle_alpha 49.872612
_cell_angle_beta 130.977831
_cell_angle_gamma 149.096845
_cell_volume 671.812573
_symmetry_space_group_name_H-M "P -1"
_symmetry_group_IT_number 2
_symmetry_cell_setting 'triclinic'
loop_
_space_group_symop_operation_xyz
x,y,z
-x,-y,-z
loop_
_atom_site_type_symbol
_atom_site_label
_atom_site_fract_x
_atom_site_fract_y
_atom_site_fract_z
Si Si1 0.627846 0.865781 0.842454
Si Si2 0.743511 0.530340 0.134048
Si Si3 0.383506 0.783461 0.187147
Si Si4 0.739621 0.577870 0.631292
Si Si5 0.729313 0.897228 0.079083
Si Si6 0.243295 0.010824 0.596042
Si Si7 0.317398 0.426516 0.701855
Si Si8 0.310424 0.853908 0.426469
O O1 0.356811 0.661823 0.808896
O O2 0.690436 0.034466 0.722161
O O3 0.584435 0.850093 0.946066
O O4 0.917356 0.921266 0.904634
O O5 0.716845 0.537386 0.230262
O O6 0.077638 0.710315 0.121763
O O7 0.500000 0.500000 0.000000
O O8 0.286410 0.586891 0.271545
O O9 0.565445 0.889063 0.099803
O O10 0.603835 0.920134 0.280877
O O11 0.500000 0.500000 0.500000
O O12 0.620391 0.586882 0.671540
O O13 0.065331 0.798030 0.620033
O O14 0.699794 0.734268 0.194034
O O15 0.505514 0.166395 0.533182
O O16 0.000000 0.000000 0.500000
O O17 0.034534 0.338139 0.578616
O O18 0.500000 0.000000 0.500000
#
# Coordination Sequence:
#
# PCOD9029521 Si02
#       8
#     2   2   2   2   2   2   2   2
#     4  10  22  42  71  96 135 177 228 282 348 411
#     4  12  24  44  66 101 138 178 231 290 340 412
#     4  11  25  45  68 101 142 181 230 287 349 412
#     4  11  23  44  69 102 139 181 228 281 349 416
#     4   9  21  43  69  95 130 179 225 279 347 405
#     4  12  25  43  69 100 139 178 229 286 337 411
#     4  10  22  42  67  96 137 174 224 282 338 410
#     4  11  24  44  69  96 135 183 224 275 349 413
#
# _framework density 23.816165000000002
#
# number of rings (size 3 to 8) (size 9 to 14) (size 15 to 20)
#    0.000    1.250    3.750    1.500    5.250    0.500 
#    2.250    3.125    0.000    0.000    0.000    0.000 
#    0.000    0.000    0.000    0.000    0.000    0.000 
#
# Total GULP energy -89497.377453 kJ/mol
# GULP energy per Si atom -5593.586091 kJ/mol
# Density = 2.376196 g / cm^3
# Si number density = 23.816165 Si / 1000 Ang^3
#
#
#
# Elastic Constant Matrix: (Units=GPa)
#
#
# Indices 1 2 3 4 5 6 
#
# 1 146.8068 29.9902 57.0106 22.3134 -16.1741 18.1216
# 2 29.9902 100.6645 14.9880 17.4115 -3.9225 -2.3159
# 3 57.0106 14.9880 43.8124 20.8276 5.1002 8.5221
# 4 22.3134 17.4115 20.8276 37.3583 -7.8435 2.5615
# 5 -16.1741 -3.9225 5.1002 -7.8435 50.3595 -2.1923
# 6 18.1216 -2.3159 8.5221 2.5615 -2.1923 41.7405
#
#
#
# Elastic Compliance Matrix: (Units=1/GPa)
#
#
# Indices 1 2 3 4 5 6 
#
# 1 0.017704 -0.002312 -0.026301 0.007262 0.009196 -0.002407
# 2 -0.002312 0.011288 0.001178 -0.004788 -0.000657 0.001649
# 3 -0.026301 0.001178 0.073978 -0.030230 -0.020680 -0.002851
# 4 0.007262 -0.004788 -0.030230 0.043967 0.011898 0.000680
# 5 0.009196 -0.000657 -0.020680 0.011898 0.026745 0.000868
# 6 -0.002407 0.001649 -0.002851 0.000680 0.000868 0.025680
#
#
# Mechanical properties :
#
#
# Convention : Reuss Voigt Hill
#
# Bulk Modulus (GPa) = 20.78948 55.02902 37.90925
# Shear Modulus (GPa) = 18.50052 38.51132 28.50592
#
# Velocity S-wave (km/s) = 2.79015 4.02559 3.46340
# Velocity P-wave (km/s) = 4.37356 6.69052 5.65204
#
# Compressibility (1/GPa) = 0.04810125
#
# Stress axis : x y z
#
# Youngs Moduli (GPa) = 56.48439 88.59186 13.51762
#
# Poissons Ratio (x) = 0.20479 0.35552
# Poissons Ratio (y) = 0.13057 -0.01593
# Poissons Ratio (z) = 1.48558 -0.10439
#
# Static dielectric constant tensor:
#      x y z
#    x 1.980140 -0.002990 0.109440 
#    y -0.002990 1.901060 -0.041520 
#    z 0.109440 -0.041520 1.956180 
# 
# From -- ./inp_files/180735.got.cif
#   From: 2010.05.17/outbox.cif.g08.bks.cpg/sg2_91_cif.got.tgz:180735.got - 2010.06.03 11:33:40.
