data_PCOD9029812
_publ_section_title
;
Structure prediction by ZEFSAII (Michael W. Deem and Ramdas Pophale) SiO2 
 PCOD9029812
Probable space group: P -1
;
_chemical_formula_sum "Si O2"
_cell_formula_units_Z 16
_cell_length_a 16.720257
_cell_length_b 23.831448
_cell_length_c 5.138202
_cell_angle_alpha 105.774650
_cell_angle_beta 104.240882
_cell_angle_gamma 20.783218
_cell_volume 698.927791
_symmetry_space_group_name_H-M "P -1"
_symmetry_group_IT_number 2
_symmetry_cell_setting 'triclinic'
loop_
_space_group_symop_operation_xyz
x,y,z
-x,-y,-z
loop_
_atom_site_type_symbol
_atom_site_label
_atom_site_fract_x
_atom_site_fract_y
_atom_site_fract_z
Si Si1 0.210118 0.817445 0.934473
Si Si2 0.304594 0.244272 0.420354
Si Si3 0.307434 0.452586 0.085016
Si Si4 0.708771 0.314043 0.681572
Si Si5 0.817846 0.783622 0.970736
Si Si6 0.739878 0.910042 0.585478
Si Si7 0.784046 0.370367 0.463745
Si Si8 0.876429 0.535076 0.758454
O O1 0.445271 0.698023 0.019256
O O2 0.235027 0.767231 0.615935
O O3 0.196008 0.777848 0.098787
O O4 0.000000 0.000000 0.000000
O O5 0.286390 0.212134 0.122501
O O6 0.264565 0.335530 0.401349
O O7 0.088503 0.367222 0.571315
O O8 0.530625 0.087505 0.564358
O O9 0.267088 0.530661 0.358447
O O10 0.273244 0.412800 0.143744
O O11 0.088648 0.602475 0.915062
O O12 0.793036 0.321271 0.657535
O O13 0.436541 0.500346 0.715386
O O14 0.704793 0.893005 0.784165
O O15 0.780437 0.842102 0.281948
O O16 0.971553 0.792310 0.672945
O O17 0.000000 0.500000 0.000000
#
# Coordination Sequence:
#
# PCOD9029812 Si02
#       8
#     2   2   2   2   2   2   2   2
#     4  11  24  43  67 100 132 170 210 264 319 385
#     4  11  24  40  63  91 128 170 220 271 319 376
#     4  10  22  43  69  90 129 173 220 261 324 389
#     4  10  22  42  68  95 135 166 212 264 324 387
#     4  11  22  40  64  92 127 168 216 267 326 384
#     4  11  24  38  65  98 127 164 215 272 328 378
#     4   9  21  41  67  98 127 170 213 269 325 384
#     4  11  24  44  62  88 129 178 222 262 315 388
#
# _framework density 22.892209000000001
#
# number of rings (size 3 to 8) (size 9 to 14) (size 15 to 20)
#    0.000    1.500    1.250    3.375    1.750    8.500 
#    2.250    0.000    0.000    0.000    0.000    0.000 
#    0.000    0.000    0.000    0.000    0.000    0.000 
#
# Total GULP energy -89530.989022 kJ/mol
# GULP energy per Si atom -5595.686814 kJ/mol
# Density = 2.284010 g / cm^3
# Si number density = 22.892209 Si / 1000 Ang^3
#
#
#
# Elastic Constant Matrix: (Units=GPa)
#
#
# Indices 1 2 3 4 5 6 
#
# 1 96.9265 20.2999 5.1284 -1.7960 -8.9530 9.5928
# 2 20.2999 144.9836 23.4652 -10.7155 -19.3080 7.3100
# 3 5.1284 23.4652 91.5044 -2.2366 -5.9731 9.9052
# 4 -1.7960 -10.7155 -2.2366 28.4958 5.9537 -10.6197
# 5 -8.9530 -19.3080 -5.9731 5.9537 24.6100 -11.5781
# 6 9.5928 7.3100 9.9052 -10.6197 -11.5781 31.0227
#
#
#
# Elastic Compliance Matrix: (Units=1/GPa)
#
#
# Indices 1 2 3 4 5 6 
#
# 1 0.011014 -0.001238 0.000107 -0.001236 0.002039 -0.002811
# 2 -0.001238 0.008232 -0.001818 0.002401 0.005960 0.002069
# 3 0.000107 -0.001818 0.011766 -0.001151 -0.000024 -0.003765
# 4 -0.001236 0.002401 -0.001151 0.041349 -0.002551 0.013387
# 5 0.002039 0.005960 -0.000024 -0.002551 0.054945 0.017606
# 6 -0.002811 0.002069 -0.003765 0.013387 0.017606 0.044971
#
#
# Mechanical properties :
#
#
# Convention : Reuss Voigt Hill
#
# Bulk Modulus (GPa) = 39.81589 47.91129 43.86359
# Shear Modulus (GPa) = 26.80294 35.79378 31.29836
#
# Velocity S-wave (km/s) = 3.42545 3.95850 3.70159
# Velocity P-wave (km/s) = 5.75113 6.47051 6.12140
#
# Compressibility (1/GPa) = 0.02511560
#
# Stress axis : x y z
#
# Youngs Moduli (GPa) = 90.79180 121.48336 84.98763
#
# Poissons Ratio (x) = 0.15036 -0.00911
# Poissons Ratio (y) = 0.11237 0.15449
# Poissons Ratio (z) = -0.00973 0.22084
#
# Static dielectric constant tensor:
#      x y z
#    x 1.891850 -0.004590 0.027910 
#    y -0.004590 1.864550 0.032470 
#    z 0.027910 0.032470 1.921410 
# 
# From -- ./inp_files/112918.got.cif
#   From: 2010.05.17/outbox.cif.g08.bks.cpg/sg2_57_cif.got.tgz:112918.got - 2010.06.03 11:33:40.
