data_PCOD9029502
_publ_section_title
;
Structure prediction by ZEFSAII (Michael W. Deem and Ramdas Pophale) SiO2 
 PCOD9029502
Probable space group: P -1
;
_chemical_formula_sum "Si O2"
_cell_formula_units_Z 12
_cell_length_a 15.108484
_cell_length_b 8.880914
_cell_length_c 15.093423
_cell_angle_alpha 108.968496
_cell_angle_beta 18.989511
_cell_angle_gamma 100.192353
_cell_volume 564.478030
_symmetry_space_group_name_H-M "P -1"
_symmetry_group_IT_number 2
_symmetry_cell_setting 'triclinic'
loop_
_space_group_symop_operation_xyz
x,y,z
-x,-y,-z
loop_
_atom_site_type_symbol
_atom_site_label
_atom_site_fract_x
_atom_site_fract_y
_atom_site_fract_z
Si Si1 0.650981 0.730578 0.602217
Si Si2 0.707287 0.586209 0.856206
Si Si3 0.281752 0.835681 0.610604
Si Si4 0.300569 0.981870 0.262884
Si Si5 0.301042 0.512921 0.952971
Si Si6 0.393852 0.937214 0.711360
O O1 0.464962 0.644811 0.817320
O O2 0.451829 0.834397 0.728072
O O3 0.741534 0.862707 0.599548
O O4 0.971900 0.590810 0.235867
O O5 0.000000 0.500000 0.500000
O O6 0.500000 0.500000 0.000000
O O7 0.505151 0.794883 0.078599
O O8 0.764169 0.531746 0.894332
O O9 0.472106 0.660910 0.344019
O O10 0.374704 0.825402 0.623598
O O11 0.354865 0.992136 0.531407
O O12 0.927665 0.895018 0.949891
O O13 0.000000 0.000000 0.500000
O O14 0.500000 0.000000 0.000000
#
# Coordination Sequence:
#
# PCOD9029502 Si02
#       6
#     2   2   2   2   2   2
#     4  12  25  41  64  96 131 169 216 264 321 384
#     4  12  25  43  65  90 124 164 211 264 319 376
#     4  10  22  42  67  96 131 172 217 264 319 381
#     4  12  25  43  65  90 124 164 211 264 319 376
#     4  12  25  41  64  96 131 169 216 264 321 384
#     4  10  22  42  67  96 131 172 217 264 319 381
#
# _framework density 21.258576999999999
#
# number of rings (size 3 to 8) (size 9 to 14) (size 15 to 20)
#    0.000    0.667    0.000    9.000    0.000    4.000 
#    0.000    0.000    0.000    0.000    0.000    0.000 
#    0.000    0.000    0.000    0.000    0.000    0.000 
#
# Total GULP energy -67115.066164 kJ/mol
# GULP energy per Si atom -5592.922180 kJ/mol
# Density = 2.121019 g / cm^3
# Si number density = 21.258577 Si / 1000 Ang^3
#
#
#
# Elastic Constant Matrix: (Units=GPa)
#
#
# Indices 1 2 3 4 5 6 
#
# 1 112.6179 44.5346 38.1210 8.4626 10.0867 -10.5959
# 2 44.5346 92.1882 29.1655 -4.0597 -1.1845 -13.1813
# 3 38.1210 29.1655 117.4773 -13.7127 9.6329 8.3971
# 4 8.4626 -4.0597 -13.7127 40.4205 7.9621 0.3134
# 5 10.0867 -1.1845 9.6329 7.9621 36.4668 0.2944
# 6 -10.5959 -13.1813 8.3971 0.3134 0.2944 20.2029
#
#
#
# Elastic Compliance Matrix: (Units=1/GPa)
#
#
# Indices 1 2 3 4 5 6 
#
# 1 0.012931 -0.004450 -0.003818 -0.004127 -0.001857 0.005557
# 2 -0.004450 0.015308 -0.003071 0.000912 0.002269 0.008883
# 3 -0.003818 -0.003071 0.012051 0.005302 -0.003311 -0.009049
# 4 -0.004127 0.000912 0.005302 0.028803 -0.006485 -0.004126
# 5 -0.001857 0.002269 -0.003311 -0.006485 0.030288 0.001542
# 6 0.005557 0.008883 -0.009049 -0.004126 0.001542 0.062011
#
#
# Mechanical properties :
#
#
# Convention : Reuss Voigt Hill
#
# Bulk Modulus (GPa) = 56.77957 60.65839 58.71898
# Shear Modulus (GPa) = 26.32415 33.44885 29.88650
#
# Velocity S-wave (km/s) = 3.52274 3.97095 3.75354
# Velocity P-wave (km/s) = 6.58128 7.04416 6.81665
#
# Compressibility (1/GPa) = 0.01761197
#
# Stress axis : x y z
#
# Youngs Moduli (GPa) = 77.33445 65.32511 82.98212
#
# Poissons Ratio (x) = 0.29069 0.31682
# Poissons Ratio (y) = 0.34413 0.25484
# Poissons Ratio (z) = 0.29526 0.20062
#
# Static dielectric constant tensor:
#      x y z
#    x 1.724600 0.008680 0.008030 
#    y 0.008680 1.732770 -0.010040 
#    z 0.008030 -0.010040 1.711780 
# 
# From -- ./inp_files/203460.got.cif
#   From: 2010.05.17/outbox.cif.g08.bks.cpg/sg2_102_cif.got.tgz:203460.got - 2010.06.03 11:33:40.
