data_PCOD9029153
_publ_section_title
;
Structure prediction by ZEFSAII (Michael W. Deem and Ramdas Pophale) SiO2 
 PCOD9029153
Probable space group: P -1
;
_chemical_formula_sum "Si O2"
_cell_formula_units_Z 14
_cell_length_a 10.945053
_cell_length_b 5.050033
_cell_length_c 10.170577
_cell_angle_alpha 83.745564
_cell_angle_beta 92.064914
_cell_angle_gamma 95.855557
_cell_volume 555.718817
_symmetry_space_group_name_H-M "P -1"
_symmetry_group_IT_number 2
_symmetry_cell_setting 'triclinic'
loop_
_space_group_symop_operation_xyz
x,y,z
-x,-y,-z
loop_
_atom_site_type_symbol
_atom_site_label
_atom_site_fract_x
_atom_site_fract_y
_atom_site_fract_z
Si Si1 0.923505 0.024917 0.860660
Si Si2 0.854914 0.441188 0.491155
Si Si3 0.702505 0.912022 0.550989
Si Si4 0.455236 0.370831 0.205657
Si Si5 0.609938 0.919940 0.256852
Si Si6 0.842550 0.646177 0.210164
Si Si7 0.787334 0.488379 0.924779
O O1 0.814920 0.207713 0.880262
O O2 0.026321 0.186132 0.767741
O O3 0.869306 0.727651 0.837892
O O4 0.000000 0.000000 0.000000
O O5 0.792117 0.691646 0.528909
O O6 0.821049 0.428445 0.335415
O O7 0.000000 0.500000 0.500000
O O8 0.788610 0.180655 0.571857
O O9 0.616282 0.795616 0.670595
O O10 0.627479 0.959183 0.412187
O O11 0.519682 0.650589 0.245422
O O12 0.351826 0.441279 0.095376
O O13 0.555283 0.174516 0.176462
O O14 0.738388 0.849148 0.205100
O O15 0.834828 0.512259 0.074600
#
# Coordination Sequence:
#
# PCOD9029153 Si02
#       7
#     2   2   2   2   2   2   2
#     4  10  22  42  66  94 129 173 216 259 330 395
#     4  11  25  41  67  99 129 174 210 274 332 383
#     4  11  24  44  66  94 133 171 223 266 324 389
#     4  12  25  42  69  96 136 170 229 265 316 396
#     4  11  24  43  66  97 129 183 216 270 324 376
#     4  10  24  43  67  93 137 165 222 268 330 394
#     4  11  25  41  67 101 127 176 212 271 334 381
#
# _framework density 25.192596999999999
#
# number of rings (size 3 to 8) (size 9 to 14) (size 15 to 20)
#    0.000    1.143    0.000    6.429    4.000   11.429 
#    0.000    0.000    0.000    0.000    0.000    0.000 
#    0.000    0.000    0.000    0.000    0.000    0.000 
#
# Total GULP energy -78541.904398 kJ/mol
# GULP energy per Si atom -5610.136028 kJ/mol
# Density = 2.513526 g / cm^3
# Si number density = 25.192597 Si / 1000 Ang^3
#
#
#
# Elastic Constant Matrix: (Units=GPa)
#
#
# Indices 1 2 3 4 5 6 
#
# 1 120.5880 18.6911 9.0929 -4.6818 27.7043 -33.0980
# 2 18.6911 191.4069 33.7637 13.7111 -18.9393 54.6293
# 3 9.0929 33.7637 88.0622 -4.3564 -7.1993 16.0176
# 4 -4.6818 13.7111 -4.3564 30.3700 -8.8215 28.1161
# 5 27.7043 -18.9393 -7.1993 -8.8215 53.9617 -31.4136
# 6 -33.0980 54.6293 16.0176 28.1161 -31.4136 91.2478
#
#
#
# Elastic Compliance Matrix: (Units=1/GPa)
#
#
# Indices 1 2 3 4 5 6 
#
# 1 0.011168 -0.002524 -0.001732 -0.003776 -0.004222 0.005576
# 2 -0.002524 0.007157 -0.001460 0.001010 0.000899 -0.004945
# 3 -0.001732 -0.001460 0.013099 0.005796 0.001046 -0.003479
# 4 -0.003776 0.001010 0.005796 0.049628 0.000670 -0.018053
# 5 -0.004222 0.000899 0.001046 0.000670 0.024803 0.006079
# 6 0.005576 -0.004945 -0.003479 -0.018053 0.006079 0.024209
#
#
# Mechanical properties :
#
#
# Convention : Reuss Voigt Hill
#
# Bulk Modulus (GPa) = 50.01848 58.12806 54.07327
# Shear Modulus (GPa) = 33.74730 57.68319 45.71525
#
# Velocity S-wave (km/s) = 3.66399 4.79026 4.26447
# Velocity P-wave (km/s) = 6.14795 7.32933 6.76448
#
# Compressibility (1/GPa) = 0.01999261
#
# Stress axis : x y z
#
# Youngs Moduli (GPa) = 89.53935 139.73114 76.33949
#
# Poissons Ratio (x) = 0.35266 0.13219
# Poissons Ratio (y) = 0.22598 0.11148
# Poissons Ratio (z) = 0.15505 0.20405
#
# Static dielectric constant tensor:
#      x y z
#    x 1.952010 0.014220 0.042820 
#    y 0.014220 1.937450 -0.040960 
#    z 0.042820 -0.040960 1.993380 
# 
# From -- ./inp_files/409329.got.cif
#   From: 2010.05.17/outbox.cif.g08.bks.cpg/sg2_205_cif.got.tgz:409329.got - 2010.06.03 11:33:40.
