data_PCOD9029002
_publ_section_title
;
Structure prediction by ZEFSAII (Michael W. Deem and Ramdas Pophale) SiO2 
 PCOD9029002
Probable space group: P -1
;
_chemical_formula_sum "Si O2"
_cell_formula_units_Z 14
_cell_length_a 8.162277
_cell_length_b 9.384691
_cell_length_c 11.447611
_cell_angle_alpha 125.881953
_cell_angle_beta 110.811749
_cell_angle_gamma 46.497398
_cell_volume 513.608021
_symmetry_space_group_name_H-M "P -1"
_symmetry_group_IT_number 2
_symmetry_cell_setting 'triclinic'
loop_
_space_group_symop_operation_xyz
x,y,z
-x,-y,-z
loop_
_atom_site_type_symbol
_atom_site_label
_atom_site_fract_x
_atom_site_fract_y
_atom_site_fract_z
Si Si1 0.981111 0.742106 0.199306
Si Si2 0.439870 0.797394 0.189791
Si Si3 0.366198 0.219787 0.449840
Si Si4 0.985910 0.419043 0.641943
Si Si5 0.493597 0.599582 0.868996
Si Si6 0.051699 0.011480 0.882772
Si Si7 0.290225 0.752771 0.523850
O O1 0.932312 0.618087 0.220494
O O2 0.254696 0.571404 0.197928
O O3 0.831476 0.006019 0.326528
O O4 0.942573 0.793662 0.074233
O O5 0.561705 0.548673 0.152928
O O6 0.473279 0.961980 0.335580
O O7 0.169218 0.934084 0.204864
O O8 0.486677 0.754903 0.042197
O O9 0.234861 0.340375 0.350452
O O10 0.567082 0.229882 0.529342
O O11 0.177380 0.342503 0.560186
O O12 0.910071 0.262126 0.543404
O O13 0.295479 0.767545 0.809435
O O14 0.000000 0.000000 0.000000
O O15 0.500000 0.500000 0.500000
#
# Coordination Sequence:
#
# PCOD9029002 Si02
#       7
#     2   2   2   2   2   2   2
#     4  11  22  39  67  98 134 175 231 278 337 415
#     4   9  18  39  65 100 133 176 229 276 336 409
#     4  10  22  43  67  99 140 178 226 284 335 402
#     4  10  22  42  65  99 138 178 227 279 339 407
#     4   9  19  36  68  97 132 177 223 279 343 402
#     4   9  19  37  67  98 129 180 227 271 338 407
#     4  10  23  42  69  99 132 183 226 274 346 404
#
# _framework density 27.258140999999998
#
# number of rings (size 3 to 8) (size 9 to 14) (size 15 to 20)
#    0.000    2.286    0.000    3.000    4.000    0.571 
#    2.571    1.429    0.000    0.000    0.000    0.000 
#    0.000    0.000    0.000    0.000    0.000    0.000 
#
# Total GULP energy -78161.737170 kJ/mol
# GULP energy per Si atom -5582.981226 kJ/mol
# Density = 2.719610 g / cm^3
# Si number density = 27.258141 Si / 1000 Ang^3
#
#
#
# Elastic Constant Matrix: (Units=GPa)
#
#
# Indices 1 2 3 4 5 6 
#
# 1 124.7068 23.7224 24.2381 6.8614 -30.8739 -5.1729
# 2 23.7224 214.6625 26.1188 -19.5565 -17.8858 -15.4043
# 3 24.2381 26.1188 79.7770 19.8627 -14.4327 0.7636
# 4 6.8614 -19.5565 19.8627 39.7463 3.2341 -17.1247
# 5 -30.8739 -17.8858 -14.4327 3.2341 47.0976 0.8118
# 6 -5.1729 -15.4043 0.7636 -17.1247 0.8118 50.7987
#
#
#
# Elastic Compliance Matrix: (Units=1/GPa)
#
#
# Indices 1 2 3 4 5 6 
#
# 1 0.009985 -0.000593 -0.001303 -0.001789 0.006041 0.000157
# 2 -0.000593 0.006039 -0.003377 0.006451 0.000358 0.003991
# 3 -0.001303 -0.003377 0.018284 -0.013557 0.004502 -0.006074
# 4 -0.001789 0.006451 -0.013557 0.043065 -0.006120 0.016593
# 5 0.006041 0.000358 0.004502 -0.006120 0.027160 -0.001841
# 6 0.000157 0.003991 -0.006074 0.016593 -0.001841 0.026626
#
#
# Mechanical properties :
#
#
# Convention : Reuss Voigt Hill
#
# Bulk Modulus (GPa) = 42.08164 63.03386 52.55775
# Shear Modulus (GPa) = 33.41662 50.53298 41.97480
#
# Velocity S-wave (km/s) = 3.50513 4.31033 3.92841
# Velocity P-wave (km/s) = 5.64384 6.92437 6.31664
#
# Compressibility (1/GPa) = 0.02376333
#
# Stress axis : x y z
#
# Youngs Moduli (GPa) = 100.14542 165.59577 54.69178
#
# Poissons Ratio (x) = 0.09825 0.07125
# Poissons Ratio (y) = 0.05942 0.18467
# Poissons Ratio (z) = 0.13047 0.55914
#
# Static dielectric constant tensor:
#      x y z
#    x 2.216100 0.008700 0.020950 
#    y 0.008700 2.143890 -0.164650 
#    z 0.020950 -0.164650 2.311340 
# 
# From -- ./inp_files/383261.got.cif
#   From: 2010.05.17/outbox.cif.g08.bks.cpg/sg2_192_cif.got.tgz:383261.got - 2010.06.03 11:33:40.
