data_PCOD9029344
_publ_section_title
;
Structure prediction by ZEFSAII (Michael W. Deem and Ramdas Pophale) SiO2 
 PCOD9029344
Probable space group: P -1
;
_chemical_formula_sum "Si O2"
_cell_formula_units_Z 16
_cell_length_a 5.507295
_cell_length_b 27.269684
_cell_length_c 11.047918
_cell_angle_alpha 156.753505
_cell_angle_beta 73.188239
_cell_angle_gamma 105.893122
_cell_volume 626.733147
_symmetry_space_group_name_H-M "P -1"
_symmetry_group_IT_number 2
_symmetry_cell_setting 'triclinic'
loop_
_space_group_symop_operation_xyz
x,y,z
-x,-y,-z
loop_
_atom_site_type_symbol
_atom_site_label
_atom_site_fract_x
_atom_site_fract_y
_atom_site_fract_z
Si Si1 0.505368 0.968666 0.222118
Si Si2 0.206558 0.809025 0.440496
Si Si3 0.622688 0.366488 0.196552
Si Si4 0.803380 0.607757 0.303200
Si Si5 0.849242 0.237382 0.253644
Si Si6 0.321009 0.540677 0.362022
Si Si7 0.745800 0.855592 0.175247
Si Si8 0.344430 0.283294 0.674747
O O1 0.627839 0.916027 0.208011
O O2 0.698943 0.059563 0.330119
O O3 0.285627 0.058429 0.508323
O O4 0.386145 0.856597 0.906320
O O5 0.397461 0.775964 0.448329
O O6 0.905337 0.804693 0.496363
O O7 0.256358 0.700834 0.087628
O O8 0.500000 0.500000 0.500000
O O9 0.787954 0.398562 0.363557
O O10 0.413858 0.267513 0.049602
O O11 0.620477 0.565349 0.343693
O O12 0.644739 0.640335 0.279436
O O13 0.948790 0.736205 0.610785
O O14 0.000000 0.500000 0.000000
O O15 0.795973 0.377665 0.541261
O O16 0.976877 0.178117 0.982431
O O17 0.281812 0.394350 0.029843
#
# Coordination Sequence:
#
# PCOD9029344 Si02
#       8
#     2   2   2   2   2   2   2   2
#     4  10  23  45  69 102 144 193 247 292 355 443
#     4  11  28  46  72 106 151 197 234 303 371 438
#     4  11  22  41  68 109 150 180 230 302 379 446
#     4  12  26  45  74 105 144 192 251 301 358 433
#     4  12  23  41  76 102 138 186 250 305 352 425
#     4  12  25  44  71 110 143 187 244 301 376 435
#     4  10  22  42  67 104 143 188 241 294 363 433
#     4  12  27  48  71 106 150 194 244 298 371 430
#
# _framework density 25.529205999999999
#
# number of rings (size 3 to 8) (size 9 to 14) (size 15 to 20)
#    0.000    0.750    5.000    1.500    5.250    2.500 
#    0.000    1.250    0.000    0.000    0.000    0.000 
#    0.000    0.000    0.000    0.000    0.000    0.000 
#
# Total GULP energy -89494.354796 kJ/mol
# GULP energy per Si atom -5593.397175 kJ/mol
# Density = 2.547110 g / cm^3
# Si number density = 25.529206 Si / 1000 Ang^3
#
#
#
# Elastic Constant Matrix: (Units=GPa)
#
#
# Indices 1 2 3 4 5 6 
#
# 1 103.1960 38.1843 19.9864 7.2760 15.4161 12.1585
# 2 38.1843 92.9440 11.0862 10.8328 8.7008 -1.8945
# 3 19.9864 11.0862 83.6639 12.8329 12.7881 -3.6352
# 4 7.2760 10.8328 12.8329 48.7411 5.7635 5.9751
# 5 15.4161 8.7008 12.7881 5.7635 40.5703 -4.5522
# 6 12.1585 -1.8945 -3.6352 5.9751 -4.5522 39.0883
#
#
#
# Elastic Compliance Matrix: (Units=1/GPa)
#
#
# Indices 1 2 3 4 5 6 
#
# 1 0.013072 -0.004940 -0.002219 0.000815 -0.003895 -0.005090
# 2 -0.004940 0.013158 -0.000032 -0.002450 -0.000305 0.002510
# 3 -0.002219 -0.000032 0.013476 -0.003147 -0.002714 0.002107
# 4 0.000815 -0.002450 -0.003147 0.022604 -0.002499 -0.004411
# 5 -0.003895 -0.000305 -0.002714 -0.002499 0.027918 0.004578
# 6 -0.005090 0.002510 0.002107 -0.004411 0.004578 0.028691
#
#
# Mechanical properties :
#
#
# Convention : Reuss Voigt Hill
#
# Bulk Modulus (GPa) = 39.48793 46.47975 42.98384
# Shear Modulus (GPa) = 35.27517 39.71641 37.49579
#
# Velocity S-wave (km/s) = 3.72123 3.94855 3.83657
# Velocity P-wave (km/s) = 5.82793 6.24772 6.04147
#
# Compressibility (1/GPa) = 0.02532419
#
# Stress axis : x y z
#
# Youngs Moduli (GPa) = 76.49923 76.00111 74.20569
#
# Poissons Ratio (x) = 0.37543 0.16466
# Poissons Ratio (y) = 0.37789 0.00237
# Poissons Ratio (z) = 0.16975 0.00243
#
# Static dielectric constant tensor:
#      x y z
#    x 2.086530 -0.026600 -0.019980 
#    y -0.026600 2.073140 -0.039820 
#    z -0.019980 -0.039820 2.028490 
# 
# From -- ./inp_files/371616.got.cif
#   From: 2010.05.17/outbox.cif.g08.bks.cpg/sg2_186_cif.got.tgz:371616.got - 2010.06.03 11:33:40.
