data_PCOD9029848
_publ_section_title
;
Structure prediction by ZEFSAII (Michael W. Deem and Ramdas Pophale) SiO2 
 PCOD9029848
Probable space group: P -1
;
_chemical_formula_sum "Si O2"
_cell_formula_units_Z 16
_cell_length_a 20.182184
_cell_length_b 9.344192
_cell_length_c 9.305416
_cell_angle_alpha 146.376652
_cell_angle_beta 133.594451
_cell_angle_gamma 39.292313
_cell_volume 610.260769
_symmetry_space_group_name_H-M "P -1"
_symmetry_group_IT_number 2
_symmetry_cell_setting 'triclinic'
loop_
_space_group_symop_operation_xyz
x,y,z
-x,-y,-z
loop_
_atom_site_type_symbol
_atom_site_label
_atom_site_fract_x
_atom_site_fract_y
_atom_site_fract_z
Si Si1 0.546816 0.852618 0.160732
Si Si2 0.223496 0.115568 0.052400
Si Si3 0.335055 0.400814 0.307881
Si Si4 0.629586 0.499272 0.249117
Si Si5 0.951263 0.683632 0.228713
Si Si6 0.156421 0.514697 0.534234
Si Si7 0.610700 0.324008 0.603297
Si Si8 0.062774 0.641669 0.790762
O O1 0.545325 0.754950 0.239251
O O2 0.428963 0.085839 0.121971
O O3 0.616336 0.016222 0.392120
O O4 0.599451 0.539399 0.895853
O O5 0.243261 0.356312 0.199196
O O6 0.172027 0.224362 0.223995
O O7 0.155946 0.053001 0.780205
O O8 0.338078 0.837806 0.016556
O O9 0.390695 0.449948 0.570693
O O10 0.305506 0.663362 0.369778
O O11 0.740823 0.477752 0.355360
O O12 0.922047 0.502512 0.149805
O O13 0.038248 0.744718 0.487435
O O14 0.000000 0.500000 0.000000
O O15 0.154555 0.538946 0.723515
O O16 0.500000 0.500000 0.500000
O O17 0.000000 0.500000 0.500000
O O18 0.000000 0.000000 0.000000
#
# Coordination Sequence:
#
# PCOD9029848 Si02
#       8
#     2   2   2   2   2   2   2   2
#     4  11  25  43  72  98 136 185 224 279 348 400
#     4  10  23  41  65  99 135 178 229 282 338 401
#     4  10  23  43  64  97 135 173 231 285 334 407
#     4  11  25  40  66  99 135 181 227 282 337 404
#     4   9  20  43  67  95 128 179 219 274 340 395
#     4   9  22  42  63  95 135 173 225 281 327 403
#     4  10  23  44  70  99 132 179 228 281 340 404
#     4  10  22  42  68  97 125 171 219 270 329 397
#
# _framework density 26.218298999999998
#
# number of rings (size 3 to 8) (size 9 to 14) (size 15 to 20)
#    0.000    2.000    0.000    1.875   14.000    2.000 
#   11.250    1.250    0.000    0.000    0.000    0.000 
#    0.000    0.000    0.000    0.000    0.000    0.000 
#
# Total GULP energy -89305.542447 kJ/mol
# GULP energy per Si atom -5581.596403 kJ/mol
# Density = 2.615862 g / cm^3
# Si number density = 26.218299 Si / 1000 Ang^3
#
#
#
# Elastic Constant Matrix: (Units=GPa)
#
#
# Indices 1 2 3 4 5 6 
#
# 1 130.4313 32.3393 40.4808 -10.0427 -6.8791 17.5690
# 2 32.3393 113.8188 41.3266 -0.3934 -0.0190 14.2468
# 3 40.4808 41.3266 118.3440 4.1623 -12.9243 16.8141
# 4 -10.0427 -0.3934 4.1623 28.8000 9.2792 -3.7910
# 5 -6.8791 -0.0190 -12.9243 9.2792 35.7996 -10.7212
# 6 17.5690 14.2468 16.8141 -3.7910 -10.7212 35.9670
#
#
#
# Elastic Compliance Matrix: (Units=1/GPa)
#
#
# Indices 1 2 3 4 5 6 
#
# 1 0.009401 -0.001388 -0.002562 0.003546 -0.000855 -0.002726
# 2 -0.001388 0.010661 -0.003135 0.000510 -0.002341 -0.002723
# 3 -0.002562 -0.003135 0.011296 -0.004140 0.004053 -0.002015
# 4 0.003546 0.000510 -0.004140 0.040219 -0.010945 0.000978
# 5 -0.000855 -0.002341 0.004053 -0.010945 0.034651 0.008625
# 6 -0.002726 -0.002723 -0.002015 0.000978 0.008625 0.033830
#
#
# Mechanical properties :
#
#
# Convention : Reuss Voigt Hill
#
# Bulk Modulus (GPa) = 58.17765 65.65416 61.91590
# Shear Modulus (GPa) = 31.25866 36.67649 33.96758
#
# Velocity S-wave (km/s) = 3.45664 3.74423 3.60330
# Velocity P-wave (km/s) = 6.17811 6.61725 6.40145
#
# Compressibility (1/GPa) = 0.01718873
#
# Stress axis : x y z
#
# Youngs Moduli (GPa) = 106.36947 93.80328 88.52995
#
# Poissons Ratio (x) = 0.13016 0.22681
# Poissons Ratio (y) = 0.14760 0.27752
# Poissons Ratio (z) = 0.27252 0.29405
#
# Static dielectric constant tensor:
#      x y z
#    x 2.194410 -0.058760 0.032290 
#    y -0.058760 2.145330 -0.002340 
#    z 0.032290 -0.002340 2.164480 
# 
# From -- ./inp_files/343119.got.cif
#   From: 2010.05.17/outbox.cif.g08.bks.cpg/sg2_172_cif.got.tgz:343119.got - 2010.06.03 11:33:40.
