data_PCOD9029989
_publ_section_title
;
Structure prediction by ZEFSAII (Michael W. Deem and Ramdas Pophale) SiO2 
 PCOD9029989
Probable space group: P -1
;
_chemical_formula_sum "Si O2"
_cell_formula_units_Z 14
_cell_length_a 19.021092
_cell_length_b 20.710342
_cell_length_c 11.026697
_cell_angle_alpha 148.894497
_cell_angle_beta 157.115637
_cell_angle_gamma 20.671623
_cell_volume 595.774049
_symmetry_space_group_name_H-M "P -1"
_symmetry_group_IT_number 2
_symmetry_cell_setting 'triclinic'
loop_
_space_group_symop_operation_xyz
x,y,z
-x,-y,-z
loop_
_atom_site_type_symbol
_atom_site_label
_atom_site_fract_x
_atom_site_fract_y
_atom_site_fract_z
Si Si1 0.311016 0.483428 0.532965
Si Si2 0.308880 0.980717 0.167261
Si Si3 0.571696 0.654736 0.928086
Si Si4 0.880139 0.117599 0.878242
Si Si5 0.881798 0.852914 0.348574
Si Si6 0.776742 0.683363 0.076440
Si Si7 0.057799 0.751998 0.198827
O O1 0.181783 0.677485 0.594548
O O2 0.093733 0.536011 0.364020
O O3 0.279454 0.408405 0.244755
O O4 0.609367 0.330307 0.803824
O O5 0.500000 0.000000 0.500000
O O6 0.111661 0.079957 0.125730
O O7 0.117909 0.086814 0.917937
O O8 0.488263 0.766528 0.097402
O O9 0.316165 0.703554 0.562168
O O10 0.823360 0.435685 0.970722
O O11 0.627710 0.734142 0.045036
O O12 0.815356 0.030227 0.549663
O O13 0.000000 0.000000 0.000000
O O14 0.724004 0.833482 0.151853
O O15 0.897811 0.812262 0.166809
#
# Coordination Sequence:
#
# PCOD9029989 Si02
#       7
#     2   2   2   2   2   2   2
#     4   9  20  42  65  98 133 157 229 270 328 394
#     4  12  30  45  64 104 143 180 226 275 346 414
#     4  11  22  43  72 102 138 169 228 285 339 392
#     4  12  28  45  66  92 137 189 222 270 337 412
#     4  10  22  42  69 104 125 176 229 275 338 385
#     4   9  19  39  67 102 126 163 212 289 323 380
#     4  11  23  43  76 102 131 183 223 285 343 395
#
# _framework density 23.498840999999999
#
# number of rings (size 3 to 8) (size 9 to 14) (size 15 to 20)
#    0.857    0.571    2.857    1.286    6.000    4.000 
#    0.000    0.000    0.000    0.000    0.000    0.000 
#    0.000    0.000    0.000    0.000    0.000    0.000 
#
# Total GULP energy -78257.962475 kJ/mol
# GULP energy per Si atom -5589.854463 kJ/mol
# Density = 2.344536 g / cm^3
# Si number density = 23.498841 Si / 1000 Ang^3
#
#
#
# Elastic Constant Matrix: (Units=GPa)
#
#
# Indices 1 2 3 4 5 6 
#
# 1 92.4177 8.0138 6.4684 -24.1951 28.2567 -0.5755
# 2 8.0138 111.3963 5.1328 -1.4414 3.1832 -5.6876
# 3 6.4684 5.1328 42.5488 4.7358 22.8438 -12.8320
# 4 -24.1951 -1.4414 4.7358 23.7345 0.5570 8.8905
# 5 28.2567 3.1832 22.8438 0.5570 35.4738 -3.0347
# 6 -0.5755 -5.6876 -12.8320 8.8905 -3.0347 21.3806
#
#
#
# Elastic Compliance Matrix: (Units=1/GPa)
#
#
# Indices 1 2 3 4 5 6 
#
# 1 0.027111 -0.001723 -0.001000 0.035073 -0.022902 -0.018163
# 2 -0.001723 0.009226 0.000097 -0.002610 0.000838 0.003670
# 3 -0.001000 0.000097 0.055006 -0.026047 -0.030849 0.039464
# 4 0.035073 -0.002610 -0.026047 0.106678 -0.017934 -0.062287
# 5 -0.022902 0.000838 -0.030849 -0.017934 0.066330 -0.002037
# 6 -0.018163 0.003670 0.039464 -0.062287 -0.002037 0.096555
#
#
# Mechanical properties :
#
#
# Convention : Reuss Voigt Hill
#
# Bulk Modulus (GPa) = 11.61560 31.73253 21.67407
# Shear Modulus (GPa) = 12.66283 31.23430 21.94857
#
# Velocity S-wave (km/s) = 2.32388 3.64975 3.05950
# Velocity P-wave (km/s) = 3.48631 5.59411 4.66093
#
# Compressibility (1/GPa) = 0.08609109
#
# Stress axis : x y z
#
# Youngs Moduli (GPa) = 36.88523 108.38733 18.17978
#
# Poissons Ratio (x) = 0.18680 0.01817
# Poissons Ratio (y) = 0.06357 -0.00176
# Poissons Ratio (z) = 0.03687 -0.01050
#
# Static dielectric constant tensor:
#      x y z
#    x 1.871440 -0.038100 0.003490 
#    y -0.038100 1.953200 -0.003940 
#    z 0.003490 -0.003940 1.875770 
# 
# From -- ./inp_files/472954.got.cif
#   From: 2010.05.17/outbox.cif.g08.bks.cpg/sg2_237_cif.got.tgz:472954.got - 2010.06.03 11:33:40.
