data_PCOD9029090
_publ_section_title
;
Structure prediction by ZEFSAII (Michael W. Deem and Ramdas Pophale) SiO2 
 PCOD9029090
Probable space group: P -1
;
_chemical_formula_sum "Si O2"
_cell_formula_units_Z 14
_cell_length_a 13.323568
_cell_length_b 9.169590
_cell_length_c 16.345920
_cell_angle_alpha 151.893730
_cell_angle_beta 136.830069
_cell_angle_gamma 54.223934
_cell_volume 632.901292
_symmetry_space_group_name_H-M "P -1"
_symmetry_group_IT_number 2
_symmetry_cell_setting 'triclinic'
loop_
_space_group_symop_operation_xyz
x,y,z
-x,-y,-z
loop_
_atom_site_type_symbol
_atom_site_label
_atom_site_fract_x
_atom_site_fract_y
_atom_site_fract_z
Si Si1 0.648141 0.146255 0.431217
Si Si2 0.065371 0.264368 0.363084
Si Si3 0.193601 0.240723 0.972404
Si Si4 0.070452 0.717767 0.869550
Si Si5 0.333501 0.159977 0.169689
Si Si6 0.854186 0.847945 0.286575
Si Si7 0.664587 0.031226 0.572695
O O1 0.487755 0.154342 0.302149
O O2 0.719507 0.516705 0.671729
O O3 0.644036 0.997809 0.445782
O O4 0.728039 0.954343 0.319662
O O5 0.000000 0.500000 0.500000
O O6 0.046521 0.410589 0.334720
O O7 0.232166 0.209669 0.452594
O O8 0.953523 0.926394 0.146682
O O9 0.170881 0.104973 0.800563
O O10 0.329320 0.162592 0.070162
O O11 0.237534 0.619097 0.181497
O O12 0.122461 0.511190 0.868692
O O13 0.220763 0.854844 0.979089
O O14 0.000000 0.000000 0.000000
O O15 0.000000 0.000000 0.500000
O O16 0.500000 0.000000 0.500000
#
# Coordination Sequence:
#
# PCOD9029090 Si02
#       7
#     2   2   2   2   2   2   2
#     4  10  22  42  66  90 136 167 219 265 327 387
#     4  11  23  44  67  95 131 172 221 276 325 387
#     4  10  23  45  66  97 133 177 221 266 333 399
#     4  11  23  38  65  91 124 165 221 261 319 386
#     4   9  22  43  63  91 126 178 211 265 323 388
#     4  12  24  41  66  99 129 170 218 274 325 386
#     4  11  24  43  69 100 134 178 220 271 334 401
#
# _framework density 22.120353000000001
#
# number of rings (size 3 to 8) (size 9 to 14) (size 15 to 20)
#    0.000    1.429    0.000    4.714    4.000    3.429 
#   12.857    0.000    0.000    0.000    0.000    0.000 
#    0.000    0.000    0.000    0.000    0.000    0.000 
#
# Total GULP energy -78078.936755 kJ/mol
# GULP energy per Si atom -5577.066911 kJ/mol
# Density = 2.207001 g / cm^3
# Si number density = 22.120353 Si / 1000 Ang^3
#
#
#
# Elastic Constant Matrix: (Units=GPa)
#
#
# Indices 1 2 3 4 5 6 
#
# 1 60.0118 28.4749 13.7959 -17.1945 -13.3954 -6.7650
# 2 28.4749 101.4296 42.8765 -34.4814 -0.9427 -3.5319
# 3 13.7959 42.8765 69.0860 -24.1970 -11.8225 2.5446
# 4 -17.1945 -34.4814 -24.1970 40.8842 12.6327 -12.5339
# 5 -13.3954 -0.9427 -11.8225 12.6327 36.3737 -8.2541
# 6 -6.7650 -3.5319 2.5446 -12.5339 -8.2541 42.1932
#
#
#
# Elastic Compliance Matrix: (Units=1/GPa)
#
#
# Indices 1 2 3 4 5 6 
#
# 1 0.022849 -0.004757 0.001679 0.006067 0.008222 0.006575
# 2 -0.004757 0.018812 -0.007666 0.012706 -0.007349 0.003611
# 3 0.001679 -0.007666 0.021855 0.005738 0.005791 0.001147
# 4 0.006067 0.012706 0.005738 0.048311 -0.009114 0.014258
# 5 0.008222 -0.007349 0.005791 -0.009114 0.036462 0.004779
# 6 0.006575 0.003611 0.001147 0.014258 0.004779 0.030158
#
#
# Mechanical properties :
#
#
# Convention : Reuss Voigt Hill
#
# Bulk Modulus (GPa) = 23.79261 44.53578 34.16419
# Shear Modulus (GPa) = 23.37065 33.58221 28.47643
#
# Velocity S-wave (km/s) = 3.25395 3.90058 3.59185
# Velocity P-wave (km/s) = 4.98968 6.36107 5.71664
#
# Compressibility (1/GPa) = 0.04202986
#
# Stress axis : x y z
#
# Youngs Moduli (GPa) = 43.76574 53.15808 45.75525
#
# Poissons Ratio (x) = 0.25285 -0.07682
# Poissons Ratio (y) = 0.20817 0.35074
# Poissons Ratio (z) = -0.07348 0.40749
#
# Static dielectric constant tensor:
#      x y z
#    x 1.838560 -0.017820 -0.000940 
#    y -0.017820 1.922890 0.004620 
#    z -0.000940 0.004620 1.882730 
# 
# From -- ./inp_files/160196.got.cif
#   From: 2010.05.17/outbox.cif.g08.bks.cpg/sg2_81_cif.got.tgz:160196.got - 2010.06.03 11:33:40.
