data_PCOD9029930
_publ_section_title
;
Structure prediction by ZEFSAII (Michael W. Deem and Ramdas Pophale) SiO2 
 PCOD9029930
Probable space group: P -1
;
_chemical_formula_sum "Si O2"
_cell_formula_units_Z 14
_cell_length_a 5.137374
_cell_length_b 16.351755
_cell_length_c 24.501912
_cell_angle_alpha 22.572676
_cell_angle_beta 122.948639
_cell_angle_gamma 134.469073
_cell_volume 522.473307
_symmetry_space_group_name_H-M "P -1"
_symmetry_group_IT_number 2
_symmetry_cell_setting 'triclinic'
loop_
_space_group_symop_operation_xyz
x,y,z
-x,-y,-z
loop_
_atom_site_type_symbol
_atom_site_label
_atom_site_fract_x
_atom_site_fract_y
_atom_site_fract_z
Si Si1 0.054839 0.814950 0.585136
Si Si2 0.994008 0.743394 0.828650
Si Si3 0.079848 0.968640 0.863805
Si Si4 0.035331 0.836719 0.058908
Si Si5 0.118775 0.205598 0.618680
Si Si6 0.102565 0.468628 0.357536
Si Si7 0.115044 0.560566 0.849179
O O1 0.000403 0.597248 0.754503
O O2 0.799768 0.666937 0.593406
O O3 0.500000 0.000000 0.500000
O O4 0.000000 0.000000 0.500000
O O5 0.556158 0.654411 0.842291
O O6 0.068410 0.731937 0.780590
O O7 0.232637 0.034428 0.705886
O O8 0.000000 0.500000 0.000000
O O9 0.896950 0.034520 0.753876
O O10 0.497962 0.252075 0.749198
O O11 0.879014 0.841380 0.978397
O O12 0.132451 0.758041 0.973401
O O13 0.877015 0.556956 0.243402
O O14 0.500000 0.000000 0.000000
O O15 0.000000 0.000000 0.000000
O O16 0.500000 0.500000 0.500000
O O17 0.916163 0.270698 0.509994
#
# Coordination Sequence:
#
# PCOD9029930 Si02
#       7
#     2   2   2   2   2   2   2
#     4  12  26  46  71 104 147 195 246 306 375 440
#     4  12  26  48  76 108 150 195 250 311 371 448
#     4  10  22  43  72 107 143 190 244 297 371 437
#     4  10  22  42  68  99 137 181 232 287 355 428
#     4  10  22  46  73 107 148 192 244 305 373 436
#     4  10  22  44  71 105 149 187 242 308 369 435
#     4  12  25  46  76 109 144 195 254 302 370 453
#
# _framework density 26.795628000000001
#
# number of rings (size 3 to 8) (size 9 to 14) (size 15 to 20)
#    0.000    1.143    2.857    3.000    0.000    4.571 
#    0.000    5.714    0.000    0.000    0.000    0.000 
#    0.000    0.000    0.000    0.000    0.000    0.000 
#
# Total GULP energy -78361.301938 kJ/mol
# GULP energy per Si atom -5597.235853 kJ/mol
# Density = 2.673464 g / cm^3
# Si number density = 26.795628 Si / 1000 Ang^3
#
#
#
# Elastic Constant Matrix: (Units=GPa)
#
#
# Indices 1 2 3 4 5 6 
#
# 1 158.6654 55.8771 44.1830 -12.1186 26.7375 -21.6930
# 2 55.8771 137.9950 88.0861 5.4253 5.2920 -48.5962
# 3 44.1830 88.0861 206.2264 26.3948 9.4283 -29.7340
# 4 -12.1186 5.4253 26.3948 96.1285 -23.0349 -3.5610
# 5 26.7375 5.2920 9.4283 -23.0349 32.2815 -3.2318
# 6 -21.6930 -48.5962 -29.7340 -3.5610 -3.2318 47.2008
#
#
#
# Elastic Compliance Matrix: (Units=1/GPa)
#
#
# Indices 1 2 3 4 5 6 
#
# 1 0.008551 -0.002994 -0.000168 -0.000312 -0.006740 0.000256
# 2 -0.002994 0.015359 -0.004513 0.001241 0.003359 0.011918
# 3 -0.000168 -0.004513 0.007186 -0.002495 -0.003060 -0.000594
# 4 -0.000312 0.001241 -0.002495 0.013566 0.010595 0.001312
# 5 -0.006740 0.003359 -0.003060 0.010595 0.044693 0.002293
# 6 0.000256 0.011918 -0.000594 0.001312 0.002293 0.033455
#
#
# Mechanical properties :
#
#
# Convention : Reuss Voigt Hill
#
# Bulk Modulus (GPa) = 63.50924 97.68659 80.59791
# Shear Modulus (GPa) = 34.86535 56.10486 45.48510
#
# Velocity S-wave (km/s) = 3.61107 4.58078 4.12452
# Velocity P-wave (km/s) = 6.41399 8.03202 7.26817
#
# Compressibility (1/GPa) = 0.01574574
#
# Stress axis : x y z
#
# Youngs Moduli (GPa) = 116.94954 65.10771 139.15602
#
# Poissons Ratio (x) = 0.19494 0.02338
# Poissons Ratio (y) = 0.35016 0.62802
# Poissons Ratio (z) = 0.01965 0.29383
#
# Static dielectric constant tensor:
#      x y z
#    x 2.095040 0.024040 -0.029980 
#    y 0.024040 2.204490 0.037490 
#    z -0.029980 0.037490 2.140180 
# 
# From -- ./inp_files/615796.got.cif
#   From: 2010.05.17/outbox.cif.g08.bks.cpg/sg2_308_cif.got.tgz:615796.got - 2010.06.03 11:33:40.
