data_PCOD9029887
_publ_section_title
;
Structure prediction by ZEFSAII (Michael W. Deem and Ramdas Pophale) SiO2 
 PCOD9029887
Probable space group: P -1
;
_chemical_formula_sum "Si O2"
_cell_formula_units_Z 11
_cell_length_a 11.988083
_cell_length_b 9.227162
_cell_length_c 13.771366
_cell_angle_alpha 134.422984
_cell_angle_beta 30.233212
_cell_angle_gamma 138.972133
_cell_volume 498.122854
_symmetry_space_group_name_H-M "P -1"
_symmetry_group_IT_number 2
_symmetry_cell_setting 'triclinic'
loop_
_space_group_symop_operation_xyz
x,y,z
-x,-y,-z
loop_
_atom_site_type_symbol
_atom_site_label
_atom_site_fract_x
_atom_site_fract_y
_atom_site_fract_z
Si Si1 0.499711 0.944967 0.747447
Si Si2 0.000000 0.000000 0.500000
Si Si3 0.081725 0.028700 0.213692
Si Si4 0.288736 0.385942 0.391810
Si Si5 0.759847 0.526585 0.225979
Si Si6 0.696639 0.175124 0.506338
O O1 0.372344 0.677468 0.695208
O O2 0.585566 0.099852 0.661341
O O3 0.732280 0.985728 0.656927
O O4 0.301248 0.001935 0.981956
O O5 0.103861 0.282554 0.570068
O O6 0.173945 0.151040 0.305686
O O7 0.955648 0.157715 0.306567
O O8 0.861809 0.790349 0.287467
O O9 0.563438 0.466036 0.257573
O O10 0.265200 0.579335 0.438825
O O11 0.000000 0.500000 0.000000
O O12 0.500000 0.000000 0.500000
#
# Coordination Sequence:
#
# PCOD9029887 Si02
#       6
#     2   1   2   2   2   2
#     4  10  24  43  69 101 131 175 226 267 339 394
#     4  10  22  42  68  98 132 170 224 270 326 400
#     4  11  23  44  71  95 136 175 219 280 326 393
#     4  11  23  43  69  99 133 175 224 272 334 395
#     4   9  21  42  66 101 130 171 226 269 325 400
#     4  12  25  45  66  97 139 176 220 279 330 396
#
# _framework density 22.082903999999999
#
# number of rings (size 3 to 8) (size 9 to 14) (size 15 to 20)
#    0.000    1.455    3.636    0.545    0.000   10.182 
#    0.000    0.000    0.000    0.000    0.000    0.000 
#    0.000    0.000    0.000    0.000    0.000    0.000 
#
# Total GULP energy -61237.074547 kJ/mol
# GULP energy per Si atom -5567.006777 kJ/mol
# Density = 2.203264 g / cm^3
# Si number density = 22.082904 Si / 1000 Ang^3
#
#
#
# Elastic Constant Matrix: (Units=GPa)
#
#
# Indices 1 2 3 4 5 6 
#
# 1 134.8696 68.2718 52.6685 -12.0822 -41.4312 -0.2202
# 2 68.2718 197.4942 49.2702 -21.5232 -27.4745 -9.2428
# 3 52.6685 49.2702 128.7611 -20.3675 -30.8795 0.0599
# 4 -12.0822 -21.5232 -20.3675 29.7115 2.3289 1.4933
# 5 -41.4312 -27.4745 -30.8795 2.3289 28.9060 -4.8651
# 6 -0.2202 -9.2428 0.0599 1.4933 -4.8651 58.4348
#
#
#
# Elastic Compliance Matrix: (Units=1/GPa)
#
#
# Indices 1 2 3 4 5 6 
#
# 1 0.014477 -0.002002 -0.000280 0.002731 0.018532 0.001211
# 2 -0.002002 0.006715 -0.000520 0.003406 0.002885 0.001208
# 3 -0.000280 -0.000520 0.011865 0.006719 0.011352 0.000678
# 4 0.002731 0.003406 0.006719 0.040950 0.011102 0.000420
# 5 0.018532 0.002885 0.011352 0.011102 0.076239 0.006578
# 6 0.001211 0.001208 0.000678 0.000420 0.006578 0.017845
#
#
# Mechanical properties :
#
#
# Convention : Reuss Voigt Hill
#
# Bulk Modulus (GPa) = 36.42717 89.06065 62.74391
# Shear Modulus (GPa) = 27.34557 42.80477 35.07517
#
# Velocity S-wave (km/s) = 3.52279 4.40747 3.98972
# Velocity P-wave (km/s) = 5.75136 8.14363 7.04971
#
# Compressibility (1/GPa) = 0.02745204
#
# Stress axis : x y z
#
# Youngs Moduli (GPa) = 69.07570 148.93017 84.28341
#
# Poissons Ratio (x) = 0.29821 0.02357
# Poissons Ratio (y) = 0.13831 0.04383
# Poissons Ratio (z) = 0.01932 0.07745
#
# Static dielectric constant tensor:
#      x y z
#    x 1.538320 0.138510 -0.255570 
#    y 0.138510 1.833250 0.172600 
#    z -0.255570 0.172600 1.498540 
# 
# From -- ./inp_files/198370.got.cif
#   From: 2010.05.17/outbox.cif.g08.bks.cpg/sg2_100_cif.got.tgz:198370.got - 2010.06.03 11:33:40.
