data_PCOD9029731
_publ_section_title
;
Structure prediction by ZEFSAII (Michael W. Deem and Ramdas Pophale) SiO2 
 PCOD9029731
Probable space group: P -1
;
_chemical_formula_sum "Si O2"
_cell_formula_units_Z 15
_cell_length_a 11.103917
_cell_length_b 14.987002
_cell_length_c 9.477238
_cell_angle_alpha 23.908143
_cell_angle_beta 92.409730
_cell_angle_gamma 96.540720
_cell_volume 627.417362
_symmetry_space_group_name_H-M "P -1"
_symmetry_group_IT_number 2
_symmetry_cell_setting 'triclinic'
loop_
_space_group_symop_operation_xyz
x,y,z
-x,-y,-z
loop_
_atom_site_type_symbol
_atom_site_label
_atom_site_fract_x
_atom_site_fract_y
_atom_site_fract_z
Si Si1 0.559058 0.108955 0.201514
Si Si2 0.791226 0.276205 0.615374
Si Si3 0.396562 0.329657 0.322073
Si Si4 0.171112 0.657536 0.058689
Si Si5 0.000000 0.500000 0.500000
Si Si6 0.855923 0.810819 0.394030
Si Si7 0.482844 0.755312 0.279912
Si Si8 0.088252 0.740773 0.638717
O O1 0.500000 0.000000 0.500000
O O2 0.590679 0.905834 0.404204
O O3 0.686725 0.266846 0.014264
O O4 0.485139 0.227461 0.909507
O O5 0.662090 0.332399 0.577444
O O6 0.807811 0.269861 0.456343
O O7 0.900916 0.455542 0.426870
O O8 0.806289 0.024016 0.025072
O O9 0.251129 0.324688 0.314334
O O10 0.435036 0.360528 0.443867
O O11 0.500000 0.500000 0.000000
O O12 0.091068 0.696977 0.130514
O O13 0.136201 0.383985 0.438959
O O14 0.141085 0.785785 0.731845
O O15 0.991158 0.880339 0.366450
O O16 0.500000 0.000000 0.000000
O O17 0.000000 0.500000 0.000000
#
# Coordination Sequence:
#
# PCOD9029731 Si02
#       8
#     2   2   2   2   1   2   2   2
#     4  11  23  43  66  95 131 172 216 272 331 381
#     4  12  22  43  69  91 133 168 222 262 323 392
#     4  11  24  42  69  95 126 170 219 271 320 392
#     4  11  24  42  66  92 131 173 212 269 324 387
#     4  12  22  40  66  92 132 170 204 270 332 368
#     4  11  22  42  66  94 127 165 224 258 314 394
#     4  10  22  42  68  91 127 179 214 259 334 393
#     4  10  23  38  65  94 123 175 211 254 324 393
#
# _framework density 23.907529
#
# number of rings (size 3 to 8) (size 9 to 14) (size 15 to 20)
#    0.000    1.067    6.667    1.200    7.467    0.000 
#    0.000    8.000    0.000    0.000    0.000    0.000 
#    0.000    0.000    0.000    0.000    0.000    0.000 
#
# Total GULP energy -83529.116110 kJ/mol
# GULP energy per Si atom -5568.607741 kJ/mol
# Density = 2.385311 g / cm^3
# Si number density = 23.907529 Si / 1000 Ang^3
#
#
#
# Elastic Constant Matrix: (Units=GPa)
#
#
# Indices 1 2 3 4 5 6 
#
# 1 88.0558 28.2149 25.0710 6.8092 -15.7015 8.8186
# 2 28.2149 101.1143 32.4157 36.7557 0.2654 21.8305
# 3 25.0710 32.4157 76.9500 27.1590 -11.4412 2.8226
# 4 6.8092 36.7557 27.1590 59.6456 -9.3579 0.7293
# 5 -15.7015 0.2654 -11.4412 -9.3579 38.0305 3.6693
# 6 8.8186 21.8305 2.8226 0.7293 3.6693 28.5115
#
#
#
# Elastic Compliance Matrix: (Units=1/GPa)
#
#
# Indices 1 2 3 4 5 6 
#
# 1 0.014518 -0.003638 -0.003304 0.003056 0.005992 -0.002227
# 2 -0.003638 0.017917 -0.003092 -0.009676 -0.003824 -0.011547
# 3 -0.003304 -0.003092 0.017579 -0.005349 0.002488 0.001466
# 4 0.003056 -0.009676 -0.005349 0.025606 0.005477 0.005633
# 5 0.005992 -0.003824 0.002488 0.005477 0.031213 -0.003329
# 6 -0.002227 -0.011547 0.001466 0.005633 -0.003329 0.044743
#
#
# Mechanical properties :
#
#
# Convention : Reuss Voigt Hill
#
# Bulk Modulus (GPa) = 33.39307 48.61372 41.00339
# Shear Modulus (GPa) = 27.52941 37.26544 32.39742
#
# Velocity S-wave (km/s) = 3.39705 3.95236 3.68518
# Velocity P-wave (km/s) = 5.42075 6.41922 5.94100
#
# Compressibility (1/GPa) = 0.02994634
#
# Stress axis : x y z
#
# Youngs Moduli (GPa) = 68.88063 55.81380 56.88764
#
# Poissons Ratio (x) = 0.20303 0.18793
# Poissons Ratio (y) = 0.25057 0.17590
# Poissons Ratio (z) = 0.22755 0.17258
#
# Static dielectric constant tensor:
#      x y z
#    x 2.014850 -0.028980 0.054880 
#    y -0.028980 2.033270 0.079930 
#    z 0.054880 0.079930 2.016330 
# 
# From -- ./inp_files/271369.got.cif
#   From: 2010.05.17/outbox.cif.g08.bks.cpg/sg2_136_cif.got.tgz:271369.got - 2010.06.03 11:33:40.
