data_PCOD9029247
_publ_section_title
;
Structure prediction by ZEFSAII (Michael W. Deem and Ramdas Pophale) SiO2 
 PCOD9029247
Probable space group: P -1
;
_chemical_formula_sum "Si O2"
_cell_formula_units_Z 16
_cell_length_a 16.480785
_cell_length_b 5.421450
_cell_length_c 13.927116
_cell_angle_alpha 89.831757
_cell_angle_beta 30.099917
_cell_angle_gamma 85.612362
_cell_volume 617.243489
_symmetry_space_group_name_H-M "P -1"
_symmetry_group_IT_number 2
_symmetry_cell_setting 'triclinic'
loop_
_space_group_symop_operation_xyz
x,y,z
-x,-y,-z
loop_
_atom_site_type_symbol
_atom_site_label
_atom_site_fract_x
_atom_site_fract_y
_atom_site_fract_z
Si Si1 0.867384 0.456145 0.332989
Si Si2 0.128329 0.022008 0.149125
Si Si3 0.956825 0.258391 0.986577
Si Si4 0.650771 0.416407 0.014120
Si Si5 0.663865 0.799313 0.686786
Si Si6 0.850812 0.714026 0.678248
Si Si7 0.637673 0.295643 0.397954
Si Si8 0.519194 0.848907 0.274072
O O1 0.770395 0.563547 0.526001
O O2 0.744469 0.389470 0.375830
O O3 0.996146 0.206678 0.222766
O O4 0.952707 0.688076 0.203542
O O5 0.097002 0.120071 0.289765
O O6 0.178482 0.728423 0.120025
O O7 0.305369 0.067973 0.925828
O O8 0.763813 0.256274 0.181019
O O9 0.000000 0.500000 0.000000
O O10 0.000000 0.000000 0.000000
O O11 0.703197 0.593853 0.878542
O O12 0.518271 0.261219 0.104500
O O13 0.558951 0.564452 0.197460
O O14 0.769698 0.858398 0.668649
O O15 0.621008 0.014647 0.651905
O O16 0.000000 0.500000 0.500000
O O17 0.500000 0.500000 0.500000
O O18 0.545052 0.102655 0.551993
#
# Coordination Sequence:
#
# PCOD9029247 Si02
#       8
#     2   2   2   2   2   2   2   2
#     4  11  22  44  69 101 133 182 226 282 358 412
#     4  10  23  43  65  97 139 175 226 274 335 410
#     4  10  23  45  70 105 139 182 233 295 358 427
#     4  10  23  42  64  94 135 179 221 272 331 407
#     4  11  22  41  68  94 136 174 225 276 331 416
#     4  11  23  40  63 101 133 176 222 276 330 396
#     4  11  23  44  70 101 132 173 230 290 353 423
#     4  10  22  42  66  98 129 180 221 278 343 400
#
# _framework density 25.921697000000002
#
# number of rings (size 3 to 8) (size 9 to 14) (size 15 to 20)
#    0.000    1.500    2.500    1.875    0.000    7.000 
#   13.500    5.625    0.000    0.000    0.000    0.000 
#    0.000    0.000    0.000    0.000    0.000    0.000 
#
# Total GULP energy -89390.495517 kJ/mol
# GULP energy per Si atom -5586.905970 kJ/mol
# Density = 2.586270 g / cm^3
# Si number density = 25.921697 Si / 1000 Ang^3
#
#
#
# Elastic Constant Matrix: (Units=GPa)
#
#
# Indices 1 2 3 4 5 6 
#
# 1 148.2188 35.1316 26.8869 14.6178 -9.4258 -37.8808
# 2 35.1316 102.0370 17.3602 21.3920 -12.8507 -29.6543
# 3 26.8869 17.3602 118.2311 6.3732 -11.3557 -11.2863
# 4 14.6178 21.3920 6.3732 40.2980 -15.3613 -8.1865
# 5 -9.4258 -12.8507 -11.3557 -15.3613 35.1861 16.4060
# 6 -37.8808 -29.6543 -11.2863 -8.1865 16.4060 42.5085
#
#
#
# Elastic Compliance Matrix: (Units=1/GPa)
#
#
# Indices 1 2 3 4 5 6 
#
# 1 0.009268 -0.000419 -0.001417 -0.002388 -0.003042 0.008305
# 2 -0.000419 0.013560 -0.000961 -0.005941 -0.002009 0.008463
# 3 -0.001417 -0.000961 0.009105 0.000497 0.002627 -0.000433
# 4 -0.002388 -0.005941 0.000497 0.033126 0.014269 -0.005268
# 5 -0.003042 -0.002009 0.002627 0.014269 0.041778 -0.016791
# 6 0.008305 0.008463 -0.000433 -0.005268 -0.016791 0.042180
#
#
# Mechanical properties :
#
#
# Convention : Reuss Voigt Hill
#
# Bulk Modulus (GPa) = 37.96459 58.58270 48.27364
# Shear Modulus (GPa) = 30.60184 42.87240 36.73712
#
# Velocity S-wave (km/s) = 3.43964 4.07125 3.76870
# Velocity P-wave (km/s) = 5.51838 6.68947 6.13195
#
# Compressibility (1/GPa) = 0.02634033
#
# Stress axis : x y z
#
# Youngs Moduli (GPa) = 107.90391 73.74663 109.82461
#
# Poissons Ratio (x) = 0.03089 0.15559
# Poissons Ratio (y) = 0.04519 0.10551
# Poissons Ratio (z) = 0.15287 0.07085
#
# Static dielectric constant tensor:
#      x y z
#    x 2.009450 -0.056580 -0.101700 
#    y -0.056580 1.916030 -0.276860 
#    z -0.101700 -0.276860 1.804570 
# 
# From -- ./inp_files/217562.got.cif
#   From: 2010.05.17/outbox.cif.g08.bks.cpg/sg2_109_cif.got.tgz:217562.got - 2010.06.03 11:33:40.
