data_PCOD9029267
_publ_section_title
;
Structure prediction by ZEFSAII (Michael W. Deem and Ramdas Pophale) SiO2 
 PCOD9029267
Probable space group: P -1
;
_chemical_formula_sum "Si O2"
_cell_formula_units_Z 14
_cell_length_a 12.464007
_cell_length_b 18.255168
_cell_length_c 11.765601
_cell_angle_alpha 151.306226
_cell_angle_beta 58.820886
_cell_angle_gamma 140.735938
_cell_volume 689.170307
_symmetry_space_group_name_H-M "P -1"
_symmetry_group_IT_number 2
_symmetry_cell_setting 'triclinic'
loop_
_space_group_symop_operation_xyz
x,y,z
-x,-y,-z
loop_
_atom_site_type_symbol
_atom_site_label
_atom_site_fract_x
_atom_site_fract_y
_atom_site_fract_z
Si Si1 0.242927 0.584437 0.421418
Si Si2 0.822805 0.623956 0.602298
Si Si3 0.281493 0.158700 0.127386
Si Si4 0.240863 0.892383 0.971825
Si Si5 0.796585 0.278178 0.014113
Si Si6 0.748739 0.365331 0.770192
Si Si7 0.513060 0.167280 0.842200
O O1 0.279648 0.499605 0.386779
O O2 0.298747 0.804993 0.739783
O O3 0.307962 0.626749 0.313338
O O4 0.000130 0.347692 0.221824
O O5 0.720309 0.661634 0.639185
O O6 0.824524 0.462984 0.320005
O O7 0.054047 0.890024 0.856076
O O8 0.426319 0.216039 0.035713
O O9 0.314252 0.113593 0.170832
O O10 0.299490 0.924688 0.114575
O O11 0.012132 0.415308 0.048456
O O12 0.661739 0.198326 0.874035
O O13 0.633604 0.337640 0.897983
O O14 0.669882 0.115842 0.478152
#
# Coordination Sequence:
#
# PCOD9029267 Si02
#       7
#     2   2   2   2   2   2   2
#     4   8  13  29  50  70  94 132 160 199 245 286
#     4   9  18  31  54  73 103 130 159 204 254 290
#     4  10  17  32  49  80 100 131 161 199 253 295
#     4   8  14  27  50  72  99 122 160 206 246 284
#     4  10  19  34  52  77  98 129 163 205 248 289
#     4  10  19  35  50  74 102 129 166 207 235 291
#     4  11  21  30  53  76 100 131 166 202 243 287
#
# _framework density 20.314283
#
# number of rings (size 3 to 8) (size 9 to 14) (size 15 to 20)
#    0.000    2.571    2.857    2.143    0.000    1.143 
#    0.000    0.714    0.000    0.000    0.000    5.000 
#    0.000    0.000    0.000    0.000    0.000    0.000 
#
# Total GULP energy -78147.129397 kJ/mol
# GULP energy per Si atom -5581.937814 kJ/mol
# Density = 2.026805 g / cm^3
# Si number density = 20.314283 Si / 1000 Ang^3
#
#
#
# Elastic Constant Matrix: (Units=GPa)
#
#
# Indices 1 2 3 4 5 6 
#
# 1 98.3578 55.9719 13.3546 7.5650 -4.5382 -23.3310
# 2 55.9719 152.2638 16.1644 4.9034 -2.2525 -25.1279
# 3 13.3546 16.1644 27.3183 9.6126 -1.6257 -3.2518
# 4 7.5650 4.9034 9.6126 18.2345 -2.9195 3.7800
# 5 -4.5382 -2.2525 -1.6257 -2.9195 31.9249 5.4131
# 6 -23.3310 -25.1279 -3.2518 3.7800 5.4131 33.9665
#
#
#
# Elastic Compliance Matrix: (Units=1/GPa)
#
#
# Indices 1 2 3 4 5 6 
#
# 1 0.014908 -0.003769 -0.002113 -0.005715 -0.000117 0.007904
# 2 -0.003769 0.008895 -0.002938 -0.000194 -0.000728 0.003848
# 3 -0.002113 -0.002938 0.048552 -0.024905 -0.000983 0.003952
# 4 -0.005715 -0.000194 -0.024905 0.074900 0.007465 -0.015978
# 5 -0.000117 -0.000728 -0.000983 0.007465 0.033043 -0.006810
# 6 0.007904 0.003848 0.003952 -0.015978 -0.006810 0.040958
#
#
# Mechanical properties :
#
#
# Convention : Reuss Voigt Hill
#
# Bulk Modulus (GPa) = 18.27635 49.88020 34.07828
# Shear Modulus (GPa) = 19.44503 29.65511 24.55007
#
# Velocity S-wave (km/s) = 3.09724 3.82490 3.48014
# Velocity P-wave (km/s) = 4.66978 6.64184 5.74112
#
# Compressibility (1/GPa) = 0.05471552
#
# Stress axis : x y z
#
# Youngs Moduli (GPa) = 67.07973 112.41665 20.59637
#
# Poissons Ratio (x) = 0.42371 0.04352
# Poissons Ratio (y) = 0.25283 0.06051
# Poissons Ratio (z) = 0.14172 0.33029
#
# Static dielectric constant tensor:
#      x y z
#    x 1.761180 -0.022110 0.054970 
#    y -0.022110 1.742610 0.043450 
#    z 0.054970 0.043450 1.720080 
# 
# From -- ./inp_files/169302.got.cif
#   From: 2010.05.17/outbox.cif.g08.bks.cpg/sg2_85_cif.got.tgz:169302.got - 2010.06.03 11:33:40.
