data_PCOD9029307
_publ_section_title
;
Structure prediction by ZEFSAII (Michael W. Deem and Ramdas Pophale) SiO2 
 PCOD9029307
Probable space group: P -1
;
_chemical_formula_sum "Si O2"
_cell_formula_units_Z 14
_cell_length_a 19.679229
_cell_length_b 9.748497
_cell_length_c 5.505494
_cell_angle_alpha 81.091134
_cell_angle_beta 86.637543
_cell_angle_gamma 36.866582
_cell_volume 622.216279
_symmetry_space_group_name_H-M "P -1"
_symmetry_group_IT_number 2
_symmetry_cell_setting 'triclinic'
loop_
_space_group_symop_operation_xyz
x,y,z
-x,-y,-z
loop_
_atom_site_type_symbol
_atom_site_label
_atom_site_fract_x
_atom_site_fract_y
_atom_site_fract_z
Si Si1 0.343088 0.410583 0.853591
Si Si2 0.319418 0.329930 0.383718
Si Si3 0.119372 0.149178 0.489208
Si Si4 0.095123 0.390477 0.819426
Si Si5 0.133475 0.806076 0.529016
Si Si6 0.502591 0.584151 0.224339
Si Si7 0.724912 0.878021 0.795093
O O1 0.380696 0.263151 0.645061
O O2 0.205395 0.640398 0.795104
O O3 0.389998 0.488700 0.787324
O O4 0.377371 0.293198 0.137126
O O5 0.201811 0.609032 0.365027
O O6 0.294556 0.210332 0.371379
O O7 0.139324 0.176361 0.746605
O O8 0.197675 0.125336 0.325957
O O9 0.982705 0.393916 0.408414
O O10 0.149916 0.944068 0.474060
O O11 0.198777 0.300788 0.946728
O O12 0.000000 0.500000 0.000000
O O13 0.000000 0.000000 0.500000
O O14 0.500000 0.500000 0.500000
O O15 0.393358 0.863569 0.171413
O O16 0.500000 0.500000 0.000000
#
# Coordination Sequence:
#
# PCOD9029307 Si02
#       7
#     2   2   2   2   2   2   2
#     4  10  25  47  68 102 148 177 245 287 351 427
#     4  10  26  45  70 102 144 186 234 284 365 412
#     4  10  22  42  67 100 144 186 237 295 347 420
#     4   9  22  37  65 100 139 177 236 283 354 406
#     4  10  25  41  69 101 144 195 232 292 351 422
#     4  12  28  48  78 109 139 186 241 295 364 423
#     4  11  26  42  72 101 139 186 237 300 349 431
#
# _framework density 22.500214
#
# number of rings (size 3 to 8) (size 9 to 14) (size 15 to 20)
#    0.857    0.857    0.000    1.714   16.000    2.857 
#    0.000    0.000    0.000    0.000    0.000    0.000 
#    0.000    0.000    0.000    0.000    0.000    0.000 
#
# Total GULP energy -78121.550848 kJ/mol
# GULP energy per Si atom -5580.110775 kJ/mol
# Density = 2.244900 g / cm^3
# Si number density = 22.500214 Si / 1000 Ang^3
#
#
#
# Elastic Constant Matrix: (Units=GPa)
#
#
# Indices 1 2 3 4 5 6 
#
# 1 108.5281 46.1254 36.1594 11.3672 12.7991 18.5305
# 2 46.1254 110.4577 38.0254 14.5717 20.9124 14.5362
# 3 36.1594 38.0254 114.0214 25.7426 10.9770 0.9209
# 4 11.3672 14.5717 25.7426 26.1098 9.0373 13.1235
# 5 12.7991 20.9124 10.9770 9.0373 37.3615 3.3019
# 6 18.5305 14.5362 0.9209 13.1235 3.3019 44.7865
#
#
#
# Elastic Compliance Matrix: (Units=1/GPa)
#
#
# Indices 1 2 3 4 5 6 
#
# 1 0.012476 -0.003562 -0.003142 0.002482 -0.001555 -0.004554
# 2 -0.003562 0.012655 -0.002554 -0.000225 -0.004868 -0.002156
# 3 -0.003142 -0.002554 0.013611 -0.014054 0.001388 0.005865
# 4 0.002482 -0.000225 -0.014054 0.064235 -0.010479 -0.018714
# 5 -0.001555 -0.004868 0.001388 -0.010479 0.031892 0.002914
# 6 -0.004554 -0.002156 0.005865 -0.018714 0.002914 0.030061
#
#
# Mechanical properties :
#
#
# Convention : Reuss Voigt Hill
#
# Bulk Modulus (GPa) = 49.44307 63.73641 56.58974
# Shear Modulus (GPa) = 26.28996 35.83135 31.06065
#
# Velocity S-wave (km/s) = 3.42194 3.99493 3.71949
# Velocity P-wave (km/s) = 6.13475 7.04754 6.60692
#
# Compressibility (1/GPa) = 0.02022528
#
# Stress axis : x y z
#
# Youngs Moduli (GPa) = 80.15425 79.02150 73.47244
#
# Poissons Ratio (x) = 0.28145 0.23089
# Poissons Ratio (y) = 0.28548 0.18764
# Poissons Ratio (z) = 0.25188 0.20181
#
# Static dielectric constant tensor:
#      x y z
#    x 1.877350 0.015540 -0.054060 
#    y 0.015540 1.899110 -0.072640 
#    z -0.054060 -0.072640 1.983590 
# 
# From -- ./inp_files/106907.got.cif
#   From: 2010.05.17/outbox.cif.g08.bks.cpg/sg2_54_cif.got.tgz:106907.got - 2010.06.03 11:33:40.
