data_PCOD9029972
_publ_section_title
;
Structure prediction by ZEFSAII (Michael W. Deem and Ramdas Pophale) SiO2 
 PCOD9029972
Probable space group: P -1
;
_chemical_formula_sum "Si O2"
_cell_formula_units_Z 15
_cell_length_a 13.361878
_cell_length_b 11.437975
_cell_length_c 9.483436
_cell_angle_alpha 48.909335
_cell_angle_beta 49.213589
_cell_angle_gamma 29.693182
_cell_volume 527.794959
_symmetry_space_group_name_H-M "P -1"
_symmetry_group_IT_number 2
_symmetry_cell_setting 'triclinic'
loop_
_space_group_symop_operation_xyz
x,y,z
-x,-y,-z
loop_
_atom_site_type_symbol
_atom_site_label
_atom_site_fract_x
_atom_site_fract_y
_atom_site_fract_z
Si Si1 0.283479 0.624294 0.272029
Si Si2 0.696818 0.899372 0.474440
Si Si3 0.940131 0.138328 0.297841
Si Si4 0.443330 0.716670 0.483140
Si Si5 0.604010 0.607367 0.940415
Si Si6 0.316926 0.019629 0.086589
Si Si7 0.000000 0.500000 0.000000
Si Si8 0.971295 0.425602 0.791729
O O1 0.073888 0.913390 0.241263
O O2 0.332672 0.511885 0.470755
O O3 0.315996 0.478421 0.227422
O O4 0.468404 0.578931 0.114048
O O5 0.824928 0.664699 0.640087
O O6 0.849291 0.808115 0.281152
O O7 0.500000 0.000000 0.500000
O O8 0.649676 0.085439 0.469447
O O9 0.068171 0.188929 0.158373
O O10 0.000000 0.000000 0.500000
O O11 0.698128 0.310594 0.371870
O O12 0.406713 0.835751 0.274706
O O13 0.816708 0.426239 0.976381
O O14 0.450127 0.874277 0.939463
O O15 0.255057 0.247336 0.006331
O O16 0.057490 0.450759 0.817010
#
# Coordination Sequence:
#
# PCOD9029972 Si02
#       8
#     2   2   2   2   2   2   1   2
#     4  10  22  42  69 102 134 173 218 276 335 398
#     4  11  25  46  69  97 132 179 228 281 331 409
#     4   9  21  41  66  97 134 166 224 271 321 401
#     4  11  22  43  69  98 128 182 222 270 333 404
#     4  10  23  45  67 101 139 170 220 282 338 400
#     4  10  24  44  64 100 138 176 226 273 338 396
#     4  12  26  44  66 100 138 180 228 282 336 400
#     4  11  26  45  67  96 134 180 227 275 341 398
#
# _framework density 28.420127000000001
#
# number of rings (size 3 to 8) (size 9 to 14) (size 15 to 20)
#    0.000    1.600    1.333    1.600    5.600    7.467 
#    2.400    2.667    0.000    0.000    0.000    0.000 
#    0.000    0.000    0.000    0.000    0.000    0.000 
#
# Total GULP energy -83769.596757 kJ/mol
# GULP energy per Si atom -5584.639784 kJ/mol
# Density = 2.835544 g / cm^3
# Si number density = 28.420127 Si / 1000 Ang^3
#
#
#
# Elastic Constant Matrix: (Units=GPa)
#
#
# Indices 1 2 3 4 5 6 
#
# 1 130.2115 15.8266 39.1563 6.8977 9.8522 2.4965
# 2 15.8266 130.6293 22.8431 16.4259 22.1979 14.1035
# 3 39.1563 22.8431 86.0436 10.3088 14.8816 -11.2144
# 4 6.8977 16.4259 10.3088 46.0410 -3.0761 15.6193
# 5 9.8522 22.1979 14.8816 -3.0761 65.4817 15.0490
# 6 2.4965 14.1035 -11.2144 15.6193 15.0490 52.6247
#
#
#
# Elastic Compliance Matrix: (Units=1/GPa)
#
#
# Indices 1 2 3 4 5 6 
#
# 1 0.008994 -0.000225 -0.004212 0.000113 -0.000017 -0.001293
# 2 -0.000225 0.008837 -0.001708 -0.002451 -0.002387 -0.001311
# 3 -0.004212 -0.001708 0.016218 -0.004989 -0.004274 0.006816
# 4 0.000113 -0.002451 -0.004989 0.027519 0.005579 -0.010175
# 5 -0.000017 -0.002387 -0.004274 0.005579 0.019009 -0.007362
# 6 -0.001293 -0.001311 0.006816 -0.010175 -0.007362 0.025993
#
#
# Mechanical properties :
#
#
# Convention : Reuss Voigt Hill
#
# Bulk Modulus (GPa) = 45.96017 55.83739 50.89878
# Shear Modulus (GPa) = 39.64750 50.76671 45.20710
#
# Velocity S-wave (km/s) = 3.73909 4.23104 3.99265
# Velocity P-wave (km/s) = 5.90321 6.59990 6.26125
#
# Compressibility (1/GPa) = 0.02175797
#
# Stress axis : x y z
#
# Youngs Moduli (GPa) = 111.18623 113.16512 61.66116
#
# Poissons Ratio (x) = 0.02544 0.25974
# Poissons Ratio (y) = 0.02500 0.10532
# Poissons Ratio (z) = 0.46835 0.19329
#
# Static dielectric constant tensor:
#      x y z
#    x 1.940560 -0.365210 0.083370 
#    y -0.365210 1.993690 -0.011550 
#    z 0.083370 -0.011550 2.341160 
# 
# From -- ./inp_files/304761.got.cif
#   From: 2010.05.17/outbox.cif.g08.bks.cpg/sg2_153_cif.got.tgz:304761.got - 2010.06.03 11:33:40.
