data_PCOD9029692
_publ_section_title
;
Structure prediction by ZEFSAII (Michael W. Deem and Ramdas Pophale) SiO2 
 PCOD9029692
Probable space group: P -1
;
_chemical_formula_sum "Si O2"
_cell_formula_units_Z 13
_cell_length_a 6.678825
_cell_length_b 9.536026
_cell_length_c 12.357888
_cell_angle_alpha 128.669516
_cell_angle_beta 85.160251
_cell_angle_gamma 73.993911
_cell_volume 555.074006
_symmetry_space_group_name_H-M "P -1"
_symmetry_group_IT_number 2
_symmetry_cell_setting 'triclinic'
loop_
_space_group_symop_operation_xyz
x,y,z
-x,-y,-z
loop_
_atom_site_type_symbol
_atom_site_label
_atom_site_fract_x
_atom_site_fract_y
_atom_site_fract_z
Si Si1 0.842212 0.232603 0.626717
Si Si2 0.135988 0.831385 0.168883
Si Si3 0.985633 0.572861 0.750889
Si Si4 0.291693 0.157119 0.294012
Si Si5 0.734190 0.786716 0.076952
Si Si6 0.443229 0.399295 0.557615
Si Si7 0.500000 0.500000 0.000000
O O1 0.740893 0.277029 0.775816
O O2 0.979911 0.362003 0.669961
O O3 0.649274 0.300487 0.580511
O O4 0.000000 0.000000 0.500000
O O5 0.320314 0.674243 0.008995
O O6 0.898141 0.834539 0.171672
O O7 0.134822 0.044981 0.269187
O O8 0.832500 0.669037 0.700087
O O9 0.228817 0.552778 0.703921
O O10 0.871204 0.705027 0.922426
O O11 0.361268 0.240598 0.436465
O O12 0.519385 0.987249 0.158867
O O13 0.660930 0.625245 0.052279
O O14 0.500000 0.500000 0.500000
#
# Coordination Sequence:
#
# PCOD9029692 Si02
#       7
#     2   2   2   2   2   2   1
#     4  12  27  46  76 110 144 194 257 308 370 447
#     4  11  25  43  73 105 152 187 245 306 376 433
#     4  12  27  46  77 110 147 195 256 301 376 453
#     4  11  26  47  74 108 151 199 247 309 374 447
#     4  11  25  46  77 110 153 191 245 308 380 442
#     4  12  28  49  77 103 152 202 251 310 371 436
#     4  10  22  42  68 104 144 186 234 298 368 434
#
# _framework density 23.420299
#
# number of rings (size 3 to 8) (size 9 to 14) (size 15 to 20)
#    0.000    0.615    3.077    3.231    6.462    4.308 
#    0.000    0.000    0.000    0.000    0.000    0.000 
#    0.000    0.000    0.000    0.000    0.000    0.000 
#
# Total GULP energy -72582.049712 kJ/mol
# GULP energy per Si atom -5583.234593 kJ/mol
# Density = 2.336699 g / cm^3
# Si number density = 23.420299 Si / 1000 Ang^3
#
#
#
# Elastic Constant Matrix: (Units=GPa)
#
#
# Indices 1 2 3 4 5 6 
#
# 1 145.4865 34.6705 42.4987 -18.9448 -5.1549 2.8941
# 2 34.6705 89.0136 20.4369 -7.8013 -1.2665 -5.9194
# 3 42.4987 20.4369 90.9612 -10.3526 -10.2512 0.5195
# 4 -18.9448 -7.8013 -10.3526 36.1187 -2.5055 2.2487
# 5 -5.1549 -1.2665 -10.2512 -2.5055 37.4647 0.2085
# 6 2.8941 -5.9194 0.5195 2.2487 0.2085 48.1794
#
#
#
# Elastic Compliance Matrix: (Units=1/GPa)
#
#
# Indices 1 2 3 4 5 6 
#
# 1 0.008851 -0.002495 -0.003137 0.003299 0.000501 -0.000960
# 2 -0.002495 0.012768 -0.001652 0.000848 -0.000316 0.001698
# 3 -0.003137 -0.001652 0.013447 0.002100 0.003334 -0.000272
# 4 0.003299 0.000848 0.002100 0.030514 0.003107 -0.001554
# 5 0.000501 -0.000316 0.003334 0.003107 0.027872 -0.000371
# 6 -0.000960 0.001698 -0.000272 -0.001554 -0.000371 0.021099
#
#
# Mechanical properties :
#
#
# Convention : Reuss Voigt Hill
#
# Bulk Modulus (GPa) = 48.78574 57.85260 53.31917
# Shear Modulus (GPa) = 36.77775 39.54293 38.16034
#
# Velocity S-wave (km/s) = 3.96705 4.11348 4.04093
# Velocity P-wave (km/s) = 6.46986 6.87870 6.67741
#
# Compressibility (1/GPa) = 0.02049779
#
# Stress axis : x y z
#
# Youngs Moduli (GPa) = 112.98291 78.32121 74.36622
#
# Poissons Ratio (x) = 0.19539 0.23332
# Poissons Ratio (y) = 0.28186 0.12285
# Poissons Ratio (z) = 0.35447 0.12938
#
# Static dielectric constant tensor:
#      x y z
#    x 1.802530 0.013130 0.170660 
#    y 0.013130 1.847350 -0.063970 
#    z 0.170660 -0.063970 1.515850 
# 
# From -- ./inp_files/26935.got.cif
#   From: 2010.05.17/outbox.cif.g08.bks.cpg/sg2_14_cif.got.tgz:26935.got - 2010.06.03 11:33:40.
