data_PCOD9029677
_publ_section_title
;
Structure prediction by ZEFSAII (Michael W. Deem and Ramdas Pophale) SiO2 
 PCOD9029677
Probable space group: P -1
;
_chemical_formula_sum "Si O2"
_cell_formula_units_Z 14
_cell_length_a 16.846226
_cell_length_b 5.677353
_cell_length_c 5.814809
_cell_angle_alpha 99.654174
_cell_angle_beta 80.796728
_cell_angle_gamma 97.366301
_cell_volume 538.260504
_symmetry_space_group_name_H-M "P -1"
_symmetry_group_IT_number 2
_symmetry_cell_setting 'triclinic'
loop_
_space_group_symop_operation_xyz
x,y,z
-x,-y,-z
loop_
_atom_site_type_symbol
_atom_site_label
_atom_site_fract_x
_atom_site_fract_y
_atom_site_fract_z
Si Si1 0.694372 0.460759 0.505983
Si Si2 0.961512 0.825476 0.688242
Si Si3 0.110001 0.784770 0.888081
Si Si4 0.745480 0.870306 0.266792
Si Si5 0.546273 0.686101 0.824184
Si Si6 0.395342 0.905089 0.791502
Si Si7 0.809505 0.526006 0.822417
O O1 0.751508 0.694586 0.445404
O O2 0.610785 0.535213 0.653621
O O3 0.670527 0.324460 0.254568
O O4 0.742332 0.360913 0.681087
O O5 0.884917 0.634167 0.649692
O O6 0.033235 0.697066 0.753581
O O7 0.000000 0.000000 0.500000
O O8 0.924249 0.005609 0.912962
O O9 0.184722 0.911528 0.728427
O O10 0.146638 0.602718 0.013196
O O11 0.652030 0.930353 0.330445
O O12 0.762100 0.731388 0.999744
O O13 0.480384 0.795176 0.708688
O O14 0.500000 0.500000 0.000000
O O15 0.590407 0.923361 0.967471
#
# Coordination Sequence:
#
# PCOD9029677 Si02
#       7
#     2   2   2   2   2   2   2
#     4  12  26  44  73 105 144 192 244 296 370 433
#     4  10  22  42  68 103 145 188 243 294 361 432
#     4  10  23  41  69 102 141 192 237 303 357 423
#     4  11  24  44  67 103 143 185 246 296 359 432
#     4  11  26  47  72 106 145 185 248 303 359 439
#     4  11  25  45  73 101 143 191 237 300 364 426
#     4  11  24  44  69 104 148 187 244 302 357 433
#
# _framework density 26.009713999999999
#
# number of rings (size 3 to 8) (size 9 to 14) (size 15 to 20)
#    0.000    1.143    1.429    3.429    2.000    8.571 
#    0.000    0.000    0.000    0.000    0.000    0.000 
#    0.000    0.000    0.000    0.000    0.000    0.000 
#
# Total GULP energy -78185.947481 kJ/mol
# GULP energy per Si atom -5584.710534 kJ/mol
# Density = 2.595051 g / cm^3
# Si number density = 26.009714 Si / 1000 Ang^3
#
#
#
# Elastic Constant Matrix: (Units=GPa)
#
#
# Indices 1 2 3 4 5 6 
#
# 1 215.7100 57.4363 57.2969 -4.2325 38.7118 -8.8115
# 2 57.4363 77.1860 29.0091 -9.0682 3.2437 4.5239
# 3 57.2969 29.0091 74.8323 -0.0547 -12.0025 7.0335
# 4 -4.2325 -9.0682 -0.0547 43.3462 -1.6497 -5.4813
# 5 38.7118 3.2437 -12.0025 -1.6497 53.8905 -0.4463
# 6 -8.8115 4.5239 7.0335 -5.4813 -0.4463 43.7158
#
#
#
# Elastic Compliance Matrix: (Units=1/GPa)
#
#
# Indices 1 2 3 4 5 6 
#
# 1 0.009093 -0.003989 -0.006980 0.000166 -0.007814 0.003310
# 2 -0.003989 0.017637 -0.003444 0.003127 0.001119 -0.001672
# 3 -0.006980 -0.003444 0.022096 -0.001586 0.010055 -0.004702
# 4 0.000166 0.003127 -0.001586 0.024121 0.000103 0.002990
# 5 -0.007814 0.001119 0.010055 0.000103 0.026319 -0.003027
# 6 0.003310 -0.001672 -0.004702 0.002990 -0.003027 0.024816
#
#
# Mechanical properties :
#
#
# Convention : Reuss Voigt Hill
#
# Bulk Modulus (GPa) = 50.00000 72.80144 61.40072
# Shear Modulus (GPa) = 31.33373 43.12290 37.22832
#
# Velocity S-wave (km/s) = 3.47463 4.07622 3.78739
# Velocity P-wave (km/s) = 5.94666 7.08554 6.54094
#
# Compressibility (1/GPa) = 0.02000000
#
# Stress axis : x y z
#
# Youngs Moduli (GPa) = 109.97894 56.69999 45.25718
#
# Poissons Ratio (x) = 0.22618 0.31589
# Poissons Ratio (y) = 0.43871 0.15586
# Poissons Ratio (z) = 0.76763 0.19526
#
# Static dielectric constant tensor:
#      x y z
#    x 2.018420 -0.026890 -0.015850 
#    y -0.026890 2.154350 0.044180 
#    z -0.015850 0.044180 2.023110 
# 
# From -- ./inp_files/102917.got.cif
#   From: 2010.05.17/outbox.cif.g08.bks.cpg/sg2_52_cif.got.tgz:102917.got - 2010.06.03 11:33:40.
