data_PCOD9029024
_publ_section_title
;
Structure prediction by ZEFSAII (Michael W. Deem and Ramdas Pophale) SiO2 
 PCOD9029024
Probable space group: P -1
;
_chemical_formula_sum "Si O2"
_cell_formula_units_Z 15
_cell_length_a 14.936470
_cell_length_b 10.444185
_cell_length_c 14.927980
_cell_angle_alpha 48.475622
_cell_angle_beta 18.995460
_cell_angle_gamma 51.604884
_cell_volume 567.331505
_symmetry_space_group_name_H-M "P -1"
_symmetry_group_IT_number 2
_symmetry_cell_setting 'triclinic'
loop_
_space_group_symop_operation_xyz
x,y,z
-x,-y,-z
loop_
_atom_site_type_symbol
_atom_site_label
_atom_site_fract_x
_atom_site_fract_y
_atom_site_fract_z
Si Si1 0.080497 0.886220 0.061357
Si Si2 0.654908 0.880440 0.803226
Si Si3 0.095022 0.806763 0.279311
Si Si4 0.438115 0.333584 0.326123
Si Si5 0.798210 0.660377 0.113470
Si Si6 0.345821 0.468001 0.522128
Si Si7 0.993211 0.775931 0.694363
Si Si8 0.500000 0.500000 0.000000
O O1 0.050910 0.924287 0.178435
O O2 0.872445 0.722229 0.329456
O O3 0.394670 0.834658 0.775716
O O4 0.000000 0.000000 0.000000
O O5 0.811012 0.784947 0.615581
O O6 0.746290 0.798641 0.847645
O O7 0.784782 0.070372 0.597952
O O8 0.333284 0.877276 0.088022
O O9 0.232656 0.634054 0.194083
O O10 0.544531 0.410509 0.282694
O O11 0.454703 0.457387 0.169455
O O12 0.513523 0.596715 0.368702
O O13 0.748448 0.690838 0.251537
O O14 0.000000 0.500000 0.000000
O O15 0.916612 0.781771 0.868706
O O16 0.118994 0.592322 0.641073
#
# Coordination Sequence:
#
# PCOD9029024 Si02
#       8
#     2   2   2   2   2   2   2   1
#     4  11  26  50  67 102 139 177 233 288 337 420
#     4  11  26  42  67 102 134 182 221 265 352 404
#     4  11  25  46  69  99 135 179 228 282 343 400
#     4  11  25  42  77 101 134 183 226 284 353 397
#     4   9  21  41  62  94 140 167 232 273 328 396
#     4  10  22  42  66 101 131 179 223 283 335 402
#     4  10  24  40  66  95 142 173 221 280 324 421
#     4  10  24  44  70 102 134 168 232 294 324 408
#
# _framework density 26.439568999999999
#
# number of rings (size 3 to 8) (size 9 to 14) (size 15 to 20)
#    0.000    1.600    0.000    2.800    9.333    8.000 
#    9.600    0.000    0.000    0.000    0.000    0.000 
#    0.000    0.000    0.000    0.000    0.000    0.000 
#
# Total GULP energy -83716.855789 kJ/mol
# GULP energy per Si atom -5581.123719 kJ/mol
# Density = 2.637939 g / cm^3
# Si number density = 26.439569 Si / 1000 Ang^3
#
#
#
# Elastic Constant Matrix: (Units=GPa)
#
#
# Indices 1 2 3 4 5 6 
#
# 1 160.5390 51.9867 26.5174 -2.5045 40.7962 -46.9773
# 2 51.9867 62.6149 15.7808 6.7358 19.3874 -24.6191
# 3 26.5174 15.7808 93.4832 3.6721 12.1930 -17.1371
# 4 -2.5045 6.7358 3.6721 29.6261 -0.9703 9.8851
# 5 40.7962 19.3874 12.1930 -0.9703 65.7352 1.3543
# 6 -46.9773 -24.6191 -17.1371 9.8851 1.3543 58.4643
#
#
#
# Elastic Compliance Matrix: (Units=1/GPa)
#
#
# Indices 1 2 3 4 5 6 
#
# 1 0.011400 -0.004633 -0.000324 -0.000585 -0.005808 0.007347
# 2 -0.004633 0.025923 -0.000438 -0.009317 -0.005007 0.008756
# 3 -0.000324 -0.000438 0.011872 -0.002642 -0.001984 0.003528
# 4 -0.000585 -0.009317 -0.002642 0.040330 0.004445 -0.012089
# 5 -0.005808 -0.005007 -0.001984 0.004445 0.020905 -0.008593
# 6 0.007347 0.008756 0.003528 -0.012089 -0.008593 0.029973
#
#
# Mechanical properties :
#
#
# Convention : Reuss Voigt Hill
#
# Bulk Modulus (GPa) = 26.03796 56.13410 41.08603
# Shear Modulus (GPa) = 30.48921 45.58860 38.03890
#
# Velocity S-wave (km/s) = 3.39951 4.15692 3.79715
# Velocity P-wave (km/s) = 5.02776 6.65712 5.89897
#
# Compressibility (1/GPa) = 0.03840547
#
# Stress axis : x y z
#
# Youngs Moduli (GPa) = 87.72170 38.57601 84.23103
#
# Poissons Ratio (x) = 0.17872 0.02730
# Poissons Ratio (y) = 0.40640 0.03686
# Poissons Ratio (z) = 0.02843 0.01688
#
# Static dielectric constant tensor:
#      x y z
#    x 2.190080 0.123920 0.091340 
#    y 0.123920 2.253670 0.024770 
#    z 0.091340 0.024770 2.082060 
# 
# From -- ./inp_files/531696.got.cif
#   From: 2010.05.17/outbox.cif.g08.bks.cpg/sg2_266_cif.got.tgz:531696.got - 2010.06.03 11:33:40.
