data_PCOD9029082
_publ_section_title
;
Structure prediction by ZEFSAII (Michael W. Deem and Ramdas Pophale) SiO2 
 PCOD9029082
Probable space group: P -1
;
_chemical_formula_sum "Si O2"
_cell_formula_units_Z 16
_cell_length_a 8.107449
_cell_length_b 8.563964
_cell_length_c 19.908561
_cell_angle_alpha 42.006936
_cell_angle_beta 66.247619
_cell_angle_gamma 56.162586
_cell_volume 768.221335
_symmetry_space_group_name_H-M "P -1"
_symmetry_group_IT_number 2
_symmetry_cell_setting 'triclinic'
loop_
_space_group_symop_operation_xyz
x,y,z
-x,-y,-z
loop_
_atom_site_type_symbol
_atom_site_label
_atom_site_fract_x
_atom_site_fract_y
_atom_site_fract_z
Si Si1 0.424848 0.513955 0.582982
Si Si2 0.420757 0.027179 0.429837
Si Si3 0.196747 0.400469 0.242003
Si Si4 0.785080 0.803998 0.221552
Si Si5 0.192877 0.958226 0.285504
Si Si6 0.411973 0.047520 0.105349
Si Si7 0.525581 0.596639 0.122390
Si Si8 0.219544 0.958271 0.713959
O O1 0.500000 0.500000 0.500000
O O2 0.334215 0.815633 0.513129
O O3 0.270112 0.401823 0.663613
O O4 0.624406 0.322811 0.649951
O O5 0.500000 0.000000 0.500000
O O6 0.264051 0.296058 0.340268
O O7 0.612783 0.962839 0.370196
O O8 0.202583 0.152971 0.279276
O O9 0.360597 0.496507 0.159371
O O10 0.985508 0.640693 0.200942
O O11 0.604272 0.957352 0.151747
O O12 0.805743 0.976453 0.223571
O O13 0.988698 0.928645 0.326041
O O14 0.227447 0.082467 0.171378
O O15 0.441330 0.822964 0.118723
O O16 0.397454 0.292678 0.987502
O O17 0.694484 0.349434 0.208288
#
# Coordination Sequence:
#
# PCOD9029082 Si02
#       8
#     2   2   2   2   2   2   2   2
#     4  11  21  43  59  86 123 159 203 248 292 354
#     4  11  25  39  61  88 121 163 201 246 300 349
#     4  11  24  41  60  93 121 159 201 249 295 357
#     4  11  24  39  64  89 124 158 201 248 298 351
#     4  11  24  39  64  89 124 158 201 248 298 351
#     4  10  22  42  66  91 117 161 191 250 304 357
#     4  10  22  42  66  89 123 152 201 243 304 362
#     4  11  24  41  60  93 121 159 201 249 295 357
#
# _framework density 20.827328999999999
#
# number of rings (size 3 to 8) (size 9 to 14) (size 15 to 20)
#    0.000    1.250    2.500    3.750   10.500    5.000 
#    0.000    0.000    0.000    0.000    0.000    0.000 
#    0.000    0.000    0.000    0.000    0.000    0.000 
#
# Total GULP energy -89295.219033 kJ/mol
# GULP energy per Si atom -5580.951190 kJ/mol
# Density = 2.077993 g / cm^3
# Si number density = 20.827329 Si / 1000 Ang^3
#
#
#
# Elastic Constant Matrix: (Units=GPa)
#
#
# Indices 1 2 3 4 5 6 
#
# 1 58.4194 -11.2007 -8.6780 -3.0613 -5.8859 -5.2439
# 2 -11.2007 20.1771 -5.5147 0.4688 -0.4740 -4.1013
# 3 -8.6780 -5.5147 76.6863 0.3378 -6.6131 6.3172
# 4 -3.0613 0.4688 0.3378 29.0061 9.4553 1.8881
# 5 -5.8859 -0.4740 -6.6131 9.4553 16.9457 2.9323
# 6 -5.2439 -4.1013 6.3172 1.8881 2.9323 34.9466
#
#
#
# Elastic Compliance Matrix: (Units=1/GPa)
#
#
# Indices 1 2 3 4 5 6 
#
# 1 0.021614 0.014050 0.004010 -0.001354 0.009627 0.003433
# 2 0.014050 0.060870 0.006177 -0.003141 0.009446 0.007512
# 3 0.004010 0.006177 0.014913 -0.002739 0.009259 -0.001998
# 4 -0.001354 -0.003141 -0.002739 0.042718 -0.025419 -0.000252
# 5 0.009627 0.009446 0.009259 -0.025419 0.081206 -0.004561
# 6 0.003433 0.007512 -0.001998 -0.000252 -0.004561 0.030769
#
#
# Mechanical properties :
#
#
# Convention : Reuss Voigt Hill
#
# Bulk Modulus (GPa) = 6.85545 11.61068 9.23306
# Shear Modulus (GPa) = 19.82230 28.22476 24.02353
#
# Velocity S-wave (km/s) = 3.08838 3.68527 3.39995
# Velocity P-wave (km/s) = 4.00202 4.86776 4.45597
#
# Compressibility (1/GPa) = 0.14586934
#
# Stress axis : x y z
#
# Youngs Moduli (GPa) = 46.26632 16.42837 67.05468
#
# Poissons Ratio (x) = -0.23081 -0.26886
# Poissons Ratio (y) = -0.65002 -0.41418
# Poissons Ratio (z) = -0.18551 -0.10147
#
# Static dielectric constant tensor:
#      x y z
#    x 1.749010 0.003470 0.020550 
#    y 0.003470 1.721870 0.024400 
#    z 0.020550 0.024400 1.712910 
# 
# From -- ./inp_files/200596.got.cif
#   From: 2010.05.17/outbox.cif.g08.bks.cpg/sg2_101_cif.got.tgz:200596.got - 2010.06.03 11:33:40.
