data_PCOD9029529
_publ_section_title
;
Structure prediction by ZEFSAII (Michael W. Deem and Ramdas Pophale) SiO2 
 PCOD9029529
Probable space group: P -1
;
_chemical_formula_sum "Si O2"
_cell_formula_units_Z 16
_cell_length_a 14.378751
_cell_length_b 17.596060
_cell_length_c 5.117337
_cell_angle_alpha 109.041405
_cell_angle_beta 99.651890
_cell_angle_gamma 32.131729
_cell_volume 635.575297
_symmetry_space_group_name_H-M "P -1"
_symmetry_group_IT_number 2
_symmetry_cell_setting 'triclinic'
loop_
_space_group_symop_operation_xyz
x,y,z
-x,-y,-z
loop_
_atom_site_type_symbol
_atom_site_label
_atom_site_fract_x
_atom_site_fract_y
_atom_site_fract_z
Si Si1 0.792683 0.875802 0.261222
Si Si2 0.776297 0.707988 0.901847
Si Si3 0.210198 0.392265 0.701264
Si Si4 0.602399 0.390521 0.674352
Si Si5 0.204777 0.576261 0.952826
Si Si6 0.144100 0.772519 0.777938
Si Si7 0.742890 0.015015 0.897323
Si Si8 0.415672 0.711032 0.057672
O O1 0.752681 0.936687 0.599467
O O2 0.010047 0.715550 0.149954
O O3 0.729939 0.831412 0.109075
O O4 0.719986 0.991145 0.141224
O O5 0.714432 0.723408 0.607653
O O6 0.993314 0.544621 0.794986
O O7 0.719895 0.686375 0.073469
O O8 0.239071 0.463610 0.719569
O O9 0.500000 0.500000 0.500000
O O10 0.597520 0.300147 0.649416
O O11 0.500000 0.500000 0.000000
O O12 0.624856 0.539875 0.903664
O O13 0.194673 0.736336 0.452751
O O14 0.201134 0.649173 0.816437
O O15 0.934029 0.923116 0.885241
O O16 0.255894 0.768823 0.934329
O O17 0.613995 0.177659 0.918801
#
# Coordination Sequence:
#
# PCOD9029529 Si02
#       8
#     2   2   2   2   2   2   2   2
#     4  10  23  44  66  96 125 170 204 267 312 388
#     4   9  17  36  63  89 128 154 200 247 331 366
#     4   9  18  33  60  99 120 155 197 266 302 379
#     4  12  24  41  64  92 118 169 209 267 317 364
#     4  10  22  42  67  97 129 161 219 260 316 370
#     4  11  25  44  65  90 128 178 215 259 315 373
#     4  11  27  41  65  94 128 167 222 259 310 369
#     4  12  25  45  63  92 131 174 212 271 308 369
#
# _framework density 25.174042
#
# number of rings (size 3 to 8) (size 9 to 14) (size 15 to 20)
#    0.000    1.500    2.500    1.500    7.000    6.500 
#    2.250    0.000    0.000    4.500    0.000    0.000 
#    0.000    0.000    0.000    0.000    0.000    0.000 
#
# Total GULP energy -89358.299176 kJ/mol
# GULP energy per Si atom -5584.893698 kJ/mol
# Density = 2.511674 g / cm^3
# Si number density = 25.174042 Si / 1000 Ang^3
#
#
#
# Elastic Constant Matrix: (Units=GPa)
#
#
# Indices 1 2 3 4 5 6 
#
# 1 103.1763 36.1623 25.2945 3.8106 7.8173 20.9038
# 2 36.1623 128.1346 8.1905 -2.4530 -1.3918 13.7785
# 3 25.2945 8.1905 79.8842 -17.5725 15.8480 5.6126
# 4 3.8106 -2.4530 -17.5725 29.5948 13.3881 2.6671
# 5 7.8173 -1.3918 15.8480 13.3881 29.5694 6.4989
# 6 20.9038 13.7785 5.6126 2.6671 6.4989 25.5519
#
#
#
# Elastic Compliance Matrix: (Units=1/GPa)
#
#
# Indices 1 2 3 4 5 6 
#
# 1 0.013753 -0.002630 -0.005714 -0.006476 0.004207 -0.008972
# 2 -0.002630 0.008910 -0.000013 0.000670 0.001500 -0.003102
# 3 -0.005714 -0.000013 0.024631 0.025999 -0.024051 0.002674
# 4 -0.006476 0.000670 0.025999 0.069999 -0.044601 0.003263
# 5 0.004207 0.001500 -0.024051 -0.044601 0.068437 -0.011718
# 6 -0.008972 -0.003102 0.002674 0.003263 -0.011718 0.050201
#
#
# Mechanical properties :
#
#
# Convention : Reuss Voigt Hill
#
# Bulk Modulus (GPa) = 32.69991 50.05440 41.37716
# Shear Modulus (GPa) = 19.02317 33.04640 26.03479
#
# Velocity S-wave (km/s) = 2.75192 3.62707 3.21937
# Velocity P-wave (km/s) = 4.80782 6.12106 5.50375
#
# Compressibility (1/GPa) = 0.03058112
#
# Stress axis : x y z
#
# Youngs Moduli (GPa) = 72.71253 112.23436 40.59890
#
# Poissons Ratio (x) = 0.29513 0.23197
# Poissons Ratio (y) = 0.19120 0.00053
# Poissons Ratio (z) = 0.41547 0.00146
#
# Static dielectric constant tensor:
#      x y z
#    x 2.109490 -0.044160 0.092880 
#    y -0.044160 2.051820 0.022480 
#    z 0.092880 0.022480 2.112580 
# 
# From -- ./inp_files/110585.got.cif
#   From: 2010.05.17/outbox.cif.g08.bks.cpg/sg2_56_cif.got.tgz:110585.got - 2010.06.03 11:33:40.
