data_PCOD9029442
_publ_section_title
;
Structure prediction by ZEFSAII (Michael W. Deem and Ramdas Pophale) SiO2 
 PCOD9029442
Probable space group: P -1
;
_chemical_formula_sum "Si O2"
_cell_formula_units_Z 10
_cell_length_a 8.956225
_cell_length_b 10.700417
_cell_length_c 5.370308
_cell_angle_alpha 94.031934
_cell_angle_beta 56.394849
_cell_angle_gamma 89.919402
_cell_volume 427.085262
_symmetry_space_group_name_H-M "P -1"
_symmetry_group_IT_number 2
_symmetry_cell_setting 'triclinic'
loop_
_space_group_symop_operation_xyz
x,y,z
-x,-y,-z
loop_
_atom_site_type_symbol
_atom_site_label
_atom_site_fract_x
_atom_site_fract_y
_atom_site_fract_z
Si Si1 0.244520 0.745973 0.778384
Si Si2 0.966612 0.580931 0.791224
Si Si3 0.805948 0.020793 0.806800
Si Si4 0.613355 0.494390 0.142620
Si Si5 0.506436 0.887964 0.276211
O O1 0.099897 0.692319 0.714998
O O2 0.282209 0.642088 0.942985
O O3 0.431872 0.770230 0.472487
O O4 0.174559 0.877280 0.978576
O O5 0.000000 0.500000 0.500000
O O6 0.000000 0.500000 0.000000
O O7 0.754090 0.602787 0.004635
O O8 0.650973 0.080263 0.775038
O O9 0.000000 0.000000 0.500000
O O10 0.704913 0.897954 0.978560
O O11 0.500000 0.500000 0.500000
O O12 0.500000 0.500000 0.000000
O O13 0.500000 0.000000 0.500000
#
# Coordination Sequence:
#
# PCOD9029442 Si02
#       5
#     2   2   2   2   2
#     4  10  23  42  68  95 140 189 222 289 355 409
#     4  10  22  42  67  94 136 181 232 285 340 414
#     4  10  22  44  70 102 138 179 233 289 348 430
#     4  11  24  44  66 101 139 180 236 290 341 415
#     4   9  21  43  66  97 141 174 234 290 346 420
#
# _framework density 23.414532000000001
#
# number of rings (size 3 to 8) (size 9 to 14) (size 15 to 20)
#    0.000    2.000    0.000    2.400    8.400    3.200 
#   14.400    0.000    0.000    0.000    0.000    0.000 
#    0.000    0.000    0.000    0.000    0.000    0.000 
#
# Total GULP energy -55834.872445 kJ/mol
# GULP energy per Si atom -5583.487244 kJ/mol
# Density = 2.336124 g / cm^3
# Si number density = 23.414532 Si / 1000 Ang^3
#
#
#
# Elastic Constant Matrix: (Units=GPa)
#
#
# Indices 1 2 3 4 5 6 
#
# 1 143.0454 61.0928 69.4715 -6.7246 -3.2796 50.9277
# 2 61.0928 129.6695 66.6288 -27.5404 -13.4629 35.4993
# 3 69.4715 66.6288 197.5798 -14.0396 -28.3188 33.9939
# 4 -6.7246 -27.5404 -14.0396 41.7369 10.0357 -0.9173
# 5 -3.2796 -13.4629 -28.3188 10.0357 57.0157 -6.8722
# 6 50.9277 35.4993 33.9939 -0.9173 -6.8722 47.0189
#
#
#
# Elastic Compliance Matrix: (Units=1/GPa)
#
#
# Indices 1 2 3 4 5 6 
#
# 1 0.012856 -0.002057 -0.002220 0.000260 -0.002231 -0.011088
# 2 -0.002057 0.012938 -0.002121 0.007394 -0.000127 -0.005881
# 3 -0.002220 -0.002121 0.007076 -0.000069 0.002814 -0.000700
# 4 0.000260 0.007394 -0.000069 0.029742 -0.004213 -0.005849
# 5 -0.002231 -0.000127 0.002814 -0.004213 0.019919 0.003307
# 6 -0.011088 -0.005881 -0.000700 -0.005849 0.003307 0.038593
#
#
# Mechanical properties :
#
#
# Convention : Reuss Voigt Hill
#
# Bulk Modulus (GPa) = 49.81652 96.07565 72.94608
# Shear Modulus (GPa) = 35.55908 47.36106 41.46007
#
# Velocity S-wave (km/s) = 3.90125 4.50235 4.21253
# Velocity P-wave (km/s) = 6.45097 8.25528 7.40827
#
# Compressibility (1/GPa) = 0.02007366
#
# Stress axis : x y z
#
# Youngs Moduli (GPa) = 77.78292 77.29137 141.32495
#
# Poissons Ratio (x) = 0.15901 0.31379
# Poissons Ratio (y) = 0.16002 0.29970
# Poissons Ratio (z) = 0.17271 0.16391
#
# Static dielectric constant tensor:
#      x y z
#    x 1.884580 -0.042740 -0.054280 
#    y -0.042740 1.955310 -0.042830 
#    z -0.054280 -0.042830 1.934610 
# 
# From -- ./inp_files/20005.got.cif
#   From: 2010.05.17/outbox.cif.g08.bks.cpg/sg2_11_cif.got.tgz:20005.got - 2010.06.03 11:33:40.
