data_PCOD9029636
_publ_section_title
;
Structure prediction by ZEFSAII (Michael W. Deem and Ramdas Pophale) SiO2 
 PCOD9029636
Probable space group: P -1
;
_chemical_formula_sum "Si O2"
_cell_formula_units_Z 15
_cell_length_a 17.861691
_cell_length_b 9.925689
_cell_length_c 27.119190
_cell_angle_alpha 26.997375
_cell_angle_beta 17.172242
_cell_angle_gamma 27.742717
_cell_volume 623.639446
_symmetry_space_group_name_H-M "P -1"
_symmetry_group_IT_number 2
_symmetry_cell_setting 'triclinic'
loop_
_space_group_symop_operation_xyz
x,y,z
-x,-y,-z
loop_
_atom_site_type_symbol
_atom_site_label
_atom_site_fract_x
_atom_site_fract_y
_atom_site_fract_z
Si Si1 0.285203 0.482781 0.846012
Si Si2 0.500000 0.000000 0.500000
Si Si3 0.761398 0.013315 0.722060
Si Si4 0.919149 0.655669 0.422314
Si Si5 0.107938 0.874951 0.632143
Si Si6 0.335513 0.215176 0.733205
Si Si7 0.802180 0.469329 0.809555
Si Si8 0.948614 0.990966 0.113666
O O1 0.427396 0.659492 0.660533
O O2 0.455146 0.146013 0.860846
O O3 0.234319 0.681694 0.863037
O O4 0.000000 0.500000 0.000000
O O5 0.679774 0.902213 0.467536
O O6 0.852526 0.325681 0.571712
O O7 0.865190 0.782613 0.687114
O O8 0.865168 0.831857 0.765956
O O9 0.146034 0.604268 0.255821
O O10 0.969171 0.814547 0.389204
O O11 0.220407 0.579549 0.691942
O O12 0.353228 0.872747 0.441857
O O13 0.203850 0.143671 0.788128
O O14 0.220577 0.035769 0.906089
O O15 0.997039 0.206153 0.805856
O O16 0.500000 0.500000 0.000000
#
# Coordination Sequence:
#
# PCOD9029636 Si02
#       8
#     2   1   2   2   2   2   2   2
#     4  11  24  45  73 105 141 193 241 298 365 438
#     4  10  22  42  68 100 144 184 236 292 352 434
#     4  11  25  46  71 105 145 184 240 300 360 431
#     4  11  25  43  73 103 142 187 238 298 363 432
#     4  11  24  47  72 108 138 191 246 296 363 433
#     4  10  24  43  74  99 143 190 239 293 361 434
#     4  12  26  46  68 106 144 186 234 299 367 429
#     4  11  23  46  69 101 144 188 238 293 364 434
#
# _framework density 24.052357000000001
#
# number of rings (size 3 to 8) (size 9 to 14) (size 15 to 20)
#    0.000    1.067    2.667    3.200    3.733    0.000 
#    4.800    1.333    0.000    0.000    0.000    0.000 
#    0.000    0.000    0.000    0.000    0.000    0.000 
#
# Total GULP energy -83626.308567 kJ/mol
# GULP energy per Si atom -5575.087238 kJ/mol
# Density = 2.399761 g / cm^3
# Si number density = 24.052357 Si / 1000 Ang^3
#
#
#
# Elastic Constant Matrix: (Units=GPa)
#
#
# Indices 1 2 3 4 5 6 
#
# 1 57.9966 35.4178 21.8612 2.1356 -0.8885 -10.3273
# 2 35.4178 123.9086 13.6641 -9.0421 2.9566 11.2132
# 3 21.8612 13.6641 48.3785 -0.5056 -11.9324 9.8314
# 4 2.1356 -9.0421 -0.5056 29.8695 2.5844 -11.5558
# 5 -0.8885 2.9566 -11.9324 2.5844 19.9411 9.7692
# 6 -10.3273 11.2132 9.8314 -11.5558 9.7692 36.6563
#
#
#
# Elastic Compliance Matrix: (Units=1/GPa)
#
#
# Indices 1 2 3 4 5 6 
#
# 1 0.039590 -0.009587 -0.030018 0.009695 -0.032637 0.033892
# 2 -0.009587 0.011061 0.003839 0.000657 0.004059 -0.007989
# 3 -0.030018 0.003839 0.056043 -0.018157 0.056207 -0.045366
# 4 0.009695 0.000657 -0.018157 0.047333 -0.031745 0.030782
# 5 -0.032637 0.004059 0.056207 -0.031745 0.118744 -0.067165
# 6 0.033892 -0.007989 -0.045366 0.030782 -0.067165 0.079044
#
#
# Mechanical properties :
#
#
# Convention : Reuss Voigt Hill
#
# Bulk Modulus (GPa) = 28.43864 41.35222 34.89543
# Shear Modulus (GPa) = 11.49244 27.91608 19.70426
#
# Velocity S-wave (km/s) = 2.18826 3.41051 2.86531
# Velocity P-wave (km/s) = 4.27012 5.72177 5.04840
#
# Compressibility (1/GPa) = 0.03516342
#
# Stress axis : x y z
#
# Youngs Moduli (GPa) = 25.25878 90.40403 17.84336
#
# Poissons Ratio (x) = 0.86670 0.53563
# Poissons Ratio (y) = 0.24216 -0.06851
# Poissons Ratio (z) = 0.75823 -0.34711
#
# Static dielectric constant tensor:
#      x y z
#    x 1.868250 0.081040 0.021630 
#    y 0.081040 1.635230 -0.235850 
#    z 0.021630 -0.235850 1.824670 
# 
# From -- ./inp_files/404959.got.cif
#   From: 2010.05.17/outbox.cif.g08.bks.cpg/sg2_203_cif.got.tgz:404959.got - 2010.06.03 11:33:40.
