data_PCOD9029803
_publ_section_title
;
Structure prediction by ZEFSAII (Michael W. Deem and Ramdas Pophale) SiO2 
 PCOD9029803
Probable space group: P -1
;
_chemical_formula_sum "Si O2"
_cell_formula_units_Z 16
_cell_length_a 26.544633
_cell_length_b 8.899412
_cell_length_c 5.775193
_cell_angle_alpha 94.686656
_cell_angle_beta 62.181381
_cell_angle_gamma 136.258594
_cell_volume 757.976396
_symmetry_space_group_name_H-M "P -1"
_symmetry_group_IT_number 2
_symmetry_cell_setting 'triclinic'
loop_
_space_group_symop_operation_xyz
x,y,z
-x,-y,-z
loop_
_atom_site_type_symbol
_atom_site_label
_atom_site_fract_x
_atom_site_fract_y
_atom_site_fract_z
Si Si1 0.432007 0.678174 0.524969
Si Si2 0.765513 0.039971 0.710953
Si Si3 0.946212 0.534920 0.212642
Si Si4 0.538483 0.962836 0.726789
Si Si5 0.573090 0.780499 0.948806
Si Si6 0.972449 0.820870 0.847182
Si Si7 0.092835 0.037535 0.233917
Si Si8 0.247335 0.148945 0.782636
O O1 0.416519 0.822990 0.515222
O O2 0.350544 0.410205 0.584142
O O3 0.450774 0.710972 0.760727
O O4 0.521005 0.784930 0.237386
O O5 0.666906 0.912795 0.867108
O O6 0.775828 0.964659 0.436339
O O7 0.858032 0.325386 0.528248
O O8 0.765451 0.970884 0.963626
O O9 0.018708 0.783867 0.227609
O O10 0.920125 0.578868 0.048502
O O11 0.000000 0.500000 0.000000
O O12 0.592760 0.934680 0.710798
O O13 0.500000 0.000000 0.000000
O O14 0.500000 0.500000 0.000000
O O15 0.065227 0.954810 0.548368
O O16 0.918300 0.808368 0.775730
O O17 0.000000 0.000000 0.000000
O O18 0.187502 0.172858 0.963502
#
# Coordination Sequence:
#
# PCOD9029803 Si02
#       8
#     2   2   2   2   2   2   2   2
#     4  10  22  42  68  95 132 179 220 278 329 399
#     4  12  28  41  65 107 133 173 228 274 338 399
#     4  11  22  41  67  95 137 172 216 280 330 399
#     4   9  21  41  65  94 127 173 225 267 337 388
#     4  11  22  41  67  95 137 172 216 280 330 399
#     4   9  21  41  65  94 127 173 225 267 337 388
#     4  10  22  42  68  95 132 179 220 278 329 399
#     4  12  26  43  67 101 135 177 226 272 334 401
#
# _framework density 21.108836
#
# number of rings (size 3 to 8) (size 9 to 14) (size 15 to 20)
#    0.000    1.500    2.500    1.500    7.000    3.000 
#    0.000   11.250    0.000    0.000    0.000    0.000 
#    0.000    0.000    0.000    0.000    0.000    0.000 
#
# Total GULP energy -89110.771002 kJ/mol
# GULP energy per Si atom -5569.423188 kJ/mol
# Density = 2.106079 g / cm^3
# Si number density = 21.108836 Si / 1000 Ang^3
#
#
#
# Elastic Constant Matrix: (Units=GPa)
#
#
# Indices 1 2 3 4 5 6 
#
# 1 79.1100 3.2291 23.6021 -7.6104 0.2113 -19.2146
# 2 3.2291 40.3933 6.8345 7.2566 3.1991 -9.1777
# 3 23.6021 6.8345 83.1610 0.9952 -10.2075 -5.7808
# 4 -7.6104 7.2566 0.9952 40.0121 2.7993 1.4863
# 5 0.2113 3.1991 -10.2075 2.7993 38.7134 -1.5667
# 6 -19.2146 -9.1777 -5.7808 1.4863 -1.5667 27.9528
#
#
#
# Elastic Compliance Matrix: (Units=1/GPa)
#
#
# Indices 1 2 3 4 5 6 
#
# 1 0.016776 0.001468 -0.004290 0.002702 -0.001097 0.010921
# 2 0.001468 0.028370 -0.002260 -0.005029 -0.002180 0.010001
# 3 -0.004290 -0.002260 0.013883 -0.001005 0.003921 -0.000546
# 4 0.002702 -0.005029 -0.001005 0.026630 -0.001851 -0.001521
# 5 -0.001097 -0.002180 0.003921 -0.001851 0.027224 0.000965
# 6 0.010921 0.010001 -0.000546 -0.001521 0.000965 0.046588
#
#
# Mechanical properties :
#
#
# Convention : Reuss Voigt Hill
#
# Bulk Modulus (GPa) = 20.46464 29.99951 25.23207
# Shear Modulus (GPa) = 26.89276 32.60223 29.74750
#
# Velocity S-wave (km/s) = 3.57319 3.93425 3.75806
# Velocity P-wave (km/s) = 5.17102 5.90597 5.55067
#
# Compressibility (1/GPa) = 0.04886477
#
# Stress axis : x y z
#
# Youngs Moduli (GPa) = 59.60877 35.24836 72.02810
#
# Poissons Ratio (x) = -0.05173 0.30898
# Poissons Ratio (y) = -0.08748 0.16280
# Poissons Ratio (z) = 0.25570 0.07967
#
# Static dielectric constant tensor:
#      x y z
#    x 1.893000 -0.018570 0.106450 
#    y -0.018570 1.780450 0.013370 
#    z 0.106450 0.013370 1.830180 
# 
# From -- ./inp_files/46282.got.cif
#   From: 2010.05.17/outbox.cif.g08.bks.cpg/sg2_24_cif.got.tgz:46282.got - 2010.06.03 11:33:40.
