data_PCOD9029791
_publ_section_title
;
Structure prediction by ZEFSAII (Michael W. Deem and Ramdas Pophale) SiO2 
 PCOD9029791
Probable space group: P -1
;
_chemical_formula_sum "Si O2"
_cell_formula_units_Z 14
_cell_length_a 24.054786
_cell_length_b 28.809289
_cell_length_c 14.774334
_cell_angle_alpha 158.005101
_cell_angle_beta 155.955516
_cell_angle_gamma 10.436750
_cell_volume 694.502198
_symmetry_space_group_name_H-M "P -1"
_symmetry_group_IT_number 2
_symmetry_cell_setting 'triclinic'
loop_
_space_group_symop_operation_xyz
x,y,z
-x,-y,-z
loop_
_atom_site_type_symbol
_atom_site_label
_atom_site_fract_x
_atom_site_fract_y
_atom_site_fract_z
Si Si1 0.337320 0.662658 0.391732
Si Si2 0.331738 0.662572 0.895629
Si Si3 0.033281 0.253031 0.936904
Si Si4 0.669121 0.548781 0.337540
Si Si5 0.377189 0.323240 0.121610
Si Si6 0.247444 0.103850 0.784442
Si Si7 0.212482 0.295258 0.652752
O O1 0.507902 0.506088 0.265745
O O2 0.531903 0.606940 0.634046
O O3 0.000000 0.000000 0.500000
O O4 0.256763 0.594200 0.188720
O O5 0.292669 0.576432 0.748193
O O6 0.567001 0.558632 0.113609
O O7 0.000000 0.000000 0.000000
O O8 0.957146 0.459035 0.212211
O O9 0.106864 0.175668 0.800863
O O10 0.344725 0.958458 0.916869
O O11 0.971474 0.384760 0.479410
O O12 0.400276 0.864800 0.530771
O O13 0.035961 0.607745 0.171187
O O14 0.333338 0.272196 0.877649
O O15 0.500000 0.000000 0.000000
O O16 0.500000 0.000000 0.500000
#
# Coordination Sequence:
#
# PCOD9029791 Si02
#       7
#     2   2   2   2   2   2   2
#     4  10  22  43  68 100 124 167 229 267 324 385
#     4  11  26  45  69  95 129 179 217 272 332 384
#     4  10  23  42  68  98 130 170 219 274 317 389
#     4  11  24  45  65  95 138 165 218 273 319 402
#     4  10  22  42  68  95 127 171 214 272 322 379
#     4  11  21  43  62 100 132 167 216 260 333 390
#     4  11  26  42  62  99 133 177 214 260 334 387
#
# _framework density 20.158322999999999
#
# number of rings (size 3 to 8) (size 9 to 14) (size 15 to 20)
#    0.000    1.429    2.857    2.571    6.000    4.571 
#    2.571    0.000    0.000    0.000    0.000    0.000 
#    0.000    0.000    0.000    0.000    0.000    0.000 
#
# Total GULP energy -78108.911082 kJ/mol
# GULP energy per Si atom -5579.207934 kJ/mol
# Density = 2.011244 g / cm^3
# Si number density = 20.158323 Si / 1000 Ang^3
#
#
#
# Elastic Constant Matrix: (Units=GPa)
#
#
# Indices 1 2 3 4 5 6 
#
# 1 90.0369 60.3676 63.3966 -9.9230 6.6614 -10.1621
# 2 60.3676 158.1412 75.3685 1.7949 -1.9270 -2.9737
# 3 63.3966 75.3685 159.5059 -15.3041 8.2207 -15.3392
# 4 -9.9230 1.7949 -15.3041 51.6803 -6.1488 -0.6641
# 5 6.6614 -1.9270 8.2207 -6.1488 28.6197 2.7079
# 6 -10.1621 -2.9737 -15.3392 -0.6641 2.7079 36.5208
#
#
#
# Elastic Compliance Matrix: (Units=1/GPa)
#
#
# Indices 1 2 3 4 5 6 
#
# 1 0.018229 -0.004940 -0.004242 0.002074 -0.003211 0.003164
# 2 -0.004940 0.009723 -0.003151 -0.001950 0.002492 -0.002127
# 3 -0.004242 -0.003151 0.010027 0.002072 -0.001940 0.002956
# 4 0.002074 -0.001950 0.002072 0.020820 0.003128 0.001435
# 5 -0.003211 0.002492 -0.001940 0.003128 0.037485 -0.004228
# 6 0.003164 -0.002127 0.002956 0.001435 -0.004228 0.029670
#
#
# Mechanical properties :
#
#
# Convention : Reuss Voigt Hill
#
# Bulk Modulus (GPa) = 75.11321 89.54994 82.33157
# Shear Modulus (GPa) = 32.24569 37.26758 34.75664
#
# Velocity S-wave (km/s) = 4.00387 4.30437 4.15683
# Velocity P-wave (km/s) = 7.66271 8.32005 7.99813
#
# Compressibility (1/GPa) = 0.01331324
#
# Stress axis : x y z
#
# Youngs Moduli (GPa) = 54.85768 102.84376 99.72640
#
# Poissons Ratio (x) = 0.50804 0.42307
# Poissons Ratio (y) = 0.27099 0.31425
# Poissons Ratio (z) = 0.23272 0.32407
#
# Static dielectric constant tensor:
#      x y z
#    x 1.739650 0.019020 0.041280 
#    y 0.019020 1.710190 0.031660 
#    z 0.041280 0.031660 1.726620 
# 
# From -- ./inp_files/543487.got.cif
#   From: 2010.05.17/outbox.cif.g08.bks.cpg/sg2_272_cif.got.tgz:543487.got - 2010.06.03 11:33:40.
