data_PCOD9029423
_publ_section_title
;
Structure prediction by ZEFSAII (Michael W. Deem and Ramdas Pophale) SiO2 
 PCOD9029423
Probable space group: P -1
;
_chemical_formula_sum "Si O2"
_cell_formula_units_Z 12
_cell_length_a 5.066037
_cell_length_b 14.221758
_cell_length_c 9.652464
_cell_angle_alpha 125.044276
_cell_angle_beta 72.928494
_cell_angle_gamma 123.485012
_cell_volume 474.590790
_symmetry_space_group_name_H-M "P -1"
_symmetry_group_IT_number 2
_symmetry_cell_setting 'triclinic'
loop_
_space_group_symop_operation_xyz
x,y,z
-x,-y,-z
loop_
_atom_site_type_symbol
_atom_site_label
_atom_site_fract_x
_atom_site_fract_y
_atom_site_fract_z
Si Si1 0.426882 0.052276 0.909649
Si Si2 0.934449 0.543188 0.849143
Si Si3 0.231704 0.192778 0.257522
Si Si4 0.212877 0.378878 0.768108
Si Si5 0.909678 0.349023 0.364645
Si Si6 0.187416 0.920195 0.392528
O O1 0.704930 0.088484 0.788128
O O2 0.349157 0.165453 0.067824
O O3 0.103208 0.941074 0.792044
O O4 0.500000 0.000000 0.000000
O O5 0.580487 0.427263 0.772781
O O6 0.160388 0.478245 0.762382
O O7 0.024173 0.650827 0.808808
O O8 0.919565 0.600812 0.047780
O O9 0.538297 0.243593 0.352196
O O10 0.137235 0.306246 0.366921
O O11 0.015787 0.225778 0.637529
O O12 0.000000 0.500000 0.500000
O O13 0.500000 0.000000 0.500000
O O14 0.000000 0.000000 0.500000
#
# Coordination Sequence:
#
# PCOD9029423 Si02
#       6
#     2   2   2   2   2   2
#     4  11  26  50  76 104 139 195 248 291 351 432
#     4  10  22  42  67  94 125 180 229 272 330 414
#     4  11  25  44  73 102 136 193 240 288 345 434
#     4  10  22  43  66  91 130 178 224 273 336 415
#     4  12  25  42  66 106 144 179 228 294 355 414
#     4  12  29  45  71 108 147 181 232 301 365 414
#
# _framework density 25.284939000000001
#
# number of rings (size 3 to 8) (size 9 to 14) (size 15 to 20)
#    0.000    1.000    1.667    3.500    4.667    6.667 
#    0.000    0.000    0.000    0.000    0.000    0.000 
#    0.000    0.000    0.000    0.000    0.000    0.000 
#
# Total GULP energy -67217.026728 kJ/mol
# GULP energy per Si atom -5601.418894 kJ/mol
# Density = 2.522739 g / cm^3
# Si number density = 25.284939 Si / 1000 Ang^3
#
#
#
# Elastic Constant Matrix: (Units=GPa)
#
#
# Indices 1 2 3 4 5 6 
#
# 1 136.2371 9.7473 39.8829 19.1621 -12.8771 -3.6490
# 2 9.7473 67.6925 22.4625 -4.1762 0.9332 9.9297
# 3 39.8829 22.4625 110.1162 9.1747 -15.1055 9.5336
# 4 19.1621 -4.1762 9.1747 62.3351 7.2783 12.8405
# 5 -12.8771 0.9332 -15.1055 7.2783 37.9112 2.4065
# 6 -3.6490 9.9297 9.5336 12.8405 2.4065 32.7526
#
#
#
# Elastic Compliance Matrix: (Units=1/GPa)
#
#
# Indices 1 2 3 4 5 6 
#
# 1 0.009011 -0.001130 -0.002696 -0.003414 0.002461 0.003289
# 2 -0.001130 0.017046 -0.003198 0.003372 -0.002375 -0.005511
# 3 -0.002696 -0.003198 0.011591 -0.001040 0.004146 -0.002602
# 4 -0.003414 0.003372 -0.001040 0.019796 -0.004918 -0.008500
# 5 0.002461 -0.002375 0.004146 -0.004918 0.029898 -0.000481
# 6 0.003289 -0.005511 -0.002602 -0.008500 -0.000481 0.036694
#
#
# Mechanical properties :
#
#
# Convention : Reuss Voigt Hill
#
# Bulk Modulus (GPa) = 42.37208 50.91460 46.64334
# Shear Modulus (GPa) = 34.25857 42.72999 38.49428
#
# Velocity S-wave (km/s) = 3.68489 4.11535 3.90605
# Velocity P-wave (km/s) = 5.90752 6.53923 6.23138
#
# Compressibility (1/GPa) = 0.02360045
#
# Stress axis : x y z
#
# Youngs Moduli (GPa) = 110.97468 58.66625 86.27659
#
# Poissons Ratio (x) = 0.06629 0.23260
# Poissons Ratio (y) = 0.12539 0.27588
# Poissons Ratio (z) = 0.29918 0.18759
#
# Static dielectric constant tensor:
#      x y z
#    x 1.949950 -0.002860 0.013090 
#    y -0.002860 2.026660 -0.051120 
#    z 0.013090 -0.051120 2.047710 
# 
# From -- ./inp_files/368039.got.cif
#   From: 2010.05.17/outbox.cif.g08.bks.cpg/sg2_185_cif.got.tgz:368039.got - 2010.06.03 11:33:40.
