data_PCOD9029526
_publ_section_title
;
Structure prediction by ZEFSAII (Michael W. Deem and Ramdas Pophale) SiO2 
 PCOD9029526
Probable space group: P -1
;
_chemical_formula_sum "Si O2"
_cell_formula_units_Z 16
_cell_length_a 7.894555
_cell_length_b 5.501001
_cell_length_c 16.656717
_cell_angle_alpha 74.440902
_cell_angle_beta 111.621052
_cell_angle_gamma 87.674850
_cell_volume 639.932114
_symmetry_space_group_name_H-M "P -1"
_symmetry_group_IT_number 2
_symmetry_cell_setting 'triclinic'
loop_
_space_group_symop_operation_xyz
x,y,z
-x,-y,-z
loop_
_atom_site_type_symbol
_atom_site_label
_atom_site_fract_x
_atom_site_fract_y
_atom_site_fract_z
Si Si1 0.350788 0.935612 0.418043
Si Si2 0.884328 0.275989 0.476637
Si Si3 0.253236 0.479061 0.730949
Si Si4 0.888593 0.794670 0.885876
Si Si5 0.573103 0.186336 0.729969
Si Si6 0.123411 0.442271 0.255911
Si Si7 0.518476 0.623087 0.079125
Si Si8 0.208063 0.065672 0.975920
O O1 0.235986 0.755051 0.462850
O O2 0.460256 0.820223 0.369612
O O3 0.500000 0.000000 0.500000
O O4 0.210393 0.179782 0.339131
O O5 0.771414 0.348751 0.368301
O O6 0.000000 0.500000 0.500000
O O7 0.000000 0.000000 0.500000
O O8 0.387336 0.233480 0.743373
O O9 0.378913 0.561517 0.818470
O O10 0.052407 0.443341 0.730949
O O11 0.955735 0.605459 0.842181
O O12 0.696368 0.930654 0.804338
O O13 0.843261 0.742389 0.975057
O O14 0.032722 0.989969 0.907273
O O15 0.710680 0.397200 0.741931
O O16 0.660137 0.822199 0.072029
O O17 0.500000 0.500000 0.000000
O O18 0.324497 0.796811 0.053021
#
# Coordination Sequence:
#
# PCOD9029526 Si02
#       8
#     2   2   2   2   2   2   2   2
#     4  11  26  49  74 107 154 199 252 322 396 470
#     4  12  28  52  80 117 158 208 269 327 402 483
#     4  12  25  46  74 109 146 197 258 318 393 460
#     4  10  22  43  67 100 141 195 240 310 384 453
#     4  11  25  45  72 109 149 190 258 315 383 473
#     4  11  24  45  70 106 144 194 247 311 384 464
#     4  11  24  43  66 107 142 191 250 310 375 461
#     4  10  22  42  67  96 145 188 247 309 377 451
#
# _framework density 25.002651
#
# number of rings (size 3 to 8) (size 9 to 14) (size 15 to 20)
#    0.000    1.000    2.500    3.000    3.500    2.000 
#    4.500    3.125    0.000    0.000    0.000    0.000 
#    0.000    0.000    0.000    0.000    0.000    0.000 
#
# Total GULP energy -89548.765470 kJ/mol
# GULP energy per Si atom -5596.797842 kJ/mol
# Density = 2.494574 g / cm^3
# Si number density = 25.002651 Si / 1000 Ang^3
#
#
#
# Elastic Constant Matrix: (Units=GPa)
#
#
# Indices 1 2 3 4 5 6 
#
# 1 141.6391 43.9972 32.4390 13.1778 -18.1975 -16.6088
# 2 43.9972 58.4403 41.7399 15.5987 -2.0050 2.2542
# 3 32.4390 41.7399 198.2837 18.9206 7.3747 -2.3693
# 4 13.1778 15.5987 18.9206 53.2046 -11.9451 -2.8755
# 5 -18.1975 -2.0050 7.3747 -11.9451 38.9095 2.2988
# 6 -16.6088 2.2542 -2.3693 -2.8755 2.2988 42.1472
#
#
#
# Elastic Compliance Matrix: (Units=1/GPa)
#
#
# Indices 1 2 3 4 5 6 
#
# 1 0.010678 -0.008169 -0.000258 0.001140 0.004709 0.004451
# 2 -0.008169 0.027644 -0.003888 -0.005672 -0.003097 -0.005134
# 3 -0.000258 -0.003888 0.006113 -0.001378 -0.001930 0.000461
# 4 0.001140 -0.005672 -0.001378 0.022396 0.007271 0.001806
# 5 0.004709 -0.003097 -0.001930 0.007271 0.030297 0.000756
# 6 0.004451 -0.005134 0.000461 0.001806 0.000756 0.025863
#
#
# Mechanical properties :
#
#
# Convention : Reuss Voigt Hill
#
# Bulk Modulus (GPa) = 50.49212 70.52393 60.50802
# Shear Modulus (GPa) = 32.42113 45.53141 38.97627
#
# Velocity S-wave (km/s) = 3.60489 4.27202 3.95256
# Velocity P-wave (km/s) = 6.12907 7.25268 6.71442
#
# Compressibility (1/GPa) = 0.01980507
#
# Stress axis : x y z
#
# Youngs Moduli (GPa) = 93.65401 36.17444 163.59384
#
# Poissons Ratio (x) = 0.29550 0.04220
# Poissons Ratio (y) = 0.76504 0.63601
# Poissons Ratio (z) = 0.02416 0.14064
#
# Static dielectric constant tensor:
#      x y z
#    x 1.949610 -0.033640 -0.003870 
#    y -0.033640 2.023430 -0.032290 
#    z -0.003870 -0.032290 1.992460 
# 
# From -- ./inp_files/488313.got.cif
#   From: 2010.05.17/outbox.cif.g08.bks.cpg/sg2_245_cif.got.tgz:488313.got - 2010.06.03 11:33:40.
