data_PCOD9029808
_publ_section_title
;
Structure prediction by ZEFSAII (Michael W. Deem and Ramdas Pophale) SiO2 
 PCOD9029808
Probable space group: P -1
;
_chemical_formula_sum "Si O2"
_cell_formula_units_Z 16
_cell_length_a 9.095685
_cell_length_b 21.893969
_cell_length_c 11.234252
_cell_angle_alpha 45.892534
_cell_angle_beta 139.326118
_cell_angle_gamma 148.287725
_cell_volume 757.979255
_symmetry_space_group_name_H-M "P -1"
_symmetry_group_IT_number 2
_symmetry_cell_setting 'triclinic'
loop_
_space_group_symop_operation_xyz
x,y,z
-x,-y,-z
loop_
_atom_site_type_symbol
_atom_site_label
_atom_site_fract_x
_atom_site_fract_y
_atom_site_fract_z
Si Si1 0.160688 0.931724 0.934996
Si Si2 0.134957 0.972590 0.415717
Si Si3 0.775075 0.278284 0.091948
Si Si4 0.346650 0.534236 0.011213
Si Si5 0.173668 0.807002 0.520169
Si Si6 0.936482 0.808522 0.725900
Si Si7 0.309340 0.555895 0.684911
Si Si8 0.224454 0.243358 0.858164
O O1 0.939199 0.832927 0.832120
O O2 0.101292 0.016487 0.784114
O O3 0.058107 0.866049 0.086751
O O4 0.500000 0.000000 0.000000
O O5 0.128111 0.888235 0.441548
O O6 0.057406 0.917817 0.573202
O O7 0.479061 0.101957 0.442991
O O8 0.845327 0.264282 0.287700
O O9 0.019419 0.414680 0.022250
O O10 0.844019 0.215527 0.134590
O O11 0.422645 0.219270 0.952715
O O12 0.572139 0.509894 0.173873
O O13 0.525630 0.645489 0.055095
O O14 0.282287 0.554603 0.812943
O O15 0.920036 0.732976 0.361977
O O16 0.592642 0.690368 0.636678
O O17 0.000000 0.500000 0.500000
#
# Coordination Sequence:
#
# PCOD9029808 Si02
#       8
#     2   2   2   2   2   2   2   2
#     4  12  25  39  64 100 131 172 219 272 330 385
#     4  10  22  43  63  91 136 168 222 277 314 393
#     4  10  23  43  66  91 136 171 218 274 318 395
#     4  10  23  41  63 101 130 167 221 268 321 395
#     4  10  23  42  66  96 127 179 219 266 333 379
#     4  10  22  43  64  94 130 171 221 269 327 388
#     4  10  22  42  68  95 134 171 208 271 337 386
#     4  12  24  41  68  95 132 175 217 272 327 390
#
# _framework density 21.108758000000002
#
# number of rings (size 3 to 8) (size 9 to 14) (size 15 to 20)
#    0.000    1.500    2.500    1.500    1.750    7.000 
#    0.000    0.000    0.000    0.000    0.000    0.000 
#    0.000    0.000    0.000    0.000    0.000    0.000 
#
# Total GULP energy -89467.248801 kJ/mol
# GULP energy per Si atom -5591.703050 kJ/mol
# Density = 2.106071 g / cm^3
# Si number density = 21.108758 Si / 1000 Ang^3
#
#
#
# Elastic Constant Matrix: (Units=GPa)
#
#
# Indices 1 2 3 4 5 6 
#
# 1 70.9056 31.6560 37.1659 1.6240 3.9834 24.2566
# 2 31.6560 50.1796 13.7491 -2.9328 2.0142 16.0294
# 3 37.1659 13.7491 90.1487 12.2580 1.0938 15.3929
# 4 1.6240 -2.9328 12.2580 30.8445 5.0835 -7.4559
# 5 3.9834 2.0142 1.0938 5.0835 30.2223 2.4381
# 6 24.2566 16.0294 15.3929 -7.4559 2.4381 32.7508
#
#
#
# Elastic Compliance Matrix: (Units=1/GPa)
#
#
# Indices 1 2 3 4 5 6 
#
# 1 0.027003 -0.011515 -0.007099 -0.002260 -0.001231 -0.011450
# 2 -0.011515 0.028816 0.001122 0.001555 -0.000243 -0.005731
# 3 -0.007099 0.001122 0.015521 -0.007035 0.001831 -0.004324
# 4 -0.002260 0.001555 -0.007035 0.040063 -0.007410 0.013892
# 5 -0.001231 -0.000243 0.001831 -0.007410 0.034778 -0.004106
# 6 -0.011450 -0.005731 -0.004324 0.013892 -0.004106 0.047320
#
#
# Mechanical properties :
#
#
# Convention : Reuss Voigt Hill
#
# Bulk Modulus (GPa) = 27.50474 41.81954 34.66214
# Shear Modulus (GPa) = 20.78108 27.34103 24.06106
#
# Velocity S-wave (km/s) = 3.14104 3.60286 3.37985
# Velocity P-wave (km/s) = 5.11988 6.09606 5.62917
#
# Compressibility (1/GPa) = 0.03635738
#
# Stress axis : x y z
#
# Youngs Moduli (GPa) = 37.03256 34.70246 64.42854
#
# Poissons Ratio (x) = 0.39960 0.45738
# Poissons Ratio (y) = 0.42643 -0.07232
# Poissons Ratio (z) = 0.26290 -0.03895
#
# Static dielectric constant tensor:
#      x y z
#    x 1.788540 -0.006330 0.012400 
#    y -0.006330 1.751680 0.005620 
#    z 0.012400 0.005620 1.732390 
# 
# From -- ./inp_files/261087.got.cif
#   From: 2010.05.17/outbox.cif.g08.bks.cpg/sg2_131_cif.got.tgz:261087.got - 2010.06.03 11:33:40.
