data_PCOD9029991
_publ_section_title
;
Structure prediction by ZEFSAII (Michael W. Deem and Ramdas Pophale) SiO2 
 PCOD9029991
Probable space group: P -1
;
_chemical_formula_sum "Si O2"
_cell_formula_units_Z 14
_cell_length_a 9.727905
_cell_length_b 13.032549
_cell_length_c 9.666715
_cell_angle_alpha 33.542190
_cell_angle_beta 60.367242
_cell_angle_gamma 66.745795
_cell_volume 588.225803
_symmetry_space_group_name_H-M "P -1"
_symmetry_group_IT_number 2
_symmetry_cell_setting 'triclinic'
loop_
_space_group_symop_operation_xyz
x,y,z
-x,-y,-z
loop_
_atom_site_type_symbol
_atom_site_label
_atom_site_fract_x
_atom_site_fract_y
_atom_site_fract_z
Si Si1 0.186237 0.203288 0.431290
Si Si2 0.161362 0.292169 0.648536
Si Si3 0.850601 0.226210 0.045305
Si Si4 0.368036 0.934502 0.026734
Si Si5 0.057016 0.322038 0.092997
Si Si6 0.518360 0.188539 0.189952
Si Si7 0.686966 0.477922 0.450397
O O1 0.147513 0.313389 0.466140
O O2 0.085014 0.189992 0.356556
O O3 0.354887 0.281288 0.202114
O O4 0.179593 0.992039 0.723715
O O5 0.261737 0.448177 0.507346
O O6 0.984949 0.290594 0.798980
O O7 0.249558 0.100171 0.863546
O O8 0.674938 0.298595 0.039076
O O9 0.925757 0.255075 0.125227
O O10 0.280933 0.741292 0.336771
O O11 0.457162 0.872051 0.912497
O O12 0.500000 0.000000 0.000000
O O13 0.211772 0.389310 0.853111
O O14 0.000000 0.500000 0.000000
O O15 0.500000 0.000000 0.500000
O O16 0.500000 0.500000 0.500000
#
# Coordination Sequence:
#
# PCOD9029991 Si02
#       7
#     2   2   2   2   2   2   2
#     4  11  23  45  71  98 142 178 229 284 344 405
#     4  11  24  44  70 104 134 185 229 284 349 401
#     4  10  23  43  69  97 137 176 232 276 340 415
#     4  12  24  42  75  99 136 185 231 280 346 411
#     4  11  27  44  65 103 140 180 224 288 350 395
#     4  10  22  42  69 104 131 173 234 281 336 412
#     4  11  25  45  66 101 141 177 236 278 334 424
#
# _framework density 23.800384000000001
#
# number of rings (size 3 to 8) (size 9 to 14) (size 15 to 20)
#    0.000    1.143    4.286    1.714    4.000    4.571 
#    0.000    5.000    0.000    0.000    0.000    0.000 
#    0.000    0.000    0.000    0.000    0.000    0.000 
#
# Total GULP energy -78284.710249 kJ/mol
# GULP energy per Si atom -5591.765018 kJ/mol
# Density = 2.374621 g / cm^3
# Si number density = 23.800384 Si / 1000 Ang^3
#
#
#
# Elastic Constant Matrix: (Units=GPa)
#
#
# Indices 1 2 3 4 5 6 
#
# 1 138.3983 59.9132 40.5061 21.5810 -19.6000 40.7752
# 2 59.9132 110.5940 25.6348 13.0759 -14.5254 39.8691
# 3 40.5061 25.6348 66.2468 -1.3781 0.8790 23.8735
# 4 21.5810 13.0759 -1.3781 52.5208 -0.3948 9.5205
# 5 -19.6000 -14.5254 0.8790 -0.3948 47.2763 -2.0394
# 6 40.7752 39.8691 23.8735 9.5205 -2.0394 49.8293
#
#
#
# Elastic Compliance Matrix: (Units=1/GPa)
#
#
# Indices 1 2 3 4 5 6 
#
# 1 0.012466 -0.002985 -0.004949 -0.003649 0.004115 -0.004576
# 2 -0.002985 0.014321 -0.000749 -0.000817 0.002808 -0.008387
# 3 -0.004949 -0.000749 0.020744 0.003856 -0.002900 -0.006145
# 4 -0.003649 -0.000817 0.003856 0.021255 -0.001759 -0.002341
# 5 0.004115 0.002808 -0.002900 -0.001759 0.023634 -0.002921
# 6 -0.004576 -0.008387 -0.006145 -0.002341 -0.002921 0.033796
#
#
# Mechanical properties :
#
#
# Convention : Reuss Voigt Hill
#
# Bulk Modulus (GPa) = 33.14859 63.03858 48.09359
# Shear Modulus (GPa) = 32.54442 42.53760 37.54101
#
# Velocity S-wave (km/s) = 3.70184 4.23219 3.97587
# Velocity P-wave (km/s) = 5.67710 7.10111 6.42866
#
# Compressibility (1/GPa) = 0.03016720
#
# Stress axis : x y z
#
# Youngs Moduli (GPa) = 80.21839 69.82592 48.20676
#
# Poissons Ratio (x) = 0.20840 0.23856
# Poissons Ratio (y) = 0.23942 0.03610
# Poissons Ratio (z) = 0.39697 0.05229
#
# Static dielectric constant tensor:
#      x y z
#    x 1.643000 -0.150760 -0.421820 
#    y -0.150760 1.870480 -0.106630 
#    z -0.421820 -0.106630 1.571580 
# 
# From -- ./inp_files/183978.got.cif
#   From: 2010.05.17/outbox.cif.g08.bks.cpg/sg2_92_cif.got.tgz:183978.got - 2010.06.03 11:33:40.
