data_PCOD9029113
_publ_section_title
;
Structure prediction by ZEFSAII (Michael W. Deem and Ramdas Pophale) SiO2 
 PCOD9029113
Probable space group: P -1
;
_chemical_formula_sum "Si O2"
_cell_formula_units_Z 13
_cell_length_a 18.753938
_cell_length_b 7.166331
_cell_length_c 11.904077
_cell_angle_alpha 118.936860
_cell_angle_beta 26.677918
_cell_angle_gamma 108.869591
_cell_volume 603.987829
_symmetry_space_group_name_H-M "P -1"
_symmetry_group_IT_number 2
_symmetry_cell_setting 'triclinic'
loop_
_space_group_symop_operation_xyz
x,y,z
-x,-y,-z
loop_
_atom_site_type_symbol
_atom_site_label
_atom_site_fract_x
_atom_site_fract_y
_atom_site_fract_z
Si Si1 0.823543 0.667954 0.502437
Si Si2 0.500000 0.500000 0.500000
Si Si3 0.628281 0.954820 0.066823
Si Si4 0.693198 0.708407 0.450691
Si Si5 0.885057 0.215416 0.783668
Si Si6 0.038953 0.208696 0.060396
Si Si7 0.274047 0.308962 0.923419
O O1 0.724646 0.813865 0.785816
O O2 0.724294 0.700849 0.536905
O O3 0.996806 0.737034 0.271977
O O4 0.879026 0.406511 0.375065
O O5 0.614353 0.523668 0.457715
O O6 0.408616 0.338453 0.653463
O O7 0.710035 0.162245 0.039528
O O8 0.654821 0.801343 0.093320
O O9 0.442253 0.061558 0.322495
O O10 0.862465 0.699372 0.147526
O O11 0.840507 0.434967 0.832763
O O12 0.000000 0.000000 0.500000
O O13 0.160354 0.170417 0.985549
O O14 0.000000 0.000000 0.000000
#
# Coordination Sequence:
#
# PCOD9029113 Si02
#       7
#     2   1   2   2   2   2   2
#     4  10  23  43  66  96 139 176 219 275 336 396
#     4  10  22  42  66  92 134 174 210 278 326 392
#     4  11  23  42  71 100 132 176 223 278 330 397
#     4  11  23  42  68  97 135 175 224 271 338 386
#     4   9  20  40  65  95 131 177 208 273 329 388
#     4  10  24  42  63  99 131 179 221 276 329 395
#     4  10  22  42  68  97 130 168 231 263 333 396
#
# _framework density 21.523612
#
# number of rings (size 3 to 8) (size 9 to 14) (size 15 to 20)
#    0.000    1.846    1.538    0.923    2.154   10.462 
#    2.769    1.538    0.000    0.000    0.000    0.000 
#    0.000    0.000    0.000    0.000    0.000    0.000 
#
# Total GULP energy -72378.171630 kJ/mol
# GULP energy per Si atom -5567.551664 kJ/mol
# Density = 2.147462 g / cm^3
# Si number density = 21.523612 Si / 1000 Ang^3
#
#
#
# Elastic Constant Matrix: (Units=GPa)
#
#
# Indices 1 2 3 4 5 6 
#
# 1 184.4653 56.5621 32.6071 5.9792 -7.8177 -3.8128
# 2 56.5621 70.3396 20.5244 9.1288 -10.1018 20.5758
# 3 32.6071 20.5244 63.9676 11.7663 1.9933 3.7771
# 4 5.9792 9.1288 11.7663 21.0421 -0.1283 6.7993
# 5 -7.8177 -10.1018 1.9933 -0.1283 27.6794 5.5861
# 6 -3.8128 20.5758 3.7771 6.7993 5.5861 45.4255
#
#
#
# Elastic Compliance Matrix: (Units=1/GPa)
#
#
# Indices 1 2 3 4 5 6 
#
# 1 0.008064 -0.007356 -0.002094 0.000703 -0.001103 0.004213
# 2 -0.007356 0.027179 -0.003947 -0.003074 0.010830 -0.013472
# 3 -0.002094 -0.003947 0.019694 -0.009325 -0.003866 0.001846
# 4 0.000703 -0.003074 -0.009325 0.055915 0.001278 -0.006300
# 5 -0.001103 0.010830 -0.003866 0.001278 0.042080 -0.010043
# 6 0.004213 -0.013472 0.001846 -0.006300 -0.010043 0.030494
#
#
# Mechanical properties :
#
#
# Convention : Reuss Voigt Hill
#
# Bulk Modulus (GPa) = 35.53426 59.79553 47.66490
# Shear Modulus (GPa) = 22.76852 32.76802 27.76827
#
# Velocity S-wave (km/s) = 3.25597 3.90606 3.59574
# Velocity P-wave (km/s) = 5.53899 6.94152 6.27953
#
# Compressibility (1/GPa) = 0.02814185
#
# Stress axis : x y z
#
# Youngs Moduli (GPa) = 124.00334 36.79368 50.77778
#
# Poissons Ratio (x) = 0.27064 0.10634
# Poissons Ratio (y) = 0.91214 0.20044
# Poissons Ratio (z) = 0.25969 0.14524
#
# Static dielectric constant tensor:
#      x y z
#    x 1.753650 0.031340 -0.015330 
#    y 0.031340 1.786010 -0.025200 
#    z -0.015330 -0.025200 1.807850 
# 
# From -- ./inp_files/59426.got.cif
#   From: 2010.05.17/outbox.cif.g08.bks.cpg/sg2_30_cif.got.tgz:59426.got - 2010.06.03 11:33:40.
