data_PCOD9029493
_publ_section_title
;
Structure prediction by ZEFSAII (Michael W. Deem and Ramdas Pophale) SiO2 
 PCOD9029493
Probable space group: P -1
;
_chemical_formula_sum "Si O2"
_cell_formula_units_Z 16
_cell_length_a 11.033261
_cell_length_b 11.126652
_cell_length_c 9.168698
_cell_angle_alpha 120.791324
_cell_angle_beta 61.743367
_cell_angle_gamma 129.204610
_cell_volume 730.025516
_symmetry_space_group_name_H-M "P -1"
_symmetry_group_IT_number 2
_symmetry_cell_setting 'triclinic'
loop_
_space_group_symop_operation_xyz
x,y,z
-x,-y,-z
loop_
_atom_site_type_symbol
_atom_site_label
_atom_site_fract_x
_atom_site_fract_y
_atom_site_fract_z
Si Si1 0.329199 0.500985 0.253422
Si Si2 0.129049 0.464634 0.833863
Si Si3 0.053720 0.904308 0.215252
Si Si4 0.970080 0.619385 0.493732
Si Si5 0.615342 0.003792 0.065738
Si Si6 0.831464 0.026042 0.474173
Si Si7 0.467429 0.851833 0.531803
Si Si8 0.575082 0.378177 0.042509
O O1 0.162396 0.363851 0.330718
O O2 0.372536 0.671347 0.409350
O O3 0.461084 0.451600 0.178927
O O4 0.324015 0.530173 0.102474
O O5 0.103815 0.452836 0.667560
O O6 0.305599 0.588281 0.870597
O O7 0.076822 0.285916 0.811549
O O8 0.000000 0.500000 0.000000
O O9 0.125925 0.961910 0.372084
O O10 0.950494 0.987928 0.293103
O O11 0.204223 0.937932 0.052115
O O12 0.000000 0.500000 0.500000
O O13 0.128097 0.794614 0.485699
O O14 0.612708 0.120164 0.263835
O O15 0.531345 0.815160 0.047985
O O16 0.500000 0.000000 0.000000
O O17 0.647068 0.890780 0.483294
O O18 0.500000 0.000000 0.500000
#
# Coordination Sequence:
#
# PCOD9029493 Si02
#       8
#     2   2   2   2   2   2   2   2
#     4  11  25  45  67  95 134 177 218 273 330 390
#     4  11  24  40  67  95 130 169 218 268 324 388
#     4  10  22  42  67  96 128 169 216 273 326 387
#     4  11  24  41  67  97 130 169 216 268 327 390
#     4  12  24  42  69  99 133 170 223 274 326 393
#     4  10  22  43  66  94 132 169 215 270 329 389
#     4  12  24  43  67  97 134 174 219 270 332 389
#     4  11  25  46  66  95 136 175 220 272 329 390
#
# _framework density 21.917041999999999
#
# number of rings (size 3 to 8) (size 9 to 14) (size 15 to 20)
#    0.000    1.000    2.500    3.750    5.250    0.500 
#    2.250    0.625    0.000    0.000    0.000    0.000 
#    0.000    0.000    0.000    0.000    0.000    0.000 
#
# Total GULP energy -89505.234101 kJ/mol
# GULP energy per Si atom -5594.077131 kJ/mol
# Density = 2.186716 g / cm^3
# Si number density = 21.917042 Si / 1000 Ang^3
#
#
#
# Elastic Constant Matrix: (Units=GPa)
#
#
# Indices 1 2 3 4 5 6 
#
# 1 60.5950 29.4000 41.9500 6.0013 -14.1960 -2.7964
# 2 29.4000 66.3899 11.7724 2.2261 1.2043 -0.6755
# 3 41.9500 11.7724 126.9092 -13.2327 -18.9084 -3.4215
# 4 6.0013 2.2261 -13.2327 36.8845 1.5677 -7.1534
# 5 -14.1960 1.2043 -18.9084 1.5677 26.4144 -2.9249
# 6 -2.7964 -0.6755 -3.4215 -7.1534 -2.9249 36.9834
#
#
#
# Elastic Compliance Matrix: (Units=1/GPa)
#
#
# Indices 1 2 3 4 5 6 
#
# 1 0.032249 -0.012742 -0.008418 -0.007854 0.012452 0.000893
# 2 -0.012742 0.020523 0.001410 0.001496 -0.006942 -0.000718
# 3 -0.008418 0.001410 0.011723 0.005696 0.003672 0.001866
# 4 -0.007854 0.001496 0.005696 0.031558 -0.001426 0.005952
# 5 0.012452 -0.006942 0.003672 -0.001426 0.048098 0.004683
# 6 0.000893 -0.000718 0.001866 0.005952 0.004683 0.028788
#
#
# Mechanical properties :
#
#
# Convention : Reuss Voigt Hill
#
# Bulk Modulus (GPa) = 40.00521 46.68209 43.34365
# Shear Modulus (GPa) = 22.64811 31.44125 27.04468
#
# Velocity S-wave (km/s) = 3.21807 3.79166 3.51658
# Velocity P-wave (km/s) = 5.66574 6.36511 6.02558
#
# Compressibility (1/GPa) = 0.02499674
#
# Stress axis : x y z
#
# Youngs Moduli (GPa) = 31.00873 48.72463 85.30572
#
# Poissons Ratio (x) = 0.62084 0.71807
# Poissons Ratio (y) = 0.39511 -0.12031
# Poissons Ratio (z) = 0.26102 -0.06872
#
# Static dielectric constant tensor:
#      x y z
#    x 1.807150 -0.003190 -0.008110 
#    y -0.003190 1.871040 -0.002060 
#    z -0.008110 -0.002060 1.819570 
# 
# From -- ./inp_files/262971.got.cif
#   From: 2010.05.17/outbox.cif.g08.bks.cpg/sg2_132_cif.got.tgz:262971.got - 2010.06.03 11:33:40.
