data_PCOD9029010
_publ_section_title
;
Structure prediction by ZEFSAII (Michael W. Deem and Ramdas Pophale) SiO2 
 PCOD9029010
Probable space group: P -1
;
_chemical_formula_sum "Si O2"
_cell_formula_units_Z 16
_cell_length_a 7.731348
_cell_length_b 6.866626
_cell_length_c 18.415890
_cell_angle_alpha 45.030546
_cell_angle_beta 87.805503
_cell_angle_gamma 93.301074
_cell_volume 686.204771
_symmetry_space_group_name_H-M "P -1"
_symmetry_group_IT_number 2
_symmetry_cell_setting 'triclinic'
loop_
_space_group_symop_operation_xyz
x,y,z
-x,-y,-z
loop_
_atom_site_type_symbol
_atom_site_label
_atom_site_fract_x
_atom_site_fract_y
_atom_site_fract_z
Si Si1 0.406482 0.290261 0.876566
Si Si2 0.569898 0.157838 0.756532
Si Si3 0.085041 0.610639 0.749418
Si Si4 0.353313 0.420756 0.084215
Si Si5 0.717746 0.844756 0.358298
Si Si6 0.258353 0.257966 0.458295
Si Si7 0.866962 0.302074 0.445876
Si Si8 0.153323 0.805058 0.053374
O O1 0.476488 0.186424 0.827233
O O2 0.247755 0.461139 0.813595
O O3 0.550756 0.482943 0.867584
O O4 0.321190 0.033571 0.994973
O O5 0.423514 0.082796 0.716820
O O6 0.664562 0.455268 0.653341
O O7 0.689826 0.909648 0.826747
O O8 0.099875 0.640937 0.655219
O O9 0.910228 0.418463 0.825253
O O10 0.119468 0.912872 0.705876
O O11 0.195206 0.610219 0.035680
O O12 0.500000 0.500000 0.000000
O O13 0.647078 0.817166 0.449401
O O14 0.775036 0.549021 0.414342
O O15 0.058856 0.283991 0.478633
O O16 0.244452 0.999935 0.471208
O O17 0.000000 0.000000 0.000000
#
# Coordination Sequence:
#
# PCOD9029010 Si02
#       8
#     2   2   2   2   2   2   2   2
#     4  11  23  46  65  97 143 176 227 284 340 408
#     4  12  25  42  70 101 135 183 227 280 351 402
#     4  10  22  42  66 100 132 181 225 280 339 409
#     4  12  26  44  70 103 139 180 228 288 343 406
#     4  11  22  44  66  96 137 176 231 288 334 407
#     4  10  25  41  65 101 131 179 231 282 344 408
#     4  10  22  43  66  93 138 173 230 283 346 399
#     4  10  24  45  70  98 138 182 228 278 344 409
#
# _framework density 23.316655000000001
#
# number of rings (size 3 to 8) (size 9 to 14) (size 15 to 20)
#    0.000    1.250    3.750    1.125    3.500    1.500 
#    0.000    1.875    0.000    0.000    0.000    0.000 
#    0.000    0.000    0.000    0.000    0.000    0.000 
#
# Total GULP energy -89464.438236 kJ/mol
# GULP energy per Si atom -5591.527390 kJ/mol
# Density = 2.326358 g / cm^3
# Si number density = 23.316655 Si / 1000 Ang^3
#
#
#
# Elastic Constant Matrix: (Units=GPa)
#
#
# Indices 1 2 3 4 5 6 
#
# 1 75.0713 38.4340 26.8302 -0.0155 -1.3964 -8.8947
# 2 38.4340 109.9853 47.4036 -27.2402 -6.0095 -6.9877
# 3 26.8302 47.4036 128.3324 -26.0715 -17.3566 13.6798
# 4 -0.0155 -27.2402 -26.0715 39.2086 8.5472 10.7580
# 5 -1.3964 -6.0095 -17.3566 8.5472 37.4119 -10.1497
# 6 -8.8947 -6.9877 13.6798 10.7580 -10.1497 38.3552
#
#
#
# Elastic Compliance Matrix: (Units=1/GPa)
#
#
# Indices 1 2 3 4 5 6 
#
# 1 0.019331 -0.006860 -0.004161 -0.010266 0.002257 0.008194
# 2 -0.006860 0.014560 -0.002109 0.009319 -0.001338 -0.001154
# 3 -0.004161 -0.002109 0.012146 0.008507 0.001087 -0.007780
# 4 -0.010266 0.009319 0.008507 0.045165 -0.010454 -0.019152
# 5 0.002257 -0.001338 0.001087 -0.010454 0.032598 0.011450
# 6 0.008194 -0.001154 -0.007780 -0.019152 0.011450 0.038938
#
#
# Mechanical properties :
#
#
# Convention : Reuss Voigt Hill
#
# Bulk Modulus (GPa) = 50.56528 59.85828 55.21178
# Shear Modulus (GPa) = 25.56376 36.37658 30.97017
#
# Velocity S-wave (km/s) = 3.31475 3.95411 3.64846
# Velocity P-wave (km/s) = 6.03187 6.82453 6.44041
#
# Compressibility (1/GPa) = 0.01977641
#
# Stress axis : x y z
#
# Youngs Moduli (GPa) = 51.73103 68.68225 82.33431
#
# Poissons Ratio (x) = 0.47118 0.34260
# Poissons Ratio (y) = 0.35489 0.17361
# Poissons Ratio (z) = 0.21526 0.14482
#
# Static dielectric constant tensor:
#      x y z
#    x 1.943640 -0.026370 0.038080 
#    y -0.026370 1.872420 -0.042390 
#    z 0.038080 -0.042390 1.891490 
# 
# From -- ./inp_files/553156.got.cif
#   From: 2010.05.17/outbox.cif.g08.bks.cpg/sg2_277_cif.got.tgz:553156.got - 2010.06.03 11:33:40.
