data_PCOD9029765
_publ_section_title
;
Structure prediction by ZEFSAII (Michael W. Deem and Ramdas Pophale) SiO2 
 PCOD9029765
Probable space group: P -1
;
_chemical_formula_sum "Si O2"
_cell_formula_units_Z 16
_cell_length_a 10.463579
_cell_length_b 12.265551
_cell_length_c 7.663479
_cell_angle_alpha 125.563919
_cell_angle_beta 103.273028
_cell_angle_gamma 60.572191
_cell_volume 694.656593
_symmetry_space_group_name_H-M "P -1"
_symmetry_group_IT_number 2
_symmetry_cell_setting 'triclinic'
loop_
_space_group_symop_operation_xyz
x,y,z
-x,-y,-z
loop_
_atom_site_type_symbol
_atom_site_label
_atom_site_fract_x
_atom_site_fract_y
_atom_site_fract_z
Si Si1 0.588750 0.868774 0.766001
Si Si2 0.860092 0.258444 0.187820
Si Si3 0.167239 0.201323 0.650536
Si Si4 0.763872 0.644987 0.897925
Si Si5 0.178441 0.670294 0.347656
Si Si6 0.079758 0.496146 0.702499
Si Si7 0.699129 0.100846 0.443399
Si Si8 0.197322 0.004166 0.022912
O O1 0.676534 0.715679 0.760194
O O2 0.473044 0.853509 0.587772
O O3 0.702806 0.928482 0.796529
O O4 0.500000 0.000000 0.000000
O O5 0.826212 0.317590 0.430761
O O6 0.838662 0.399587 0.194061
O O7 0.779703 0.154041 0.036650
O O8 0.031639 0.135729 0.113883
O O9 0.166295 0.324277 0.627589
O O10 0.993682 0.256598 0.688790
O O11 0.230179 0.023240 0.500549
O O12 0.265255 0.223050 0.854531
O O13 0.742483 0.506117 0.833959
O O14 0.939251 0.575041 0.857401
O O15 0.259146 0.764105 0.391123
O O16 0.000000 0.500000 0.500000
O O17 0.769752 0.029458 0.206740
#
# Coordination Sequence:
#
# PCOD9029765 Si02
#       8
#     2   2   2   2   2   2   2   2
#     4  10  18  34  55  78 108 145 186 219 261 333
#     4  10  17  32  50  84 106 139 174 221 279 314
#     4  11  20  34  55  81 115 142 178 226 277 324
#     4  11  20  34  56  85 109 144 179 227 278 317
#     4  10  21  32  54  85 114 133 180 235 275 314
#     4  11  19  32  53  80 111 139 176 224 277 323
#     4  10  20  36  54  84 107 148 182 225 266 318
#     4   9  18  30  56  78 108 136 180 224 263 328
#
# _framework density 23.032962999999999
#
# number of rings (size 3 to 8) (size 9 to 14) (size 15 to 20)
#    0.000    1.750    6.250    1.875    0.000    0.500 
#    0.000    1.250    0.000    3.750    0.000    0.000 
#    0.000    1.000    0.000    0.000    0.000    0.000 
#
# Total GULP energy -89338.403754 kJ/mol
# GULP energy per Si atom -5583.650235 kJ/mol
# Density = 2.298054 g / cm^3
# Si number density = 23.032963 Si / 1000 Ang^3
#
#
#
# Elastic Constant Matrix: (Units=GPa)
#
#
# Indices 1 2 3 4 5 6 
#
# 1 59.6919 76.3419 14.1286 7.2395 32.1313 18.2233
# 2 76.3419 181.5986 26.9977 21.3661 42.6493 45.8690
# 3 14.1286 26.9977 40.0861 20.0865 17.3618 12.1214
# 4 7.2395 21.3661 20.0865 31.9167 9.0193 12.3073
# 5 32.1313 42.6493 17.3618 9.0193 40.5771 7.7328
# 6 18.2233 45.8690 12.1214 12.3073 7.7328 36.9969
#
#
#
# Elastic Compliance Matrix: (Units=1/GPa)
#
#
# Indices 1 2 3 4 5 6 
#
# 1 0.048857 -0.015051 0.001138 0.006188 -0.024201 -0.002778
# 2 -0.015051 0.014986 0.000061 -0.002362 -0.001409 -0.010106
# 3 0.001138 0.000061 0.042492 -0.021452 -0.013502 -0.004600
# 4 0.006188 -0.002362 -0.021452 0.049147 -0.002462 -0.008926
# 5 -0.024201 -0.001409 -0.013502 -0.002462 0.050001 0.008459
# 6 -0.002778 -0.010106 -0.004600 -0.008926 0.008459 0.043636
#
#
# Mechanical properties :
#
#
# Convention : Reuss Voigt Hill
#
# Bulk Modulus (GPa) = 12.71744 57.36812 35.04278
# Shear Modulus (GPa) = 16.49987 32.82537 24.66262
#
# Velocity S-wave (km/s) = 2.67939 3.77921 3.27579
# Velocity P-wave (km/s) = 3.88659 6.63357 5.43644
#
# Compressibility (1/GPa) = 0.07863219
#
# Stress axis : x y z
#
# Youngs Moduli (GPa) = 20.46794 66.72863 23.53399
#
# Poissons Ratio (x) = 1.00430 -0.02678
# Poissons Ratio (y) = 0.30805 -0.00144
# Poissons Ratio (z) = -0.02329 -0.00409
#
# Static dielectric constant tensor:
#      x y z
#    x 1.903240 0.049140 -0.065120 
#    y 0.049140 1.847170 -0.014240 
#    z -0.065120 -0.014240 1.945440 
# 
# From -- ./inp_files/260208.got.cif
#   From: 2010.05.17/outbox.cif.g08.bks.cpg/sg2_131_cif.got.tgz:260208.got - 2010.06.03 11:33:40.
