data_PCOD9029672
_publ_section_title
;
Structure prediction by ZEFSAII (Michael W. Deem and Ramdas Pophale) SiO2 
 PCOD9029672
Probable space group: P -1
;
_chemical_formula_sum "Si O2"
_cell_formula_units_Z 14
_cell_length_a 11.576599
_cell_length_b 14.398034
_cell_length_c 4.845221
_cell_angle_alpha 93.629999
_cell_angle_beta 82.860823
_cell_angle_gamma 141.143921
_cell_volume 502.007616
_symmetry_space_group_name_H-M "P -1"
_symmetry_group_IT_number 2
_symmetry_cell_setting 'triclinic'
loop_
_space_group_symop_operation_xyz
x,y,z
-x,-y,-z
loop_
_atom_site_type_symbol
_atom_site_label
_atom_site_fract_x
_atom_site_fract_y
_atom_site_fract_z
Si Si1 0.818803 0.930070 0.887271
Si Si2 0.831149 0.064379 0.388674
Si Si3 0.681708 0.137555 0.797742
Si Si4 0.434707 0.331596 0.735464
Si Si5 0.228341 0.349240 0.481694
Si Si6 0.724685 0.365604 0.568017
Si Si7 0.913105 0.575699 0.075455
O O1 0.840163 0.984218 0.588336
O O2 0.652256 0.755389 0.968114
O O3 0.769025 0.989353 0.098953
O O4 0.000000 0.000000 0.000000
O O5 0.717505 0.076928 0.559194
O O6 0.044066 0.229317 0.335152
O O7 0.678521 0.234026 0.656627
O O8 0.869660 0.265362 0.949470
O O9 0.500000 0.000000 0.000000
O O10 0.273515 0.280673 0.601995
O O11 0.533865 0.303295 0.566299
O O12 0.403712 0.491477 0.281691
O O13 0.187538 0.399219 0.743484
O O14 0.856957 0.457102 0.281426
O O15 0.827359 0.489521 0.798454
#
# Coordination Sequence:
#
# PCOD9029672 Si02
#       7
#     2   2   2   2   2   2   2
#     4  12  25  46  71 102 142 185 227 283 358 419
#     4  11  26  47  69 103 142 184 230 287 353 411
#     4  11  25  46  74 105 141 183 238 292 343 410
#     4  10  22  42  68 103 138 178 234 279 345 416
#     4   9  21  42  67 103 138 179 227 293 341 410
#     4  11  24  46  69 100 137 189 228 281 343 417
#     4  10  24  46  70  98 140 183 231 282 353 407
#
# _framework density 27.888021999999999
#
# number of rings (size 3 to 8) (size 9 to 14) (size 15 to 20)
#    0.000    1.429    1.429    2.143    0.000   13.143 
#    2.571    5.714    0.000    0.000    0.000    0.000 
#    0.000    0.000    0.000    0.000    0.000    0.000 
#
# Total GULP energy -78685.291867 kJ/mol
# GULP energy per Si atom -5620.377991 kJ/mol
# Density = 2.782455 g / cm^3
# Si number density = 27.888022 Si / 1000 Ang^3
#
#
#
# Elastic Constant Matrix: (Units=GPa)
#
#
# Indices 1 2 3 4 5 6 
#
# 1 162.4052 49.5378 23.2322 -6.9495 -10.1121 -20.1845
# 2 49.5378 153.1989 56.0726 -31.6073 -8.5687 -5.3915
# 3 23.2322 56.0726 125.2819 -15.4133 3.3687 5.7069
# 4 -6.9495 -31.6073 -15.4133 66.6501 -2.3328 -5.1632
# 5 -10.1121 -8.5687 3.3687 -2.3328 45.9223 -4.4953
# 6 -20.1845 -5.3915 5.7069 -5.1632 -4.4953 58.8929
#
#
#
# Elastic Compliance Matrix: (Units=1/GPa)
#
#
# Indices 1 2 3 4 5 6 
#
# 1 0.007242 -0.001954 -0.000631 -0.000073 0.001515 0.002474
# 2 -0.001954 0.009291 -0.003453 0.003542 0.001831 0.000966
# 3 -0.000631 -0.003453 0.009808 0.000385 -0.001637 -0.001574
# 4 -0.000073 0.003542 0.000385 0.016969 0.001662 0.001877
# 5 0.001515 0.001831 -0.001637 0.001662 0.022924 0.002741
# 6 0.002474 0.000966 -0.001574 0.001877 0.002741 0.018442
#
#
# Mechanical properties :
#
#
# Convention : Reuss Voigt Hill
#
# Bulk Modulus (GPa) = 70.10540 77.61902 73.86221
# Shear Modulus (GPa) = 49.25776 55.09595 52.17686
#
# Velocity S-wave (km/s) = 4.20726 4.44961 4.33013
# Velocity P-wave (km/s) = 6.98528 7.36828 7.17933
#
# Compressibility (1/GPa) = 0.01426424
#
# Stress axis : x y z
#
# Youngs Moduli (GPa) = 138.07568 107.63640 101.96118
#
# Poissons Ratio (x) = 0.21035 0.06431
# Poissons Ratio (y) = 0.26984 0.35209
# Poissons Ratio (z) = 0.08709 0.37169
#
# Static dielectric constant tensor:
#      x y z
#    x 2.238340 -0.019520 0.016150 
#    y -0.019520 2.167390 -0.005710 
#    z 0.016150 -0.005710 2.075710 
# 
# From -- ./inp_files/77844.got.cif
#   From: 2010.05.17/outbox.cif.g08.bks.cpg/sg2_39_cif.got.tgz:77844.got - 2010.06.03 11:33:40.
