data_PCOD9029015
_publ_section_title
;
Structure prediction by ZEFSAII (Michael W. Deem and Ramdas Pophale) SiO2 
 PCOD9029015
Probable space group: P -1
;
_chemical_formula_sum "Si O2"
_cell_formula_units_Z 16
_cell_length_a 15.091170
_cell_length_b 15.792699
_cell_length_c 8.147785
_cell_angle_alpha 82.216220
_cell_angle_beta 127.209475
_cell_angle_gamma 142.034381
_cell_volume 682.570931
_symmetry_space_group_name_H-M "P -1"
_symmetry_group_IT_number 2
_symmetry_cell_setting 'triclinic'
loop_
_space_group_symop_operation_xyz
x,y,z
-x,-y,-z
loop_
_atom_site_type_symbol
_atom_site_label
_atom_site_fract_x
_atom_site_fract_y
_atom_site_fract_z
Si Si1 0.129903 0.128549 0.776010
Si Si2 0.484667 0.007434 0.680052
Si Si3 0.747163 0.762918 0.589801
Si Si4 0.264997 0.426087 0.314296
Si Si5 0.433833 0.630997 0.982690
Si Si6 0.276143 0.689927 0.680358
Si Si7 0.032848 0.441328 0.170790
Si Si8 0.996741 0.772388 0.276292
O O1 0.421028 0.312323 0.021369
O O2 0.050516 0.171179 0.700716
O O3 0.000000 0.000000 0.500000
O O4 0.009022 0.990386 0.822724
O O5 0.500000 0.000000 0.500000
O O6 0.398013 0.863084 0.719505
O O7 0.276520 0.935022 0.507954
O O8 0.757394 0.226772 0.981615
O O9 0.563613 0.636821 0.572673
O O10 0.787006 0.691898 0.600422
O O11 0.575415 0.694412 0.284636
O O12 0.143894 0.432683 0.217839
O O13 0.137882 0.312802 0.028677
O O14 0.443489 0.739884 0.958901
O O15 0.151526 0.403305 0.743945
O O16 0.226507 0.604586 0.479944
O O17 0.000000 0.500000 0.500000
O O18 0.000000 0.500000 0.000000
#
# Coordination Sequence:
#
# PCOD9029015 Si02
#       8
#     2   2   2   2   2   2   2   2
#     4  10  23  39  66  99 133 184 234 290 362 427
#     4  12  25  48  76 109 147 194 245 300 368 441
#     4   9  22  42  66  95 138 179 238 290 351 427
#     4  10  22  42  66 100 135 186 239 290 357 432
#     4  10  23  44  68  95 147 181 232 298 363 426
#     4  12  27  48  73 111 146 192 245 304 371 435
#     4  12  27  45  77 106 148 191 244 303 366 433
#     4  11  22  42  70  97 141 188 237 303 357 430
#
# _framework density 23.440787
#
# number of rings (size 3 to 8) (size 9 to 14) (size 15 to 20)
#    0.000    1.250    3.750    0.375    5.250    7.000 
#    2.250    0.000    0.000    0.000    0.000    0.000 
#    0.000    0.000    0.000    0.000    0.000    0.000 
#
# Total GULP energy -89448.694066 kJ/mol
# GULP energy per Si atom -5590.543379 kJ/mol
# Density = 2.338743 g / cm^3
# Si number density = 23.440787 Si / 1000 Ang^3
#
#
#
# Elastic Constant Matrix: (Units=GPa)
#
#
# Indices 1 2 3 4 5 6 
#
# 1 120.6405 29.5388 35.4623 -8.1629 34.5606 -15.1136
# 2 29.5388 150.9995 29.5193 -3.9852 25.2883 -15.5327
# 3 35.4623 29.5193 60.9697 0.9070 15.0305 -15.5305
# 4 -8.1629 -3.9852 0.9070 46.2935 -0.1127 15.8500
# 5 34.5606 25.2883 15.0305 -0.1127 47.2272 0.2537
# 6 -15.1136 -15.5327 -15.5305 15.8500 0.2537 35.8691
#
#
#
# Elastic Compliance Matrix: (Units=1/GPa)
#
#
# Indices 1 2 3 4 5 6 
#
# 1 0.012203 0.000083 -0.004634 0.001328 -0.007511 0.002637
# 2 0.000083 0.007921 -0.002359 -0.000131 -0.003565 0.002527
# 3 -0.004634 -0.002359 0.023353 -0.004637 -0.002838 0.009206
# 4 0.001328 -0.000131 -0.004637 0.026433 0.000708 -0.013190
# 5 -0.007511 -0.003565 -0.002838 0.000708 0.029519 -0.006459
# 6 0.002637 0.002527 0.009206 -0.013190 -0.006459 0.039945
#
#
# Mechanical properties :
#
#
# Convention : Reuss Voigt Hill
#
# Bulk Modulus (GPa) = 33.71940 57.96114 45.84027
# Shear Modulus (GPa) = 30.65999 41.75058 36.20529
#
# Velocity S-wave (km/s) = 3.62052 4.22490 3.93433
# Velocity P-wave (km/s) = 5.64745 6.96993 6.34325
#
# Compressibility (1/GPa) = 0.02965652
#
# Stress axis : x y z
#
# Youngs Moduli (GPa) = 81.94768 126.24677 42.82139
#
# Poissons Ratio (x) = -0.01048 0.19845
# Poissons Ratio (y) = -0.00680 0.10101
# Poissons Ratio (z) = 0.37977 0.29779
#
# Static dielectric constant tensor:
#      x y z
#    x 1.927500 0.011680 0.024910 
#    y 0.011680 1.601180 0.215540 
#    z 0.024910 0.215540 1.821400 
# 
# From -- ./inp_files/315158.got.cif
#   From: 2010.05.17/outbox.cif.g08.bks.cpg/sg2_158_cif.got.tgz:315158.got - 2010.06.03 11:33:40.
