data_PCOD9029275
_publ_section_title
;
Structure prediction by ZEFSAII (Michael W. Deem and Ramdas Pophale) SiO2 
 PCOD9029275
Probable space group: P -1
;
_chemical_formula_sum "Si O2"
_cell_formula_units_Z 16
_cell_length_a 9.008204
_cell_length_b 14.665579
_cell_length_c 12.784885
_cell_angle_alpha 29.625398
_cell_angle_beta 78.220434
_cell_angle_gamma 69.992261
_cell_volume 768.556382
_symmetry_space_group_name_H-M "P -1"
_symmetry_group_IT_number 2
_symmetry_cell_setting 'triclinic'
loop_
_space_group_symop_operation_xyz
x,y,z
-x,-y,-z
loop_
_atom_site_type_symbol
_atom_site_label
_atom_site_fract_x
_atom_site_fract_y
_atom_site_fract_z
Si Si1 0.637925 0.955665 0.607739
Si Si2 0.721604 0.289377 0.384562
Si Si3 0.008022 0.220073 0.274390
Si Si4 0.908685 0.653165 0.452168
Si Si5 0.642204 0.006853 0.047479
Si Si6 0.397211 0.294925 0.943238
Si Si7 0.970711 0.664774 0.083231
Si Si8 0.108357 0.928865 0.213320
O O1 0.657557 0.153081 0.455871
O O2 0.500000 0.000000 0.500000
O O3 0.810979 0.817327 0.676765
O O4 0.597683 0.838871 0.824772
O O5 0.598289 0.494994 0.233301
O O6 0.796425 0.167630 0.598912
O O7 0.864188 0.338087 0.253079
O O8 0.994705 0.303281 0.075441
O O9 0.000000 0.000000 0.500000
O O10 0.733788 0.796010 0.297683
O O11 0.000000 0.500000 0.500000
O O12 0.919294 0.528615 0.680604
O O13 0.003642 0.802230 0.315587
O O14 0.500000 0.000000 0.000000
O O15 0.549606 0.177769 0.969570
O O16 0.771254 0.060942 0.905202
O O17 0.218182 0.324377 0.890442
O O18 0.988045 0.849267 0.959541
#
# Coordination Sequence:
#
# PCOD9029275 Si02
#       8
#     2   2   2   2   2   2   2   2
#     4  10  22  42  66  98 144 174 220 285 339 402
#     4  11  22  43  70  99 131 183 230 274 339 406
#     4   9  19  40  73  98 128 179 230 275 340 396
#     4  12  26  45  70 105 134 179 238 288 339 408
#     4  12  25  47  71  99 143 182 223 286 356 408
#     4  11  23  45  65  99 139 181 225 278 342 410
#     4  11  21  44  72 100 137 176 230 288 337 402
#     4  12  23  44  74  98 139 176 232 292 331 412
#
# _framework density 20.818251
#
# number of rings (size 3 to 8) (size 9 to 14) (size 15 to 20)
#    0.000    1.000    7.500    0.375    0.000    4.000 
#    4.500    0.000    0.000    0.000    0.000    0.000 
#    0.000    0.000    0.000    0.000    0.000    0.000 
#
# Total GULP energy -89437.768931 kJ/mol
# GULP energy per Si atom -5589.860558 kJ/mol
# Density = 2.077087 g / cm^3
# Si number density = 20.818251 Si / 1000 Ang^3
#
#
#
# Elastic Constant Matrix: (Units=GPa)
#
#
# Indices 1 2 3 4 5 6 
#
# 1 59.0776 -0.3828 81.5519 5.1350 36.7913 26.6164
# 2 -0.3828 10.2711 79.8752 -8.1344 47.1880 6.1768
# 3 81.5519 79.8752 148.5624 -2.0727 7.9212 -9.2763
# 4 5.1350 -8.1344 -2.0727 39.2749 0.6807 -10.6746
# 5 36.7913 47.1880 7.9212 0.6807 26.2719 -6.7404
# 6 26.6164 6.1768 -9.2763 -10.6746 -6.7404 35.5528
#
#
#
# Elastic Compliance Matrix: (Units=1/GPa)
#
#
# Indices 1 2 3 4 5 6 
#
# 1 0.021769 -0.022677 -0.001228 -0.011771 0.007109 -0.014864
# 2 -0.022677 0.015142 0.005349 0.011907 0.007984 0.020831
# 3 -0.001228 0.005349 0.005059 0.001708 -0.009448 0.000032
# 4 -0.011771 0.011907 0.001708 0.034239 -0.001915 0.017107
# 5 0.007109 0.007984 -0.009448 -0.001915 0.014889 -0.006926
# 6 -0.014864 0.020831 0.000032 0.017107 -0.006926 0.039468
#
#
# Mechanical properties :
#
#
# Convention : Reuss Voigt Hill
#
# Bulk Modulus (GPa) = 205.96017 59.99996 132.98007
# Shear Modulus (GPa) = 29.53359 24.01102 26.77231
#
# Velocity S-wave (km/s) = 3.77057 3.39981 3.58998
# Velocity P-wave (km/s) = 10.86754 6.65545 9.01106
#
# Compressibility (1/GPa) = 0.00485531
#
# Stress axis : x y z
#
# Youngs Moduli (GPa) = 45.93749 66.04268 197.65148
#
# Poissons Ratio (x) = 1.49768 0.24281
# Poissons Ratio (y) = 1.04174 -1.05717
# Poissons Ratio (z) = 0.05643 -0.35324
#
# Static dielectric constant tensor:
#      x y z
#    x 1.775810 0.013920 -0.014760 
#    y 0.013920 1.847910 0.000090 
#    z -0.014760 0.000090 1.729070 
# 
# From -- ./inp_files/398115.got.cif
#   From: 2010.05.17/outbox.cif.g08.bks.cpg/sg2_200_cif.got.tgz:398115.got - 2010.06.03 11:33:40.
