data_PCOD9029886
_publ_section_title
;
Structure prediction by ZEFSAII (Michael W. Deem and Ramdas Pophale) SiO2 
 PCOD9029886
Probable space group: P -1
;
_chemical_formula_sum "Si O2"
_cell_formula_units_Z 12
_cell_length_a 5.715726
_cell_length_b 20.080158
_cell_length_c 4.863016
_cell_angle_alpha 124.671182
_cell_angle_beta 88.076250
_cell_angle_gamma 87.702777
_cell_volume 457.583034
_symmetry_space_group_name_H-M "P -1"
_symmetry_group_IT_number 2
_symmetry_cell_setting 'triclinic'
loop_
_space_group_symop_operation_xyz
x,y,z
-x,-y,-z
loop_
_atom_site_type_symbol
_atom_site_label
_atom_site_fract_x
_atom_site_fract_y
_atom_site_fract_z
Si Si1 0.506272 0.665735 0.368051
Si Si2 0.432616 0.908160 0.611866
Si Si3 0.239940 0.824378 0.915817
Si Si4 0.824203 0.937858 0.236385
Si Si5 0.207223 0.374126 0.237873
Si Si6 0.182035 0.541264 0.883410
O O1 0.309906 0.731651 0.636177
O O2 0.729697 0.663062 0.556314
O O3 0.044064 0.611099 0.865256
O O4 0.378410 0.582535 0.145479
O O5 0.420000 0.870365 0.823738
O O6 0.667573 0.910338 0.429507
O O7 0.314251 0.000074 0.821167
O O8 0.280301 0.850593 0.289101
O O9 0.982161 0.862023 0.933085
O O10 0.000000 0.000000 0.500000
O O11 0.266006 0.467885 0.505397
O O12 0.383329 0.323858 0.910272
O O13 0.000000 0.500000 0.000000
#
# Coordination Sequence:
#
# PCOD9029886 Si02
#       6
#     2   2   2   2   2   2
#     4  12  26  43  67  98 143 180 220 287 352 404
#     4  10  22  42  68  98 131 179 230 279 334 405
#     4  11  24  43  62  99 140 179 222 280 351 407
#     4   9  21  41  71  97 131 176 230 279 331 406
#     4  11  25  44  68  98 131 176 232 283 339 408
#     4  11  25  44  73 100 127 179 240 281 336 409
#
# _framework density 26.224751999999999
#
# number of rings (size 3 to 8) (size 9 to 14) (size 15 to 20)
#    0.000    1.333    1.667    2.500    4.667   10.000 
#    3.000    1.667    0.000    0.000    0.000    0.000 
#    0.000    0.000    0.000    0.000    0.000    0.000 
#
# Total GULP energy -67160.192131 kJ/mol
# GULP energy per Si atom -5596.682678 kJ/mol
# Density = 2.616506 g / cm^3
# Si number density = 26.224752 Si / 1000 Ang^3
#
#
#
# Elastic Constant Matrix: (Units=GPa)
#
#
# Indices 1 2 3 4 5 6 
#
# 1 58.9530 15.3211 10.4848 0.7351 -5.3154 -23.4718
# 2 15.3211 63.9998 30.5721 -10.3384 3.1750 -16.0077
# 3 10.4848 30.5721 138.7822 7.4471 -25.1785 -29.7425
# 4 0.7351 -10.3384 7.4471 53.6327 -17.5973 -10.5406
# 5 -5.3154 3.1750 -25.1785 -17.5973 42.1992 4.4786
# 6 -23.4718 -16.0077 -29.7425 -10.5406 4.4786 35.3376
#
#
#
# Elastic Compliance Matrix: (Units=1/GPa)
#
#
# Indices 1 2 3 4 5 6 
#
# 1 0.024917 -0.002461 0.003402 0.004079 0.005051 0.018876
# 2 -0.002461 0.020490 -0.003733 0.004844 -0.002727 0.006296
# 3 0.003402 -0.003733 0.010978 0.001881 0.007038 0.009478
# 4 0.004079 0.004844 0.001881 0.025173 0.010424 0.012675
# 5 0.005051 -0.002727 0.007038 0.010424 0.032336 0.007055
# 6 0.018876 0.006296 0.009478 0.012675 0.007055 0.054552
#
#
# Mechanical properties :
#
#
# Convention : Reuss Voigt Hill
#
# Bulk Modulus (GPa) = 19.68432 41.61010 30.64721
# Shear Modulus (GPa) = 26.18306 39.92437 33.05371
#
# Velocity S-wave (km/s) = 3.16319 3.90602 3.55406
# Velocity P-wave (km/s) = 4.56764 6.02028 5.34355
#
# Compressibility (1/GPa) = 0.05080187
#
# Stress axis : x y z
#
# Youngs Moduli (GPa) = 40.13347 48.80414 91.09086
#
# Poissons Ratio (x) = 0.12010 -0.30993
# Poissons Ratio (y) = 0.09876 0.34007
# Poissons Ratio (z) = -0.13655 0.18220
#
# Static dielectric constant tensor:
#      x y z
#    x 2.152120 -0.052400 0.037140 
#    y -0.052400 2.044540 0.018260 
#    z 0.037140 0.018260 2.019560 
# 
# From -- ./inp_files/8586.got.cif
#   From: 2010.05.17/outbox.cif.g08.bks.cpg/sg2_5_cif.got.tgz:8586.got - 2010.06.03 11:33:40.
