data_PCOD9029593
_publ_section_title
;
Structure prediction by ZEFSAII (Michael W. Deem and Ramdas Pophale) SiO2 
 PCOD9029593
Probable space group: P -1
;
_chemical_formula_sum "Si O2"
_cell_formula_units_Z 16
_cell_length_a 12.125195
_cell_length_b 29.785060
_cell_length_c 27.813757
_cell_angle_alpha 170.198222
_cell_angle_beta 27.130374
_cell_angle_gamma 150.990486
_cell_volume 779.425738
_symmetry_space_group_name_H-M "P -1"
_symmetry_group_IT_number 2
_symmetry_cell_setting 'triclinic'
loop_
_space_group_symop_operation_xyz
x,y,z
-x,-y,-z
loop_
_atom_site_type_symbol
_atom_site_label
_atom_site_fract_x
_atom_site_fract_y
_atom_site_fract_z
Si Si1 0.014187 0.471897 0.118122
Si Si2 0.308396 0.089035 0.781400
Si Si3 0.792751 0.688959 0.839739
Si Si4 0.605001 0.118110 0.879524
Si Si5 0.211283 0.821941 0.752895
Si Si6 0.206677 0.044373 0.668884
Si Si7 0.136540 0.217880 0.646370
Si Si8 0.581743 0.588549 0.179564
O O1 0.070788 0.775176 0.426124
O O2 0.174707 0.399309 0.932534
O O3 0.742698 0.380228 0.116688
O O4 0.117836 0.283998 0.922365
O O5 0.155670 0.109574 0.813497
O O6 0.388099 0.781736 0.432078
O O7 0.217926 0.206740 0.991699
O O8 0.523901 0.285928 0.892084
O O9 0.730211 0.390890 0.535885
O O10 0.069863 0.705989 0.730748
O O11 0.586687 0.830293 0.035053
O O12 0.445399 0.991743 0.849709
O O13 0.804262 0.904735 0.557579
O O14 0.000000 0.000000 0.000000
O O15 0.500000 0.000000 0.500000
O O16 0.381037 0.274699 0.639726
O O17 0.000000 0.000000 0.500000
O O18 0.000000 0.500000 0.000000
#
# Coordination Sequence:
#
# PCOD9029593 Si02
#       8
#     2   2   2   2   2   2   2   2
#     4  12  25  39  62  91 129 177 216 255 312 371
#     4  12  24  39  67  87 126 167 219 264 306 372
#     4  10  22  42  67  99 122 165 213 270 334 383
#     4  11  24  39  64  93 134 168 207 266 326 392
#     4   9  21  42  66  97 125 160 209 266 336 394
#     4  12  24  43  60  86 129 178 226 259 298 366
#     4  12  25  35  54  92 136 170 197 246 317 388
#     4  12  22  37  57  91 122 171 212 257 308 367
#
# _framework density 20.527936
#
# number of rings (size 3 to 8) (size 9 to 14) (size 15 to 20)
#    0.000    0.750    5.000    2.625    7.000    0.000 
#    0.000    0.000    0.000    1.500    0.000    0.000 
#    0.000    0.000    0.000    0.000    0.000    0.000 
#
# Total GULP energy -89266.211086 kJ/mol
# GULP energy per Si atom -5579.138193 kJ/mol
# Density = 2.048121 g / cm^3
# Si number density = 20.527936 Si / 1000 Ang^3
#
#
#
# Elastic Constant Matrix: (Units=GPa)
#
#
# Indices 1 2 3 4 5 6 
#
# 1 79.6859 25.3034 18.3718 -2.2615 14.3073 -14.3009
# 2 25.3034 126.8156 28.3600 16.3204 17.4079 -0.4032
# 3 18.3718 28.3600 86.3651 13.3060 0.6806 -0.6952
# 4 -2.2615 16.3204 13.3060 30.4242 -0.3480 5.0081
# 5 14.3073 17.4079 0.6806 -0.3480 40.4021 6.0029
# 6 -14.3009 -0.4032 -0.6952 5.0081 6.0029 23.0661
#
#
#
# Elastic Compliance Matrix: (Units=1/GPa)
#
#
# Indices 1 2 3 4 5 6 
#
# 1 0.017390 -0.001972 -0.003153 0.001653 -0.007043 0.012126
# 2 -0.001972 0.009854 -0.002053 -0.004720 -0.003683 0.000871
# 3 -0.003153 -0.002053 0.013659 -0.004921 0.001877 -0.000999
# 4 0.001653 -0.004720 -0.004921 0.039113 0.003133 -0.008514
# 5 -0.007043 -0.003683 0.001877 0.003133 0.030768 -0.013062
# 6 0.012126 0.000871 -0.000999 -0.008514 -0.013062 0.056105
#
#
# Mechanical properties :
#
#
# Convention : Reuss Voigt Hill
#
# Bulk Modulus (GPa) = 37.66997 48.54855 43.10926
# Shear Modulus (GPa) = 26.30276 33.50058 29.90167
#
# Velocity S-wave (km/s) = 3.58343 4.04412 3.82073
# Velocity P-wave (km/s) = 5.95917 6.74596 6.36473
#
# Compressibility (1/GPa) = 0.02654634
#
# Stress axis : x y z
#
# Youngs Moduli (GPa) = 57.50371 101.48364 73.21199
#
# Poissons Ratio (x) = 0.20013 0.23086
# Poissons Ratio (y) = 0.11340 0.15030
# Poissons Ratio (z) = 0.18132 0.20834
#
# Static dielectric constant tensor:
#      x y z
#    x 1.797740 -0.004490 -0.038090 
#    y -0.004490 1.781000 0.020660 
#    z -0.038090 0.020660 1.790190 
# 
# From -- ./inp_files/459560.got.cif
#   From: 2010.05.17/outbox.cif.g08.bks.cpg/sg2_230_cif.got.tgz:459560.got - 2010.06.03 11:33:40.
