data_PCOD9029709
_publ_section_title
;
Structure prediction by ZEFSAII (Michael W. Deem and Ramdas Pophale) SiO2 
 PCOD9029709
Probable space group: P -1
;
_chemical_formula_sum "Si O2"
_cell_formula_units_Z 16
_cell_length_a 11.735227
_cell_length_b 13.124255
_cell_length_c 5.044805
_cell_angle_alpha 96.443686
_cell_angle_beta 101.778590
_cell_angle_gamma 62.569434
_cell_volume 674.956184
_symmetry_space_group_name_H-M "P -1"
_symmetry_group_IT_number 2
_symmetry_cell_setting 'triclinic'
loop_
_space_group_symop_operation_xyz
x,y,z
-x,-y,-z
loop_
_atom_site_type_symbol
_atom_site_label
_atom_site_fract_x
_atom_site_fract_y
_atom_site_fract_z
Si Si1 0.284662 0.290914 0.985150
Si Si2 0.857206 0.354815 0.785131
Si Si3 0.535040 0.113757 0.829830
Si Si4 0.875466 0.482047 0.335648
Si Si5 0.310702 0.133871 0.325853
Si Si6 0.127316 0.941160 0.728895
Si Si7 0.747562 0.191739 0.756795
Si Si8 0.876236 0.838194 0.339628
O O1 0.438985 0.206697 0.020586
O O2 0.231556 0.409795 0.846431
O O3 0.201353 0.230617 0.806804
O O4 0.256334 0.269522 0.266315
O O5 0.820739 0.450820 0.567422
O O6 0.746716 0.315706 0.794980
O O7 0.973456 0.246585 0.660045
O O8 0.910852 0.385924 0.090165
O O9 0.427673 0.117921 0.570935
O O10 0.630209 0.166108 0.790512
O O11 0.617652 0.976261 0.870017
O O12 0.000000 0.500000 0.500000
O O13 0.188718 0.121650 0.392272
O O14 0.228158 0.848994 0.547788
O O15 0.157052 0.048205 0.805388
O O16 0.136111 0.882598 0.998703
O O17 0.000000 0.000000 0.500000
#
# Coordination Sequence:
#
# PCOD9029709 Si02
#       8
#     2   2   2   2   2   2   2   2
#     4  11  25  41  72  99 141 185 241 301 354 409
#     4  12  28  45  72 104 142 184 242 289 360 415
#     4  10  23  42  69 103 144 191 230 288 352 430
#     4  12  28  50  73 105 138 186 244 307 353 410
#     4  10  22  42  68 108 143 186 234 286 355 431
#     4  12  25  42  67 106 148 189 229 276 359 437
#     4  12  26  45  70 101 150 190 228 290 349 434
#     4  11  24  37  69 106 143 180 227 292 355 431
#
# _framework density 23.705241999999998
#
# number of rings (size 3 to 8) (size 9 to 14) (size 15 to 20)
#    0.000    0.750    3.750    2.625    7.000    0.000 
#    0.000    1.250    0.000    0.000    0.000    0.000 
#    0.000    0.000    0.000    0.000    0.000    0.000 
#
# Total GULP energy -89142.264447 kJ/mol
# GULP energy per Si atom -5571.391528 kJ/mol
# Density = 2.365129 g / cm^3
# Si number density = 23.705242 Si / 1000 Ang^3
#
#
#
# Elastic Constant Matrix: (Units=GPa)
#
#
# Indices 1 2 3 4 5 6 
#
# 1 99.3023 20.8730 10.8509 0.6390 -4.1654 13.5285
# 2 20.8730 85.9352 29.4830 -15.2563 -11.6189 20.5156
# 3 10.8509 29.4830 103.8924 -19.7021 -12.4794 0.7014
# 4 0.6390 -15.2563 -19.7021 30.9029 5.2725 -13.8387
# 5 -4.1654 -11.6189 -12.4794 5.2725 25.7800 -10.2020
# 6 13.5285 20.5156 0.7014 -13.8387 -10.2020 30.5643
#
#
#
# Elastic Compliance Matrix: (Units=1/GPa)
#
#
# Indices 1 2 3 4 5 6 
#
# 1 0.011489 -0.001658 -0.001782 -0.004922 -0.001365 -0.006616
# 2 -0.001658 0.015876 -0.003894 0.001203 0.001245 -0.008873
# 3 -0.001782 -0.003894 0.013505 0.010005 0.006296 0.009724
# 4 -0.004922 0.001203 0.010005 0.049988 0.004350 0.025227
# 5 -0.001365 0.001245 0.006296 0.004350 0.048299 0.017715
# 6 -0.006616 -0.008873 0.009724 0.025227 0.017715 0.058714
#
#
# Mechanical properties :
#
#
# Convention : Reuss Voigt Hill
#
# Bulk Modulus (GPa) = 38.16822 45.72707 41.94764
# Shear Modulus (GPa) = 22.59646 32.64431 27.62039
#
# Velocity S-wave (km/s) = 3.09079 3.71495 3.41715
# Velocity P-wave (km/s) = 5.37340 6.14271 5.77089
#
# Compressibility (1/GPa) = 0.02619981
#
# Stress axis : x y z
#
# Youngs Moduli (GPa) = 87.03787 62.98952 74.04899
#
# Poissons Ratio (x) = 0.10445 0.13197
# Poissons Ratio (y) = 0.14433 0.28838
# Poissons Ratio (z) = 0.15511 0.24531
#
# Static dielectric constant tensor:
#      x y z
#    x 1.989890 -0.007690 -0.062450 
#    y -0.007690 1.964510 0.029370 
#    z -0.062450 0.029370 2.149550 
# 
# From -- ./inp_files/70642.got.cif
#   From: 2010.05.17/outbox.cif.g08.bks.cpg/sg2_36_cif.got.tgz:70642.got - 2010.06.03 11:33:40.
