data_PCOD9029403
_publ_section_title
;
Structure prediction by ZEFSAII (Michael W. Deem and Ramdas Pophale) SiO2 
 PCOD9029403
Probable space group: P -1
;
_chemical_formula_sum "Si O2"
_cell_formula_units_Z 16
_cell_length_a 8.980648
_cell_length_b 22.305464
_cell_length_c 23.091517
_cell_angle_alpha 17.561299
_cell_angle_beta 139.609840
_cell_angle_gamma 148.768868
_cell_volume 679.877699
_symmetry_space_group_name_H-M "P -1"
_symmetry_group_IT_number 2
_symmetry_cell_setting 'triclinic'
loop_
_space_group_symop_operation_xyz
x,y,z
-x,-y,-z
loop_
_atom_site_type_symbol
_atom_site_label
_atom_site_fract_x
_atom_site_fract_y
_atom_site_fract_z
Si Si1 0.501787 0.892158 0.305441
Si Si2 0.625324 0.338710 0.122215
Si Si3 0.554667 0.019466 0.921114
Si Si4 0.774491 0.487483 0.327262
Si Si5 0.304069 0.214811 0.734473
Si Si6 0.736632 0.964997 0.489001
Si Si7 0.855072 0.878875 0.729361
Si Si8 0.388661 0.196690 0.059555
O O1 0.420661 0.951324 0.167029
O O2 0.261004 0.626128 0.515218
O O3 0.573248 0.116394 0.163060
O O4 0.781949 0.904003 0.365718
O O5 0.314981 0.121834 0.266312
O O6 0.538088 0.358118 0.014299
O O7 0.195498 0.762844 0.738371
O O8 0.790987 0.605200 0.961540
O O9 0.297567 0.023544 0.864240
O O10 0.872302 0.295750 0.783533
O O11 0.543452 0.796672 0.152147
O O12 0.574278 0.249495 0.441283
O O13 0.646646 0.639323 0.145361
O O14 0.500000 0.500000 0.500000
O O15 0.957730 0.073054 0.779396
O O16 0.721943 0.884983 0.624328
O O17 0.000000 0.000000 0.500000
#
# Coordination Sequence:
#
# PCOD9029403 Si02
#       8
#     2   2   2   2   2   2   2   2
#     4  12  24  42  66  97 134 174 219 271 326 392
#     4  11  24  43  64  96 132 170 220 276 330 394
#     4  10  24  43  64  97 134 169 219 267 326 395
#     4  11  23  40  67  95 133 170 218 272 323 389
#     4  10  22  42  67  93 127 173 216 266 328 387
#     4  12  23  42  69  96 130 171 222 271 332 393
#     4  11  25  42  66  96 131 174 220 275 333 386
#     4  11  23  40  67  95 131 173 217 272 332 390
#
# _framework density 23.533643000000001
#
# number of rings (size 3 to 8) (size 9 to 14) (size 15 to 20)
#    0.000    1.000    3.750    2.250    1.750    4.000 
#    0.000    1.250    0.000    0.000    0.000    0.000 
#    0.000    0.000    0.000    0.000    0.000    0.000 
#
# Total GULP energy -89488.325675 kJ/mol
# GULP energy per Si atom -5593.020355 kJ/mol
# Density = 2.348008 g / cm^3
# Si number density = 23.533643 Si / 1000 Ang^3
#
#
#
# Elastic Constant Matrix: (Units=GPa)
#
#
# Indices 1 2 3 4 5 6 
#
# 1 97.7687 9.9019 19.3204 15.7076 -3.2291 0.3307
# 2 9.9019 52.6278 15.2979 15.8856 -8.0935 -11.6202
# 3 19.3204 15.2979 129.6691 26.0109 -12.0778 -10.8851
# 4 15.7076 15.8856 26.0109 35.7555 -2.8916 -9.7259
# 5 -3.2291 -8.0935 -12.0778 -2.8916 36.1494 9.8323
# 6 0.3307 -11.6202 -10.8851 -9.7259 9.8323 32.0206
#
#
#
# Elastic Compliance Matrix: (Units=1/GPa)
#
#
# Indices 1 2 3 4 5 6 
#
# 1 0.011238 -0.000910 -0.000777 -0.004537 0.000813 -0.002339
# 2 -0.000910 0.023273 -0.000277 -0.008145 0.003038 0.004954
# 3 -0.000777 -0.000277 0.009325 -0.005983 0.002360 0.000536
# 4 -0.004537 -0.008145 -0.005983 0.039892 -0.003260 0.008175
# 5 0.000813 0.003038 0.002360 -0.003260 0.031312 -0.008709
# 6 -0.002339 0.004954 0.000536 0.008175 -0.008709 0.038391
#
#
# Mechanical properties :
#
#
# Convention : Reuss Voigt Hill
#
# Bulk Modulus (GPa) = 25.05889 41.01177 33.03533
# Shear Modulus (GPa) = 29.29753 36.48812 32.89282
#
# Velocity S-wave (km/s) = 3.53217 3.94187 3.74263
# Velocity P-wave (km/s) = 5.22553 6.17920 5.72227
#
# Compressibility (1/GPa) = 0.03990600
#
# Stress axis : x y z
#
# Youngs Moduli (GPa) = 88.98571 42.96870 107.23470
#
# Poissons Ratio (x) = 0.03910 0.08337
# Poissons Ratio (y) = 0.08098 0.02975
# Poissons Ratio (z) = 0.06918 0.01192
#
# Static dielectric constant tensor:
#      x y z
#    x 1.878260 0.017360 -0.004070 
#    y 0.017360 1.896510 -0.002930 
#    z -0.004070 -0.002930 1.929220 
# 
# From -- ./inp_files/218171.got.cif
#   From: 2010.05.17/outbox.cif.g08.bks.cpg/sg2_110_cif.got.tgz:218171.got - 2010.06.03 11:33:40.
