data_PCOD9029220
_publ_section_title
;
Structure prediction by ZEFSAII (Michael W. Deem and Ramdas Pophale) SiO2 
 PCOD9029220
Probable space group: P -1
;
_chemical_formula_sum "Si O2"
_cell_formula_units_Z 16
_cell_length_a 9.117469
_cell_length_b 11.070722
_cell_length_c 9.103795
_cell_angle_alpha 54.340864
_cell_angle_beta 96.440516
_cell_angle_gamma 98.836577
_cell_volume 737.458702
_symmetry_space_group_name_H-M "P -1"
_symmetry_group_IT_number 2
_symmetry_cell_setting 'triclinic'
loop_
_space_group_symop_operation_xyz
x,y,z
-x,-y,-z
loop_
_atom_site_type_symbol
_atom_site_label
_atom_site_fract_x
_atom_site_fract_y
_atom_site_fract_z
Si Si1 0.606240 0.706658 0.525401
Si Si2 0.140980 0.617930 0.445811
Si Si3 0.379297 0.445134 0.752464
Si Si4 0.694916 0.643908 0.874471
Si Si5 0.510669 0.825902 0.142666
Si Si6 0.241843 0.643526 0.103054
Si Si7 0.996642 0.176700 0.206800
Si Si8 0.048691 0.171543 0.560810
O O1 0.528481 0.534754 0.635290
O O2 0.603750 0.733456 0.682729
O O3 0.506420 0.793087 0.341737
O O4 0.781107 0.746892 0.475642
O O5 0.253800 0.547051 0.617519
O O6 0.201964 0.628668 0.280822
O O7 0.000000 0.500000 0.500000
O O8 0.072015 0.762110 0.397322
O O9 0.356349 0.275859 0.808668
O O10 0.383637 0.428487 0.939326
O O11 0.749251 0.508996 0.878375
O O12 0.836860 0.754447 0.864269
O O13 0.394155 0.751260 0.061618
O O14 0.500000 0.000000 0.000000
O O15 0.118282 0.726156 0.949559
O O16 0.994537 0.187585 0.375674
O O17 0.954060 0.004046 0.283382
#
# Coordination Sequence:
#
# PCOD9029220 Si02
#       8
#     2   2   2   2   2   2   2   2
#     4  11  22  45  69  99 135 180 222 277 330 409
#     4  12  24  39  68 101 129 176 228 276 331 404
#     4  12  24  44  70 100 134 181 231 273 334 406
#     4  11  23  41  71  98 133 176 235 279 331 398
#     4  12  26  43  66  99 141 177 216 276 345 403
#     4  12  23  40  65  98 134 175 224 277 335 397
#     4  10  22  42  66  96 141 173 220 287 342 393
#     4  10  23  43  69  97 135 177 225 279 346 394
#
# _framework density 21.696131000000001
#
# number of rings (size 3 to 8) (size 9 to 14) (size 15 to 20)
#    0.000    0.750    2.500    6.375    0.000    1.500 
#    0.000    0.625    0.000    0.000    0.000    0.000 
#    0.000    0.000    0.000    0.000    0.000    0.000 
#
# Total GULP energy -89203.117496 kJ/mol
# GULP energy per Si atom -5575.194843 kJ/mol
# Density = 2.164675 g / cm^3
# Si number density = 21.696131 Si / 1000 Ang^3
#
#
#
# Elastic Constant Matrix: (Units=GPa)
#
#
# Indices 1 2 3 4 5 6 
#
# 1 68.4793 38.9135 34.5358 1.8599 -3.2697 6.7803
# 2 38.9135 106.8794 51.2792 -11.2291 -12.7211 -6.7961
# 3 34.5358 51.2792 152.9794 0.6477 11.3294 -0.5422
# 4 1.8599 -11.2291 0.6477 34.6626 5.2747 2.2761
# 5 -3.2697 -12.7211 11.3294 5.2747 34.3100 11.4795
# 6 6.7803 -6.7961 -0.5422 2.2761 11.4795 27.4195
#
#
#
# Elastic Compliance Matrix: (Units=1/GPa)
#
#
# Indices 1 2 3 4 5 6 
#
# 1 0.020865 -0.006706 -0.002746 -0.003259 0.003628 -0.008124
# 2 -0.006706 0.014784 -0.003775 0.004350 0.004402 0.003044
# 3 -0.002746 -0.003775 0.008817 -0.000590 -0.005199 0.002143
# 4 -0.003259 0.004350 -0.000590 0.030929 -0.003518 0.000778
# 5 0.003628 0.004402 -0.005199 -0.003518 0.038670 -0.015807
# 6 -0.008124 0.003044 0.002143 0.000778 -0.015807 0.045829
#
#
# Mechanical properties :
#
#
# Convention : Reuss Voigt Hill
#
# Bulk Modulus (GPa) = 55.52197 64.19947 59.86072
# Shear Modulus (GPa) = 25.99383 32.85240 29.42312
#
# Velocity S-wave (km/s) = 3.46509 3.89550 3.68658
# Velocity P-wave (km/s) = 6.45410 7.06313 6.76547
#
# Compressibility (1/GPa) = 0.01801089
#
# Stress axis : x y z
#
# Youngs Moduli (GPa) = 47.92732 67.64150 113.41257
#
# Poissons Ratio (x) = 0.45363 0.31143
# Poissons Ratio (y) = 0.32142 0.42815
# Poissons Ratio (z) = 0.13161 0.25536
#
# Static dielectric constant tensor:
#      x y z
#    x 1.867550 -0.048080 0.052640 
#    y -0.048080 1.863210 -0.011920 
#    z 0.052640 -0.011920 1.807750 
# 
# From -- ./inp_files/184382.got.cif
#   From: 2010.05.17/outbox.cif.g08.bks.cpg/sg2_93_cif.got.tgz:184382.got - 2010.06.03 11:33:40.
