data_PCOD9029691
_publ_section_title
;
Structure prediction by ZEFSAII (Michael W. Deem and Ramdas Pophale) SiO2 
 PCOD9029691
Probable space group: P -1
;
_chemical_formula_sum "Si O2"
_cell_formula_units_Z 12
_cell_length_a 9.211601
_cell_length_b 11.570296
_cell_length_c 5.193798
_cell_angle_alpha 62.066467
_cell_angle_beta 105.878057
_cell_angle_gamma 98.985465
_cell_volume 470.150017
_symmetry_space_group_name_H-M "P -1"
_symmetry_group_IT_number 2
_symmetry_cell_setting 'triclinic'
loop_
_space_group_symop_operation_xyz
x,y,z
-x,-y,-z
loop_
_atom_site_type_symbol
_atom_site_label
_atom_site_fract_x
_atom_site_fract_y
_atom_site_fract_z
Si Si1 0.572420 0.644996 0.927635
Si Si2 0.189025 0.748535 0.246511
Si Si3 0.687913 0.875018 0.384423
Si Si4 0.009827 0.238583 0.359865
Si Si5 0.429758 0.867365 0.898964
Si Si6 0.160122 0.459383 0.498534
O O1 0.629193 0.738433 0.624752
O O2 0.440950 0.733821 0.887073
O O3 0.500000 0.500000 0.000000
O O4 0.722707 0.625779 0.195390
O O5 0.116289 0.768705 0.469471
O O6 0.240917 0.600818 0.372151
O O7 0.060555 0.767542 0.948597
O O8 0.327251 0.839760 0.130105
O O9 0.865806 0.870128 0.438717
O O10 0.638130 0.002081 0.387067
O O11 0.598898 0.888296 0.061783
O O12 0.102155 0.376383 0.312283
O O13 0.000000 0.500000 0.500000
#
# Coordination Sequence:
#
# PCOD9029691 Si02
#       6
#     2   2   2   2   2   2
#     4  12  26  44  76 108 145 191 248 308 366 439
#     4  11  26  44  72 112 146 194 242 309 362 439
#     4  11  25  48  73 101 149 198 243 302 369 441
#     4  11  24  46  73 106 150 193 246 300 369 437
#     4  11  27  46  70 107 148 193 246 303 370 441
#     4  10  22  42  68 104 142 187 238 299 365 427
#
# _framework density 25.523769000000001
#
# number of rings (size 3 to 8) (size 9 to 14) (size 15 to 20)
#    0.000    1.000    1.667    4.000    9.333    2.667 
#    0.000    0.000    0.000    0.000    0.000    0.000 
#    0.000    0.000    0.000    0.000    0.000    0.000 
#
# Total GULP energy -67116.542876 kJ/mol
# GULP energy per Si atom -5593.045240 kJ/mol
# Density = 2.546568 g / cm^3
# Si number density = 25.523769 Si / 1000 Ang^3
#
#
#
# Elastic Constant Matrix: (Units=GPa)
#
#
# Indices 1 2 3 4 5 6 
#
# 1 99.9476 42.9990 44.1618 -13.8424 9.4386 -24.7744
# 2 42.9990 133.0647 26.7098 -35.2956 6.7636 -12.9737
# 3 44.1618 26.7098 103.8864 -9.9622 26.2526 -2.0019
# 4 -13.8424 -35.2956 -9.9622 33.0898 -1.6324 8.1894
# 5 9.4386 6.7636 26.2526 -1.6324 58.3861 -5.3402
# 6 -24.7744 -12.9737 -2.0019 8.1894 -5.3402 42.9702
#
#
#
# Elastic Compliance Matrix: (Units=1/GPa)
#
#
# Indices 1 2 3 4 5 6 
#
# 1 0.016005 -0.003399 -0.006176 -0.000759 0.001314 0.008222
# 2 -0.003399 0.011545 -0.000398 0.010907 -0.000360 -0.000616
# 3 -0.006176 -0.000398 0.013848 0.001899 -0.005502 -0.004082
# 4 -0.000759 0.010907 0.001899 0.043404 -0.001283 -0.005488
# 5 0.001314 -0.000360 -0.005502 -0.001283 0.019677 0.003083
# 6 0.008222 -0.000616 -0.004082 -0.005488 0.003083 0.029065
#
#
# Mechanical properties :
#
#
# Convention : Reuss Voigt Hill
#
# Bulk Modulus (GPa) = 46.61845 62.73780 54.67813
# Shear Modulus (GPa) = 31.12523 41.75776 36.44149
#
# Velocity S-wave (km/s) = 3.49587 4.04918 3.78265
# Velocity P-wave (km/s) = 5.88210 6.81870 6.36764
#
# Compressibility (1/GPa) = 0.02145073
#
# Stress axis : x y z
#
# Youngs Moduli (GPa) = 62.47954 86.61867 72.21377
#
# Poissons Ratio (x) = 0.29440 0.44602
# Poissons Ratio (y) = 0.21236 0.02876
# Poissons Ratio (z) = 0.38590 0.03450
#
# Static dielectric constant tensor:
#      x y z
#    x 2.022830 0.009760 -0.026070 
#    y 0.009760 2.123280 -0.005490 
#    z -0.026070 -0.005490 2.033120 
# 
# From -- ./inp_files/26101.got.cif
#   From: 2010.05.17/outbox.cif.g08.bks.cpg/sg2_14_cif.got.tgz:26101.got - 2010.06.03 11:33:40.
