data_PCOD9029577
_publ_section_title
;
Structure prediction by ZEFSAII (Michael W. Deem and Ramdas Pophale) SiO2 
 PCOD9029577
Probable space group: P -1
;
_chemical_formula_sum "Si O2"
_cell_formula_units_Z 14
_cell_length_a 16.992194
_cell_length_b 8.367399
_cell_length_c 11.540428
_cell_angle_alpha 47.880953
_cell_angle_beta 30.435523
_cell_angle_gamma 59.020066
_cell_volume 607.664681
_symmetry_space_group_name_H-M "P -1"
_symmetry_group_IT_number 2
_symmetry_cell_setting 'triclinic'
loop_
_space_group_symop_operation_xyz
x,y,z
-x,-y,-z
loop_
_atom_site_type_symbol
_atom_site_label
_atom_site_fract_x
_atom_site_fract_y
_atom_site_fract_z
Si Si1 0.917702 0.429142 0.898366
Si Si2 0.135055 0.855761 0.378248
Si Si3 0.545720 0.727071 0.764633
Si Si4 0.457537 0.131065 0.806768
Si Si5 0.153291 0.195498 0.807068
Si Si6 0.684672 0.538355 0.329826
Si Si7 0.224469 0.760569 0.047493
O O1 0.867241 0.425582 0.829351
O O2 0.061813 0.627521 0.640156
O O3 0.984061 0.216202 0.961081
O O4 0.768574 0.458144 0.150023
O O5 0.164612 0.790749 0.238926
O O6 0.000000 0.000000 0.500000
O O7 0.301085 0.004697 0.130084
O O8 0.714313 0.732069 0.492134
O O9 0.545011 0.938867 0.743628
O O10 0.500000 0.500000 0.000000
O O11 0.407564 0.740415 0.839385
O O12 0.568720 0.330732 0.631138
O O13 0.401592 0.265704 0.702449
O O14 0.185195 0.358865 0.795623
O O15 0.193722 0.972835 0.914954
#
# Coordination Sequence:
#
# PCOD9029577 Si02
#       7
#     2   2   2   2   2   2   2
#     4  12  25  42  67 103 141 177 226 283 344 408
#     4  11  21  42  64  98 136 176 221 282 340 398
#     4  11  24  44  68  97 139 177 229 284 344 410
#     4  10  22  42  67  98 132 175 229 272 344 399
#     4  12  23  42  69 102 135 180 231 286 334 404
#     4  11  23  41  71 100 135 180 231 278 338 407
#     4  11  24  42  67 100 134 187 225 277 346 407
#
# _framework density 23.039021000000002
#
# number of rings (size 3 to 8) (size 9 to 14) (size 15 to 20)
#    0.000    0.857    4.286    4.286    4.000    0.000 
#    0.000    4.286    0.000    0.000    0.000    0.000 
#    0.000    0.000    0.000    0.000    0.000    0.000 
#
# Total GULP energy -78242.501264 kJ/mol
# GULP energy per Si atom -5588.750090 kJ/mol
# Density = 2.298658 g / cm^3
# Si number density = 23.039021 Si / 1000 Ang^3
#
#
#
# Elastic Constant Matrix: (Units=GPa)
#
#
# Indices 1 2 3 4 5 6 
#
# 1 56.7466 6.6375 -19.5474 2.4942 -19.4502 -6.6100
# 2 6.6375 109.8012 11.2644 2.8153 2.9336 -7.6334
# 3 -19.5474 11.2644 86.2609 -3.7912 -8.9643 7.4208
# 4 2.4942 2.8153 -3.7912 53.9932 5.5236 3.0095
# 5 -19.4502 2.9336 -8.9643 5.5236 25.7298 -7.0497
# 6 -6.6100 -7.6334 7.4208 3.0095 -7.0497 24.1726
#
#
#
# Elastic Compliance Matrix: (Units=1/GPa)
#
#
# Indices 1 2 3 4 5 6 
#
# 1 0.037318 -0.003038 0.011074 -0.005720 0.038517 0.017791
# 2 -0.003038 0.009796 -0.002535 -0.000283 -0.003687 0.002001
# 3 0.011074 -0.002535 0.015780 -0.000892 0.014850 0.001825
# 4 -0.005720 -0.000283 -0.000892 0.020245 -0.010887 -0.007075
# 5 0.038517 -0.003687 0.014850 -0.010887 0.084342 0.030762
# 6 0.017791 0.002001 0.001825 -0.007075 0.030762 0.056158
#
#
# Mechanical properties :
#
#
# Convention : Reuss Voigt Hill
#
# Bulk Modulus (GPa) = 13.53248 27.72419 20.62833
# Shear Modulus (GPa) = 21.07310 37.74272 29.40791
#
# Velocity S-wave (km/s) = 3.02763 4.05187 3.57660
# Velocity P-wave (km/s) = 4.25541 5.82665 5.10188
#
# Compressibility (1/GPa) = 0.07389631
#
# Stress axis : x y z
#
# Youngs Moduli (GPa) = 26.79689 102.08300 63.37033
#
# Poissons Ratio (x) = 0.31008 -0.70176
# Poissons Ratio (y) = 0.08140 0.16066
# Poissons Ratio (z) = -0.29675 0.25881
#
# Static dielectric constant tensor:
#      x y z
#    x 1.860730 0.028630 -0.037800 
#    y 0.028630 1.885560 -0.058460 
#    z -0.037800 -0.058460 1.870600 
# 
# From -- ./inp_files/185009.got.cif
#   From: 2010.05.17/outbox.cif.g08.bks.cpg/sg2_93_cif.got.tgz:185009.got - 2010.06.03 11:33:40.
