data_PCOD9029268
_publ_section_title
;
Structure prediction by ZEFSAII (Michael W. Deem and Ramdas Pophale) SiO2 
 PCOD9029268
Probable space group: P -1
;
_chemical_formula_sum "Si O2"
_cell_formula_units_Z 15
_cell_length_a 12.119899
_cell_length_b 11.237604
_cell_length_c 18.008110
_cell_angle_alpha 136.271166
_cell_angle_beta 145.560979
_cell_angle_gamma 30.078978
_cell_volume 694.838840
_symmetry_space_group_name_H-M "P -1"
_symmetry_group_IT_number 2
_symmetry_cell_setting 'triclinic'
loop_
_space_group_symop_operation_xyz
x,y,z
-x,-y,-z
loop_
_atom_site_type_symbol
_atom_site_label
_atom_site_fract_x
_atom_site_fract_y
_atom_site_fract_z
Si Si1 0.500000 0.500000 0.000000
Si Si2 0.252514 0.443567 0.529365
Si Si3 0.574179 0.893165 0.647342
Si Si4 0.804956 0.756769 0.969633
Si Si5 0.670443 0.608392 0.285232
Si Si6 0.936338 0.459716 0.133300
Si Si7 0.210536 0.079092 0.810658
Si Si8 0.023243 0.078392 0.471149
O O1 0.354588 0.510976 0.848435
O O2 0.315153 0.481037 0.941785
O O3 0.435336 0.193142 0.476682
O O4 0.352189 0.438567 0.663540
O O5 0.205574 0.640988 0.543390
O O6 0.959389 0.529521 0.409505
O O7 0.832914 0.672813 0.736124
O O8 0.558585 0.107793 0.728010
O O9 0.308468 0.997456 0.589502
O O10 0.770295 0.918702 0.088352
O O11 0.000000 0.500000 0.000000
O O12 0.935062 0.723751 0.947993
O O13 0.505982 0.860997 0.842680
O O14 0.871336 0.688552 0.167489
O O15 0.007287 0.052286 0.665450
O O16 0.000000 0.000000 0.500000
#
# Coordination Sequence:
#
# PCOD9029268 Si02
#       8
#     1   2   2   2   2   2   2   2
#     4  12  26  44  66  98 136 184 232 284 340 400
#     4  10  22  45  66  94 136 175 225 280 333 404
#     4  11  23  43  69  96 130 179 224 276 342 405
#     4   9  21  41  65  92 135 178 219 277 341 409
#     4  10  24  44  66  95 133 177 228 282 332 397
#     4  11  24  41  65  97 138 177 228 283 339 407
#     4  10  22  42  66  98 138 173 221 284 347 406
#     4  11  24  38  68 102 131 173 217 280 345 409
#
# _framework density 21.587738999999999
#
# number of rings (size 3 to 8) (size 9 to 14) (size 15 to 20)
#    0.000    1.600    1.333    2.000    3.733    9.067 
#    0.000    0.000    0.000    0.000    0.000    0.000 
#    0.000    0.000    0.000    0.000    0.000    0.000 
#
# Total GULP energy -83501.421284 kJ/mol
# GULP energy per Si atom -5566.761419 kJ/mol
# Density = 2.153860 g / cm^3
# Si number density = 21.587739 Si / 1000 Ang^3
#
#
#
# Elastic Constant Matrix: (Units=GPa)
#
#
# Indices 1 2 3 4 5 6 
#
# 1 62.9274 2.1039 13.4094 -3.6832 -21.0620 6.4095
# 2 2.1039 45.1885 -5.7737 -17.9703 5.8126 3.4502
# 3 13.4094 -5.7737 96.2424 -5.1012 -17.7311 11.8847
# 4 -3.6832 -17.9703 -5.1012 15.0536 0.8388 -9.4680
# 5 -21.0620 5.8126 -17.7311 0.8388 37.2830 4.2156
# 6 6.4095 3.4502 11.8847 -9.4680 4.2156 20.8019
#
#
#
# Elastic Compliance Matrix: (Units=1/GPa)
#
#
# Indices 1 2 3 4 5 6 
#
# 1 0.022113 -0.007223 0.000602 -0.013558 0.015946 -0.015362
# 2 -0.007223 0.060840 0.001301 0.097350 -0.019623 0.039676
# 3 0.000602 0.001301 0.012875 -0.000219 0.007322 -0.009341
# 4 -0.013558 0.097350 -0.000219 0.251261 -0.041128 0.110852
# 5 0.015946 -0.019623 0.007322 -0.041128 0.047155 -0.034117
# 6 -0.015362 0.039676 -0.009341 0.110852 -0.034117 0.108930
#
#
# Mechanical properties :
#
#
# Convention : Reuss Voigt Hill
#
# Bulk Modulus (GPa) = 11.73842 24.87082 18.30462
# Shear Modulus (GPa) = 9.22153 27.60229 18.41191
#
# Velocity S-wave (km/s) = 2.06904 3.57964 2.92359
# Velocity P-wave (km/s) = 3.34025 5.35079 4.46028
#
# Compressibility (1/GPa) = 0.08519031
#
# Stress axis : x y z
#
# Youngs Moduli (GPa) = 45.22237 16.43646 77.66764
#
# Poissons Ratio (x) = 0.11871 -0.04675
# Poissons Ratio (y) = 0.32662 -0.10107
# Poissons Ratio (z) = -0.02722 -0.02139
#
# Static dielectric constant tensor:
#      x y z
#    x 1.788750 -0.035270 -0.025770 
#    y -0.035270 1.820130 0.024390 
#    z -0.025770 0.024390 1.821850 
# 
# From -- ./inp_files/408757.got.cif
#   From: 2010.05.17/outbox.cif.g08.bks.cpg/sg2_205_cif.got.tgz:408757.got - 2010.06.03 11:33:40.
