data_PCOD9029872
_publ_section_title
;
Structure prediction by ZEFSAII (Michael W. Deem and Ramdas Pophale) SiO2 
 PCOD9029872
Probable space group: P -1
;
_chemical_formula_sum "Si O2"
_cell_formula_units_Z 16
_cell_length_a 15.980744
_cell_length_b 13.450509
_cell_length_c 8.023465
_cell_angle_alpha 34.706501
_cell_angle_beta 49.493185
_cell_angle_gamma 49.916014
_cell_volume 722.137464
_symmetry_space_group_name_H-M "P -1"
_symmetry_group_IT_number 2
_symmetry_cell_setting 'triclinic'
loop_
_space_group_symop_operation_xyz
x,y,z
-x,-y,-z
loop_
_atom_site_type_symbol
_atom_site_label
_atom_site_fract_x
_atom_site_fract_y
_atom_site_fract_z
Si Si1 0.481318 0.779651 0.996711
Si Si2 0.914498 0.685036 0.279260
Si Si3 0.673133 0.908282 0.405216
Si Si4 0.098800 0.327132 0.075944
Si Si5 0.692105 0.118204 0.436854
Si Si6 0.656387 0.767205 0.084013
Si Si7 0.051135 0.967849 0.791796
Si Si8 0.517843 0.568459 0.701291
O O1 0.554283 0.772424 0.079591
O O2 0.450347 0.595268 0.244158
O O3 0.574825 0.805768 0.703336
O O4 0.372441 0.947721 0.881008
O O5 0.796584 0.771305 0.411880
O O6 0.000000 0.500000 0.500000
O O7 0.880979 0.667991 0.154642
O O8 0.979848 0.843941 0.970833
O O9 0.670815 0.033491 0.401408
O O10 0.058753 0.153953 0.435676
O O11 0.217682 0.338385 0.991427
O O12 0.000000 0.500000 0.000000
O O13 0.817643 0.141905 0.227365
O O14 0.603554 0.296863 0.360950
O O15 0.675621 0.965604 0.797236
O O16 0.613703 0.679263 0.419322
O O17 0.000000 0.000000 0.000000
O O18 0.500000 0.500000 0.000000
#
# Coordination Sequence:
#
# PCOD9029872 Si02
#       8
#     2   2   2   2   2   2   2   2
#     4  10  23  42  69  96 140 176 226 276 343 404
#     4  12  27  43  74 100 140 184 237 285 355 411
#     4  10  22  43  67 100 136 180 218 280 343 403
#     4  11  27  46  70 104 138 184 233 292 347 417
#     4  10  22  42  68  97 140 177 220 281 339 407
#     4  10  25  45  66  96 141 181 221 282 345 407
#     4  11  23  45  70 101 139 181 234 285 349 413
#     4  12  24  38  67 106 131 175 233 278 337 404
#
# _framework density 22.156445999999999
#
# number of rings (size 3 to 8) (size 9 to 14) (size 15 to 20)
#    0.000    1.250    2.500    1.875    7.000    4.000 
#    0.000    0.000    0.000    0.000    0.000    0.000 
#    0.000    0.000    0.000    0.000    0.000    0.000 
#
# Total GULP energy -89347.199132 kJ/mol
# GULP energy per Si atom -5584.199946 kJ/mol
# Density = 2.210602 g / cm^3
# Si number density = 22.156446 Si / 1000 Ang^3
#
#
#
# Elastic Constant Matrix: (Units=GPa)
#
#
# Indices 1 2 3 4 5 6 
#
# 1 65.4839 26.8744 19.0312 11.5140 -2.1836 -16.9051
# 2 26.8744 109.3415 33.9118 -2.4634 7.4751 -34.0305
# 3 19.0312 33.9118 108.3025 14.6124 8.1012 -22.1344
# 4 11.5140 -2.4634 14.6124 23.9345 -2.0382 8.9310
# 5 -2.1836 7.4751 8.1012 -2.0382 30.6799 4.4817
# 6 -16.9051 -34.0305 -22.1344 8.9310 4.4817 43.3913
#
#
#
# Elastic Compliance Matrix: (Units=1/GPa)
#
#
# Indices 1 2 3 4 5 6 
#
# 1 0.021222 -0.002847 0.001220 -0.014946 -0.000541 0.009789
# 2 -0.002847 0.013464 -0.001489 -0.000138 -0.004440 0.009177
# 3 0.001220 -0.001489 0.013582 -0.013025 -0.005386 0.009473
# 4 -0.014946 -0.000138 -0.013025 0.068198 0.010993 -0.027748
# 5 -0.000541 -0.004440 -0.005386 0.010993 0.037629 -0.012589
# 6 0.009789 0.009177 0.009473 -0.027748 -0.012589 0.045901
#
#
# Mechanical properties :
#
#
# Convention : Reuss Voigt Hill
#
# Bulk Modulus (GPa) = 23.78996 49.19585 36.49290
# Shear Modulus (GPa) = 22.70240 33.15518 27.92879
#
# Velocity S-wave (km/s) = 3.20447 3.87255 3.55424
# Velocity P-wave (km/s) = 4.94491 6.49981 5.77493
#
# Compressibility (1/GPa) = 0.04203455
#
# Stress axis : x y z
#
# Youngs Moduli (GPa) = 47.12089 74.27170 73.62946
#
# Poissons Ratio (x) = 0.21148 -0.08984
# Poissons Ratio (y) = 0.13417 0.10965
# Poissons Ratio (z) = -0.05749 0.11061
#
# Static dielectric constant tensor:
#      x y z
#    x 1.920400 -0.014970 0.079940 
#    y -0.014970 1.877090 -0.006640 
#    z 0.079940 -0.006640 1.861510 
# 
# From -- ./inp_files/335581.got.cif
#   From: 2010.05.17/outbox.cif.g08.bks.cpg/sg2_168_cif.got.tgz:335581.got - 2010.06.03 11:33:40.
