data_PCOD9029232
_publ_section_title
;
Structure prediction by ZEFSAII (Michael W. Deem and Ramdas Pophale) SiO2 
 PCOD9029232
Probable space group: P -1
;
_chemical_formula_sum "Si O2"
_cell_formula_units_Z 14
_cell_length_a 17.175167
_cell_length_b 20.730531
_cell_length_c 17.492805
_cell_angle_alpha 161.860265
_cell_angle_beta 22.459790
_cell_angle_gamma 161.253109
_cell_volume 604.602350
_symmetry_space_group_name_H-M "P -1"
_symmetry_group_IT_number 2
_symmetry_cell_setting 'triclinic'
loop_
_space_group_symop_operation_xyz
x,y,z
-x,-y,-z
loop_
_atom_site_type_symbol
_atom_site_label
_atom_site_fract_x
_atom_site_fract_y
_atom_site_fract_z
Si Si1 0.047167 0.689170 0.856674
Si Si2 0.792518 0.709004 0.958787
Si Si3 0.364919 0.260485 0.255421
Si Si4 0.114645 0.272417 0.278523
Si Si5 0.601598 0.377008 0.021500
Si Si6 0.103458 0.736405 0.280177
Si Si7 0.694810 0.210060 0.001117
O O1 0.826797 0.593137 0.009919
O O2 0.126495 0.495860 0.563829
O O3 0.937688 0.685586 0.869599
O O4 0.267484 0.973936 0.998246
O O5 0.500000 0.500000 0.000000
O O6 0.876524 0.681049 0.767515
O O7 0.870962 0.997551 0.212467
O O8 0.552384 0.328390 0.230795
O O9 0.110381 0.232901 0.466982
O O10 0.525439 0.441262 0.242755
O O11 0.349149 0.259669 0.070210
O O12 0.697510 0.207031 0.771738
O O13 0.947164 0.432311 0.063354
O O14 0.224871 0.864974 0.233056
O O15 0.500000 0.000000 0.000000
#
# Coordination Sequence:
#
# PCOD9029232 Si02
#       7
#     2   2   2   2   2   2   2
#     4  12  25  42  68 100 133 179 221 270 339 390
#     4  11  24  47  68  99 129 176 224 273 337 390
#     4  11  24  42  65 100 137 176 221 274 331 391
#     4  11  25  45  68  97 136 172 225 278 325 400
#     4  11  23  41  66  98 132 175 220 272 329 388
#     4  10  23  42  67  98 136 172 224 275 319 395
#     4  10  22  42  66  97 132 179 222 268 332 384
#
# _framework density 23.155715000000001
#
# number of rings (size 3 to 8) (size 9 to 14) (size 15 to 20)
#    0.000    1.143    2.857    2.571    0.000    5.714 
#    0.000    0.000    0.000    0.000    0.000    0.000 
#    0.000    0.000    0.000    0.000    0.000    0.000 
#
# Total GULP energy -78233.544669 kJ/mol
# GULP energy per Si atom -5588.110334 kJ/mol
# Density = 2.310301 g / cm^3
# Si number density = 23.155715 Si / 1000 Ang^3
#
#
#
# Elastic Constant Matrix: (Units=GPa)
#
#
# Indices 1 2 3 4 5 6 
#
# 1 102.5080 42.3598 23.0114 -13.4142 -7.5811 -23.3476
# 2 42.3598 143.1345 37.5895 -18.7924 0.9788 -14.5153
# 3 23.0114 37.5895 113.0365 -21.7091 -3.7695 -2.3509
# 4 -13.4142 -18.7924 -21.7091 35.9906 3.6302 10.9302
# 5 -7.5811 0.9788 -3.7695 3.6302 17.1353 -8.7399
# 6 -23.3476 -14.5153 -2.3509 10.9302 -8.7399 47.7765
#
#
#
# Elastic Compliance Matrix: (Units=1/GPa)
#
#
# Indices 1 2 3 4 5 6 
#
# 1 0.013750 -0.003075 -0.001414 -0.000685 0.010024 0.007706
# 2 -0.003075 0.008744 -0.001881 0.002588 -0.002849 -0.000052
# 3 -0.001414 -0.001881 0.010794 0.005685 -0.000424 -0.002109
# 4 -0.000685 0.002588 0.005685 0.036489 -0.011929 -0.009799
# 5 0.010024 -0.002849 -0.000424 -0.011929 0.075912 0.020628
# 6 0.007706 -0.000052 -0.002109 -0.009799 0.020628 0.030592
#
#
# Mechanical properties :
#
#
# Convention : Reuss Voigt Hill
#
# Bulk Modulus (GPa) = 48.66303 62.73337 55.69820
# Shear Modulus (GPa) = 25.52701 37.22837 31.37769
#
# Velocity S-wave (km/s) = 3.32385 4.01401 3.68513
# Velocity P-wave (km/s) = 5.98263 6.97380 6.49714
#
# Compressibility (1/GPa) = 0.02054948
#
# Stress axis : x y z
#
# Youngs Moduli (GPa) = 72.72594 114.35782 92.64596
#
# Poissons Ratio (x) = 0.35166 0.13096
# Poissons Ratio (y) = 0.22364 0.17426
# Poissons Ratio (z) = 0.10280 0.21509
#
# Static dielectric constant tensor:
#      x y z
#    x 1.903690 -0.006590 0.025440 
#    y -0.006590 1.839830 0.016030 
#    z 0.025440 0.016030 1.896700 
# 
# From -- ./inp_files/120355.got.cif
#   From: 2010.05.17/outbox.cif.g08.bks.cpg/sg2_61_cif.got.tgz:120355.got - 2010.06.03 11:33:40.
