data_PCOD9029252
_publ_section_title
;
Structure prediction by ZEFSAII (Michael W. Deem and Ramdas Pophale) SiO2 
 PCOD9029252
Probable space group: P -1
;
_chemical_formula_sum "Si O2"
_cell_formula_units_Z 12
_cell_length_a 5.137343
_cell_length_b 13.860268
_cell_length_c 12.385398
_cell_angle_alpha 127.075422
_cell_angle_beta 66.935365
_cell_angle_gamma 127.429889
_cell_volume 558.294431
_symmetry_space_group_name_H-M "P -1"
_symmetry_group_IT_number 2
_symmetry_cell_setting 'triclinic'
loop_
_space_group_symop_operation_xyz
x,y,z
-x,-y,-z
loop_
_atom_site_type_symbol
_atom_site_label
_atom_site_fract_x
_atom_site_fract_y
_atom_site_fract_z
Si Si1 0.685526 0.099472 0.693622
Si Si2 0.851993 0.518860 0.426741
Si Si3 0.730126 0.938045 0.777176
Si Si4 0.204947 0.733971 0.871616
Si Si5 0.687750 0.814718 0.049889
Si Si6 0.932950 0.184882 0.487054
O O1 0.540400 0.197385 0.819631
O O2 0.947384 0.168249 0.602156
O O3 0.784033 0.052033 0.754804
O O4 0.393671 0.953122 0.594818
O O5 0.500000 0.500000 0.500000
O O6 0.836429 0.405979 0.268514
O O7 0.000000 0.500000 0.500000
O O8 0.062990 0.674952 0.450023
O O9 0.379531 0.856906 0.836011
O O10 0.784772 0.823953 0.629864
O O11 0.013116 0.024604 0.877258
O O12 0.462863 0.781081 0.959078
O O13 0.869420 0.725352 0.956407
#
# Coordination Sequence:
#
# PCOD9029252 Si02
#       6
#     2   2   2   2   2   2
#     4  10  22  42  66  98 132 170 216 268 319 385
#     4  12  25  46  67  96 131 168 217 266 322 385
#     4  11  21  38  69  93 134 161 221 268 322 372
#     4  12  24  39  66  95 131 167 213 264 324 379
#     4  11  24  40  62  97 130 170 211 262 324 379
#     4  10  23  41  67  99 127 174 216 270 319 377
#
# _framework density 21.494033999999999
#
# number of rings (size 3 to 8) (size 9 to 14) (size 15 to 20)
#    0.000    1.000    3.333    3.500    4.667    0.000 
#    0.000    1.667    0.000    0.000    0.000    0.000 
#    0.000    0.000    0.000    0.000    0.000    0.000 
#
# Total GULP energy -67069.902086 kJ/mol
# GULP energy per Si atom -5589.158507 kJ/mol
# Density = 2.144511 g / cm^3
# Si number density = 21.494034 Si / 1000 Ang^3
#
#
#
# Elastic Constant Matrix: (Units=GPa)
#
#
# Indices 1 2 3 4 5 6 
#
# 1 107.5984 26.4332 57.8393 -3.0544 0.4187 -27.4819
# 2 26.4332 54.9928 53.7831 2.5444 1.1536 -15.8308
# 3 57.8393 53.7831 189.2807 12.8608 -11.1556 -12.0662
# 4 -3.0544 2.5444 12.8608 18.0366 -13.3689 -4.5668
# 5 0.4187 1.1536 -11.1556 -13.3689 31.6848 -2.8996
# 6 -27.4819 -15.8308 -12.0662 -4.5668 -2.8996 20.9647
#
#
#
# Elastic Compliance Matrix: (Units=1/GPa)
#
#
# Indices 1 2 3 4 5 6 
#
# 1 0.021009 0.004883 -0.006649 0.023969 0.010434 0.034064
# 2 0.004883 0.033016 -0.009701 0.013018 0.003470 0.029065
# 3 -0.006649 -0.009701 0.009898 -0.011871 -0.002295 -0.013248
# 4 0.023969 0.013018 -0.011871 0.122876 0.053147 0.068535
# 5 0.010434 0.003470 -0.002295 0.053147 0.056053 0.034307
# 6 0.034064 0.029065 -0.013248 0.068535 0.034307 0.126349
#
#
# Mechanical properties :
#
#
# Convention : Reuss Voigt Hill
#
# Bulk Modulus (GPa) = 24.39660 69.77589 47.08625
# Shear Modulus (GPa) = 12.32140 28.39166 20.35653
#
# Velocity S-wave (km/s) = 2.39686 3.63837 3.08080
# Velocity P-wave (km/s) = 4.36291 7.08405 5.88297
#
# Compressibility (1/GPa) = 0.04098932
#
# Stress axis : x y z
#
# Youngs Moduli (GPa) = 47.59916 30.28827 101.02842
#
# Poissons Ratio (x) = -0.14790 0.67177
# Poissons Ratio (y) = -0.23243 0.98004
# Poissons Ratio (z) = 0.31650 0.29382
#
# Static dielectric constant tensor:
#      x y z
#    x 1.804010 -0.017460 -0.008590 
#    y -0.017460 1.756890 -0.012810 
#    z -0.008590 -0.012810 1.800680 
# 
# From -- ./inp_files/61762.got.cif
#   From: 2010.05.17/outbox.cif.g08.bks.cpg/sg2_31_cif.got.tgz:61762.got - 2010.06.03 11:33:40.
