data_PCOD9029889
_publ_section_title
;
Structure prediction by ZEFSAII (Michael W. Deem and Ramdas Pophale) SiO2 
 PCOD9029889
Probable space group: P -1
;
_chemical_formula_sum "Si O2"
_cell_formula_units_Z 12
_cell_length_a 5.631079
_cell_length_b 11.506236
_cell_length_c 9.719954
_cell_angle_alpha 128.116443
_cell_angle_beta 85.140600
_cell_angle_gamma 72.675306
_cell_volume 441.742142
_symmetry_space_group_name_H-M "P -1"
_symmetry_group_IT_number 2
_symmetry_cell_setting 'triclinic'
loop_
_space_group_symop_operation_xyz
x,y,z
-x,-y,-z
loop_
_atom_site_type_symbol
_atom_site_label
_atom_site_fract_x
_atom_site_fract_y
_atom_site_fract_z
Si Si1 0.688677 0.982110 0.109406
Si Si2 0.199263 0.254492 0.608575
Si Si3 0.628143 0.647988 0.595683
Si Si4 0.766359 0.326082 0.196687
Si Si5 0.214809 0.624972 0.056465
Si Si6 0.629265 0.101024 0.699972
O O1 0.585293 0.911189 0.191185
O O2 0.636873 0.169895 0.286913
O O3 0.981438 0.850825 0.951640
O O4 0.500000 0.000000 0.000000
O O5 0.193505 0.314335 0.497109
O O6 0.479170 0.189461 0.631509
O O7 0.988354 0.365229 0.811179
O O8 0.167279 0.086588 0.474709
O O9 0.741362 0.451252 0.413222
O O10 0.536518 0.656636 0.766975
O O11 0.808037 0.417807 0.129857
O O12 0.226254 0.799440 0.170426
O O13 0.500000 0.500000 0.000000
#
# Coordination Sequence:
#
# PCOD9029889 Si02
#       6
#     2   2   2   2   2   2
#     4  11  23  44  70  99 134 182 223 275 339 396
#     4  10  22  45  67  97 136 173 222 282 325 398
#     4  10  24  44  68  99 133 181 219 278 340 387
#     4  11  24  46  68  97 141 174 224 283 326 403
#     4  12  25  41  69 101 131 179 223 269 342 400
#     4  10  22  42  68  98 132 175 225 273 337 390
#
# _framework density 27.165171999999998
#
# number of rings (size 3 to 8) (size 9 to 14) (size 15 to 20)
#    0.000    1.333    1.667    3.000    2.333    2.000 
#   21.000    0.000    0.000    0.000    0.000    0.000 
#    0.000    0.000    0.000    0.000    0.000    0.000 
#
# Total GULP energy -66843.097931 kJ/mol
# GULP energy per Si atom -5570.258161 kJ/mol
# Density = 2.710334 g / cm^3
# Si number density = 27.165172 Si / 1000 Ang^3
#
#
#
# Elastic Constant Matrix: (Units=GPa)
#
#
# Indices 1 2 3 4 5 6 
#
# 1 46.7550 42.3633 48.1814 -9.8849 -4.9984 -4.2441
# 2 42.3633 106.3604 71.3300 -13.9388 -23.7346 10.3638
# 3 48.1814 71.3300 206.5312 -9.2808 -39.9282 10.0144
# 4 -9.8849 -13.9388 -9.2808 61.1062 22.7693 -6.0187
# 5 -4.9984 -23.7346 -39.9282 22.7693 49.6520 -0.9862
# 6 -4.2441 10.3638 10.0144 -6.0187 -0.9862 45.7481
#
#
#
# Elastic Compliance Matrix: (Units=1/GPa)
#
#
# Indices 1 2 3 4 5 6 
#
# 1 0.044376 -0.015263 -0.007619 0.008192 -0.012513 0.010050
# 2 -0.015263 0.018107 -0.001197 -0.001566 0.006769 -0.005316
# 3 -0.007619 -0.001197 0.008307 -0.002969 0.006653 -0.002501
# 4 0.008192 -0.001566 -0.002969 0.021881 -0.012259 0.004379
# 5 -0.012513 0.006769 0.006653 -0.012259 0.032988 -0.005052
# 6 0.010050 -0.005316 -0.002501 0.004379 -0.005052 0.025010
#
#
# Mechanical properties :
#
#
# Convention : Reuss Voigt Hill
#
# Bulk Modulus (GPa) = 44.18658 75.93289 60.05974
# Shear Modulus (GPa) = 24.22821 44.48605 34.35713
#
# Velocity S-wave (km/s) = 2.98968 4.05113 3.56019
# Velocity P-wave (km/s) = 5.31214 7.06366 6.24956
#
# Compressibility (1/GPa) = 0.02263130
#
# Stress axis : x y z
#
# Youngs Moduli (GPa) = 22.53487 55.22640 120.38339
#
# Poissons Ratio (x) = 0.84292 0.91723
# Poissons Ratio (y) = 0.34395 0.14410
# Poissons Ratio (z) = 0.17170 0.06611
#
# Static dielectric constant tensor:
#      x y z
#    x 3.017170 0.558170 0.289560 
#    y 0.558170 2.498310 0.138960 
#    z 0.289560 0.138960 2.247100 
# 
# From -- ./inp_files/36580.got.cif
#   From: 2010.05.17/outbox.cif.g08.bks.cpg/sg2_19_cif.got.tgz:36580.got - 2010.06.03 11:33:40.
