data_PCOD9029509
_publ_section_title
;
Structure prediction by ZEFSAII (Michael W. Deem and Ramdas Pophale) SiO2 
 PCOD9029509
Probable space group: P -1
;
_chemical_formula_sum "Si O2"
_cell_formula_units_Z 10
_cell_length_a 14.887810
_cell_length_b 13.454587
_cell_length_c 8.138523
_cell_angle_alpha 127.220852
_cell_angle_beta 123.138032
_cell_angle_gamma 20.152188
_cell_volume 445.898763
_symmetry_space_group_name_H-M "P -1"
_symmetry_group_IT_number 2
_symmetry_cell_setting 'triclinic'
loop_
_space_group_symop_operation_xyz
x,y,z
-x,-y,-z
loop_
_atom_site_type_symbol
_atom_site_label
_atom_site_fract_x
_atom_site_fract_y
_atom_site_fract_z
Si Si1 0.754926 0.733885 0.602635
Si Si2 0.000001 0.249998 0.573196
Si Si3 0.728353 0.354443 0.629306
Si Si4 0.245076 0.766112 0.125014
Si Si5 0.728354 0.854442 0.036285
O O1 0.841249 0.516410 0.567852
O O2 0.000000 0.500000 0.500000
O O3 0.717641 0.876799 0.851419
O O4 0.500000 0.000000 0.500000
O O5 0.777838 0.425704 0.644713
O O6 0.222162 0.074296 0.737631
O O7 0.158755 0.983585 0.352533
O O8 0.500000 0.500000 0.500000
O O9 0.717641 0.376800 0.837462
O O10 0.000000 0.000000 0.500000
O O11 0.500000 0.500000 0.000000
O O12 0.000000 0.000000 0.000000
O O13 0.000000 0.500000 0.000000
O O14 0.500000 0.000000 0.000000
#
# Coordination Sequence:
#
# PCOD9029509 Si02
#       5
#     2   2   2   2   2
#     4  11  24  43  68 105 138 175 235 290 338 408
#     4  10  24  46  70  98 146 192 220 284 352 404
#     4  10  22  42  67  96 132 181 231 273 339 425
#     4  11  24  43  68 105 138 175 235 290 338 408
#     4  10  22  42  67  96 132 181 231 273 339 425
#
# _framework density 22.426617
#
# number of rings (size 3 to 8) (size 9 to 14) (size 15 to 20)
#    0.000    1.600    0.000    4.800    0.000   16.000 
#    0.000    8.000    0.000    0.000    0.000    0.000 
#    0.000    0.000    0.000    0.000    0.000    0.000 
#
# Total GULP energy -55832.151429 kJ/mol
# GULP energy per Si atom -5583.215143 kJ/mol
# Density = 2.237557 g / cm^3
# Si number density = 22.426617 Si / 1000 Ang^3
#
#
#
# Elastic Constant Matrix: (Units=GPa)
#
#
# Indices 1 2 3 4 5 6 
#
# 1 209.3141 84.8089 66.3880 -13.2100 -31.7650 -20.6821
# 2 84.8089 195.4358 81.3414 -33.2203 -12.7952 -41.3750
# 3 66.3880 81.3414 216.2336 -26.4917 -17.1784 -18.0954
# 4 -13.2100 -33.2203 -26.4917 49.9882 1.6330 0.9823
# 5 -31.7650 -12.7952 -17.1784 1.6330 46.8217 2.9024
# 6 -20.6821 -41.3750 -18.0954 0.9823 2.9024 53.9317
#
#
#
# Elastic Compliance Matrix: (Units=1/GPa)
#
#
# Indices 1 2 3 4 5 6 
#
# 1 0.006493 -0.002208 -0.000905 -0.000350 0.003463 0.000313
# 2 -0.002208 0.008506 -0.001609 0.004124 -0.000222 0.005075
# 3 -0.000905 -0.001609 0.005825 0.001740 0.001005 0.000287
# 4 -0.000350 0.004124 0.001740 0.023496 0.000513 0.003158
# 5 0.003463 -0.000222 0.001005 0.000513 0.023985 0.000194
# 6 0.000313 0.005075 0.000287 0.003158 0.000194 0.022584
#
#
# Mechanical properties :
#
#
# Convention : Reuss Voigt Hill
#
# Bulk Modulus (GPa) = 87.87445 120.67335 104.27390
# Shear Modulus (GPa) = 48.01897 56.04470 52.03183
#
# Velocity S-wave (km/s) = 4.63229 5.00445 4.82196
# Velocity P-wave (km/s) = 8.23887 9.34439 8.80899
#
# Compressibility (1/GPa) = 0.01137987
#
# Stress axis : x y z
#
# Youngs Moduli (GPa) = 154.00483 117.56989 171.67909
#
# Poissons Ratio (x) = 0.25957 0.15531
# Poissons Ratio (y) = 0.34001 0.27631
# Poissons Ratio (z) = 0.13932 0.18923
#
# Static dielectric constant tensor:
#      x y z
#    x 1.953220 0.070400 0.083270 
#    y 0.070400 1.772030 0.044140 
#    z 0.083270 0.044140 1.934590 
# 
# From -- ./inp_files/315967.got.cif
#   From: 2010.05.17/outbox.cif.g08.bks.cpg/sg2_158_cif.got.tgz:315967.got - 2010.06.03 11:33:40.
