data_PCOD9029978
_publ_section_title
;
Structure prediction by ZEFSAII (Michael W. Deem and Ramdas Pophale) SiO2 
 PCOD9029978
Probable space group: P -1
;
_chemical_formula_sum "Si O2"
_cell_formula_units_Z 14
_cell_length_a 8.386436
_cell_length_b 20.516506
_cell_length_c 15.056686
_cell_angle_alpha 25.217140
_cell_angle_beta 34.774980
_cell_angle_gamma 37.145934
_cell_volume 613.799590
_symmetry_space_group_name_H-M "P -1"
_symmetry_group_IT_number 2
_symmetry_cell_setting 'triclinic'
loop_
_space_group_symop_operation_xyz
x,y,z
-x,-y,-z
loop_
_atom_site_type_symbol
_atom_site_label
_atom_site_fract_x
_atom_site_fract_y
_atom_site_fract_z
Si Si1 0.537647 0.162217 0.323988
Si Si2 0.423474 0.399193 0.741514
Si Si3 0.351680 0.947203 0.987345
Si Si4 0.364716 0.224766 0.518725
Si Si5 0.321676 0.400205 0.492880
Si Si6 0.804007 0.546111 0.823510
Si Si7 0.144724 0.126039 0.021955
O O1 0.557613 0.156082 0.430396
O O2 0.275325 0.312110 0.243875
O O3 0.825740 0.197526 0.109645
O O4 0.500000 0.000000 0.500000
O O5 0.500000 0.500000 0.500000
O O6 0.285052 0.260239 0.748887
O O7 0.503725 0.484636 0.685968
O O8 0.342344 0.052523 0.104599
O O9 0.269385 0.081931 0.785930
O O10 0.142673 0.995336 0.107844
O O11 0.401580 0.777353 0.131878
O O12 0.466897 0.317903 0.438332
O O13 0.000000 0.500000 0.500000
O O14 0.867497 0.639309 0.591257
O O15 0.500000 0.500000 0.000000
O O16 0.080208 0.413472 0.880317
#
# Coordination Sequence:
#
# PCOD9029978 Si02
#       7
#     2   2   2   2   2   2   2
#     4  10  24  41  70  96 137 188 229 272 357 427
#     4  12  24  41  74 104 135 184 240 286 346 421
#     4  10  22  42  69 103 132 175 236 292 340 412
#     4   9  24  44  65 101 137 184 226 287 345 419
#     4  11  24  42  70 103 140 178 238 294 345 404
#     4  10  24  47  70  98 143 185 226 285 364 411
#     4  10  22  42  69  95 140 186 222 288 360 406
#
# _framework density 22.808747
#
# number of rings (size 3 to 8) (size 9 to 14) (size 15 to 20)
#    0.857    0.857    1.429    1.714    4.000    1.714 
#    0.000    4.286    0.000    0.000    0.000    0.000 
#    0.000    0.000    0.000    0.000    0.000    0.000 
#
# Total GULP energy -78150.458561 kJ/mol
# GULP energy per Si atom -5582.175611 kJ/mol
# Density = 2.275683 g / cm^3
# Si number density = 22.808747 Si / 1000 Ang^3
#
#
#
# Elastic Constant Matrix: (Units=GPa)
#
#
# Indices 1 2 3 4 5 6 
#
# 1 75.0333 39.6358 37.3711 -5.0088 -2.6383 -4.4921
# 2 39.6358 169.7058 52.5892 -20.8965 -12.0531 29.1079
# 3 37.3711 52.5892 68.2820 -17.8767 -5.3330 2.9976
# 4 -5.0088 -20.8965 -17.8767 44.4087 -0.4253 -3.1047
# 5 -2.6383 -12.0531 -5.3330 -0.4253 28.8785 -7.4897
# 6 -4.4921 29.1079 2.9976 -3.1047 -7.4897 38.0072
#
#
#
# Elastic Compliance Matrix: (Units=1/GPa)
#
#
# Indices 1 2 3 4 5 6 
#
# 1 0.019679 -0.002836 -0.009471 -0.002572 0.000140 0.005063
# 2 -0.002836 0.009573 -0.004990 0.001702 0.001043 -0.006929
# 3 -0.009471 -0.004990 0.025621 0.007040 0.002332 0.001716
# 4 -0.002572 0.001702 0.007040 0.025912 0.002261 0.000400
# 5 0.000140 0.001043 0.002332 0.002261 0.037241 0.006557
# 6 0.005063 -0.006929 0.001716 0.000400 0.006557 0.033405
#
#
# Mechanical properties :
#
#
# Convention : Reuss Voigt Hill
#
# Bulk Modulus (GPa) = 49.30862 63.57927 56.44395
# Shear Modulus (GPa) = 25.93567 34.48722 30.21144
#
# Velocity S-wave (km/s) = 3.37574 3.89268 3.64339
# Velocity P-wave (km/s) = 6.07119 6.93826 6.51916
#
# Compressibility (1/GPa) = 0.02028043
#
# Stress axis : x y z
#
# Youngs Moduli (GPa) = 50.81566 104.45747 39.03013
#
# Poissons Ratio (x) = 0.29629 0.36964
# Poissons Ratio (y) = 0.14414 0.19474
# Poissons Ratio (z) = 0.48125 0.52119
#
# Static dielectric constant tensor:
#      x y z
#    x 1.873680 0.029520 -0.004500 
#    y 0.029520 1.873960 -0.024720 
#    z -0.004500 -0.024720 1.883030 
# 
# From -- ./inp_files/502575.got.cif
#   From: 2010.05.17/outbox.cif.g08.bks.cpg/sg2_252_cif.got.tgz:502575.got - 2010.06.03 11:33:40.
