data_PCOD9029928
_publ_section_title
;
Structure prediction by ZEFSAII (Michael W. Deem and Ramdas Pophale) SiO2 
 PCOD9029928
Probable space group: P -1
;
_chemical_formula_sum "Si O2"
_cell_formula_units_Z 14
_cell_length_a 11.787008
_cell_length_b 12.107934
_cell_length_c 5.625165
_cell_angle_alpha 70.045724
_cell_angle_beta 104.166735
_cell_angle_gamma 133.755721
_cell_volume 545.003595
_symmetry_space_group_name_H-M "P -1"
_symmetry_group_IT_number 2
_symmetry_cell_setting 'triclinic'
loop_
_space_group_symop_operation_xyz
x,y,z
-x,-y,-z
loop_
_atom_site_type_symbol
_atom_site_label
_atom_site_fract_x
_atom_site_fract_y
_atom_site_fract_z
Si Si1 0.068119 0.196776 0.412083
Si Si2 0.060393 0.783528 0.263987
Si Si3 0.811014 0.925134 0.155917
Si Si4 0.478441 0.694988 0.309961
Si Si5 0.627770 0.597852 0.790628
Si Si6 0.354767 0.823034 0.469828
Si Si7 0.082232 0.518562 0.783659
O O1 0.187988 0.253109 0.216086
O O2 0.014281 0.275925 0.467966
O O3 0.901100 0.038712 0.348587
O O4 0.160549 0.192027 0.681231
O O5 0.224608 0.824521 0.299528
O O6 0.941705 0.637739 0.134245
O O7 0.108083 0.949004 0.105595
O O8 0.626349 0.826811 0.124147
O O9 0.558578 0.662939 0.567695
O O10 0.368523 0.526823 0.247137
O O11 0.404780 0.758187 0.351312
O O12 0.500000 0.500000 0.000000
O O13 0.258680 0.687212 0.725821
O O14 0.500000 0.000000 0.500000
O O15 0.000000 0.500000 0.500000
O O16 0.000000 0.500000 0.000000
#
# Coordination Sequence:
#
# PCOD9029928 Si02
#       7
#     2   2   2   2   2   2   2
#     4  10  22  42  68  99 136 176 238 294 357 431
#     4  11  24  43  71  98 142 187 236 293 369 440
#     4  10  23  40  69  99 137 176 236 292 359 427
#     4  10  23  44  65 100 140 171 235 291 355 432
#     4  10  23  44  69  96 130 181 229 292 358 422
#     4  11  25  46  72 106 147 189 240 300 374 442
#     4  10  25  47  70 101 144 193 249 296 359 440
#
# _framework density 25.687902999999999
#
# number of rings (size 3 to 8) (size 9 to 14) (size 15 to 20)
#    0.000    1.714    0.000    2.143    6.000    9.714 
#    7.714    0.000    0.000    0.000    0.000    0.000 
#    0.000    0.000    0.000    0.000    0.000    0.000 
#
# Total GULP energy -78090.845880 kJ/mol
# GULP energy per Si atom -5577.917563 kJ/mol
# Density = 2.562944 g / cm^3
# Si number density = 25.687903 Si / 1000 Ang^3
#
#
#
# Elastic Constant Matrix: (Units=GPa)
#
#
# Indices 1 2 3 4 5 6 
#
# 1 108.9301 31.1666 18.7078 3.2377 -13.8693 -1.6226
# 2 31.1666 110.9242 3.1024 -3.0455 -11.7820 14.4270
# 3 18.7078 3.1024 80.7725 -16.8245 -14.0261 5.7239
# 4 3.2377 -3.0455 -16.8245 43.0110 -0.5118 -13.3284
# 5 -13.8693 -11.7820 -14.0261 -0.5118 48.6548 -5.1180
# 6 -1.6226 14.4270 5.7239 -13.3284 -5.1180 37.7241
#
#
#
# Elastic Compliance Matrix: (Units=1/GPa)
#
#
# Indices 1 2 3 4 5 6 
#
# 1 0.010772 -0.003032 -0.002492 -0.001442 0.001785 0.001734
# 2 -0.003032 0.010533 0.000862 0.000071 0.001509 -0.004060
# 3 -0.002492 0.000862 0.014865 0.006105 0.003847 -0.000014
# 4 -0.001442 0.000071 0.006105 0.028726 0.002667 0.009495
# 5 0.001785 0.001509 0.003847 0.002667 0.022876 0.002962
# 6 0.001734 -0.004060 -0.000014 0.009495 0.002962 0.031894
#
#
# Mechanical properties :
#
#
# Convention : Reuss Voigt Hill
#
# Bulk Modulus (GPa) = 37.24860 45.17559 41.21209
# Shear Modulus (GPa) = 36.24830 42.38798 39.31814
#
# Velocity S-wave (km/s) = 3.76054 4.06657 3.91654
# Velocity P-wave (km/s) = 5.77819 6.29871 6.04406
#
# Compressibility (1/GPa) = 0.02684665
#
# Stress axis : x y z
#
# Youngs Moduli (GPa) = 92.83617 94.93747 67.27242
#
# Poissons Ratio (x) = 0.28788 0.16761
# Poissons Ratio (y) = 0.28151 -0.05801
# Poissons Ratio (z) = 0.23130 -0.08186
#
# Static dielectric constant tensor:
#      x y z
#    x 2.072930 -0.209080 0.157540 
#    y -0.209080 3.395970 -0.839340 
#    z 0.157540 -0.839340 2.586350 
# 
# From -- ./inp_files/69946.got.cif
#   From: 2010.05.17/outbox.cif.g08.bks.cpg/sg2_35_cif.got.tgz:69946.got - 2010.06.03 11:33:40.
