data_PCOD9029986
_publ_section_title
;
Structure prediction by ZEFSAII (Michael W. Deem and Ramdas Pophale) SiO2 
 PCOD9029986
Probable space group: P -1
;
_chemical_formula_sum "Si O2"
_cell_formula_units_Z 16
_cell_length_a 17.374576
_cell_length_b 24.749468
_cell_length_c 5.040110
_cell_angle_alpha 94.652407
_cell_angle_beta 82.067857
_cell_angle_gamma 21.754805
_cell_volume 653.633562
_symmetry_space_group_name_H-M "P -1"
_symmetry_group_IT_number 2
_symmetry_cell_setting 'triclinic'
loop_
_space_group_symop_operation_xyz
x,y,z
-x,-y,-z
loop_
_atom_site_type_symbol
_atom_site_label
_atom_site_fract_x
_atom_site_fract_y
_atom_site_fract_z
Si Si1 0.527535 0.870078 0.610066
Si Si2 0.807103 0.464401 0.169667
Si Si3 0.660806 0.845615 0.008514
Si Si4 0.420350 0.738279 0.068839
Si Si5 0.051557 0.745970 0.902285
Si Si6 0.786746 0.300894 0.692959
Si Si7 0.461094 0.791624 0.692461
Si Si8 0.986501 0.063564 0.761858
O O1 0.538006 0.893051 0.329777
O O2 0.560339 0.783470 0.551974
O O3 0.717082 0.769038 0.700444
O O4 0.245104 0.065620 0.943590
O O5 0.690100 0.537563 0.958044
O O6 0.795210 0.411619 0.263241
O O7 0.636717 0.625636 0.438122
O O8 0.093674 0.292195 0.019349
O O9 0.500000 0.000000 0.000000
O O10 0.254511 0.811527 0.973714
O O11 0.207930 0.879661 0.455247
O O12 0.458164 0.776571 0.996203
O O13 0.171244 0.709114 0.629999
O O14 0.058760 0.762466 0.206734
O O15 0.869183 0.184922 0.663159
O O16 0.500000 0.500000 0.000000
O O17 0.164834 0.980979 0.835032
#
# Coordination Sequence:
#
# PCOD9029986 Si02
#       8
#     2   2   2   2   2   2   2   2
#     4  12  27  48  80 105 142 194 243 300 364 433
#     4  11  28  43  72 104 145 187 244 303 369 426
#     4  12  28  49  78 110 143 187 246 305 373 432
#     4  10  23  44  69 100 146 191 243 290 364 429
#     4  12  26  46  73 103 148 190 241 297 364 429
#     4  12  26  43  71 109 147 189 244 299 356 428
#     4  11  25  44  73 102 145 190 238 298 359 433
#     4  10  22  42  69 103 140 195 243 291 355 438
#
# _framework density 24.478548
#
# number of rings (size 3 to 8) (size 9 to 14) (size 15 to 20)
#    0.000    0.750    2.500    3.375    8.750    1.000 
#    0.000    0.000    0.000    0.000    0.000    0.000 
#    0.000    0.000    0.000    0.000    0.000    0.000 
#
# Total GULP energy -89330.026909 kJ/mol
# GULP energy per Si atom -5583.126682 kJ/mol
# Density = 2.442283 g / cm^3
# Si number density = 24.478548 Si / 1000 Ang^3
#
#
#
# Elastic Constant Matrix: (Units=GPa)
#
#
# Indices 1 2 3 4 5 6 
#
# 1 118.1686 38.2810 21.9612 -4.2873 -12.8334 30.3439
# 2 38.2810 125.7625 32.2911 -2.9682 -24.3741 21.8374
# 3 21.9612 32.2911 72.8059 -17.1735 -11.4804 22.0185
# 4 -4.2873 -2.9682 -17.1735 39.0091 6.5999 -4.2493
# 5 -12.8334 -24.3741 -11.4804 6.5999 39.5889 -1.4666
# 6 30.3439 21.8374 22.0185 -4.2493 -1.4666 60.4970
#
#
#
# Elastic Compliance Matrix: (Units=1/GPa)
#
#
# Indices 1 2 3 4 5 6 
#
# 1 0.010518 -0.001902 -0.000767 -0.000109 0.001876 -0.004272
# 2 -0.001902 0.010632 -0.003247 -0.001903 0.005241 -0.001709
# 3 -0.000767 -0.003247 0.018813 0.007122 0.001844 -0.004745
# 4 -0.000109 -0.001903 0.007122 0.029306 -0.004023 0.000110
# 5 0.001876 0.005241 0.001844 -0.004023 0.030187 -0.003055
# 6 -0.004272 -0.001709 -0.004745 0.000110 -0.003055 0.020950
#
#
# Mechanical properties :
#
#
# Convention : Reuss Voigt Hill
#
# Bulk Modulus (GPa) = 35.54941 55.75595 45.65268
# Shear Modulus (GPa) = 35.30700 42.76591 39.03646
#
# Velocity S-wave (km/s) = 3.80197 4.18434 3.99773
# Velocity P-wave (km/s) = 5.81614 6.79499 6.32453
#
# Compressibility (1/GPa) = 0.02812986
#
# Stress axis : x y z
#
# Youngs Moduli (GPa) = 95.07588 94.05743 53.15579
#
# Poissons Ratio (x) = 0.17887 0.04077
# Poissons Ratio (y) = 0.18081 0.17262
# Poissons Ratio (z) = 0.07293 0.30544
#
# Static dielectric constant tensor:
#      x y z
#    x 2.085280 -0.085770 0.065270 
#    y -0.085770 2.032420 -0.100160 
#    z 0.065270 -0.100160 2.042220 
# 
# From -- ./inp_files/112823.got.cif
#   From: 2010.05.17/outbox.cif.g08.bks.cpg/sg2_57_cif.got.tgz:112823.got - 2010.06.03 11:33:40.
