data_PCOD9029246
_publ_section_title
;
Structure prediction by ZEFSAII (Michael W. Deem and Ramdas Pophale) SiO2 
 PCOD9029246
Probable space group: P -1
;
_chemical_formula_sum "Si O2"
_cell_formula_units_Z 14
_cell_length_a 8.931770
_cell_length_b 7.514119
_cell_length_c 9.045874
_cell_angle_alpha 78.684130
_cell_angle_beta 85.207537
_cell_angle_gamma 102.280011
_cell_volume 576.691585
_symmetry_space_group_name_H-M "P -1"
_symmetry_group_IT_number 2
_symmetry_cell_setting 'triclinic'
loop_
_space_group_symop_operation_xyz
x,y,z
-x,-y,-z
loop_
_atom_site_type_symbol
_atom_site_label
_atom_site_fract_x
_atom_site_fract_y
_atom_site_fract_z
Si Si1 0.584799 0.207724 0.903638
Si Si2 0.940123 0.357125 0.806717
Si Si3 0.607388 0.645366 0.354550
Si Si4 0.625353 0.897072 0.568039
Si Si5 0.639594 0.349873 0.184423
Si Si6 0.059592 0.928837 0.356764
Si Si7 0.036200 0.748290 0.849371
O O1 0.764287 0.236564 0.847588
O O2 0.494543 0.261971 0.763041
O O3 0.597826 0.353457 0.015316
O O4 0.500000 0.000000 0.000000
O O5 0.951985 0.577423 0.778479
O O6 0.000209 0.279002 0.666631
O O7 0.005852 0.310828 0.967994
O O8 0.500000 0.500000 0.500000
O O9 0.690139 0.801987 0.438395
O O10 0.692674 0.532637 0.253118
O O11 0.521955 0.750145 0.711533
O O12 0.759675 0.029626 0.624808
O O13 0.500000 0.000000 0.500000
O O14 0.780635 0.243123 0.192144
O O15 0.017756 0.066678 0.214273
O O16 0.000000 0.000000 0.500000
#
# Coordination Sequence:
#
# PCOD9029246 Si02
#       7
#     2   2   2   2   2   2   2
#     4  11  22  42  70 101 130 177 230 291 337 408
#     4  10  24  46  69  97 136 179 226 287 341 404
#     4  10  23  39  65  97 137 174 221 278 344 404
#     4  11  23  43  64  97 138 178 221 279 341 407
#     4  10  22  42  66  98 128 173 229 282 334 403
#     4  12  26  42  69 102 138 183 224 279 345 415
#     4  10  24  46  70  96 136 178 229 282 344 405
#
# _framework density 24.276408
#
# number of rings (size 3 to 8) (size 9 to 14) (size 15 to 20)
#    0.000    1.429    0.000    4.286    6.000    2.857 
#   10.286    0.000    0.000    0.000    0.000    0.000 
#    0.000    0.000    0.000    0.000    0.000    0.000 
#
# Total GULP energy -78221.445958 kJ/mol
# GULP energy per Si atom -5587.246140 kJ/mol
# Density = 2.422115 g / cm^3
# Si number density = 24.276408 Si / 1000 Ang^3
#
#
#
# Elastic Constant Matrix: (Units=GPa)
#
#
# Indices 1 2 3 4 5 6 
#
# 1 81.3090 14.0153 20.0986 13.4691 6.9325 7.3792
# 2 14.0153 80.5215 36.1691 36.4319 15.2001 7.0399
# 3 20.0986 36.1691 138.7890 42.1933 4.3658 -1.4908
# 4 13.4691 36.4319 42.1933 67.6937 -3.2173 7.0868
# 5 6.9325 15.2001 4.3658 -3.2173 35.4787 3.5666
# 6 7.3792 7.0399 -1.4908 7.0868 3.5666 36.9485
#
#
#
# Elastic Compliance Matrix: (Units=1/GPa)
#
#
# Indices 1 2 3 4 5 6 
#
# 1 0.013325 -0.000477 -0.001320 -0.001451 -0.002154 -0.002137
# 2 -0.000477 0.019353 -0.001824 -0.009494 -0.008734 -0.001002
# 3 -0.001320 -0.001824 0.009393 -0.004855 -0.000757 0.001994
# 4 -0.001451 -0.009494 -0.004855 0.023907 0.007458 -0.003403
# 5 -0.002154 -0.008734 -0.000757 0.007458 0.033378 -0.002589
# 6 -0.002137 -0.001002 0.001994 -0.003403 -0.002589 0.028665
#
#
# Mechanical properties :
#
#
# Convention : Reuss Voigt Hill
#
# Bulk Modulus (GPa) = 28.71067 49.02061 38.86564
# Shear Modulus (GPa) = 34.04283 43.37996 38.71139
#
# Velocity S-wave (km/s) = 3.74879 4.23178 3.99759
# Velocity P-wave (km/s) = 5.53084 6.64182 6.11163
#
# Compressibility (1/GPa) = 0.03483026
#
# Stress axis : x y z
#
# Youngs Moduli (GPa) = 75.04653 51.67063 106.46348
#
# Poissons Ratio (x) = 0.02463 0.14048
# Poissons Ratio (y) = 0.03577 0.19422
# Poissons Ratio (z) = 0.09903 0.09426
#
# Static dielectric constant tensor:
#      x y z
#    x 1.843740 -0.044540 0.027740 
#    y -0.044540 2.039120 -0.065130 
#    z 0.027740 -0.065130 2.064800 
# 
# From -- ./inp_files/158679.got.cif
#   From: 2010.05.17/outbox.cif.g08.bks.cpg/sg2_80_cif.got.tgz:158679.got - 2010.06.03 11:33:40.
