data_PCOD9029505
_publ_section_title
;
Structure prediction by ZEFSAII (Michael W. Deem and Ramdas Pophale) SiO2 
 PCOD9029505
Probable space group: P -1
;
_chemical_formula_sum "Si O2"
_cell_formula_units_Z 14
_cell_length_a 7.586168
_cell_length_b 4.856693
_cell_length_c 15.751556
_cell_angle_alpha 72.624956
_cell_angle_beta 104.301262
_cell_angle_gamma 86.201802
_cell_volume 530.514118
_symmetry_space_group_name_H-M "P -1"
_symmetry_group_IT_number 2
_symmetry_cell_setting 'triclinic'
loop_
_space_group_symop_operation_xyz
x,y,z
-x,-y,-z
loop_
_atom_site_type_symbol
_atom_site_label
_atom_site_fract_x
_atom_site_fract_y
_atom_site_fract_z
Si Si1 0.234099 0.727235 0.082423
Si Si2 0.679474 0.655487 0.015470
Si Si3 0.781365 0.892252 0.403622
Si Si4 0.612289 0.372868 0.444212
Si Si5 0.962530 0.844144 0.704787
Si Si6 0.422537 0.244931 0.273806
Si Si7 0.085537 0.214242 0.824403
O O1 0.361792 0.462544 0.170053
O O2 0.186538 0.585834 0.000523
O O3 0.056620 0.797722 0.114201
O O4 0.321282 0.023138 0.054685
O O5 0.734300 0.716002 0.112885
O O6 0.920430 0.059101 0.210909
O O7 0.500000 0.500000 0.000000
O O8 0.698294 0.037126 0.468975
O O9 0.962562 0.998873 0.380839
O O10 0.613083 0.025965 0.307226
O O11 0.780108 0.552682 0.436897
O O12 0.500000 0.500000 0.500000
O O13 0.473164 0.431376 0.343190
O O14 0.750147 0.908338 0.702684
O O15 0.009295 0.496771 0.732978
#
# Coordination Sequence:
#
# PCOD9029505 Si02
#       7
#     2   2   2   2   2   2   2
#     4  11  23  42  63  85 124 165 211 254 318 372
#     4  12  26  40  60  92 124 163 211 266 314 367
#     4  10  23  40  67  93 130 163 205 259 309 364
#     4  10  22  42  67  96 132 165 203 251 314 374
#     4  11  23  42  65  95 125 163 221 252 310 370
#     4   9  25  39  70  92 123 169 207 254 317 373
#     4  11  24  42  62  88 124 167 207 267 307 369
#
# _framework density 26.389498
#
# number of rings (size 3 to 8) (size 9 to 14) (size 15 to 20)
#    0.857    0.571    0.000    5.143    8.000    0.000 
#    0.000    1.429    0.000    0.000    0.000    0.000 
#    0.000    0.000    0.000    0.000    0.000    0.000 
#
# Total GULP energy -78313.840536 kJ/mol
# GULP energy per Si atom -5593.845753 kJ/mol
# Density = 2.632943 g / cm^3
# Si number density = 26.389498 Si / 1000 Ang^3
#
#
#
# Elastic Constant Matrix: (Units=GPa)
#
#
# Indices 1 2 3 4 5 6 
#
# 1 135.7093 20.9401 22.7667 -4.8337 -13.4918 37.7207
# 2 20.9401 137.9719 13.3039 0.1306 -8.5446 19.7769
# 3 22.7667 13.3039 49.0924 10.4592 3.0316 2.6369
# 4 -4.8337 0.1306 10.4592 45.5598 -0.4519 -8.8486
# 5 -13.4918 -8.5446 3.0316 -0.4519 43.9288 1.9911
# 6 37.7207 19.7769 2.6369 -8.8486 1.9911 37.8767
#
#
#
# Elastic Compliance Matrix: (Units=1/GPa)
#
#
# Indices 1 2 3 4 5 6 
#
# 1 0.012048 0.000745 -0.005473 0.000209 0.004778 -0.012208
# 2 0.000745 0.008228 -0.002361 -0.000366 0.002218 -0.005076
# 3 -0.005473 -0.002361 0.024774 -0.005549 -0.004083 0.003877
# 4 0.000209 -0.000366 -0.005549 0.024426 0.000353 0.006057
# 5 0.004778 0.002218 -0.004083 0.000353 0.025260 -0.006878
# 6 -0.012208 -0.005076 0.003877 0.006057 -0.006878 0.042717
#
#
# Mechanical properties :
#
#
# Convention : Reuss Voigt Hill
#
# Bulk Modulus (GPa) = 32.39341 48.53277 40.46309
# Shear Modulus (GPa) = 30.87921 43.19060 37.03490
#
# Velocity S-wave (km/s) = 3.42443 4.04995 3.75026
# Velocity P-wave (km/s) = 5.28558 6.34826 5.84114
#
# Compressibility (1/GPa) = 0.03087048
#
# Stress axis : x y z
#
# Youngs Moduli (GPa) = 83.00331 121.53950 40.36526
#
# Poissons Ratio (x) = -0.09054 0.22091
# Poissons Ratio (y) = -0.06183 0.09532
# Poissons Ratio (z) = 0.45426 0.28701
#
# Static dielectric constant tensor:
#      x y z
#    x 2.114980 -0.027090 0.021980 
#    y -0.027090 1.981550 0.020640 
#    z 0.021980 0.020640 2.144880 
# 
# From -- ./inp_files/552383.got.cif
#   From: 2010.05.17/outbox.cif.g08.bks.cpg/sg2_277_cif.got.tgz:552383.got - 2010.06.03 11:33:40.
