data_PCOD9029104
_publ_section_title
;
Structure prediction by ZEFSAII (Michael W. Deem and Ramdas Pophale) SiO2 
 PCOD9029104
Probable space group: P -1
;
_chemical_formula_sum "Si O2"
_cell_formula_units_Z 13
_cell_length_a 9.040068
_cell_length_b 11.686071
_cell_length_c 8.687763
_cell_angle_alpha 92.001477
_cell_angle_beta 133.056910
_cell_angle_gamma 61.646959
_cell_volume 527.062009
_symmetry_space_group_name_H-M "P -1"
_symmetry_group_IT_number 2
_symmetry_cell_setting 'triclinic'
loop_
_space_group_symop_operation_xyz
x,y,z
-x,-y,-z
loop_
_atom_site_type_symbol
_atom_site_label
_atom_site_fract_x
_atom_site_fract_y
_atom_site_fract_z
Si Si1 0.232395 0.750823 0.562839
Si Si2 0.295102 0.023885 0.974203
Si Si3 0.788641 0.371198 0.151964
Si Si4 0.149685 0.416073 0.259935
Si Si5 0.931681 0.110209 0.095469
Si Si6 0.461637 0.890435 0.626378
Si Si7 0.500000 0.500000 0.500000
O O1 0.130018 0.732140 0.646284
O O2 0.357348 0.833323 0.673389
O O3 0.443662 0.604807 0.613316
O O4 0.991953 0.846726 0.280415
O O5 0.289620 0.889464 0.982276
O O6 0.367612 0.068823 0.180241
O O7 0.500000 0.000000 0.000000
O O8 0.820828 0.277415 0.019146
O O9 0.950728 0.427635 0.236973
O O10 0.500000 0.500000 0.000000
O O11 0.364099 0.243783 0.371859
O O12 0.287396 0.482455 0.415305
O O13 0.000000 0.500000 0.000000
O O14 0.201913 0.025814 0.371580
O O15 0.000000 0.000000 0.000000
#
# Coordination Sequence:
#
# PCOD9029104 Si02
#       7
#     2   2   2   2   2   2   1
#     4  10  23  42  66 101 138 176 232 286 344 416
#     4  11  22  39  68  96 131 176 222 281 349 411
#     4  12  26  44  70 105 145 183 232 297 354 415
#     4  11  24  44  69  96 137 186 233 287 349 414
#     4  11  26  45  68 102 138 180 235 286 343 418
#     4  10  22  44  69  96 135 183 231 284 345 415
#     4  10  22  42  66  92 130 184 230 270 340 418
#
# _framework density 24.665030000000002
#
# number of rings (size 3 to 8) (size 9 to 14) (size 15 to 20)
#    0.000    1.231    0.000    5.538    0.000   14.154 
#    0.000    1.538    0.000    0.000    0.000    0.000 
#    0.000    0.000    0.000    0.000    0.000    0.000 
#
# Total GULP energy -72513.792241 kJ/mol
# GULP energy per Si atom -5577.984019 kJ/mol
# Density = 2.460889 g / cm^3
# Si number density = 24.665030 Si / 1000 Ang^3
#
#
#
# Elastic Constant Matrix: (Units=GPa)
#
#
# Indices 1 2 3 4 5 6 
#
# 1 184.3787 25.8715 20.9057 6.0942 25.2575 25.5737
# 2 25.8715 113.3954 39.3660 8.6553 19.3379 9.0566
# 3 20.9057 39.3660 81.6961 9.9263 27.5433 20.0526
# 4 6.0942 8.6553 9.9263 36.5761 2.2002 12.9066
# 5 25.2575 19.3379 27.5433 2.2002 42.4712 11.5264
# 6 25.5737 9.0566 20.0526 12.9066 11.5264 57.4793
#
#
#
# Elastic Compliance Matrix: (Units=1/GPa)
#
#
# Indices 1 2 3 4 5 6 
#
# 1 0.006207 -0.000864 0.000347 0.000015 -0.002937 -0.002161
# 2 -0.000864 0.010908 -0.004510 -0.001429 -0.001698 0.000901
# 3 0.000347 -0.004510 0.018538 -0.002207 -0.009086 -0.003594
# 4 0.000015 -0.001429 -0.002207 0.030355 0.002202 -0.006269
# 5 -0.002937 -0.001698 -0.009086 0.002202 0.032456 -0.002259
# 6 -0.002161 0.000901 -0.003594 -0.006269 -0.002259 0.021331
#
#
# Mechanical properties :
#
#
# Convention : Reuss Voigt Hill
#
# Bulk Modulus (GPa) = 39.06415 61.30630 50.18523
# Shear Modulus (GPa) = 36.13137 46.86046 41.49592
#
# Velocity S-wave (km/s) = 3.83153 4.36348 4.10613
# Velocity P-wave (km/s) = 5.95369 7.09198 6.54762
#
# Compressibility (1/GPa) = 0.02559892
#
# Stress axis : x y z
#
# Youngs Moduli (GPa) = 161.10489 91.67307 53.94262
#
# Poissons Ratio (x) = 0.07923 -0.01871
# Poissons Ratio (y) = 0.13924 0.24328
# Poissons Ratio (z) = -0.05588 0.41344
#
# Static dielectric constant tensor:
#      x y z
#    x 2.044220 -0.042480 -0.108260 
#    y -0.042480 2.024410 -0.017130 
#    z -0.108260 -0.017130 2.012540 
# 
# From -- ./inp_files/179523.got.cif
#   From: 2010.05.17/outbox.cif.g08.bks.cpg/sg2_90_cif.got.tgz:179523.got - 2010.06.03 11:33:40.
