data_PCOD9029857
_publ_section_title
;
Structure prediction by ZEFSAII (Michael W. Deem and Ramdas Pophale) SiO2 
 PCOD9029857
Probable space group: P -1
;
_chemical_formula_sum "Si O2"
_cell_formula_units_Z 16
_cell_length_a 9.338875
_cell_length_b 6.414503
_cell_length_c 21.948328
_cell_angle_alpha 130.908997
_cell_angle_beta 52.646520
_cell_angle_gamma 128.656701
_cell_volume 731.131876
_symmetry_space_group_name_H-M "P -1"
_symmetry_group_IT_number 2
_symmetry_cell_setting 'triclinic'
loop_
_space_group_symop_operation_xyz
x,y,z
-x,-y,-z
loop_
_atom_site_type_symbol
_atom_site_label
_atom_site_fract_x
_atom_site_fract_y
_atom_site_fract_z
Si Si1 0.538155 0.261752 0.643891
Si Si2 0.618927 0.243328 0.205245
Si Si3 0.318783 0.600614 0.574597
Si Si4 0.851824 0.644273 0.545032
Si Si5 0.041230 0.197760 0.934232
Si Si6 0.737397 0.173377 0.699009
Si Si7 0.318025 0.205293 0.974983
Si Si8 0.082781 0.698484 0.765039
O O1 0.436662 0.475027 0.736066
O O2 0.653975 0.427671 0.586605
O O3 0.671568 0.218961 0.656288
O O4 0.390820 0.941389 0.599966
O O5 0.833130 0.344625 0.199311
O O6 0.458535 0.012576 0.248128
O O7 0.612020 0.060508 0.111378
O O8 0.500000 0.500000 0.500000
O O9 0.159648 0.382873 0.529509
O O10 0.230080 0.623361 0.667094
O O11 0.000000 0.500000 0.500000
O O12 0.865281 0.966708 0.624257
O O13 0.209500 0.255585 0.952276
O O14 0.095383 0.040303 0.831270
O O15 0.000000 0.500000 0.000000
O O16 0.847287 0.930437 0.957693
O O17 0.870359 0.476731 0.756167
O O18 0.500000 0.500000 0.000000
#
# Coordination Sequence:
#
# PCOD9029857 Si02
#       8
#     2   2   2   2   2   2   2   2
#     4  11  23  41  62  88 127 164 213 259 312 378
#     4  10  23  42  64  94 126 166 209 258 317 378
#     4  12  23  41  64  89 126 169 212 259 318 367
#     4  11  25  39  59  90 120 169 213 263 313 371
#     4  10  24  43  66  99 133 166 217 264 323 389
#     4  11  23  43  61  92 130 160 219 260 310 379
#     4  10  22  42  68  97 131 168 211 267 322 386
#     4  11  24  42  67  92 128 171 204 267 316 373
#
# _framework density 21.883875
#
# number of rings (size 3 to 8) (size 9 to 14) (size 15 to 20)
#    0.000    1.250    2.500    2.625    5.250    2.500 
#    0.000    0.000    0.000    0.000    0.000    0.000 
#    0.000    0.000    0.000    0.000    0.000    0.000 
#
# Total GULP energy -89332.657813 kJ/mol
# GULP energy per Si atom -5583.291113 kJ/mol
# Density = 2.183407 g / cm^3
# Si number density = 21.883875 Si / 1000 Ang^3
#
#
#
# Elastic Constant Matrix: (Units=GPa)
#
#
# Indices 1 2 3 4 5 6 
#
# 1 71.1004 6.9246 27.6683 15.0435 -4.0968 9.9432
# 2 6.9246 72.6382 19.8416 9.4305 2.5620 17.1559
# 3 27.6683 19.8416 134.7074 24.6983 -8.0418 2.9038
# 4 15.0435 9.4305 24.6983 41.5226 -4.9064 -4.2715
# 5 -4.0968 2.5620 -8.0418 -4.9064 37.6225 12.9316
# 6 9.9432 17.1559 2.9038 -4.2715 12.9316 33.2688
#
#
#
# Elastic Compliance Matrix: (Units=1/GPa)
#
#
# Indices 1 2 3 4 5 6 
#
# 1 0.017285 0.001420 -0.002382 -0.005579 0.003175 -0.007641
# 2 0.001420 0.016999 -0.001707 -0.004222 0.001588 -0.010201
# 3 -0.002382 -0.001707 0.008973 -0.003951 0.001334 -0.000217
# 4 -0.005579 -0.004222 -0.003951 0.030244 0.000006 0.008070
# 5 0.003175 0.001588 0.001334 0.000006 0.032030 -0.014334
# 6 -0.007641 -0.010201 -0.000217 0.008070 -0.014334 0.044229
#
#
# Mechanical properties :
#
#
# Convention : Reuss Voigt Hill
#
# Bulk Modulus (GPa) = 26.37219 43.03499 34.70359
# Shear Modulus (GPa) = 29.80830 37.41687 33.61259
#
# Velocity S-wave (km/s) = 3.69468 4.13945 3.92337
# Velocity P-wave (km/s) = 5.50255 6.52339 6.03459
#
# Compressibility (1/GPa) = 0.03791873
#
# Stress axis : x y z
#
# Youngs Moduli (GPa) = 57.85276 58.82686 111.44569
#
# Poissons Ratio (x) = -0.08353 0.26550
# Poissons Ratio (y) = -0.08214 0.19021
# Poissons Ratio (z) = 0.13783 0.10040
#
# Static dielectric constant tensor:
#      x y z
#    x 1.801590 0.010450 -0.085640 
#    y 0.010450 1.813620 -0.025860 
#    z -0.085640 -0.025860 2.047470 
# 
# From -- ./inp_files/56404.got.cif
#   From: 2010.05.17/outbox.cif.g08.bks.cpg/sg2_29_cif.got.tgz:56404.got - 2010.06.03 11:33:40.
