data_PCOD9029944
_publ_section_title
;
Structure prediction by ZEFSAII (Michael W. Deem and Ramdas Pophale) SiO2 
 PCOD9029944
Probable space group: P -1
;
_chemical_formula_sum "Si O2"
_cell_formula_units_Z 16
_cell_length_a 20.317591
_cell_length_b 9.335006
_cell_length_c 11.906587
_cell_angle_alpha 153.433250
_cell_angle_beta 38.689581
_cell_angle_gamma 134.891431
_cell_volume 631.106711
_symmetry_space_group_name_H-M "P -1"
_symmetry_group_IT_number 2
_symmetry_cell_setting 'triclinic'
loop_
_space_group_symop_operation_xyz
x,y,z
-x,-y,-z
loop_
_atom_site_type_symbol
_atom_site_label
_atom_site_fract_x
_atom_site_fract_y
_atom_site_fract_z
Si Si1 0.310535 0.507135 0.049421
Si Si2 0.897393 0.207245 0.263285
Si Si3 0.798936 0.677232 0.140699
Si Si4 0.933586 0.272188 0.842537
Si Si5 0.438200 0.209464 0.942238
Si Si6 0.832737 0.873733 0.881536
Si Si7 0.402354 0.174379 0.379419
Si Si8 0.550354 0.418288 0.612302
O O1 0.270973 0.352669 0.111473
O O2 0.333624 0.863181 0.223116
O O3 0.211208 0.419222 0.042180
O O4 0.427125 0.358010 0.769071
O O5 0.911342 0.582141 0.538436
O O6 0.820692 0.054491 0.355279
O O7 0.858874 0.111307 0.120157
O O8 0.000000 0.000000 0.000000
O O9 0.682879 0.605689 0.294616
O O10 0.883098 0.503160 0.979852
O O11 0.842495 0.095728 0.914446
O O12 0.000000 0.000000 0.500000
O O13 0.000000 0.500000 0.000000
O O14 0.519380 0.990519 0.753872
O O15 0.397357 0.915922 0.716234
O O16 0.500000 0.500000 0.000000
O O17 0.384391 0.397220 0.246900
O O18 0.450521 0.353684 0.335371
#
# Coordination Sequence:
#
# PCOD9029944 Si02
#       8
#     2   2   2   2   2   2   2   2
#     4  10  22  42  69 100 138 179 238 275 332 400
#     4  11  22  41  68  96 123 172 224 270 344 411
#     4  11  24  42  71  99 135 181 231 287 331 416
#     4  12  28  49  70 101 140 176 222 287 361 411
#     4  11  23  43  66 100 133 180 231 279 339 388
#     4  11  23  42  65  96 132 168 217 285 331 399
#     4  11  23  44  68 100 141 182 239 273 336 402
#     4  11  24  43  71  96 144 190 227 277 331 410
#
# _framework density 25.352288999999999
#
# number of rings (size 3 to 8) (size 9 to 14) (size 15 to 20)
#    0.000    1.000    2.500    4.875    3.500    1.000 
#    6.750    0.000    0.000    0.000    0.000    0.000 
#    0.000    0.000    0.000    0.000    0.000    0.000 
#
# Total GULP energy -89169.811058 kJ/mol
# GULP energy per Si atom -5573.113191 kJ/mol
# Density = 2.529459 g / cm^3
# Si number density = 25.352289 Si / 1000 Ang^3
#
#
#
# Elastic Constant Matrix: (Units=GPa)
#
#
# Indices 1 2 3 4 5 6 
#
# 1 35.2837 8.5253 42.2554 16.1406 2.1900 -11.9702
# 2 8.5253 176.9337 34.9805 0.9853 -1.9263 -22.1373
# 3 42.2554 34.9805 133.7202 21.8528 29.2425 -11.7510
# 4 16.1406 0.9853 21.8528 50.9115 -0.7121 -4.4582
# 5 2.1900 -1.9263 29.2425 -0.7121 29.5636 5.7403
# 6 -11.9702 -22.1373 -11.7510 -4.4582 5.7403 42.5436
#
#
#
# Elastic Compliance Matrix: (Units=1/GPa)
#
#
# Indices 1 2 3 4 5 6 
#
# 1 0.057337 0.002417 -0.019303 -0.008937 0.012968 0.009373
# 2 0.002417 0.006498 -0.002847 0.000628 0.002493 0.003004
# 3 -0.019303 -0.002847 0.018389 -0.001934 -0.017042 0.000263
# 4 -0.008937 0.000628 -0.001934 0.023276 0.003318 -0.000731
# 5 0.012968 0.002493 -0.017042 0.003318 0.051192 -0.006321
# 6 0.009373 0.003004 0.000263 -0.000731 -0.006321 0.028555
#
#
# Mechanical properties :
#
#
# Convention : Reuss Voigt Hill
#
# Bulk Modulus (GPa) = 23.38717 57.49557 40.44137
# Shear Modulus (GPa) = 20.92360 41.94882 31.43621
#
# Velocity S-wave (km/s) = 2.87594 4.07213 3.52515
# Velocity P-wave (km/s) = 4.50255 6.69609 5.70572
#
# Compressibility (1/GPa) = 0.04275849
#
# Stress axis : x y z
#
# Youngs Moduli (GPa) = 17.44061 153.89796 54.38085
#
# Poissons Ratio (x) = -0.37198 1.04969
# Poissons Ratio (y) = -0.04216 0.15484
# Poissons Ratio (z) = 0.33665 0.43819
#
# Static dielectric constant tensor:
#      x y z
#    x 2.185080 0.099020 0.130420 
#    y 0.099020 2.171470 -0.098230 
#    z 0.130420 -0.098230 2.202880 
# 
# From -- ./inp_files/474367.got.cif
#   From: 2010.05.17/outbox.cif.g08.bks.cpg/sg2_238_cif.got.tgz:474367.got - 2010.06.03 11:33:40.
