data_PCOD9029205
_publ_section_title
;
Structure prediction by ZEFSAII (Michael W. Deem and Ramdas Pophale) SiO2 
 PCOD9029205
Probable space group: P -1
;
_chemical_formula_sum "Si O2"
_cell_formula_units_Z 16
_cell_length_a 8.137083
_cell_length_b 7.099041
_cell_length_c 13.561139
_cell_angle_alpha 124.222653
_cell_angle_beta 82.888923
_cell_angle_gamma 77.300918
_cell_volume 601.425974
_symmetry_space_group_name_H-M "P -1"
_symmetry_group_IT_number 2
_symmetry_cell_setting 'triclinic'
loop_
_space_group_symop_operation_xyz
x,y,z
-x,-y,-z
loop_
_atom_site_type_symbol
_atom_site_label
_atom_site_fract_x
_atom_site_fract_y
_atom_site_fract_z
Si Si1 0.428985 0.221999 0.430628
Si Si2 0.258473 0.111763 0.141164
Si Si3 0.528990 0.334000 0.248218
Si Si4 0.078925 0.631281 0.613879
Si Si5 0.189278 0.993667 0.572768
Si Si6 0.836057 0.246379 0.066773
Si Si7 0.281132 0.809571 0.298672
Si Si8 0.953388 0.440834 0.831814
O O1 0.478598 0.357959 0.373998
O O2 0.265731 0.412698 0.557458
O O3 0.602028 0.083588 0.440892
O O4 0.362870 0.013296 0.327936
O O5 0.443632 0.135011 0.163703
O O6 0.191405 0.302826 0.112183
O O7 0.085468 0.238743 0.262172
O O8 0.277837 0.841176 0.028632
O O9 0.730379 0.278362 0.187053
O O10 0.428047 0.570481 0.260965
O O11 0.127739 0.836644 0.611310
O O12 0.000000 0.500000 0.500000
O O13 0.173362 0.917904 0.439359
O O14 0.082840 0.274512 0.688737
O O15 0.905183 0.462985 0.093128
O O16 0.000000 0.000000 0.000000
O O17 0.170004 0.726091 0.199873
#
# Coordination Sequence:
#
# PCOD9029205 Si02
#       8
#     2   2   2   2   2   2   2   2
#     4  12  25  40  69 107 142 178 222 283 344 416
#     4  10  22  42  72  96 131 186 227 283 335 407
#     4  11  23  44  70 101 136 179 231 278 346 404
#     4  12  22  41  66 103 138 175 224 271 347 409
#     4  12  24  39  64 102 143 182 219 284 343 409
#     4  10  23  42  72  96 131 183 233 282 337 404
#     4  11  23  43  69 100 143 181 222 281 348 406
#     4  10  22  42  66  96 131 181 231 275 338 403
#
# _framework density 26.603442999999999
#
# number of rings (size 3 to 8) (size 9 to 14) (size 15 to 20)
#    0.000    1.000    2.500    4.500    3.500    0.000 
#    0.000    0.625    5.500    5.250    0.000    0.000 
#    0.000    0.000    0.000    0.000    0.000    0.000 
#
# Total GULP energy -89345.640878 kJ/mol
# GULP energy per Si atom -5584.102555 kJ/mol
# Density = 2.654289 g / cm^3
# Si number density = 26.603443 Si / 1000 Ang^3
#
#
#
# Elastic Constant Matrix: (Units=GPa)
#
#
# Indices 1 2 3 4 5 6 
#
# 1 150.7252 31.4439 37.2583 14.3524 8.4810 32.9111
# 2 31.4439 88.9594 16.9431 6.6274 -7.2767 26.8734
# 3 37.2583 16.9431 98.6193 25.0862 3.2994 21.3778
# 4 14.3524 6.6274 25.0862 31.0899 21.3193 0.6890
# 5 8.4810 -7.2767 3.2994 21.3193 59.2288 9.1941
# 6 32.9111 26.8734 21.3778 0.6890 9.1941 48.4301
#
#
#
# Elastic Compliance Matrix: (Units=1/GPa)
#
#
# Indices 1 2 3 4 5 6 
#
# 1 0.008431 -0.001096 -0.001297 -0.002826 0.000461 -0.004595
# 2 -0.001096 0.015378 0.001816 -0.008483 0.006505 -0.009704
# 3 -0.001297 0.001816 0.016460 -0.017843 0.007236 -0.008511
# 4 -0.002826 -0.008483 -0.017843 0.067716 -0.026913 0.018649
# 5 0.000461 0.006505 0.007236 -0.026913 0.028795 -0.012200
# 6 -0.004595 -0.009704 -0.008511 0.018649 -0.012200 0.034964
#
#
# Mechanical properties :
#
#
# Convention : Reuss Voigt Hill
#
# Bulk Modulus (GPa) = 25.56690 56.62161 41.09426
# Shear Modulus (GPa) = 26.89093 44.59367 35.74230
#
# Velocity S-wave (km/s) = 3.18277 4.09863 3.66938
# Velocity P-wave (km/s) = 4.81019 6.61272 5.78213
#
# Compressibility (1/GPa) = 0.03911307
#
# Stress axis : x y z
#
# Youngs Moduli (GPa) = 118.61677 65.02695 60.75419
#
# Poissons Ratio (x) = 0.07130 0.07881
# Poissons Ratio (y) = 0.13006 -0.11032
# Poissons Ratio (z) = 0.15387 -0.11808
#
# Static dielectric constant tensor:
#      x y z
#    x 2.284060 0.025870 0.102680 
#    y 0.025870 2.082250 -0.042520 
#    z 0.102680 -0.042520 2.138280 
# 
# From -- ./inp_files/495713.got.cif
#   From: 2010.05.17/outbox.cif.g08.bks.cpg/sg2_248_cif.got.tgz:495713.got - 2010.06.03 11:33:40.
