data_PCOD9029704
_publ_section_title
;
Structure prediction by ZEFSAII (Michael W. Deem and Ramdas Pophale) SiO2 
 PCOD9029704
Probable space group: P -1
;
_chemical_formula_sum "Si O2"
_cell_formula_units_Z 12
_cell_length_a 13.557004
_cell_length_b 5.426074
_cell_length_c 18.199500
_cell_angle_alpha 50.883484
_cell_angle_beta 31.549448
_cell_angle_gamma 41.022908
_cell_volume 459.495139
_symmetry_space_group_name_H-M "P -1"
_symmetry_group_IT_number 2
_symmetry_cell_setting 'triclinic'
loop_
_space_group_symop_operation_xyz
x,y,z
-x,-y,-z
loop_
_atom_site_type_symbol
_atom_site_label
_atom_site_fract_x
_atom_site_fract_y
_atom_site_fract_z
Si Si1 0.579931 0.535891 0.111499
Si Si2 0.829854 0.147573 0.148763
Si Si3 0.125885 0.230670 0.208264
Si Si4 0.601126 0.949352 0.668042
Si Si5 0.208556 0.546199 0.733198
Si Si6 0.009652 0.615592 0.577641
O O1 0.622524 0.531484 0.172767
O O2 0.582210 0.153573 0.175239
O O3 0.339108 0.856198 0.176049
O O4 0.758817 0.587939 0.944923
O O5 0.908782 0.250382 0.153040
O O6 0.773913 0.822121 0.247566
O O7 0.000000 0.000000 0.000000
O O8 0.994407 0.459965 0.320083
O O9 0.963716 0.163770 0.272996
O O10 0.778841 0.746343 0.659042
O O11 0.766795 0.700355 0.543425
O O12 0.461380 0.362826 0.639103
O O13 0.000000 0.000000 0.500000
#
# Coordination Sequence:
#
# PCOD9029704 Si02
#       6
#     2   2   2   2   2   2
#     4  10  22  42  68 106 136 186 225 296 346 425
#     4  11  22  44  66 101 144 186 223 278 362 423
#     4  11  23  41  69 106 144 173 238 297 347 409
#     4  10  24  44  74  95 136 195 235 281 357 430
#     4  11  25  42  71 105 140 186 229 297 348 420
#     4  11  23  46  69  97 137 191 238 284 351 425
#
# _framework density 26.115618000000001
#
# number of rings (size 3 to 8) (size 9 to 14) (size 15 to 20)
#    0.000    1.333    3.333    1.500    2.333    2.667 
#    3.000    0.833    0.000    0.000    0.000    0.000 
#    0.000    0.000    0.000    0.000    0.000    0.000 
#
# Total GULP energy -66815.094136 kJ/mol
# GULP energy per Si atom -5567.924511 kJ/mol
# Density = 2.605618 g / cm^3
# Si number density = 26.115618 Si / 1000 Ang^3
#
#
#
# Elastic Constant Matrix: (Units=GPa)
#
#
# Indices 1 2 3 4 5 6 
#
# 1 198.4282 33.0066 61.1043 4.8251 37.9448 -26.6354
# 2 33.0066 67.5091 2.3738 5.7036 8.7605 -22.4675
# 3 61.1043 2.3738 63.7665 0.5577 10.3807 -1.4381
# 4 4.8251 5.7036 0.5577 40.5420 -0.1769 -13.1821
# 5 37.9448 8.7605 10.3807 -0.1769 51.8057 -3.0099
# 6 -26.6354 -22.4675 -1.4381 -13.1821 -3.0099 53.9497
#
#
#
# Elastic Compliance Matrix: (Units=1/GPa)
#
#
# Indices 1 2 3 4 5 6 
#
# 1 0.009172 -0.002634 -0.007891 0.000362 -0.004513 0.003058
# 2 -0.002634 0.018283 0.002189 -0.000266 -0.001239 0.006238
# 3 -0.007891 0.002189 0.023004 -0.000480 0.000656 -0.002452
# 4 0.000362 -0.000266 -0.000480 0.026824 0.000353 0.006629
# 5 -0.004513 -0.001239 0.000656 0.000353 0.022607 -0.001379
# 6 0.003058 0.006238 -0.002452 0.006629 -0.001379 0.024121
#
#
# Mechanical properties :
#
#
# Convention : Reuss Voigt Hill
#
# Bulk Modulus (GPa) = 29.59785 58.07479 43.83632
# Shear Modulus (GPa) = 32.90623 44.80742 38.85682
#
# Velocity S-wave (km/s) = 3.55353 4.14663 3.86149
# Velocity P-wave (km/s) = 5.30987 6.72398 6.05833
#
# Compressibility (1/GPa) = 0.03378624
#
# Stress axis : x y z
#
# Youngs Moduli (GPa) = 109.02345 54.69531 43.47008
#
# Poissons Ratio (x) = 0.14409 0.34302
# Poissons Ratio (y) = 0.28722 -0.09514
# Poissons Ratio (z) = 0.86029 -0.11971
#
# Static dielectric constant tensor:
#      x y z
#    x 0.907710 0.052250 0.108980 
#    y 0.052250 2.266930 -0.011050 
#    z 0.108980 -0.011050 2.051640 
# 
# From -- ./inp_files/510797.got.cif
#   From: 2010.05.17/outbox.cif.g08.bks.cpg/sg2_256_cif.got.tgz:510797.got - 2010.06.03 11:33:40.
