data_PCOD9029127
_publ_section_title
;
Structure prediction by ZEFSAII (Michael W. Deem and Ramdas Pophale) SiO2 
 PCOD9029127
Probable space group: P -1
;
_chemical_formula_sum "Si O2"
_cell_formula_units_Z 16
_cell_length_a 7.417090
_cell_length_b 22.718286
_cell_length_c 11.779092
_cell_angle_alpha 136.964425
_cell_angle_beta 111.350654
_cell_angle_gamma 103.214113
_cell_volume 792.126946
_symmetry_space_group_name_H-M "P -1"
_symmetry_group_IT_number 2
_symmetry_cell_setting 'triclinic'
loop_
_space_group_symop_operation_xyz
x,y,z
-x,-y,-z
loop_
_atom_site_type_symbol
_atom_site_label
_atom_site_fract_x
_atom_site_fract_y
_atom_site_fract_z
Si Si1 0.320412 0.355713 0.923545
Si Si2 0.553004 0.325192 0.746672
Si Si3 0.862792 0.979221 0.817953
Si Si4 0.351199 0.920731 0.543137
Si Si5 0.289107 0.252559 0.158557
Si Si6 0.722900 0.180742 0.866692
Si Si7 0.322164 0.641415 0.822426
Si Si8 0.256042 0.529458 0.236069
O O1 0.426096 0.366772 0.837351
O O2 0.983459 0.199693 0.650234
O O3 0.553696 0.385762 0.100105
O O4 0.307470 0.450462 0.090839
O O5 0.304939 0.162785 0.473580
O O6 0.613798 0.363012 0.681090
O O7 0.889606 0.417787 0.003697
O O8 0.593063 0.957654 0.733031
O O9 0.000000 0.000000 0.000000
O O10 0.117433 0.114685 0.989495
O O11 0.351847 0.869373 0.350842
O O12 0.470004 0.054495 0.717719
O O13 0.435342 0.270678 0.101060
O O14 0.554291 0.384459 0.485657
O O15 0.037197 0.239243 0.053490
O O16 0.728092 0.283715 0.027365
O O17 0.000000 0.500000 0.500000
#
# Coordination Sequence:
#
# PCOD9029127 Si02
#       8
#     2   2   2   2   2   2   2   2
#     4  12  24  40  68  97 127 175 223 269 325 391
#     4  11  24  43  69  94 131 177 224 269 326 395
#     4  11  22  45  69  97 129 177 222 272 332 387
#     4  10  22  42  66  93 131 174 214 272 324 389
#     4  11  24  42  69  98 135 173 216 274 332 387
#     4  10  23  44  61  95 136 169 217 264 328 392
#     4  12  26  39  65 100 132 172 218 270 330 396
#     4  11  24  44  66  95 135 176 218 272 328 393
#
# _framework density 20.198781
#
# number of rings (size 3 to 8) (size 9 to 14) (size 15 to 20)
#    0.000    1.000    3.750    2.625    3.500    1.500 
#    0.000    1.875    0.000    0.000    0.000    0.000 
#    0.000    0.000    0.000    0.000    0.000    0.000 
#
# Total GULP energy -89467.145013 kJ/mol
# GULP energy per Si atom -5591.696563 kJ/mol
# Density = 2.015281 g / cm^3
# Si number density = 20.198781 Si / 1000 Ang^3
#
#
#
# Elastic Constant Matrix: (Units=GPa)
#
#
# Indices 1 2 3 4 5 6 
#
# 1 72.0532 18.0994 8.8898 14.3234 -2.8982 -4.6272
# 2 18.0994 33.8840 0.0459 -8.2361 10.1817 0.6766
# 3 8.8898 0.0459 70.5786 0.4071 9.1160 -4.7557
# 4 14.3234 -8.2361 0.4071 33.5151 -6.7343 -0.5346
# 5 -2.8982 10.1817 9.1160 -6.7343 27.1639 0.1212
# 6 -4.6272 0.6766 -4.7557 -0.5346 0.1212 29.7985
#
#
#
# Elastic Compliance Matrix: (Units=1/GPa)
#
#
# Indices 1 2 3 4 5 6 
#
# 1 0.021048 -0.016047 -0.003214 -0.011556 0.006462 0.002886
# 2 -0.016047 0.046818 0.003909 0.014884 -0.016871 -0.002595
# 3 -0.003214 0.003909 0.015582 0.000800 -0.006847 0.001941
# 4 -0.011556 0.014884 0.000800 0.038920 0.002574 -0.001317
# 5 0.006462 -0.016871 -0.006847 0.002574 0.046762 0.000150
# 6 0.002886 -0.002595 0.001941 -0.001317 0.000150 0.034351
#
#
# Mechanical properties :
#
#
# Convention : Reuss Voigt Hill
#
# Bulk Modulus (GPa) = 18.95950 25.62067 22.29008
# Shear Modulus (GPa) = 19.85965 28.06088 23.96026
#
# Velocity S-wave (km/s) = 3.13902 3.73129 3.44790
# Velocity P-wave (km/s) = 4.74813 5.59242 5.18748
#
# Compressibility (1/GPa) = 0.05274402
#
# Stress axis : x y z
#
# Youngs Moduli (GPa) = 47.50945 21.35931 64.17864
#
# Poissons Ratio (x) = 0.34275 0.20628
# Poissons Ratio (y) = 0.76238 -0.25088
# Poissons Ratio (z) = 0.15270 -0.08350
#
# Static dielectric constant tensor:
#      x y z
#    x 1.669260 0.093510 0.041910 
#    y 0.093510 1.020920 -0.268390 
#    z 0.041910 -0.268390 1.590290 
# 
# From -- ./inp_files/71018.got.cif
#   From: 2010.05.17/outbox.cif.g08.bks.cpg/sg2_36_cif.got.tgz:71018.got - 2010.06.03 11:33:40.
