data_PCOD9029081
_publ_section_title
;
Structure prediction by ZEFSAII (Michael W. Deem and Ramdas Pophale) SiO2 
 PCOD9029081
Probable space group: P -1
;
_chemical_formula_sum "Si O2"
_cell_formula_units_Z 16
_cell_length_a 18.642768
_cell_length_b 17.510487
_cell_length_c 8.163301
_cell_angle_alpha 52.001629
_cell_angle_beta 55.728034
_cell_angle_gamma 22.007516
_cell_volume 786.658986
_symmetry_space_group_name_H-M "P -1"
_symmetry_group_IT_number 2
_symmetry_cell_setting 'triclinic'
loop_
_space_group_symop_operation_xyz
x,y,z
-x,-y,-z
loop_
_atom_site_type_symbol
_atom_site_label
_atom_site_fract_x
_atom_site_fract_y
_atom_site_fract_z
Si Si1 0.579821 0.343490 0.476393
Si Si2 0.511747 0.096882 0.794285
Si Si3 0.574862 0.500711 0.034271
Si Si4 0.257325 0.963250 0.831449
Si Si5 0.254624 0.520853 0.690771
Si Si6 0.830967 0.408677 0.911441
Si Si7 0.551165 0.840784 0.591385
Si Si8 0.173774 0.063994 0.420289
O O1 0.500000 0.500000 0.500000
O O2 0.676127 0.324255 0.255904
O O3 0.387658 0.473552 0.506999
O O4 0.732866 0.104925 0.605534
O O5 0.374555 0.303410 0.800949
O O6 0.443345 0.168624 0.599653
O O7 0.722411 0.936214 0.742108
O O8 0.500000 0.000000 0.000000
O O9 0.500000 0.500000 0.000000
O O10 0.384889 0.746257 0.017004
O O11 0.718185 0.445956 0.887905
O O12 0.383209 0.933975 0.737550
O O13 0.229620 0.980054 0.647001
O O14 0.053626 0.177353 0.894834
O O15 0.051743 0.712341 0.610518
O O16 0.221074 0.568505 0.865396
O O17 0.744400 0.601068 0.732085
O O18 0.500000 0.000000 0.500000
#
# Coordination Sequence:
#
# PCOD9029081 Si02
#       8
#     2   2   2   2   2   2   2   2
#     4  11  23  41  59  87 124 159 202 246 295 351
#     4  10  22  42  66  89 120 156 194 245 302 356
#     4  11  23  41  61  87 120 163 204 244 297 350
#     4  10  23  40  61  89 120 155 201 247 293 353
#     4  11  24  39  61  90 123 157 197 247 298 353
#     4  11  24  39  61  92 120 156 202 245 295 353
#     4  10  22  42  66  89 119 156 197 245 298 354
#     4  10  23  40  61  89 120 157 198 245 298 352
#
# _framework density 20.339182999999998
#
# number of rings (size 3 to 8) (size 9 to 14) (size 15 to 20)
#    0.000    1.500    2.500    1.500    5.250    5.000 
#    0.000    0.000    0.000    0.000    0.000    0.000 
#    0.000    0.000    0.000    0.000    0.000    0.000 
#
# Total GULP energy -89203.220222 kJ/mol
# GULP energy per Si atom -5575.201264 kJ/mol
# Density = 2.029289 g / cm^3
# Si number density = 20.339183 Si / 1000 Ang^3
#
#
#
# Elastic Constant Matrix: (Units=GPa)
#
#
# Indices 1 2 3 4 5 6 
#
# 1 87.7724 30.6653 15.7828 -4.0648 -27.5331 17.2038
# 2 30.6653 126.9819 16.5602 4.9544 -26.1218 -7.1207
# 3 15.7828 16.5602 62.2638 -6.4761 -27.3573 4.0895
# 4 -4.0648 4.9544 -6.4761 25.0003 9.5410 5.3805
# 5 -27.5331 -26.1218 -27.3573 9.5410 35.1364 -5.6704
# 6 17.2038 -7.1207 4.0895 5.3805 -5.6704 28.7412
#
#
#
# Elastic Compliance Matrix: (Units=1/GPa)
#
#
# Indices 1 2 3 4 5 6 
#
# 1 0.017459 -0.002778 0.002039 0.001694 0.011204 -0.009536
# 2 -0.002778 0.011344 0.000916 -0.008165 0.010467 0.007937
# 3 0.002039 0.000916 0.024824 -0.001922 0.022162 0.000206
# 4 0.001694 -0.008165 -0.001922 0.054280 -0.023823 -0.017625
# 5 0.011204 0.010467 0.022162 -0.023823 0.070539 0.011110
# 6 -0.009536 0.007937 0.000206 -0.017625 0.011110 0.047929
#
#
# Mechanical properties :
#
#
# Convention : Reuss Voigt Hill
#
# Bulk Modulus (GPa) = 18.52551 44.78163 31.65357
# Shear Modulus (GPa) = 20.49042 32.04289 26.26665
#
# Velocity S-wave (km/s) = 3.17746 3.97347 3.59755
# Velocity P-wave (km/s) = 4.75286 6.56632 5.73176
#
# Compressibility (1/GPa) = 0.05397962
#
# Stress axis : x y z
#
# Youngs Moduli (GPa) = 57.27634 88.15621 40.28322
#
# Poissons Ratio (x) = 0.24490 -0.08212
# Poissons Ratio (y) = 0.15912 -0.03689
# Poissons Ratio (z) = -0.11677 -0.08073
#
# Static dielectric constant tensor:
#      x y z
#    x 1.788010 0.027190 0.083330 
#    y 0.027190 1.697550 0.030030 
#    z 0.083330 0.030030 1.714640 
# 
# From -- ./inp_files/46255.got.cif
#   From: 2010.05.17/outbox.cif.g08.bks.cpg/sg2_24_cif.got.tgz:46255.got - 2010.06.03 11:33:40.
