data_PCOD9029548
_publ_section_title
;
Structure prediction by ZEFSAII (Michael W. Deem and Ramdas Pophale) SiO2 
 PCOD9029548
Probable space group: P -1
;
_chemical_formula_sum "Si O2"
_cell_formula_units_Z 16
_cell_length_a 24.986052
_cell_length_b 25.096091
_cell_length_c 10.697909
_cell_angle_alpha 35.200010
_cell_angle_beta 146.547954
_cell_angle_gamma 168.617089
_cell_volume 729.795215
_symmetry_space_group_name_H-M "P -1"
_symmetry_group_IT_number 2
_symmetry_cell_setting 'triclinic'
loop_
_space_group_symop_operation_xyz
x,y,z
-x,-y,-z
loop_
_atom_site_type_symbol
_atom_site_label
_atom_site_fract_x
_atom_site_fract_y
_atom_site_fract_z
Si Si1 0.621452 0.883643 0.367685
Si Si2 0.512998 0.283470 0.161801
Si Si3 0.722633 0.738691 0.374873
Si Si4 0.229345 0.533706 0.947099
Si Si5 0.793549 0.624543 0.577872
Si Si6 0.384446 0.952601 0.249940
Si Si7 0.606546 0.124974 0.102951
Si Si8 0.087467 0.785174 0.444919
O O1 0.436242 0.624502 0.488628
O O2 0.776634 0.048244 0.484596
O O3 0.397614 0.767321 0.129219
O O4 0.888457 0.116414 0.345292
O O5 0.683063 0.396200 0.158894
O O6 0.270096 0.996882 0.285012
O O7 0.378484 0.257100 0.895916
O O8 0.756802 0.512054 0.303943
O O9 0.500000 0.500000 0.500000
O O10 0.774488 0.713923 0.408849
O O11 0.000000 0.000000 0.500000
O O12 0.907395 0.268928 0.848801
O O13 0.399955 0.771689 0.876115
O O14 0.284690 0.495002 0.214311
O O15 0.500000 0.000000 0.500000
O O16 0.386779 0.907626 0.204976
O O17 0.861649 0.280820 0.328444
O O18 0.500000 0.000000 0.000000
#
# Coordination Sequence:
#
# PCOD9029548 Si02
#       8
#     2   2   2   2   2   2   2   2
#     4  11  24  45  70  97 137 184 231 275 328 405
#     4  12  25  46  67 102 139 172 224 287 347 408
#     4  12  26  44  73 103 133 175 225 279 349 413
#     4  12  23  39  68  93 135 173 214 282 342 390
#     4  12  23  44  69 100 130 170 233 281 332 399
#     4  12  24  40  60  99 138 179 226 276 344 406
#     4  10  22  42  67  97 135 187 235 273 328 410
#     4  11  26  45  68  98 140 184 224 278 339 400
#
# _framework density 21.923957999999999
#
# number of rings (size 3 to 8) (size 9 to 14) (size 15 to 20)
#    0.000    0.500    3.750    4.875    1.750    2.000 
#    0.000    9.375    0.000    0.000    0.000    0.000 
#    0.000    0.000    0.000    0.000    0.000    0.000 
#
# Total GULP energy -89348.887726 kJ/mol
# GULP energy per Si atom -5584.305483 kJ/mol
# Density = 2.187406 g / cm^3
# Si number density = 21.923958 Si / 1000 Ang^3
#
#
#
# Elastic Constant Matrix: (Units=GPa)
#
#
# Indices 1 2 3 4 5 6 
#
# 1 128.8909 24.0377 27.9708 1.0832 6.5458 -7.0699
# 2 24.0377 142.7506 34.0420 5.0996 19.5619 -8.0097
# 3 27.9708 34.0420 104.5832 19.0809 5.0218 -6.3179
# 4 1.0832 5.0996 19.0809 28.5068 1.4341 -7.9900
# 5 6.5458 19.5619 5.0218 1.4341 35.3563 -1.6960
# 6 -7.0699 -8.0097 -6.3179 -7.9900 -1.6960 31.1413
#
#
#
# Elastic Compliance Matrix: (Units=1/GPa)
#
#
# Indices 1 2 3 4 5 6 
#
# 1 0.008501 -0.000758 -0.002215 0.001815 -0.000831 0.001706
# 2 -0.000758 0.008308 -0.002351 0.000728 -0.004082 0.001452
# 3 -0.002215 -0.002351 0.012316 -0.007928 0.000253 -0.000629
# 4 0.001815 0.000728 -0.007928 0.043029 -0.000880 0.009983
# 5 -0.000831 -0.004082 0.000253 -0.000880 0.030708 0.000259
# 6 0.001706 0.001452 -0.000629 0.009983 0.000259 0.035320
#
#
# Mechanical properties :
#
#
# Convention : Reuss Voigt Hill
#
# Bulk Modulus (GPa) = 54.12159 60.92508 57.52334
# Shear Modulus (GPa) = 32.26016 38.34583 35.30299
#
# Velocity S-wave (km/s) = 3.84012 4.18669 4.01714
# Velocity P-wave (km/s) = 6.66346 7.15687 6.91456
#
# Compressibility (1/GPa) = 0.01847692
#
# Stress axis : x y z
#
# Youngs Moduli (GPa) = 117.63087 120.35968 81.19816
#
# Poissons Ratio (x) = 0.09129 0.17985
# Poissons Ratio (y) = 0.08922 0.19087
# Poissons Ratio (z) = 0.26055 0.28293
#
# Static dielectric constant tensor:
#      x y z
#    x 1.872840 -0.022440 0.016780 
#    y -0.022440 1.801350 0.009890 
#    z 0.016780 0.009890 1.828560 
# 
# From -- ./inp_files/477212.got.cif
#   From: 2010.05.17/outbox.cif.g08.bks.cpg/sg2_239_cif.got.tgz:477212.got - 2010.06.03 11:33:40.
