data_PCOD9029263
_publ_section_title
;
Structure prediction by ZEFSAII (Michael W. Deem and Ramdas Pophale) SiO2 
 PCOD9029263
Probable space group: P -1
;
_chemical_formula_sum "Si O2"
_cell_formula_units_Z 16
_cell_length_a 11.326118
_cell_length_b 13.320278
_cell_length_c 9.310579
_cell_angle_alpha 45.337931
_cell_angle_beta 138.694978
_cell_angle_gamma 119.788141
_cell_volume 658.001422
_symmetry_space_group_name_H-M "P -1"
_symmetry_group_IT_number 2
_symmetry_cell_setting 'triclinic'
loop_
_space_group_symop_operation_xyz
x,y,z
-x,-y,-z
loop_
_atom_site_type_symbol
_atom_site_label
_atom_site_fract_x
_atom_site_fract_y
_atom_site_fract_z
Si Si1 0.450313 0.623962 0.214077
Si Si2 0.741234 0.167922 0.667445
Si Si3 0.258843 0.878670 0.953837
Si Si4 0.172451 0.142788 0.426249
Si Si5 0.940439 0.381245 0.669293
Si Si6 0.534932 0.653232 0.948513
Si Si7 0.816529 0.863692 0.891171
Si Si8 0.854215 0.555194 0.923590
O O1 0.500000 0.500000 0.500000
O O2 0.275998 0.563422 0.039329
O O3 0.379717 0.763684 0.092348
O O4 0.569137 0.646983 0.158763
O O5 0.621897 0.228336 0.358860
O O6 0.741656 0.346823 0.549129
O O7 0.784052 0.002052 0.813549
O O8 0.693866 0.119044 0.837944
O O9 0.046005 0.847029 0.773527
O O10 0.260978 0.029996 0.728067
O O11 0.208724 0.103830 0.332181
O O12 0.238057 0.297162 0.363107
O O13 0.000000 0.500000 0.500000
O O14 0.975783 0.210179 0.824424
O O15 0.042303 0.402738 0.884006
O O16 0.707299 0.728131 0.966098
O O17 0.500000 0.500000 0.000000
O O18 0.000000 0.500000 0.000000
#
# Coordination Sequence:
#
# PCOD9029263 Si02
#       8
#     2   2   2   2   2   2   2   2
#     4  12  26  46  70  99 138 180 228 280 344 407
#     4  12  23  43  68 102 135 175 229 280 340 407
#     4  11  23  41  68 100 133 178 218 286 336 400
#     4  10  22  42  66  98 136 172 228 272 343 392
#     4  11  23  39  64  97 131 170 224 278 334 393
#     4  12  26  46  69  98 139 182 224 280 337 410
#     4  11  24  44  66  98 136 182 227 275 339 402
#     4  11  21  42  66  97 131 173 223 276 334 399
#
# _framework density 24.316058999999999
#
# number of rings (size 3 to 8) (size 9 to 14) (size 15 to 20)
#    0.000    0.750    3.750    5.250    0.000    3.000 
#    0.000    1.875    0.000    0.000    0.000    0.000 
#    0.000    0.000    0.000    0.000    0.000    0.000 
#
# Total GULP energy -89198.329391 kJ/mol
# GULP energy per Si atom -5574.895587 kJ/mol
# Density = 2.426071 g / cm^3
# Si number density = 24.316059 Si / 1000 Ang^3
#
#
#
# Elastic Constant Matrix: (Units=GPa)
#
#
# Indices 1 2 3 4 5 6 
#
# 1 107.2206 56.2696 52.3387 -13.1466 -37.7689 -20.0436
# 2 56.2696 147.8041 46.1122 -33.7811 -6.8858 -18.2672
# 3 52.3387 46.1122 173.3555 -25.1738 -29.5610 -27.4517
# 4 -13.1466 -33.7811 -25.1738 34.2370 6.1898 6.1368
# 5 -37.7689 -6.8858 -29.5610 6.1898 46.2360 0.9992
# 6 -20.0436 -18.2672 -27.4517 6.1368 0.9992 50.6173
#
#
#
# Elastic Compliance Matrix: (Units=1/GPa)
#
#
# Indices 1 2 3 4 5 6 
#
# 1 0.018468 -0.006159 -0.001380 -0.003265 0.013627 0.004468
# 2 -0.006159 0.011172 -0.000601 0.009067 -0.004972 0.000266
# 3 -0.001380 -0.000601 0.007901 0.003549 0.003294 0.003026
# 4 -0.003265 0.009067 0.003549 0.040478 -0.004447 -0.000916
# 5 0.013627 -0.004972 0.003294 -0.004447 0.034607 0.005244
# 6 0.004468 0.000266 0.003026 -0.000916 0.005244 0.023270
#
#
# Mechanical properties :
#
#
# Convention : Reuss Voigt Hill
#
# Bulk Modulus (GPa) = 47.03797 81.98014 64.50906
# Shear Modulus (GPa) = 31.39437 44.46203 37.92820
#
# Velocity S-wave (km/s) = 3.59708 4.28074 3.95372
# Velocity P-wave (km/s) = 6.05297 7.63024 6.88691
#
# Compressibility (1/GPa) = 0.02125942
#
# Stress axis : x y z
#
# Youngs Moduli (GPa) = 54.14842 89.51239 126.55946
#
# Poissons Ratio (x) = 0.55134 0.17469
# Poissons Ratio (y) = 0.33352 0.07607
# Poissons Ratio (z) = 0.07474 0.05380
#
# Static dielectric constant tensor:
#      x y z
#    x 2.085380 0.044810 0.113840 
#    y 0.044810 1.953670 -0.017320 
#    z 0.113840 -0.017320 2.147500 
# 
# From -- ./inp_files/261821.got.cif
#   From: 2010.05.17/outbox.cif.g08.bks.cpg/sg2_131_cif.got.tgz:261821.got - 2010.06.03 11:33:40.
