data_PCOD9029756
_publ_section_title
;
Structure prediction by ZEFSAII (Michael W. Deem and Ramdas Pophale) SiO2 
 PCOD9029756
Probable space group: P -1
;
_chemical_formula_sum "Si O2"
_cell_formula_units_Z 16
_cell_length_a 8.835064
_cell_length_b 8.229942
_cell_length_c 19.418555
_cell_angle_alpha 60.457671
_cell_angle_beta 144.451209
_cell_angle_gamma 122.022293
_cell_volume 690.537732
_symmetry_space_group_name_H-M "P -1"
_symmetry_group_IT_number 2
_symmetry_cell_setting 'triclinic'
loop_
_space_group_symop_operation_xyz
x,y,z
-x,-y,-z
loop_
_atom_site_type_symbol
_atom_site_label
_atom_site_fract_x
_atom_site_fract_y
_atom_site_fract_z
Si Si1 0.294457 0.260416 0.034542
Si Si2 0.250705 0.934024 0.195126
Si Si3 0.709528 0.402880 0.942841
Si Si4 0.759035 0.166472 0.129288
Si Si5 0.187403 0.247212 0.713452
Si Si6 0.710339 0.271189 0.618019
Si Si7 0.804405 0.665475 0.649095
Si Si8 0.858457 0.981526 0.379021
O O1 0.370819 0.473337 0.050046
O O2 0.518751 0.205843 0.080283
O O3 0.234262 0.128500 0.109074
O O4 0.017652 0.219138 0.897735
O O5 0.277922 0.911739 0.291950
O O6 0.537481 0.913189 0.278953
O O7 0.486793 0.377268 0.806601
O O8 0.713495 0.204343 0.024641
O O9 0.000000 0.500000 0.000000
O O10 0.046061 0.310911 0.227684
O O11 0.795552 0.956044 0.203743
O O12 0.073088 0.181125 0.609894
O O13 0.978225 0.330573 0.660384
O O14 0.715871 0.446688 0.635988
O O15 0.451760 0.247764 0.478204
O O16 0.036165 0.805750 0.659063
O O17 0.000000 0.000000 0.500000
#
# Coordination Sequence:
#
# PCOD9029756 Si02
#       8
#     2   2   2   2   2   2   2   2
#     4  11  23  40  68  95 132 178 221 257 329 395
#     4  11  22  39  70  94 129 177 223 262 318 396
#     4  12  26  41  65 101 135 164 217 277 326 377
#     4  11  23  44  66  90 136 178 215 259 329 396
#     4  11  25  42  66  96 134 168 219 271 328 384
#     4  11  23  41  67  96 132 169 223 272 323 382
#     4  10  22  42  68  93 129 177 218 260 328 393
#     4  11  22  45  68  91 129 175 223 270 325 389
#
# _framework density 23.170349999999999
#
# number of rings (size 3 to 8) (size 9 to 14) (size 15 to 20)
#    0.000    1.000    3.750    3.750    3.500    2.000 
#    0.000    0.625    0.000    0.000    0.000    0.000 
#    0.000    0.000    0.000    0.000    0.000    0.000 
#
# Total GULP energy -89385.943647 kJ/mol
# GULP energy per Si atom -5586.621478 kJ/mol
# Density = 2.311761 g / cm^3
# Si number density = 23.170350 Si / 1000 Ang^3
#
#
#
# Elastic Constant Matrix: (Units=GPa)
#
#
# Indices 1 2 3 4 5 6 
#
# 1 57.0196 -0.7169 31.1127 1.7907 4.6461 11.4434
# 2 -0.7169 35.8505 15.7907 10.6759 7.5236 4.2920
# 3 31.1127 15.7907 145.3786 22.8004 -1.1717 1.5901
# 4 1.7907 10.6759 22.8004 30.2980 6.4569 2.5928
# 5 4.6461 7.5236 -1.1717 6.4569 37.7724 1.4839
# 6 11.4434 4.2920 1.5901 2.5928 1.4839 24.6886
#
#
#
# Elastic Compliance Matrix: (Units=1/GPa)
#
#
# Indices 1 2 3 4 5 6 
#
# 1 0.023284 0.004245 -0.005883 0.003378 -0.004027 -0.011264
# 2 0.004245 0.033763 -0.003317 -0.007874 -0.005751 -0.006451
# 3 -0.005883 -0.003317 0.009500 -0.006474 0.002659 0.003212
# 4 0.003378 -0.007874 -0.006474 0.042079 -0.006090 -0.003833
# 5 -0.004027 -0.005751 0.002659 -0.006090 0.029177 0.001581
# 6 -0.011264 -0.006451 0.003212 -0.003833 0.001581 0.046948
#
#
# Mechanical properties :
#
#
# Convention : Reuss Voigt Hill
#
# Bulk Modulus (GPa) = 17.65632 36.73576 27.19604
# Shear Modulus (GPa) = 23.41499 31.35592 27.38546
#
# Velocity S-wave (km/s) = 3.18238 3.68268 3.44163
# Velocity P-wave (km/s) = 4.59784 5.82854 5.24938
#
# Compressibility (1/GPa) = 0.05663695
#
# Stress axis : x y z
#
# Youngs Moduli (GPa) = 42.94807 29.61794 105.26835
#
# Poissons Ratio (x) = -0.12572 0.61930
# Poissons Ratio (y) = -0.18230 0.34912
# Poissons Ratio (z) = 0.25267 0.09823
#
# Static dielectric constant tensor:
#      x y z
#    x 1.875930 0.004790 -0.022690 
#    y 0.004790 1.889430 -0.011180 
#    z -0.022690 -0.011180 1.894240 
# 
# From -- ./inp_files/206053.got.cif
#   From: 2010.05.17/outbox.cif.g08.bks.cpg/sg2_104_cif.got.tgz:206053.got - 2010.06.03 11:33:40.
