data_PCOD9029288
_publ_section_title
;
Structure prediction by ZEFSAII (Michael W. Deem and Ramdas Pophale) SiO2 
 PCOD9029288
Probable space group: P -1
;
_chemical_formula_sum "Si O2"
_cell_formula_units_Z 14
_cell_length_a 9.596196
_cell_length_b 11.184726
_cell_length_c 9.867374
_cell_angle_alpha 92.605615
_cell_angle_beta 30.036541
_cell_angle_gamma 96.412893
_cell_volume 524.002809
_symmetry_space_group_name_H-M "P -1"
_symmetry_group_IT_number 2
_symmetry_cell_setting 'triclinic'
loop_
_space_group_symop_operation_xyz
x,y,z
-x,-y,-z
loop_
_atom_site_type_symbol
_atom_site_label
_atom_site_fract_x
_atom_site_fract_y
_atom_site_fract_z
Si Si1 0.425641 0.121032 0.935847
Si Si2 0.721542 0.304578 0.306935
Si Si3 0.980132 0.223056 0.596262
Si Si4 0.888399 0.417836 0.894196
Si Si5 0.818922 0.655556 0.844356
Si Si6 0.500000 0.500000 0.500000
Si Si7 0.000000 0.000000 0.500000
Si Si8 0.709620 0.043719 0.208846
O O1 0.426087 0.263069 0.921543
O O2 0.145520 0.076848 0.251410
O O3 0.726710 0.114614 0.753089
O O4 0.406022 0.034247 0.824143
O O5 0.442785 0.352496 0.597503
O O6 0.727821 0.187338 0.206656
O O7 0.939157 0.299060 0.245374
O O8 0.755705 0.409658 0.159339
O O9 0.879528 0.296817 0.808334
O O10 0.082612 0.314443 0.392360
O O11 0.174485 0.122814 0.459848
O O12 0.214926 0.472277 0.639893
O O13 0.744780 0.514648 0.934100
O O14 0.500000 0.000000 0.500000
O O15 0.000000 0.000000 0.000000
#
# Coordination Sequence:
#
# PCOD9029288 Si02
#       8
#     2   2   2   2   2   1   1   2
#     4  11  24  44  72 100 144 188 245 302 373 435
#     4  11  24  44  70 102 143 184 249 296 368 432
#     4  11  24  42  67  99 138 183 235 300 368 444
#     4  11  25  43  66 103 135 184 243 297 368 437
#     4  10  22  42  66  99 138 181 236 300 360 441
#     4  10  24  42  70  94 140 184 228 306 354 438
#     4  10  24  44  68 100 140 184 240 300 362 442
#     4  12  27  45  75 110 149 195 248 305 374 444
#
# _framework density 26.717411999999999
#
# number of rings (size 3 to 8) (size 9 to 14) (size 15 to 20)
#    0.000    1.143    1.429    4.286    4.000    9.714 
#    0.000    0.000    0.000    0.000    0.000    0.000 
#    0.000    0.000    0.000    0.000    0.000    0.000 
#
# Total GULP energy -77935.528842 kJ/mol
# GULP energy per Si atom -5566.823489 kJ/mol
# Density = 2.665660 g / cm^3
# Si number density = 26.717412 Si / 1000 Ang^3
#
#
#
# Elastic Constant Matrix: (Units=GPa)
#
#
# Indices 1 2 3 4 5 6 
#
# 1 84.3377 26.0234 29.7886 14.5311 -4.8755 9.0383
# 2 26.0234 161.2566 20.0751 38.2721 12.5212 -8.8690
# 3 29.7886 20.0751 111.8761 -4.4221 17.1756 -4.1326
# 4 14.5311 38.2721 -4.4221 51.5141 -4.9631 5.8240
# 5 -4.8755 12.5212 17.1756 -4.9631 46.0825 13.8250
# 6 9.0383 -8.8690 -4.1326 5.8240 13.8250 58.1567
#
#
#
# Elastic Compliance Matrix: (Units=1/GPa)
#
#
# Indices 1 2 3 4 5 6 
#
# 1 0.015193 -0.001886 -0.004677 -0.002388 0.004769 -0.003876
# 2 -0.001886 0.008655 -0.000581 -0.006696 -0.004015 0.003197
# 3 -0.004677 -0.000581 0.011230 0.001953 -0.005044 0.002440
# 4 -0.002388 -0.006696 0.001953 0.026193 0.004953 -0.004312
# 5 0.004769 -0.004015 -0.005044 0.004953 0.028397 -0.008958
# 6 -0.003876 0.003197 0.002440 -0.004312 -0.008958 0.021020
#
#
# Mechanical properties :
#
#
# Convention : Reuss Voigt Hill
#
# Bulk Modulus (GPa) = 48.10003 56.58273 52.34138
# Shear Modulus (GPa) = 37.90609 49.92285 43.91447
#
# Velocity S-wave (km/s) = 3.77075 4.32736 4.05861
# Velocity P-wave (km/s) = 6.08280 6.79649 6.44953
#
# Compressibility (1/GPa) = 0.02079001
#
# Stress axis : x y z
#
# Youngs Moduli (GPa) = 65.81780 115.54246 89.05040
#
# Poissons Ratio (x) = 0.21795 0.41646
# Poissons Ratio (y) = 0.12415 0.05174
# Poissons Ratio (z) = 0.30781 0.06713
#
# Static dielectric constant tensor:
#      x y z
#    x 2.191120 -0.303210 -0.203790 
#    y -0.303210 2.621950 0.376050 
#    z -0.203790 0.376050 2.334910 
# 
# From -- ./inp_files/60507.got.cif
#   From: 2010.05.17/outbox.cif.g08.bks.cpg/sg2_31_cif.got.tgz:60507.got - 2010.06.03 11:33:40.
