data_PCOD9029447
_publ_section_title
;
Structure prediction by ZEFSAII (Michael W. Deem and Ramdas Pophale) SiO2 
 PCOD9029447
Probable space group: P -1
;
_chemical_formula_sum "Si O2"
_cell_formula_units_Z 14
_cell_length_a 25.422854
_cell_length_b 5.178914
_cell_length_c 12.114069
_cell_angle_alpha 44.586399
_cell_angle_beta 31.402952
_cell_angle_gamma 53.715323
_cell_volume 582.831226
_symmetry_space_group_name_H-M "P -1"
_symmetry_group_IT_number 2
_symmetry_cell_setting 'triclinic'
loop_
_space_group_symop_operation_xyz
x,y,z
-x,-y,-z
loop_
_atom_site_type_symbol
_atom_site_label
_atom_site_fract_x
_atom_site_fract_y
_atom_site_fract_z
Si Si1 0.899866 0.541219 0.740684
Si Si2 0.419279 0.841758 0.104381
Si Si3 0.473272 0.062438 0.336296
Si Si4 0.355941 0.865367 0.806157
Si Si5 0.216057 0.185968 0.317029
Si Si6 0.176701 0.254161 0.957084
Si Si7 0.932080 0.192565 0.150791
O O1 0.829975 0.836673 0.715807
O O2 0.899832 0.680940 0.823501
O O3 0.000000 0.500000 0.500000
O O4 0.849442 0.126169 0.946423
O O5 0.422527 0.408109 0.261421
O O6 0.302664 0.928092 0.281038
O O7 0.459326 0.038497 0.858511
O O8 0.500000 0.000000 0.000000
O O9 0.553772 0.151596 0.262865
O O10 0.395172 0.810401 0.626036
O O11 0.272396 0.581774 0.091852
O O12 0.292511 0.234702 0.796370
O O13 0.119465 0.120541 0.585890
O O14 0.157197 0.593706 0.810994
O O15 0.000000 0.500000 0.000000
O O16 0.000000 0.000000 0.000000
#
# Coordination Sequence:
#
# PCOD9029447 Si02
#       7
#     2   2   2   2   2   2   2
#     4  11  23  42  69  96 134 175 232 290 347 412
#     4  11  22  42  65 103 139 185 228 287 352 423
#     4  10  22  42  67  94 146 179 238 283 348 418
#     4  10  22  43  66 103 132 190 233 292 349 420
#     4  11  24  43  69 103 136 184 235 291 354 421
#     4  11  23  43  65  99 131 176 229 279 353 413
#     4  12  27  48  72 102 140 184 235 297 358 423
#
# _framework density 24.020676000000002
#
# number of rings (size 3 to 8) (size 9 to 14) (size 15 to 20)
#    0.000    1.143    1.429    4.714    0.000    5.143 
#   12.857    0.000    0.000    0.000    0.000    0.000 
#    0.000    0.000    0.000    0.000    0.000    0.000 
#
# Total GULP energy -78049.297030 kJ/mol
# GULP energy per Si atom -5574.949788 kJ/mol
# Density = 2.396600 g / cm^3
# Si number density = 24.020676 Si / 1000 Ang^3
#
#
#
# Elastic Constant Matrix: (Units=GPa)
#
#
# Indices 1 2 3 4 5 6 
#
# 1 86.0059 34.1482 42.1723 -0.0704 26.4388 -15.2165
# 2 34.1482 84.4460 29.8673 3.8724 5.8572 -16.0554
# 3 42.1723 29.8673 171.5375 7.1766 31.4805 15.6680
# 4 -0.0704 3.8724 7.1766 31.4327 -3.3435 9.2169
# 5 26.4388 5.8572 31.4805 -3.3435 36.8708 2.1303
# 6 -15.2165 -16.0554 15.6680 9.2169 2.1303 52.5293
#
#
#
# Elastic Compliance Matrix: (Units=1/GPa)
#
#
# Indices 1 2 3 4 5 6 
#
# 1 0.019228 -0.005113 -0.002128 -0.001662 -0.011621 0.005405
# 2 -0.005113 0.015407 -0.002193 -0.002357 0.002636 0.004189
# 3 -0.002128 -0.002193 0.007968 -0.001109 -0.004840 -0.003273
# 4 -0.001662 -0.002357 -0.001109 0.035141 0.006121 -0.007285
# 5 -0.011621 0.002636 -0.004840 0.006121 0.039944 -0.003811
# 6 0.005405 0.004189 -0.003273 -0.007285 -0.003811 0.024292
#
#
# Mechanical properties :
#
#
# Convention : Reuss Voigt Hill
#
# Bulk Modulus (GPa) = 42.13278 61.59611 51.86444
# Shear Modulus (GPa) = 29.62767 39.88666 34.75716
#
# Velocity S-wave (km/s) = 3.51582 4.07936 3.80803
# Velocity P-wave (km/s) = 5.83606 6.92003 6.40104
#
# Compressibility (1/GPa) = 0.02373449
#
# Stress axis : x y z
#
# Youngs Moduli (GPa) = 52.00693 64.90650 125.49564
#
# Poissons Ratio (x) = 0.33185 0.26711
# Poissons Ratio (y) = 0.26590 0.27525
# Poissons Ratio (z) = 0.11069 0.14236
#
# Static dielectric constant tensor:
#      x y z
#    x 1.898790 -0.002550 -0.010570 
#    y -0.002550 2.000030 -0.003020 
#    z -0.010570 -0.003020 1.956890 
# 
# From -- ./inp_files/475952.got.cif
#   From: 2010.05.17/outbox.cif.g08.bks.cpg/sg2_238_cif.got.tgz:475952.got - 2010.06.03 11:33:40.
