data_PCOD9029565
_publ_section_title
;
Structure prediction by ZEFSAII (Michael W. Deem and Ramdas Pophale) SiO2 
 PCOD9029565
Probable space group: P -1
;
_chemical_formula_sum "Si O2"
_cell_formula_units_Z 12
_cell_length_a 8.705556
_cell_length_b 5.566885
_cell_length_c 14.067393
_cell_angle_alpha 52.737311
_cell_angle_beta 58.338479
_cell_angle_gamma 61.875959
_cell_volume 449.800162
_symmetry_space_group_name_H-M "P -1"
_symmetry_group_IT_number 2
_symmetry_cell_setting 'triclinic'
loop_
_space_group_symop_operation_xyz
x,y,z
-x,-y,-z
loop_
_atom_site_type_symbol
_atom_site_label
_atom_site_fract_x
_atom_site_fract_y
_atom_site_fract_z
Si Si1 0.136822 0.331945 0.915390
Si Si2 0.779943 0.208762 0.628901
Si Si3 0.226514 0.077796 0.506854
Si Si4 0.578038 0.718852 0.845365
Si Si5 0.693698 0.167297 0.262010
Si Si6 0.927611 0.248308 0.833788
O O1 0.313812 0.468664 0.831645
O O2 0.037212 0.426621 0.826005
O O3 0.000000 0.500000 0.000000
O O4 0.158034 0.975988 0.016158
O O5 0.736591 0.574641 0.578578
O O6 0.004204 0.115351 0.581480
O O7 0.729550 0.117943 0.558720
O O8 0.680626 0.991105 0.779545
O O9 0.335729 0.899022 0.603707
O O10 0.424938 0.879406 0.779734
O O11 0.752602 0.485020 0.793307
O O12 0.500000 0.500000 0.000000
O O13 0.903768 0.959712 0.228608
#
# Coordination Sequence:
#
# PCOD9029565 Si02
#       6
#     2   2   2   2   2   2
#     4   9  18  38  63  94 139 192 247 296 370 444
#     4  10  25  49  80 113 150 207 258 319 389 460
#     4  10  24  49  83 109 152 206 262 317 384 461
#     4  12  26  47  72 115 154 197 256 318 387 461
#     4  11  25  42  73 110 145 199 251 319 378 463
#     4  10  22  42  67  97 149 200 244 312 379 455
#
# _framework density 26.678511
#
# number of rings (size 3 to 8) (size 9 to 14) (size 15 to 20)
#    0.000    1.667    0.000    4.000    9.333    3.333 
#    6.000    0.000    0.000    0.000    0.000    0.000 
#    0.000    0.000    0.000    0.000    0.000    0.000 
#
# Total GULP energy -67009.962342 kJ/mol
# GULP energy per Si atom -5584.163528 kJ/mol
# Density = 2.661779 g / cm^3
# Si number density = 26.678511 Si / 1000 Ang^3
#
#
#
# Elastic Constant Matrix: (Units=GPa)
#
#
# Indices 1 2 3 4 5 6 
#
# 1 93.8824 74.5317 83.6431 5.2511 -13.9943 -4.4587
# 2 74.5317 108.2919 29.0688 -1.8400 6.6533 9.1875
# 3 83.6431 29.0688 110.5428 -4.8837 -9.1542 21.4000
# 4 5.2511 -1.8400 -4.8837 37.8020 19.3965 -5.7326
# 5 -13.9943 6.6533 -9.1542 19.3965 54.5479 -9.4801
# 6 -4.4587 9.1875 21.4000 -5.7326 -9.4801 60.6335
#
#
#
# Elastic Compliance Matrix: (Units=1/GPa)
#
#
# Indices 1 2 3 4 5 6 
#
# 1 -0.065030 0.037624 0.043520 0.026814 -0.028324 -0.027736
# 2 0.037624 -0.011592 -0.027825 -0.014333 0.014135 0.015199
# 3 0.043520 -0.027825 -0.018665 -0.017987 0.020518 0.015512
# 4 0.026814 -0.014333 -0.017987 0.021544 0.000129 0.012549
# 5 -0.028324 0.014135 0.020518 0.000129 0.011049 -0.009727
# 6 -0.027736 0.015199 0.015512 0.012549 -0.009727 0.006341
#
#
# Mechanical properties :
#
#
# Convention : Reuss Voigt Hill
#
# Bulk Modulus (GPa) = 88.10048 76.35603 82.22826
# Shear Modulus (GPa) = -31.40532 38.96158 3.77813
#
# Velocity S-wave (km/s) = -3.43472 3.82568 1.19132
# Velocity P-wave (km/s) = 4.16713 6.94243 5.72548
#
# Compressibility (1/GPa) = 0.01135068
#
# Stress axis : x y z
#
# Youngs Moduli (GPa) = -15.37748 -86.26294 -53.57543
#
# Poissons Ratio (x) = 3.24552 2.33163
# Poissons Ratio (y) = 0.57856 -1.49072
# Poissons Ratio (z) = 0.66923 -2.40025
#
# Static dielectric constant tensor:
#      x y z
#    x 2.119300 -0.044940 -0.040010 
#    y -0.044940 2.057760 0.010810 
#    z -0.040010 0.010810 2.221860 
# 
# From -- ./inp_files/130372.got.cif
#   From: 2010.05.17/outbox.cif.g08.bks.cpg/sg2_66_cif.got.tgz:130372.got - 2010.06.03 11:33:40.
