data_PCOD9029551
_publ_section_title
;
Structure prediction by ZEFSAII (Michael W. Deem and Ramdas Pophale) SiO2 
 PCOD9029551
Probable space group: P -1
;
_chemical_formula_sum "Si O2"
_cell_formula_units_Z 12
_cell_length_a 5.219952
_cell_length_b 15.810244
_cell_length_c 9.662342
_cell_angle_alpha 133.846477
_cell_angle_beta 59.573062
_cell_angle_gamma 121.956607
_cell_volume 475.037622
_symmetry_space_group_name_H-M "P -1"
_symmetry_group_IT_number 2
_symmetry_cell_setting 'triclinic'
loop_
_space_group_symop_operation_xyz
x,y,z
-x,-y,-z
loop_
_atom_site_type_symbol
_atom_site_label
_atom_site_fract_x
_atom_site_fract_y
_atom_site_fract_z
Si Si1 0.102081 0.272019 0.480045
Si Si2 0.159908 0.517871 0.126936
Si Si3 0.978772 0.816172 0.890823
Si Si4 0.417139 0.109420 0.732228
Si Si5 0.068019 0.146627 0.635169
Si Si6 0.637881 0.325903 0.216682
O O1 0.962434 0.181703 0.287040
O O2 0.151241 0.199939 0.521255
O O3 0.436720 0.358882 0.435997
O O4 0.875809 0.353595 0.663644
O O5 0.938314 0.421257 0.182962
O O6 0.500000 0.500000 0.000000
O O7 0.000000 0.500000 0.000000
O O8 0.643299 0.711288 0.860433
O O9 0.244094 0.781619 0.864688
O O10 0.867220 0.921782 0.117631
O O11 0.313187 0.191705 0.739840
O O12 0.743714 0.172070 0.785280
O O13 0.500000 0.000000 0.500000
O O14 0.000000 0.000000 0.500000
#
# Coordination Sequence:
#
# PCOD9029551 Si02
#       6
#     2   2   2   2   2   2
#     4  10  27  43  73  96 147 182 232 280 355 405
#     4  12  28  43  69 108 137 182 235 284 347 413
#     4  10  23  41  71  96 137 188 228 276 352 409
#     4  10  22  42  67  97 136 178 229 290 339 403
#     4  10  23  42  69 101 133 181 232 286 342 408
#     4  10  24  44  66 101 142 180 231 281 345 421
#
# _framework density 25.261156
#
# number of rings (size 3 to 8) (size 9 to 14) (size 15 to 20)
#    1.000    0.667    0.000    2.500   11.667    0.667 
#    0.000    6.667    0.000    0.000    0.000    0.000 
#    0.000    0.000    0.000    0.000    0.000    0.000 
#
# Total GULP energy -66930.537942 kJ/mol
# GULP energy per Si atom -5577.544828 kJ/mol
# Density = 2.520366 g / cm^3
# Si number density = 25.261156 Si / 1000 Ang^3
#
#
#
# Elastic Constant Matrix: (Units=GPa)
#
#
# Indices 1 2 3 4 5 6 
#
# 1 187.3813 27.6158 50.9380 -12.4244 -26.1444 -27.6292
# 2 27.6158 110.2247 48.1634 -7.6076 -10.1167 -17.0884
# 3 50.9380 48.1634 178.9466 -27.8353 -18.5908 -14.7950
# 4 -12.4244 -7.6076 -27.8353 23.0966 3.5083 3.8052
# 5 -26.1444 -10.1167 -18.5908 3.5083 48.4498 -18.1507
# 6 -27.6292 -17.0884 -14.7950 3.8052 -18.1507 40.8291
#
#
#
# Elastic Compliance Matrix: (Units=1/GPa)
#
#
# Indices 1 2 3 4 5 6 
#
# 1 0.007704 0.000348 -0.000753 0.000978 0.006889 0.008058
# 2 0.000348 0.011225 -0.002302 -0.000445 0.003878 0.005865
# 3 -0.000753 -0.002302 0.008024 0.007883 0.002260 0.001705
# 4 0.000978 -0.000445 0.007883 0.053739 -0.001271 -0.002241
# 5 0.006889 0.003878 0.002260 -0.001271 0.034593 0.022601
# 6 0.008058 0.005865 0.001705 -0.002241 0.022601 0.043273
#
#
# Mechanical properties :
#
#
# Convention : Reuss Voigt Hill
#
# Bulk Modulus (GPa) = 46.42490 81.10966 63.76728
# Shear Modulus (GPa) = 29.21373 45.79746 37.50559
#
# Velocity S-wave (km/s) = 3.40438 4.26251 3.85738
# Velocity P-wave (km/s) = 5.81987 7.51022 6.71842
#
# Compressibility (1/GPa) = 0.02154016
#
# Stress axis : x y z
#
# Youngs Moduli (GPa) = 129.79996 89.08319 124.62643
#
# Poissons Ratio (x) = -0.03097 0.09379
# Poissons Ratio (y) = -0.04512 0.28686
# Poissons Ratio (z) = 0.09769 0.20504
#
# Static dielectric constant tensor:
#      x y z
#    x -0.893950 -1.649240 -3.569130 
#    y -1.649240 1.031050 -2.155020 
#    z -3.569130 -2.155020 -2.481190 
# 
# From -- ./inp_files/369558.got.cif
#   From: 2010.05.17/outbox.cif.g08.bks.cpg/sg2_185_cif.got.tgz:369558.got - 2010.06.03 11:33:40.
