data_PCOD9029883
_publ_section_title
;
Structure prediction by ZEFSAII (Michael W. Deem and Ramdas Pophale) SiO2 
 PCOD9029883
Probable space group: P -1
;
_chemical_formula_sum "Si O2"
_cell_formula_units_Z 14
_cell_length_a 12.250982
_cell_length_b 9.155593
_cell_length_c 15.246600
_cell_angle_alpha 54.847287
_cell_angle_beta 49.184966
_cell_angle_gamma 29.886604
_cell_volume 644.729419
_symmetry_space_group_name_H-M "P -1"
_symmetry_group_IT_number 2
_symmetry_cell_setting 'triclinic'
loop_
_space_group_symop_operation_xyz
x,y,z
-x,-y,-z
loop_
_atom_site_type_symbol
_atom_site_label
_atom_site_fract_x
_atom_site_fract_y
_atom_site_fract_z
Si Si1 0.094802 0.582774 0.251620
Si Si2 0.433862 0.982777 0.897983
Si Si3 0.153644 0.783761 0.301639
Si Si4 0.537872 0.709686 0.123326
Si Si5 0.978588 0.818305 0.045730
Si Si6 0.264307 0.348181 0.523228
Si Si7 0.223578 0.703604 0.552788
O O1 0.113944 0.749129 0.236669
O O2 0.967049 0.729389 0.175344
O O3 0.953330 0.575167 0.383163
O O4 0.349948 0.272145 0.191673
O O5 0.440819 0.188321 0.837461
O O6 0.228786 0.067340 0.937045
O O7 0.432867 0.914508 0.022673
O O8 0.375632 0.697238 0.225979
O O9 0.216583 0.543089 0.406485
O O10 0.921261 0.114321 0.345127
O O11 0.797184 0.422424 0.051014
O O12 0.000000 0.000000 0.000000
O O13 0.267180 0.464751 0.570918
O O14 0.500000 0.000000 0.500000
O O15 0.500000 0.500000 0.500000
O O16 0.000000 0.000000 0.500000
#
# Coordination Sequence:
#
# PCOD9029883 Si02
#       7
#     2   2   2   2   2   2   2
#     4  11  24  41  65  97 131 177 224 283 348 416
#     4  10  22  43  66  96 137 170 225 285 345 422
#     4  11  23  44  71 100 141 183 234 293 352 432
#     4  10  22  42  68  98 131 176 225 281 352 414
#     4  11  23  40  66  96 133 173 225 279 347 416
#     4  11  25  43  69 102 138 183 237 292 356 424
#     4  10  23  47  69 100 141 188 241 292 354 425
#
# _framework density 21.714537
#
# number of rings (size 3 to 8) (size 9 to 14) (size 15 to 20)
#    0.000    1.429    0.000    4.286    4.000    3.429 
#   10.286    0.000    0.000    0.000    0.000    0.000 
#    0.000    0.000    0.000    0.000    0.000    0.000 
#
# Total GULP energy -77945.543469 kJ/mol
# GULP energy per Si atom -5567.538819 kJ/mol
# Density = 2.166511 g / cm^3
# Si number density = 21.714537 Si / 1000 Ang^3
#
#
#
# Elastic Constant Matrix: (Units=GPa)
#
#
# Indices 1 2 3 4 5 6 
#
# 1 209.6349 92.5499 52.4386 41.3772 -27.2494 19.1734
# 2 92.5499 137.6529 62.6985 74.2349 -20.9171 11.7553
# 3 52.4386 62.6985 112.3594 40.3991 -37.9685 -2.6967
# 4 41.3772 74.2349 40.3991 88.8751 -13.2293 3.8570
# 5 -27.2494 -20.9171 -37.9685 -13.2293 58.4645 16.5056
# 6 19.1734 11.7553 -2.6967 3.8570 16.5056 39.2673
#
#
#
# Elastic Compliance Matrix: (Units=1/GPa)
#
#
# Indices 1 2 3 4 5 6 
#
# 1 0.007401 -0.004762 -0.000409 0.001280 0.002758 -0.003501
# 2 -0.004762 0.018738 -0.004245 -0.011430 -0.000188 -0.002374
# 3 -0.000409 -0.004245 0.014631 -0.001770 0.007539 -0.000520
# 4 0.001280 -0.011430 -0.001770 0.020967 -0.000081 0.000649
# 5 0.002758 -0.000188 0.007539 -0.000081 0.026569 -0.011933
# 6 -0.003501 -0.002374 -0.000520 0.000649 -0.011933 0.032803
#
#
# Mechanical properties :
#
#
# Convention : Reuss Voigt Hill
#
# Bulk Modulus (GPa) = 45.58248 97.22459 71.40353
# Shear Modulus (GPa) = 33.95527 54.11872 44.03700
#
# Velocity S-wave (km/s) = 3.95867 4.99769 4.50821
# Velocity P-wave (km/s) = 6.47549 8.84159 7.74938
#
# Compressibility (1/GPa) = 0.02193826
#
# Stress axis : x y z
#
# Youngs Moduli (GPa) = 135.11847 53.36840 68.34844
#
# Poissons Ratio (x) = 0.25414 0.02796
# Poissons Ratio (y) = 0.64343 0.29011
# Poissons Ratio (z) = 0.05528 0.22652
#
# Static dielectric constant tensor:
#      x y z
#    x 1.791670 -0.030590 0.045810 
#    y -0.030590 1.879220 -0.074620 
#    z 0.045810 -0.074620 1.818470 
# 
# From -- ./inp_files/53293.got.cif
#   From: 2010.05.17/outbox.cif.g08.bks.cpg/sg2_27_cif.got.tgz:53293.got - 2010.06.03 11:33:40.
