data_PCOD9029477
_publ_section_title
;
Structure prediction by ZEFSAII (Michael W. Deem and Ramdas Pophale) SiO2 
 PCOD9029477
Probable space group: P -1
;
_chemical_formula_sum "Si O2"
_cell_formula_units_Z 16
_cell_length_a 11.057338
_cell_length_b 8.238841
_cell_length_c 11.410387
_cell_angle_alpha 67.616978
_cell_angle_beta 52.174257
_cell_angle_gamma 65.241610
_cell_volume 734.374974
_symmetry_space_group_name_H-M "P -1"
_symmetry_group_IT_number 2
_symmetry_cell_setting 'triclinic'
loop_
_space_group_symop_operation_xyz
x,y,z
-x,-y,-z
loop_
_atom_site_type_symbol
_atom_site_label
_atom_site_fract_x
_atom_site_fract_y
_atom_site_fract_z
Si Si1 0.337628 0.601660 0.308792
Si Si2 0.113711 0.301440 0.965180
Si Si3 0.422047 0.205716 0.960515
Si Si4 0.190798 0.801228 0.857162
Si Si5 0.289704 0.170927 0.672070
Si Si6 0.928791 0.517699 0.408227
Si Si7 0.749818 0.470480 0.883107
Si Si8 0.546726 0.341979 0.419230
O O1 0.449122 0.737510 0.214904
O O2 0.188658 0.616032 0.480176
O O3 0.284880 0.598179 0.206008
O O4 0.454667 0.414191 0.333295
O O5 0.996734 0.169857 0.055010
O O6 0.249807 0.234767 0.997618
O O7 0.213991 0.300258 0.788797
O O8 0.000000 0.500000 0.000000
O O9 0.384080 0.350493 0.049933
O O10 0.500000 0.000000 0.000000
O O11 0.273739 0.704434 0.716102
O O12 0.256424 0.979224 0.772235
O O13 0.235981 0.676419 0.980639
O O14 0.180844 0.278475 0.602495
O O15 0.470567 0.179535 0.548439
O O16 0.000000 0.500000 0.500000
O O17 0.078530 0.485074 0.242648
O O18 0.500000 0.500000 0.500000
#
# Coordination Sequence:
#
# PCOD9029477 Si02
#       8
#     2   2   2   2   2   2   2   2
#     4  10  22  42  67  95 133 182 220 276 351 411
#     4  12  23  43  66  97 140 181 226 279 354 406
#     4  12  26  41  64 103 136 178 227 285 343 411
#     4  12  24  40  71 102 135 175 242 289 336 409
#     4  11  23  38  66 105 131 179 236 285 332 415
#     4   9  20  39  66  91 133 171 220 272 343 400
#     4  11  22  43  70  98 132 180 227 283 350 407
#     4  11  23  43  65  96 142 184 223 277 355 419
#
# _framework density 21.787234999999999
#
# number of rings (size 3 to 8) (size 9 to 14) (size 15 to 20)
#    0.000    1.000    3.750    2.625    1.750    2.000 
#    0.000    5.625    0.000    0.000    0.000    0.000 
#    0.000    0.000    0.000    0.000    0.000    0.000 
#
# Total GULP energy -89271.488487 kJ/mol
# GULP energy per Si atom -5579.468030 kJ/mol
# Density = 2.173765 g / cm^3
# Si number density = 21.787235 Si / 1000 Ang^3
#
#
#
# Elastic Constant Matrix: (Units=GPa)
#
#
# Indices 1 2 3 4 5 6 
#
# 1 88.7821 25.5378 45.6866 -5.8077 -8.1524 -7.5438
# 2 25.5378 94.8789 51.1355 -22.6770 -2.4695 -2.9872
# 3 45.6866 51.1355 163.7887 -16.8354 -32.3590 -0.9430
# 4 -5.8077 -22.6770 -16.8354 33.1869 5.6981 -6.7313
# 5 -8.1524 -2.4695 -32.3590 5.6981 52.8800 -1.2756
# 6 -7.5438 -2.9872 -0.9430 -6.7313 -1.2756 25.8330
#
#
#
# Elastic Compliance Matrix: (Units=1/GPa)
#
#
# Indices 1 2 3 4 5 6 
#
# 1 0.013782 -0.001784 -0.003206 0.000311 0.000137 0.003789
# 2 -0.001784 0.015403 -0.003889 0.009429 -0.002869 0.003433
# 3 -0.003206 -0.003889 0.009228 0.000483 0.004903 -0.000681
# 4 0.000311 0.009429 0.000483 0.039739 -0.003223 0.011395
# 5 0.000137 -0.002869 0.004903 -0.003223 0.022149 0.000141
# 6 0.003789 0.003433 -0.000681 0.011395 0.000141 0.043165
#
#
# Mechanical properties :
#
#
# Convention : Reuss Voigt Hill
#
# Bulk Modulus (GPa) = 48.41709 65.79661 57.10685
# Shear Modulus (GPa) = 29.74251 37.38596 33.56424
#
# Velocity S-wave (km/s) = 3.69878 4.14690 3.92924
# Velocity P-wave (km/s) = 6.36492 7.29344 6.84494
#
# Compressibility (1/GPa) = 0.02065386
#
# Stress axis : x y z
#
# Youngs Moduli (GPa) = 72.56066 64.92214 108.36295
#
# Poissons Ratio (x) = 0.11584 0.34744
# Poissons Ratio (y) = 0.12947 0.42143
# Poissons Ratio (z) = 0.23265 0.25248
#
# Static dielectric constant tensor:
#      x y z
#    x 1.881300 0.022870 -0.000780 
#    y 0.022870 1.804090 0.021110 
#    z -0.000780 0.021110 1.858440 
# 
# From -- ./inp_files/416436.got.cif
#   From: 2010.05.17/outbox.cif.g08.bks.cpg/sg2_209_cif.got.tgz:416436.got - 2010.06.03 11:33:40.
