data_PCOD9029954
_publ_section_title
;
Structure prediction by ZEFSAII (Michael W. Deem and Ramdas Pophale) SiO2 
 PCOD9029954
Probable space group: P -1
;
_chemical_formula_sum "Si O2"
_cell_formula_units_Z 14
_cell_length_a 11.241292
_cell_length_b 6.460280
_cell_length_c 8.367303
_cell_angle_alpha 95.823432
_cell_angle_beta 103.448732
_cell_angle_gamma 78.228628
_cell_volume 577.626094
_symmetry_space_group_name_H-M "P -1"
_symmetry_group_IT_number 2
_symmetry_cell_setting 'triclinic'
loop_
_space_group_symop_operation_xyz
x,y,z
-x,-y,-z
loop_
_atom_site_type_symbol
_atom_site_label
_atom_site_fract_x
_atom_site_fract_y
_atom_site_fract_z
Si Si1 0.406633 0.623692 0.850532
Si Si2 0.008308 0.212618 0.613419
Si Si3 0.206494 0.852835 0.033761
Si Si4 0.954607 0.752230 0.001141
Si Si5 0.258795 0.308020 0.586564
Si Si6 0.734123 0.410207 0.650730
Si Si7 0.572809 0.123034 0.410743
O O1 0.327183 0.465090 0.725940
O O2 0.477716 0.742562 0.751148
O O3 0.500000 0.500000 0.000000
O O4 0.307666 0.799181 0.925580
O O5 0.051145 0.187629 0.809028
O O6 0.112016 0.326129 0.573934
O O7 0.865144 0.324330 0.596359
O O8 0.000000 0.000000 0.500000
O O9 0.246004 0.675448 0.170123
O O10 0.068905 0.814920 0.943948
O O11 0.171945 0.101188 0.094665
O O12 0.000000 0.500000 0.000000
O O13 0.290325 0.357057 0.415580
O O14 0.317799 0.066644 0.627581
O O15 0.628790 0.291520 0.544772
O O16 0.500000 0.000000 0.500000
#
# Coordination Sequence:
#
# PCOD9029954 Si02
#       7
#     2   2   2   2   2   2   2
#     4  11  27  47  73 106 144 193 248 303 358 435
#     4  11  21  42  72 107 144 182 241 299 368 436
#     4  10  23  43  67 100 142 179 242 297 357 425
#     4  10  22  42  69 100 143 189 233 300 369 431
#     4  11  24  44  72 102 144 192 238 292 371 433
#     4  10  24  42  70 105 141 187 233 303 363 442
#     4  11  26  46  69 102 142 189 248 299 356 430
#
# _framework density 24.237128999999999
#
# number of rings (size 3 to 8) (size 9 to 14) (size 15 to 20)
#    0.000    1.429    1.429    2.143    6.000    4.000 
#   10.286    0.000    0.000    0.000    0.000    0.000 
#    0.000    0.000    0.000    0.000    0.000    0.000 
#
# Total GULP energy -78101.776324 kJ/mol
# GULP energy per Si atom -5578.698309 kJ/mol
# Density = 2.418196 g / cm^3
# Si number density = 24.237129 Si / 1000 Ang^3
#
#
#
# Elastic Constant Matrix: (Units=GPa)
#
#
# Indices 1 2 3 4 5 6 
#
# 1 121.7555 23.1918 45.1507 -8.7939 -23.4498 18.9635
# 2 23.1918 108.3461 55.0707 -24.1059 -3.7403 6.3313
# 3 45.1507 55.0707 110.7339 -16.1281 -14.0636 15.2240
# 4 -8.7939 -24.1059 -16.1281 36.2137 7.4943 -5.1091
# 5 -23.4498 -3.7403 -14.0636 7.4943 36.2389 -7.7183
# 6 18.9635 6.3313 15.2240 -5.1091 -7.7183 49.7955
#
#
#
# Elastic Compliance Matrix: (Units=1/GPa)
#
#
# Indices 1 2 3 4 5 6 
#
# 1 0.010866 -0.000460 -0.003289 -0.000561 0.005332 -0.002305
# 2 -0.000460 0.013862 -0.006091 0.007016 -0.002554 0.000599
# 3 -0.003289 -0.006091 0.014030 0.000688 0.002149 -0.001858
# 4 -0.000561 0.007016 0.000688 0.033937 -0.006037 0.001658
# 5 0.005332 -0.002554 0.002149 -0.006037 0.033329 0.002183
# 6 -0.002305 0.000599 -0.001858 0.001658 0.002183 0.021961
#
#
# Mechanical properties :
#
#
# Convention : Reuss Voigt Hill
#
# Bulk Modulus (GPa) = 52.41999 65.29576 58.85787
# Shear Modulus (GPa) = 32.46219 38.94445 35.70332
#
# Velocity S-wave (km/s) = 3.66369 4.01285 3.84224
# Velocity P-wave (km/s) = 6.29061 6.96200 6.63481
#
# Compressibility (1/GPa) = 0.01907669
#
# Stress axis : x y z
#
# Youngs Moduli (GPa) = 92.02939 72.13954 71.27659
#
# Poissons Ratio (x) = 0.03319 0.23445
# Poissons Ratio (y) = 0.04234 0.43416
# Poissons Ratio (z) = 0.30272 0.43942
#
# Static dielectric constant tensor:
#      x y z
#    x 1.960390 -0.035990 0.054870 
#    y -0.035990 2.092760 -0.047060 
#    z 0.054870 -0.047060 1.985140 
# 
# From -- ./inp_files/229766.got.cif
#   From: 2010.05.17/outbox.cif.g08.bks.cpg/sg2_115_cif.got.tgz:229766.got - 2010.06.03 11:33:40.
