data_PCOD9029190
_publ_section_title
;
Structure prediction by ZEFSAII (Michael W. Deem and Ramdas Pophale) SiO2 
 PCOD9029190
Probable space group: P -1
;
_chemical_formula_sum "Si O2"
_cell_formula_units_Z 14
_cell_length_a 8.497028
_cell_length_b 9.685582
_cell_length_c 9.152389
_cell_angle_alpha 97.862719
_cell_angle_beta 75.727234
_cell_angle_gamma 65.489636
_cell_volume 639.320117
_symmetry_space_group_name_H-M "P -1"
_symmetry_group_IT_number 2
_symmetry_cell_setting 'triclinic'
loop_
_space_group_symop_operation_xyz
x,y,z
-x,-y,-z
loop_
_atom_site_type_symbol
_atom_site_label
_atom_site_fract_x
_atom_site_fract_y
_atom_site_fract_z
Si Si1 0.419290 0.002269 0.862418
Si Si2 0.534909 0.282176 0.371910
Si Si3 0.991931 0.855250 0.064075
Si Si4 0.081056 0.833203 0.377135
Si Si5 0.479504 0.783463 0.309021
Si Si6 0.859876 0.472763 0.131526
Si Si7 0.816548 0.401642 0.439690
O O1 0.205589 0.126468 0.929934
O O2 0.521290 0.065001 0.738872
O O3 0.433545 0.837410 0.782643
O O4 0.500000 0.000000 0.000000
O O5 0.521887 0.202411 0.514389
O O6 0.699528 0.324404 0.375429
O O7 0.343345 0.441396 0.428241
O O8 0.998266 0.860351 0.238703
O O9 0.141678 0.683642 0.953343
O O10 0.000000 0.000000 0.000000
O O11 0.299331 0.770397 0.302664
O O12 0.059353 0.713560 0.477890
O O13 0.000000 0.000000 0.500000
O O14 0.338644 0.374545 0.800203
O O15 0.913409 0.440060 0.287237
O O16 0.000000 0.500000 0.000000
#
# Coordination Sequence:
#
# PCOD9029190 Si02
#       7
#     2   2   2   2   2   2   2
#     4  12  24  39  64  99 138 177 220 277 345 405
#     4   9  19  39  66  94 129 171 227 277 324 405
#     4  12  25  42  67  97 136 183 226 277 336 401
#     4  11  23  42  69  99 132 173 234 280 326 410
#     4  10  22  42  66  95 136 178 220 274 344 393
#     4  11  22  43  67  95 144 174 219 281 338 402
#     4   9  20  40  67  96 125 178 228 276 335 392
#
# _framework density 21.898264000000001
#
# number of rings (size 3 to 8) (size 9 to 14) (size 15 to 20)
#    0.000    1.429    1.429    5.571    0.000    1.714 
#    0.000    0.714    0.000    0.000    0.000    0.000 
#    0.000    0.000    0.000    0.000    0.000    0.000 
#
# Total GULP energy -78266.782217 kJ/mol
# GULP energy per Si atom -5590.484444 kJ/mol
# Density = 2.184842 g / cm^3
# Si number density = 21.898264 Si / 1000 Ang^3
#
#
#
# Elastic Constant Matrix: (Units=GPa)
#
#
# Indices 1 2 3 4 5 6 
#
# 1 69.7194 14.8496 47.7337 -11.8639 7.0372 -11.7935
# 2 14.8496 106.6132 51.5735 -9.3158 8.5748 -1.5078
# 3 47.7337 51.5735 114.1865 -5.9694 5.9940 -13.8760
# 4 -11.8639 -9.3158 -5.9694 55.4420 4.4217 1.9221
# 5 7.0372 8.5748 5.9940 4.4217 38.2850 -10.8662
# 6 -11.7935 -1.5078 -13.8760 1.9221 -10.8662 25.5167
#
#
#
# Elastic Compliance Matrix: (Units=1/GPa)
#
#
# Indices 1 2 3 4 5 6 
#
# 1 0.021817 0.002029 -0.009229 0.004073 -0.002395 0.003858
# 2 0.002029 0.012797 -0.006770 0.002259 -0.003472 -0.003636
# 3 -0.009229 -0.006770 0.016092 -0.001751 0.002380 0.005231
# 4 0.004073 0.002259 -0.001751 0.019473 -0.003803 -0.002023
# 5 -0.002395 -0.003472 0.002380 -0.003803 0.031259 0.013580
# 6 0.003858 -0.003636 0.005231 -0.002023 0.013580 0.049538
#
#
# Mechanical properties :
#
#
# Convention : Reuss Voigt Hill
#
# Bulk Modulus (GPa) = 43.92325 57.64808 50.78566
# Shear Modulus (GPa) = 26.80882 35.60622 31.20752
#
# Velocity S-wave (km/s) = 3.50272 4.03672 3.77916
# Velocity P-wave (km/s) = 6.03822 6.93609 6.50267
#
# Compressibility (1/GPa) = 0.02276699
#
# Stress axis : x y z
#
# Youngs Moduli (GPa) = 45.83496 78.14306 62.14079
#
# Poissons Ratio (x) = -0.15854 0.57351
# Poissons Ratio (y) = -0.09299 0.42067
# Poissons Ratio (z) = 0.42302 0.52900
#
# Static dielectric constant tensor:
#      x y z
#    x 1.812270 0.040080 -0.033290 
#    y 0.040080 1.872380 -0.042600 
#    z -0.033290 -0.042600 1.802020 
# 
# From -- ./inp_files/155261.got.cif
#   From: 2010.05.17/outbox.cif.g08.bks.cpg/sg2_78_cif.got.tgz:155261.got - 2010.06.03 11:33:40.
