data_PCOD9029382
_publ_section_title
;
Structure prediction by ZEFSAII (Michael W. Deem and Ramdas Pophale) SiO2 
 PCOD9029382
Probable space group: P -1
;
_chemical_formula_sum "Si O2"
_cell_formula_units_Z 16
_cell_length_a 15.933271
_cell_length_b 9.182849
_cell_length_c 11.932013
_cell_angle_alpha 67.358870
_cell_angle_beta 23.439097
_cell_angle_gamma 70.685299
_cell_volume 639.721150
_symmetry_space_group_name_H-M "P -1"
_symmetry_group_IT_number 2
_symmetry_cell_setting 'triclinic'
loop_
_space_group_symop_operation_xyz
x,y,z
-x,-y,-z
loop_
_atom_site_type_symbol
_atom_site_label
_atom_site_fract_x
_atom_site_fract_y
_atom_site_fract_z
Si Si1 0.313732 0.955447 0.638342
Si Si2 0.311477 0.287818 0.513337
Si Si3 0.745632 0.085984 0.545526
Si Si4 0.362944 0.615745 0.268789
Si Si5 0.192242 0.137038 0.098645
Si Si6 0.792410 0.752739 0.699914
Si Si7 0.253819 0.773223 0.127960
Si Si8 0.501751 0.330220 0.498316
O O1 0.191402 0.118954 0.740310
O O2 0.500000 0.000000 0.500000
O O3 0.298263 0.937917 0.524530
O O4 0.290872 0.767692 0.750964
O O5 0.246642 0.444857 0.484145
O O6 0.375577 0.353552 0.534350
O O7 0.532473 0.242551 0.198605
O O8 0.643597 0.243630 0.671602
O O9 0.985619 0.126085 0.278167
O O10 0.701949 0.913054 0.709755
O O11 0.273509 0.683401 0.245784
O O12 0.616748 0.610205 0.943207
O O13 0.168981 0.217756 0.223495
O O14 0.243785 0.958282 0.113259
O O15 0.368765 0.218254 0.779913
O O16 0.022405 0.728595 0.372263
O O17 0.500000 0.500000 0.500000
#
# Coordination Sequence:
#
# PCOD9029382 Si02
#       8
#     2   2   2   2   2   2   2   2
#     4  10  22  42  67  91 132 178 229 277 339 404
#     4  11  24  41  65  98 137 186 222 280 351 404
#     4  11  21  40  70 103 134 181 232 285 345 404
#     4  12  23  40  69 102 142 179 229 277 348 415
#     4  11  21  41  70 103 141 172 235 289 334 411
#     4  11  22  38  69 108 135 178 231 285 343 403
#     4  11  22  41  65 103 145 175 225 288 341 413
#     4  11  23  44  72  95 129 182 240 283 337 411
#
# _framework density 25.010898000000001
#
# number of rings (size 3 to 8) (size 9 to 14) (size 15 to 20)
#    0.000    1.000    3.750    4.500    0.000    0.500 
#    0.000    6.250    8.250    0.000    0.000    0.000 
#    0.000    0.000    0.000    0.000    0.000    0.000 
#
# Total GULP energy -89128.690418 kJ/mol
# GULP energy per Si atom -5570.543151 kJ/mol
# Density = 2.495397 g / cm^3
# Si number density = 25.010898 Si / 1000 Ang^3
#
#
#
# Elastic Constant Matrix: (Units=GPa)
#
#
# Indices 1 2 3 4 5 6 
#
# 1 144.7238 48.5079 19.0324 0.8108 13.1467 -8.9105
# 2 48.5079 132.0990 15.9569 -10.3273 -9.1060 0.8575
# 3 19.0324 15.9569 43.6022 0.3553 -7.1878 -7.1769
# 4 0.8108 -10.3273 0.3553 22.0166 6.2360 14.8957
# 5 13.1467 -9.1060 -7.1878 6.2360 26.8826 -2.7873
# 6 -8.9105 0.8575 -7.1769 14.8957 -2.7873 43.1218
#
#
#
# Elastic Compliance Matrix: (Units=1/GPa)
#
#
# Indices 1 2 3 4 5 6 
#
# 1 0.009193 -0.003468 -0.003543 -0.001046 -0.006236 0.001337
# 2 -0.003468 0.009802 -0.002225 0.006218 0.002641 -0.003259
# 3 -0.003543 -0.002225 0.028760 -0.010534 0.011995 0.008513
# 4 -0.001046 0.006218 -0.010534 0.073876 -0.020335 -0.028927
# 5 -0.006236 0.002641 0.011995 -0.020335 0.050200 0.010924
# 6 0.001337 -0.003259 0.008513 -0.028927 0.010924 0.035647
#
#
# Mechanical properties :
#
#
# Convention : Reuss Voigt Hill
#
# Bulk Modulus (GPa) = 34.15037 54.15773 44.15405
# Shear Modulus (GPa) = 21.21250 34.19939 27.70595
#
# Velocity S-wave (km/s) = 2.91543 3.70182 3.33191
# Velocity P-wave (km/s) = 5.00168 6.32234 5.70038
#
# Compressibility (1/GPa) = 0.02928226
#
# Stress axis : x y z
#
# Youngs Moduli (GPa) = 108.78158 102.02306 34.77080
#
# Poissons Ratio (x) = 0.35382 0.12319
# Poissons Ratio (y) = 0.37726 0.07737
# Poissons Ratio (z) = 0.38539 0.22701
#
# Static dielectric constant tensor:
#      x y z
#    x 1.939880 -0.014010 -0.045670 
#    y -0.014010 2.097180 0.034950 
#    z -0.045670 0.034950 2.214920 
# 
# From -- ./inp_files/447029.got.cif
#   From: 2010.05.17/outbox.cif.g08.bks.cpg/sg2_224_cif.got.tgz:447029.got - 2010.06.03 11:33:40.
