data_PCOD9029331
_publ_section_title
;
Structure prediction by ZEFSAII (Michael W. Deem and Ramdas Pophale) SiO2 
 PCOD9029331
Probable space group: P -1
;
_chemical_formula_sum "Si O2"
_cell_formula_units_Z 16
_cell_length_a 12.193715
_cell_length_b 11.594892
_cell_length_c 23.948638
_cell_angle_alpha 35.663547
_cell_angle_beta 20.746650
_cell_angle_gamma 35.333924
_cell_volume 673.079797
_symmetry_space_group_name_H-M "P -1"
_symmetry_group_IT_number 2
_symmetry_cell_setting 'triclinic'
loop_
_space_group_symop_operation_xyz
x,y,z
-x,-y,-z
loop_
_atom_site_type_symbol
_atom_site_label
_atom_site_fract_x
_atom_site_fract_y
_atom_site_fract_z
Si Si1 0.864040 0.324003 0.799347
Si Si2 0.128956 0.535168 0.679808
Si Si3 0.308286 0.884589 0.758801
Si Si4 0.202129 0.200613 0.171541
Si Si5 0.466900 0.744633 0.233438
Si Si6 0.017285 0.195099 0.950721
Si Si7 0.794419 0.793488 0.954071
Si Si8 0.055058 0.436311 0.435281
O O1 0.852600 0.393898 0.713289
O O2 0.920860 0.513341 0.733285
O O3 0.547594 0.252779 0.993942
O O4 0.172669 0.127802 0.738949
O O5 0.500000 0.500000 0.500000
O O6 0.042563 0.366517 0.827739
O O7 0.005282 0.730914 0.701328
O O8 0.671807 0.777832 0.612902
O O9 0.076218 0.849838 0.832918
O O10 0.258109 0.769930 0.885216
O O11 0.090725 0.301061 0.124098
O O12 0.224866 0.962043 0.246482
O O13 0.681922 0.821255 0.145736
O O14 0.286510 0.596898 0.406509
O O15 0.652865 0.665790 0.117995
O O16 0.000000 0.000000 0.000000
O O17 0.500000 0.000000 0.000000
O O18 0.000000 0.500000 0.500000
#
# Coordination Sequence:
#
# PCOD9029331 Si02
#       8
#     2   2   2   2   2   2   2   2
#     4  12  24  49  71 100 143 186 246 286 350 427
#     4  12  27  42  66 108 142 181 239 296 354 426
#     4  11  24  45  78 101 138 193 235 292 351 427
#     4  11  22  43  73  95 138 189 231 291 352 417
#     4  10  22  42  67 102 143 177 232 302 353 410
#     4  11  21  45  73  99 136 187 248 285 346 428
#     4   9  18  41  73 100 128 182 240 283 347 421
#     4  12  29  45  68 112 150 184 233 295 368 426
#
# _framework density 23.771328
#
# number of rings (size 3 to 8) (size 9 to 14) (size 15 to 20)
#    0.000    1.000    5.000    2.625    3.500    3.500 
#    0.000    5.000    0.000    0.000    0.000    0.000 
#    0.000    0.000    0.000    0.000    0.000    0.000 
#
# Total GULP energy -89394.416419 kJ/mol
# GULP energy per Si atom -5587.151026 kJ/mol
# Density = 2.371722 g / cm^3
# Si number density = 23.771328 Si / 1000 Ang^3
#
#
#
# Elastic Constant Matrix: (Units=GPa)
#
#
# Indices 1 2 3 4 5 6 
#
# 1 117.8387 5.1483 29.1857 12.4571 10.6494 13.7871
# 2 5.1483 49.0245 17.5680 11.4406 15.8146 6.5800
# 3 29.1857 17.5680 108.0913 17.3589 3.8887 11.3208
# 4 12.4571 11.4406 17.3589 29.6595 8.2217 7.1155
# 5 10.6494 15.8146 3.8887 8.2217 35.2496 -0.0060
# 6 13.7871 6.5800 11.3208 7.1155 -0.0060 41.8222
#
#
#
# Elastic Compliance Matrix: (Units=1/GPa)
#
#
# Indices 1 2 3 4 5 6 
#
# 1 0.009728 0.001499 -0.002185 -0.001975 -0.002910 -0.002516
# 2 0.001499 0.026468 -0.003163 -0.005315 -0.010739 -0.002899
# 3 -0.002185 -0.003163 0.011142 -0.004682 0.001942 -0.001001
# 4 -0.001975 -0.005315 -0.004682 0.042152 -0.006335 -0.004418
# 5 -0.002910 -0.010739 0.001942 -0.006335 0.035330 0.003206
# 6 -0.002516 -0.002899 -0.001001 -0.004418 0.003206 0.026219
#
#
# Mechanical properties :
#
#
# Convention : Reuss Voigt Hill
#
# Bulk Modulus (GPa) = 25.22704 42.08426 33.65565
# Shear Modulus (GPa) = 29.07808 36.21642 32.64725
#
# Velocity S-wave (km/s) = 3.50128 3.90748 3.70994
# Velocity P-wave (km/s) = 5.19430 6.17253 5.70442
#
# Compressibility (1/GPa) = 0.03964000
#
# Stress axis : x y z
#
# Youngs Moduli (GPa) = 102.79663 37.78167 89.74804
#
# Poissons Ratio (x) = -0.05662 0.19609
# Poissons Ratio (y) = -0.15406 0.28386
# Poissons Ratio (z) = 0.22460 0.11950
#
# Static dielectric constant tensor:
#      x y z
#    x 2.104620 -0.059510 0.109160 
#    y -0.059510 2.095730 -0.063090 
#    z 0.109160 -0.063090 1.994190 
# 
# From -- ./inp_files/610342.got.cif
#   From: 2010.05.17/outbox.cif.g08.bks.cpg/sg2_306_cif.got.tgz:610342.got - 2010.06.03 11:33:40.
