data_PCOD9029915
_publ_section_title
;
Structure prediction by ZEFSAII (Michael W. Deem and Ramdas Pophale) SiO2 
 PCOD9029915
Probable space group: P -1
;
_chemical_formula_sum "Si O2"
_cell_formula_units_Z 16
_cell_length_a 12.152540
_cell_length_b 17.712731
_cell_length_c 8.677806
_cell_angle_alpha 121.266319
_cell_angle_beta 92.128301
_cell_angle_gamma 38.900704
_cell_volume 732.062305
_symmetry_space_group_name_H-M "P -1"
_symmetry_group_IT_number 2
_symmetry_cell_setting 'triclinic'
loop_
_space_group_symop_operation_xyz
x,y,z
-x,-y,-z
loop_
_atom_site_type_symbol
_atom_site_label
_atom_site_fract_x
_atom_site_fract_y
_atom_site_fract_z
Si Si1 0.025535 0.527576 0.261909
Si Si2 0.504757 0.074815 0.206150
Si Si3 0.911309 0.170475 0.497629
Si Si4 0.832802 0.402919 0.826436
Si Si5 0.010083 0.334844 0.066700
Si Si6 0.632720 0.647902 0.639746
Si Si7 0.710959 0.258095 0.913962
Si Si8 0.752478 0.229582 0.222167
O O1 0.089247 0.555552 0.172028
O O2 0.050549 0.407598 0.094689
O O3 0.218186 0.411439 0.281310
O O4 0.754433 0.738004 0.527640
O O5 0.527885 0.158178 0.231732
O O6 0.500000 0.000000 0.000000
O O7 0.733050 0.891018 0.127726
O O8 0.995558 0.211816 0.553310
O O9 0.778550 0.251640 0.743222
O O10 0.758975 0.269859 0.435660
O O11 0.121094 0.948595 0.278001
O O12 0.564089 0.574320 0.941386
O O13 0.865756 0.379578 0.985193
O O14 0.840570 0.466035 0.344435
O O15 0.464974 0.685055 0.708080
O O16 0.748830 0.279553 0.105753
O O17 0.000000 0.000000 0.000000
#
# Coordination Sequence:
#
# PCOD9029915 Si02
#       8
#     2   2   2   2   2   2   2   2
#     4  11  23  41  64  95 130 166 215 269 321 394
#     4  11  21  39  68  94 129 166 215 271 318 387
#     4  10  24  43  64  97 132 170 229 266 322 398
#     4  12  25  41  64  95 129 174 212 266 333 387
#     4  11  24  41  65  96 128 175 214 263 333 391
#     4  11  21  42  67  93 130 168 217 266 330 386
#     4  10  22  44  66  89 139 172 213 281 324 380
#     4  10  22  42  68  99 128 175 218 270 331 385
#
# _framework density 21.856065000000001
#
# number of rings (size 3 to 8) (size 9 to 14) (size 15 to 20)
#    0.000    1.250    3.750    2.250    0.000    9.000 
#    2.250    0.000    0.000    0.000    0.000    0.000 
#    0.000    0.000    0.000    0.000    0.000    0.000 
#
# Total GULP energy -89280.860932 kJ/mol
# GULP energy per Si atom -5580.053808 kJ/mol
# Density = 2.180632 g / cm^3
# Si number density = 21.856065 Si / 1000 Ang^3
#
#
#
# Elastic Constant Matrix: (Units=GPa)
#
#
# Indices 1 2 3 4 5 6 
#
# 1 47.0141 34.5151 26.8568 -12.2863 1.8897 -9.9657
# 2 34.5151 137.5633 64.0384 -19.6738 9.5315 -17.5065
# 3 26.8568 64.0384 54.2269 6.6991 17.5334 1.3021
# 4 -12.2863 -19.6738 6.6991 46.1770 -6.3923 4.2744
# 5 1.8897 9.5315 17.5334 -6.3923 17.2872 -14.1548
# 6 -9.9657 -17.5065 1.3021 4.2744 -14.1548 25.1455
#
#
#
# Elastic Compliance Matrix: (Units=1/GPa)
#
#
# Indices 1 2 3 4 5 6 
#
# 1 0.017989 -0.012791 0.015634 -0.005020 -0.026054 -0.016398
# 2 -0.012791 0.005099 0.009637 -0.004748 -0.025849 -0.015762
# 3 0.015634 0.009637 -0.021124 0.014964 0.054380 0.042067
# 4 -0.005020 -0.004748 0.014964 0.014745 -0.025192 -0.022758
# 5 -0.026054 -0.025849 0.054380 -0.025192 -0.021356 -0.038877
# 6 -0.016398 -0.015762 0.042067 -0.022758 -0.038877 0.002101
#
#
# Mechanical properties :
#
#
# Convention : Reuss Voigt Hill
#
# Bulk Modulus (GPa) = 37.14282 54.40279 45.77281
# Shear Modulus (GPa) = -269.82957 25.28155 -122.27401
#
# Velocity S-wave (km/s) = -11.12320 3.40476 -7.48776
# Velocity P-wave (km/s) = 12.16290 6.35625 7.33261
#
# Compressibility (1/GPa) = 0.02692310
#
# Stress axis : x y z
#
# Youngs Moduli (GPa) = 55.58949 196.12787 -47.33973
#
# Poissons Ratio (x) = 2.50869 0.74012
# Poissons Ratio (y) = 0.71105 0.45619
# Poissons Ratio (z) = -0.86910 -1.89000
#
# Static dielectric constant tensor:
#      x y z
#    x 1.773510 0.065630 -0.017790 
#    y 0.065630 1.839520 -0.055870 
#    z -0.017790 -0.055870 1.789580 
# 
# From -- ./inp_files/279914.got.cif
#   From: 2010.05.17/outbox.cif.g08.bks.cpg/sg2_140_cif.got.tgz:279914.got - 2010.06.03 11:33:40.
