data_PCOD9029506
_publ_section_title
;
Structure prediction by ZEFSAII (Michael W. Deem and Ramdas Pophale) SiO2 
 PCOD9029506
Probable space group: P -1
;
_chemical_formula_sum "Si O2"
_cell_formula_units_Z 14
_cell_length_a 11.138574
_cell_length_b 9.614667
_cell_length_c 9.333245
_cell_angle_alpha 48.271685
_cell_angle_beta 98.583302
_cell_angle_gamma 121.579204
_cell_volume 603.462522
_symmetry_space_group_name_H-M "P -1"
_symmetry_group_IT_number 2
_symmetry_cell_setting 'triclinic'
loop_
_space_group_symop_operation_xyz
x,y,z
-x,-y,-z
loop_
_atom_site_type_symbol
_atom_site_label
_atom_site_fract_x
_atom_site_fract_y
_atom_site_fract_z
Si Si1 0.643646 0.322913 0.358511
Si Si2 0.341756 0.267359 0.421262
Si Si3 0.320922 0.322403 0.068504
Si Si4 0.220901 0.779402 0.772185
Si Si5 0.844692 0.969539 0.014788
Si Si6 0.747570 0.556487 0.491197
Si Si7 0.898520 0.434524 0.817122
O O1 0.497325 0.309185 0.382038
O O2 0.652850 0.156403 0.368558
O O3 0.712718 0.366711 0.497600
O O4 0.731733 0.539930 0.117951
O O5 0.264655 0.250762 0.268340
O O6 0.364692 0.464280 0.393372
O O7 0.243928 0.017871 0.644652
O O8 0.259809 0.116387 0.087430
O O9 0.500000 0.500000 0.000000
O O10 0.062788 0.606367 0.789588
O O11 0.216393 0.665306 0.999812
O O12 0.877183 0.208888 0.903931
O O13 0.772514 0.762845 0.258389
O O14 0.000000 0.000000 0.000000
O O15 0.871630 0.572716 0.601942
#
# Coordination Sequence:
#
# PCOD9029506 Si02
#       7
#     2   2   2   2   2   2   2
#     4  10  22  42  67  96 132 175 225 278 329 404
#     4  11  22  42  68  96 133 180 223 272 342 395
#     4   9  21  40  66  92 132 173 222 268 336 398
#     4  11  24  43  64  98 139 174 228 276 328 407
#     4  11  24  43  68 100 136 176 226 281 336 405
#     4  11  24  42  69  98 133 175 221 279 341 391
#     4  11  25  44  66  99 139 174 225 278 334 400
#
# _framework density 23.199451
#
# number of rings (size 3 to 8) (size 9 to 14) (size 15 to 20)
#    0.000    1.429    1.429    3.429    4.000    2.857 
#    0.000    0.714    0.000    0.000    0.000    0.000 
#    0.000    0.000    0.000    0.000    0.000    0.000 
#
# Total GULP energy -77968.070986 kJ/mol
# GULP energy per Si atom -5569.147928 kJ/mol
# Density = 2.314665 g / cm^3
# Si number density = 23.199451 Si / 1000 Ang^3
#
#
#
# Elastic Constant Matrix: (Units=GPa)
#
#
# Indices 1 2 3 4 5 6 
#
# 1 74.2039 36.6852 3.0753 15.4368 -9.4202 -12.2622
# 2 36.6852 88.3911 9.9251 24.8252 -4.1174 -15.2265
# 3 3.0753 9.9251 75.4485 25.4037 3.3985 8.5332
# 4 15.4368 24.8252 25.4037 44.1162 -0.7096 0.2356
# 5 -9.4202 -4.1174 3.3985 -0.7096 25.4731 7.3585
# 6 -12.2622 -15.2265 8.5332 0.2356 7.3585 38.7847
#
#
#
# Elastic Compliance Matrix: (Units=1/GPa)
#
#
# Indices 1 2 3 4 5 6 
#
# 1 0.018119 -0.006060 0.000674 -0.003252 0.004878 0.002296
# 2 -0.006060 0.016669 0.000016 -0.007314 -0.001165 0.004890
# 3 0.000674 0.000016 0.017036 -0.010060 -0.001375 -0.003207
# 4 -0.003252 -0.007314 -0.010060 0.033732 0.000469 -0.001980
# 5 0.004878 -0.001165 -0.001375 0.000469 0.043027 -0.006779
# 6 0.002296 0.004890 -0.003207 -0.001980 -0.006779 0.030433
#
#
# Mechanical properties :
#
#
# Convention : Reuss Voigt Hill
#
# Bulk Modulus (GPa) = 24.33916 37.49054 30.91485
# Shear Modulus (GPa) = 27.25529 34.23199 30.74364
#
# Velocity S-wave (km/s) = 3.43129 3.84546 3.64426
# Velocity P-wave (km/s) = 5.11980 5.99265 5.57334
#
# Compressibility (1/GPa) = 0.04108606
#
# Stress axis : x y z
#
# Youngs Moduli (GPa) = 55.18934 59.99253 58.69793
#
# Poissons Ratio (x) = 0.36354 -0.03958
# Poissons Ratio (y) = 0.33444 -0.00095
# Poissons Ratio (z) = -0.03722 -0.00097
#
# Static dielectric constant tensor:
#      x y z
#    x 1.923170 -0.023620 -0.057910 
#    y -0.023620 2.009470 -0.011950 
#    z -0.057910 -0.011950 1.956400 
# 
# From -- ./inp_files/204038.got.cif
#   From: 2010.05.17/outbox.cif.g08.bks.cpg/sg2_103_cif.got.tgz:204038.got - 2010.06.03 11:33:40.
