data_PCOD9029898
_publ_section_title
;
Structure prediction by ZEFSAII (Michael W. Deem and Ramdas Pophale) SiO2 
 PCOD9029898
Probable space group: P -1
;
_chemical_formula_sum "Si O2"
_cell_formula_units_Z 16
_cell_length_a 5.690397
_cell_length_b 12.138009
_cell_length_c 17.299074
_cell_angle_alpha 44.107926
_cell_angle_beta 126.521102
_cell_angle_gamma 131.165993
_cell_volume 608.710060
_symmetry_space_group_name_H-M "P -1"
_symmetry_group_IT_number 2
_symmetry_cell_setting 'triclinic'
loop_
_space_group_symop_operation_xyz
x,y,z
-x,-y,-z
loop_
_atom_site_type_symbol
_atom_site_label
_atom_site_fract_x
_atom_site_fract_y
_atom_site_fract_z
Si Si1 0.150465 0.233369 0.721749
Si Si2 0.914296 0.335392 0.299901
Si Si3 0.725208 0.256986 0.073061
Si Si4 0.813383 0.888955 0.593348
Si Si5 0.268701 0.359501 0.850324
Si Si6 0.639974 0.092253 0.900255
Si Si7 0.064195 0.778570 0.476514
Si Si8 0.311385 0.174705 0.181594
O O1 0.167415 0.335703 0.752456
O O2 0.502184 0.234782 0.785345
O O3 0.067043 0.301064 0.591696
O O4 0.906042 0.026946 0.782132
O O5 0.819295 0.496061 0.200343
O O6 0.068447 0.330128 0.416364
O O7 0.558341 0.181390 0.294721
O O8 0.122329 0.284424 0.303998
O O9 0.568525 0.280060 0.111614
O O10 0.078255 0.266052 0.117366
O O11 0.514614 0.053557 0.119485
O O12 0.616341 0.364202 0.934610
O O13 0.440887 0.827784 0.534144
O O14 0.967886 0.037229 0.613850
O O15 0.000000 0.000000 0.500000
O O16 0.019007 0.180673 0.929850
O O17 0.500000 0.000000 0.000000
#
# Coordination Sequence:
#
# PCOD9029898 Si02
#       8
#     2   2   2   2   2   2   2   2
#     4  11  23  40  72 102 133 190 243 289 350 426
#     4  11  27  43  66 104 146 185 228 304 363 430
#     4  11  24  44  73 103 141 185 253 297 355 433
#     4   9  19  40  67  92 132 180 235 291 342 414
#     4  12  25  44  67 104 146 182 232 299 372 422
#     4  11  22  43  71 102 134 188 241 296 348 433
#     4  10  22  42  68  98 135 185 244 288 347 432
#     4  11  25  44  74 107 137 193 247 302 353 435
#
# _framework density 26.285093
#
# number of rings (size 3 to 8) (size 9 to 14) (size 15 to 20)
#    0.000    1.250    2.500    4.125    5.250    4.500 
#    0.000    1.250    0.000    0.000    0.000    0.000 
#    0.000    0.000    0.000    0.000    0.000    0.000 
#
# Total GULP energy -89423.003745 kJ/mol
# GULP energy per Si atom -5588.937734 kJ/mol
# Density = 2.622527 g / cm^3
# Si number density = 26.285093 Si / 1000 Ang^3
#
#
#
# Elastic Constant Matrix: (Units=GPa)
#
#
# Indices 1 2 3 4 5 6 
#
# 1 114.0087 29.9383 42.2823 11.3528 17.1116 -28.6812
# 2 29.9383 71.1384 18.7911 -3.2920 15.8711 -28.2434
# 3 42.2823 18.7911 113.7973 22.9362 21.3478 -21.7668
# 4 11.3528 -3.2920 22.9362 45.1713 -11.3070 5.7430
# 5 17.1116 15.8711 21.3478 -11.3070 51.2771 -3.2941
# 6 -28.6812 -28.2434 -21.7668 5.7430 -3.2941 37.3003
#
#
#
# Elastic Compliance Matrix: (Units=1/GPa)
#
#
# Indices 1 2 3 4 5 6 
#
# 1 0.012732 -0.000881 -0.001195 -0.004770 -0.003964 0.008810
# 2 -0.000881 0.022066 0.001803 -0.002953 -0.006849 0.016932
# 3 -0.001195 0.001803 0.014196 -0.009907 -0.007638 0.009581
# 4 -0.004770 -0.002953 -0.009907 0.033396 0.012987 -0.015679
# 5 -0.003964 -0.006849 -0.007638 0.012987 0.028205 -0.012201
# 6 0.008810 0.016932 0.009581 -0.015679 -0.012201 0.053332
#
#
# Mechanical properties :
#
#
# Convention : Reuss Voigt Hill
#
# Bulk Modulus (GPa) = 20.64144 53.44088 37.04116
# Shear Modulus (GPa) = 27.68208 40.61194 34.14701
#
# Velocity S-wave (km/s) = 3.24874 3.93498 3.60822
# Velocity P-wave (km/s) = 4.68427 6.40475 5.61085
#
# Compressibility (1/GPa) = 0.04844624
#
# Stress axis : x y z
#
# Youngs Moduli (GPa) = 78.54162 45.31946 70.44167
#
# Poissons Ratio (x) = 0.03994 0.08418
# Poissons Ratio (y) = 0.06921 -0.12697
# Poissons Ratio (z) = 0.09386 -0.08169
#
# Static dielectric constant tensor:
#      x y z
#    x 2.139590 -0.063230 -0.072840 
#    y -0.063230 2.073550 -0.014700 
#    z -0.072840 -0.014700 2.114010 
# 
# From -- ./inp_files/511141.got.cif
#   From: 2010.05.17/outbox.cif.g08.bks.cpg/sg2_256_cif.got.tgz:511141.got - 2010.06.03 11:33:40.
