data_PCOD9029168
_publ_section_title
;
Structure prediction by ZEFSAII (Michael W. Deem and Ramdas Pophale) SiO2 
 PCOD9029168
Probable space group: P -1
;
_chemical_formula_sum "Si O2"
_cell_formula_units_Z 13
_cell_length_a 22.057764
_cell_length_b 19.151310
_cell_length_c 11.164978
_cell_angle_alpha 33.035080
_cell_angle_beta 144.822155
_cell_angle_gamma 168.603142
_cell_volume 507.646720
_symmetry_space_group_name_H-M "P -1"
_symmetry_group_IT_number 2
_symmetry_cell_setting 'triclinic'
loop_
_space_group_symop_operation_xyz
x,y,z
-x,-y,-z
loop_
_atom_site_type_symbol
_atom_site_label
_atom_site_fract_x
_atom_site_fract_y
_atom_site_fract_z
Si Si1 0.134133 0.699982 0.801962
Si Si2 0.712327 0.544496 0.582370
Si Si3 0.796374 0.538881 0.363553
Si Si4 0.695687 0.486967 0.995673
Si Si5 0.545172 0.663308 0.748289
Si Si6 0.024690 0.718424 0.982912
Si Si7 0.500000 0.500000 0.500000
O O1 0.193845 0.643532 0.898027
O O2 0.885640 0.502250 0.613188
O O3 0.439039 0.132174 0.701292
O O4 0.000000 0.500000 0.000000
O O5 0.721995 0.640382 0.343398
O O6 0.624932 0.531193 0.569828
O O7 0.020249 0.822955 0.719358
O O8 0.767845 0.535239 0.181179
O O9 0.509502 0.270216 0.357660
O O10 0.123871 0.979367 0.289388
O O11 0.921139 0.669994 0.005777
O O12 0.626888 0.554359 0.747387
O O13 0.357451 0.041193 0.067975
O O14 0.500000 0.500000 0.000000
#
# Coordination Sequence:
#
# PCOD9029168 Si02
#       7
#     2   2   2   2   2   2   1
#     4  11  23  44  70  97 133 175 226 278 328 390
#     4  10  23  41  68 101 130 173 225 273 336 395
#     4  11  25  42  66  99 134 174 223 273 329 393
#     4  11  25  43  65  99 133 175 220 266 333 393
#     4  11  23  41  67  97 135 177 219 273 330 395
#     4  11  24  42  67  94 132 176 220 271 323 391
#     4  10  22  42  66  94 134 170 212 272 328 396
#
# _framework density 25.608360999999999
#
# number of rings (size 3 to 8) (size 9 to 14) (size 15 to 20)
#    0.000    1.231    0.000    5.538    0.000   12.308 
#    0.000    0.000    0.000    0.000    0.000    0.000 
#    0.000    0.000    0.000    0.000    0.000    0.000 
#
# Total GULP energy -72510.035627 kJ/mol
# GULP energy per Si atom -5577.695048 kJ/mol
# Density = 2.555007 g / cm^3
# Si number density = 25.608361 Si / 1000 Ang^3
#
#
#
# Elastic Constant Matrix: (Units=GPa)
#
#
# Indices 1 2 3 4 5 6 
#
# 1 95.1392 -3.6533 40.4632 11.7158 -20.2747 -4.2299
# 2 -3.6533 92.1672 14.5019 17.8615 -9.4074 -5.1437
# 3 40.4632 14.5019 160.2186 47.1658 -31.2423 -10.0991
# 4 11.7158 17.8615 47.1658 35.7261 -12.0165 -9.1434
# 5 -20.2747 -9.4074 -31.2423 -12.0165 53.8639 2.0372
# 6 -4.2299 -5.1437 -10.0991 -9.1434 2.0372 38.7816
#
#
#
# Elastic Compliance Matrix: (Units=1/GPa)
#
#
# Indices 1 2 3 4 5 6 
#
# 1 0.012393 0.001283 -0.002526 -0.000061 0.003385 0.000672
# 2 0.001283 0.012343 0.001063 -0.007400 0.001596 0.000225
# 3 -0.002526 0.001063 0.011396 -0.013979 0.002749 -0.000607
# 4 -0.000061 -0.007400 -0.013979 0.052839 0.002072 0.007720
# 5 0.003385 0.001596 0.002749 0.002072 0.022152 0.000622
# 6 0.000672 0.000225 -0.000607 0.007720 0.000622 0.027518
#
#
# Mechanical properties :
#
#
# Convention : Reuss Voigt Hill
#
# Bulk Modulus (GPa) = 27.95409 50.01649 38.98529
# Shear Modulus (GPa) = 33.12914 45.42185 39.27549
#
# Velocity S-wave (km/s) = 3.60068 4.21611 3.92049
# Velocity P-wave (km/s) = 5.31284 6.57834 5.97916
#
# Compressibility (1/GPa) = 0.03577294
#
# Stress axis : x y z
#
# Youngs Moduli (GPa) = 80.68979 81.01680 87.74848
#
# Poissons Ratio (x) = -0.10398 0.22163
# Poissons Ratio (y) = -0.10356 -0.09324
# Poissons Ratio (z) = 0.20380 -0.08608
#
# Static dielectric constant tensor:
#      x y z
#    x 2.014690 -0.256290 0.045160 
#    y -0.256290 2.608250 -0.178980 
#    z 0.045160 -0.178980 2.089360 
# 
# From -- ./inp_files/363941.got.cif
#   From: 2010.05.17/outbox.cif.g08.bks.cpg/sg2_182_cif.got.tgz:363941.got - 2010.06.03 11:33:40.
