data_PCOD9029579
_publ_section_title
;
Structure prediction by ZEFSAII (Michael W. Deem and Ramdas Pophale) SiO2 
 PCOD9029579
Probable space group: P -1
;
_chemical_formula_sum "Si O2"
_cell_formula_units_Z 12
_cell_length_a 9.829142
_cell_length_b 7.735186
_cell_length_c 14.426804
_cell_angle_alpha 133.126925
_cell_angle_beta 115.288980
_cell_angle_gamma 101.068197
_cell_volume 492.006517
_symmetry_space_group_name_H-M "P -1"
_symmetry_group_IT_number 2
_symmetry_cell_setting 'triclinic'
loop_
_space_group_symop_operation_xyz
x,y,z
-x,-y,-z
loop_
_atom_site_type_symbol
_atom_site_label
_atom_site_fract_x
_atom_site_fract_y
_atom_site_fract_z
Si Si1 0.955105 0.885506 0.552268
Si Si2 0.497100 0.243646 0.139946
Si Si3 0.916551 0.160022 0.804210
Si Si4 0.470339 0.887174 0.558378
Si Si5 0.983351 0.134754 0.135363
Si Si6 0.404751 0.240900 0.792661
O O1 0.711418 0.502005 0.363830
O O2 0.982804 0.160333 0.719393
O O3 0.000000 0.000000 0.500000
O O4 0.150221 0.920118 0.634047
O O5 0.556159 0.534825 0.199162
O O6 0.500000 0.000000 0.000000
O O7 0.240491 0.981060 0.991161
O O8 0.649293 0.885601 0.625411
O O9 0.015537 0.053231 0.850166
O O10 0.000000 0.500000 0.000000
O O11 0.210694 0.535999 0.360571
O O12 0.500000 0.000000 0.500000
O O13 0.508800 0.122974 0.738146
O O14 0.000000 0.000000 0.000000
O O15 0.500000 0.500000 0.000000
#
# Coordination Sequence:
#
# PCOD9029579 Si02
#       6
#     2   2   2   2   2   2
#     4  10  22  42  67  98 134 177 223 277 341 410
#     4  11  24  42  65  96 133 175 225 282 341 405
#     4  12  25  44  71 104 140 182 230 285 348 416
#     4  12  25  46  71  99 136 183 232 288 349 414
#     4  12  26  44  67 101 140 183 233 288 344 410
#     4  11  23  42  67  98 133 174 223 280 342 407
#
# _framework density 24.38992
#
# number of rings (size 3 to 8) (size 9 to 14) (size 15 to 20)
#    0.000    0.667    0.000    9.500    0.000    6.667 
#    0.000    3.333    0.000    0.000    0.000    0.000 
#    0.000    0.000    0.000    0.000    0.000    0.000 
#
# Total GULP energy -66971.081300 kJ/mol
# GULP energy per Si atom -5580.923442 kJ/mol
# Density = 2.433441 g / cm^3
# Si number density = 24.389920 Si / 1000 Ang^3
#
#
#
# Elastic Constant Matrix: (Units=GPa)
#
#
# Indices 1 2 3 4 5 6 
#
# 1 215.1888 10.8536 55.1724 -8.4689 -0.5289 30.4733
# 2 10.8536 34.6882 15.0836 -3.4278 -7.2346 15.9281
# 3 55.1724 15.0836 123.3839 -1.5162 9.8284 27.0193
# 4 -8.4689 -3.4278 -1.5162 35.4852 10.0630 -5.4291
# 5 -0.5289 -7.2346 9.8284 10.0630 64.0886 -9.2114
# 6 30.4733 15.9281 27.0193 -5.4291 -9.2114 26.4449
#
#
#
# Elastic Compliance Matrix: (Units=1/GPa)
#
#
# Indices 1 2 3 4 5 6 
#
# 1 0.005844 0.001647 -0.001357 0.000682 -0.000585 -0.006404
# 2 0.001647 0.040396 -0.000088 0.000097 0.000861 -0.025819
# 3 -0.001357 -0.000088 0.011474 -0.000645 -0.003317 -0.011393
# 4 0.000682 0.000097 -0.000645 0.030155 -0.003954 0.004628
# 5 -0.000585 0.000861 -0.003317 -0.003954 0.018126 0.009047
# 6 -0.006404 -0.025819 -0.011393 0.004628 0.009047 0.076487
#
#
# Mechanical properties :
#
#
# Convention : Reuss Voigt Hill
#
# Bulk Modulus (GPa) = 17.20654 59.49778 38.35216
# Shear Modulus (GPa) = 24.81995 44.68049 34.75022
#
# Velocity S-wave (km/s) = 3.19349 4.28474 3.77872
# Velocity P-wave (km/s) = 4.54620 6.99472 5.89890
#
# Compressibility (1/GPa) = 0.05811744
#
# Stress axis : x y z
#
# Youngs Moduli (GPa) = 171.10798 24.75487 87.15445
#
# Poissons Ratio (x) = -0.04078 0.11830
# Poissons Ratio (y) = -0.28189 0.00771
# Poissons Ratio (z) = 0.23226 0.00219
#
# Static dielectric constant tensor:
#      x y z
#    x 1.998870 -0.151120 0.116300 
#    y -0.151120 2.222710 -0.052740 
#    z 0.116300 -0.052740 2.073230 
# 
# From -- ./inp_files/153371.got.cif
#   From: 2010.05.17/outbox.cif.g08.bks.cpg/sg2_77_cif.got.tgz:153371.got - 2010.06.03 11:33:40.
