data_PCOD9029733
_publ_section_title
;
Structure prediction by ZEFSAII (Michael W. Deem and Ramdas Pophale) SiO2 
 PCOD9029733
Probable space group: P -1
;
_chemical_formula_sum "Si O2"
_cell_formula_units_Z 14
_cell_length_a 13.784903
_cell_length_b 8.525067
_cell_length_c 7.576002
_cell_angle_alpha 126.026433
_cell_angle_beta 58.293614
_cell_angle_gamma 103.572671
_cell_volume 608.976082
_symmetry_space_group_name_H-M "P -1"
_symmetry_group_IT_number 2
_symmetry_cell_setting 'triclinic'
loop_
_space_group_symop_operation_xyz
x,y,z
-x,-y,-z
loop_
_atom_site_type_symbol
_atom_site_label
_atom_site_fract_x
_atom_site_fract_y
_atom_site_fract_z
Si Si1 0.668593 0.321021 0.243959
Si Si2 0.884761 0.498974 0.217308
Si Si3 0.220929 0.009812 0.845545
Si Si4 0.346767 0.369222 0.998825
Si Si5 0.860715 0.308149 0.487477
Si Si6 0.060482 0.150955 0.421392
Si Si7 0.491139 0.373017 0.189674
O O1 0.790056 0.396743 0.129958
O O2 0.690376 0.160947 0.269236
O O3 0.591148 0.244536 0.113808
O O4 0.599742 0.515610 0.517683
O O5 0.899443 0.373496 0.300342
O O6 0.858043 0.721431 0.458636
O O7 0.000000 0.500000 0.000000
O O8 0.167553 0.912718 0.664271
O O9 0.281320 0.199370 0.868916
O O10 0.130526 0.060424 0.125167
O O11 0.250609 0.544919 0.261536
O O12 0.418771 0.288680 0.048477
O O13 0.438477 0.459503 0.849695
O O14 0.959461 0.300138 0.531684
O O15 0.000000 0.000000 0.500000
#
# Coordination Sequence:
#
# PCOD9029733 Si02
#       7
#     2   2   2   2   2   2   2
#     4  10  22  43  64  96 132 167 218 269 319 389
#     4  11  23  42  68  95 133 176 214 265 333 387
#     4  11  23  42  65  95 134 166 222 269 323 393
#     4  11  23  42  67  95 125 174 219 264 335 378
#     4  11  24  45  63  96 141 169 219 274 322 393
#     4  12  25  40  65  98 133 175 220 269 332 392
#     4  10  22  42  68  91 131 175 212 268 328 382
#
# _framework density 22.989408000000001
#
# number of rings (size 3 to 8) (size 9 to 14) (size 15 to 20)
#    0.000    1.143    4.286    2.571    4.000    2.286 
#    0.000    0.000    0.000    0.000    0.000    0.000 
#    0.000    0.000    0.000    0.000    0.000    0.000 
#
# Total GULP energy -78251.514172 kJ/mol
# GULP energy per Si atom -5589.393869 kJ/mol
# Density = 2.293708 g / cm^3
# Si number density = 22.989408 Si / 1000 Ang^3
#
#
#
# Elastic Constant Matrix: (Units=GPa)
#
#
# Indices 1 2 3 4 5 6 
#
# 1 76.1366 -0.8512 23.4384 1.6275 -10.4354 0.4639
# 2 -0.8512 57.2834 8.2860 -1.0021 -4.0470 20.8638
# 3 23.4384 8.2860 43.0958 2.4195 -4.1882 18.2374
# 4 1.6275 -1.0021 2.4195 32.8304 14.1108 9.3310
# 5 -10.4354 -4.0470 -4.1882 14.1108 27.9890 3.3359
# 6 0.4639 20.8638 18.2374 9.3310 3.3359 39.5159
#
#
#
# Elastic Compliance Matrix: (Units=1/GPa)
#
#
# Indices 1 2 3 4 5 6 
#
# 1 0.017416 0.000364 -0.010811 -0.004279 0.006483 0.005056
# 2 0.000364 0.022496 0.001408 0.002763 0.003816 -0.013506
# 3 -0.010811 0.001408 0.036713 0.001793 0.002935 -0.018231
# 4 -0.004279 0.002763 0.001793 0.042739 -0.021218 -0.010537
# 5 0.006483 0.003816 0.002935 -0.021218 0.050152 -0.002669
# 6 0.005056 -0.013506 -0.018231 -0.010537 -0.002669 0.043506
#
#
# Mechanical properties :
#
#
# Convention : Reuss Voigt Hill
#
# Bulk Modulus (GPa) = 17.08037 26.47358 21.77698
# Shear Modulus (GPa) = 19.95094 29.77656 24.86375
#
# Velocity S-wave (km/s) = 2.94909 3.60283 3.29223
# Velocity P-wave (km/s) = 4.36372 5.37101 4.89335
#
# Compressibility (1/GPa) = 0.05854673
#
# Stress axis : x y z
#
# Youngs Moduli (GPa) = 57.41926 44.45234 27.23826
#
# Poissons Ratio (x) = -0.01620 0.29448
# Poissons Ratio (y) = -0.02092 -0.03835
# Poissons Ratio (z) = 0.62077 -0.06258
#
# Static dielectric constant tensor:
#      x y z
#    x 1.947200 -0.001680 0.000590 
#    y -0.001680 1.860590 0.015220 
#    z 0.000590 0.015220 1.870230 
# 
# From -- ./inp_files/200066.got.cif
#   From: 2010.05.17/outbox.cif.g08.bks.cpg/sg2_101_cif.got.tgz:200066.got - 2010.06.03 11:33:40.
