data_PCOD9029914
_publ_section_title
;
Structure prediction by ZEFSAII (Michael W. Deem and Ramdas Pophale) SiO2 
 PCOD9029914
Probable space group: P -1
;
_chemical_formula_sum "Si O2"
_cell_formula_units_Z 16
_cell_length_a 17.556286
_cell_length_b 8.459796
_cell_length_c 10.850427
_cell_angle_alpha 140.964864
_cell_angle_beta 48.564478
_cell_angle_gamma 104.450907
_cell_volume 630.311033
_symmetry_space_group_name_H-M "P -1"
_symmetry_group_IT_number 2
_symmetry_cell_setting 'triclinic'
loop_
_space_group_symop_operation_xyz
x,y,z
-x,-y,-z
loop_
_atom_site_type_symbol
_atom_site_label
_atom_site_fract_x
_atom_site_fract_y
_atom_site_fract_z
Si Si1 0.742751 0.782850 0.808114
Si Si2 0.557546 0.341166 0.212439
Si Si3 0.095289 0.150573 0.725992
Si Si4 0.629049 0.199656 0.808264
Si Si5 0.883956 0.066638 0.880356
Si Si6 0.712979 0.621200 0.218912
Si Si7 0.627604 0.766635 0.154223
Si Si8 0.138108 0.903178 0.790661
O O1 0.787258 0.441110 0.541144
O O2 0.663423 0.905041 0.091865
O O3 0.648189 0.987689 0.928859
O O4 0.853331 0.833899 0.717831
O O5 0.500000 0.500000 0.500000
O O6 0.632762 0.488140 0.197437
O O7 0.520258 0.328407 0.104710
O O8 0.224984 0.996903 0.424522
O O9 0.135085 0.104200 0.800780
O O10 0.000000 0.500000 0.000000
O O11 0.021392 0.990863 0.689327
O O12 0.634041 0.950458 0.565701
O O13 0.617124 0.497690 0.950042
O O14 0.810574 0.374227 0.062305
O O15 0.835835 0.100857 0.093670
O O16 0.736091 0.656024 0.072578
O O17 0.500000 0.000000 0.500000
O O18 0.000000 0.000000 0.000000
#
# Coordination Sequence:
#
# PCOD9029914 Si02
#       8
#     2   2   2   2   2   2   2   2
#     4  11  22  40  66  94 130 174 216 268 334 383
#     4  10  23  43  65  95 131 168 217 280 325 384
#     4  11  22  40  67  98 135 173 212 271 323 391
#     4  11  22  43  68  94 134 173 219 262 332 389
#     4  10  23  41  66  99 135 169 221 265 322 397
#     4  10  22  42  68  99 127 173 222 262 327 400
#     4  11  25  44  66  97 136 168 220 283 325 386
#     4  10  23  41  63  94 131 174 214 267 321 384
#
# _framework density 25.384295000000002
#
# number of rings (size 3 to 8) (size 9 to 14) (size 15 to 20)
#    0.000    1.500    2.500    2.250    3.500    3.000 
#    0.000   10.625    0.000    0.000    0.000    0.000 
#    0.000    0.000    0.000    0.000    0.000    0.000 
#
# Total GULP energy -89131.246253 kJ/mol
# GULP energy per Si atom -5570.702891 kJ/mol
# Density = 2.532652 g / cm^3
# Si number density = 25.384295 Si / 1000 Ang^3
#
#
#
# Elastic Constant Matrix: (Units=GPa)
#
#
# Indices 1 2 3 4 5 6 
#
# 1 64.0022 19.2698 -1.2587 13.2261 9.2035 -6.0515
# 2 19.2698 110.7386 25.7001 4.1254 -2.1408 -29.4525
# 3 -1.2587 25.7001 101.8779 7.0904 1.0599 -1.6859
# 4 13.2261 4.1254 7.0904 51.4681 -3.7166 -1.7260
# 5 9.2035 -2.1408 1.0599 -3.7166 27.9146 2.5030
# 6 -6.0515 -29.4525 -1.6859 -1.7260 2.5030 42.5763
#
#
#
# Elastic Compliance Matrix: (Units=1/GPa)
#
#
# Indices 1 2 3 4 5 6 
#
# 1 0.018892 -0.003437 0.001555 -0.005302 -0.007310 0.000584
# 2 -0.003437 0.012472 -0.003122 0.000695 0.001588 0.007951
# 3 0.001555 -0.003122 0.010734 -0.001770 -0.001260 -0.001511
# 4 -0.005302 0.000695 -0.001770 0.021327 0.004686 0.000246
# 5 -0.007310 0.001588 -0.001260 0.004686 0.039216 -0.002106
# 6 0.000584 0.007951 -0.001511 0.000246 -0.002106 0.029144
#
#
# Mechanical properties :
#
#
# Convention : Reuss Voigt Hill
#
# Bulk Modulus (GPa) = 31.16209 40.44901 35.80555
# Shear Modulus (GPa) = 32.78937 39.91895 36.35416
#
# Velocity S-wave (km/s) = 3.59795 3.96988 3.78848
# Velocity P-wave (km/s) = 5.43719 6.08133 5.76826
#
# Compressibility (1/GPa) = 0.03209027
#
# Stress axis : x y z
#
# Youngs Moduli (GPa) = 52.93323 80.17815 93.16422
#
# Poissons Ratio (x) = 0.27555 -0.14488
# Poissons Ratio (y) = 0.18192 0.29086
# Poissons Ratio (z) = -0.08231 0.25032
#
# Static dielectric constant tensor:
#      x y z
#    x 2.316260 -0.400080 0.156310 
#    y -0.400080 2.539860 -0.262350 
#    z 0.156310 -0.262350 2.274040 
# 
# From -- ./inp_files/469655.got.cif
#   From: 2010.05.17/outbox.cif.g08.bks.cpg/sg2_235_cif.got.tgz:469655.got - 2010.06.03 11:33:40.
