data_PCOD9029993
_publ_section_title
;
Structure prediction by ZEFSAII (Michael W. Deem and Ramdas Pophale) SiO2 
 PCOD9029993
Probable space group: P -1
;
_chemical_formula_sum "Si O2"
_cell_formula_units_Z 16
_cell_length_a 8.105790
_cell_length_b 12.291350
_cell_length_c 21.183540
_cell_angle_alpha 144.320772
_cell_angle_beta 140.011761
_cell_angle_gamma 65.441434
_cell_volume 659.837960
_symmetry_space_group_name_H-M "P -1"
_symmetry_group_IT_number 2
_symmetry_cell_setting 'triclinic'
loop_
_space_group_symop_operation_xyz
x,y,z
-x,-y,-z
loop_
_atom_site_type_symbol
_atom_site_label
_atom_site_fract_x
_atom_site_fract_y
_atom_site_fract_z
Si Si1 0.981249 0.600645 0.949030
Si Si2 0.292010 0.648646 0.611020
Si Si3 0.737003 0.127816 0.715011
Si Si4 0.618273 0.783852 0.896629
Si Si5 0.018607 0.860306 0.384392
Si Si6 0.826686 0.372275 0.123882
Si Si7 0.177570 0.024298 0.741535
Si Si8 0.996880 0.717502 0.740761
O O1 0.903604 0.357242 0.830692
O O2 0.672100 0.600393 0.853652
O O3 0.115693 0.669143 0.950468
O O4 0.192993 0.776286 0.147927
O O5 0.569473 0.763711 0.796850
O O6 0.000000 0.500000 0.500000
O O7 0.270796 0.478361 0.472660
O O8 0.220974 0.824404 0.644884
O O9 0.882619 0.984434 0.674017
O O10 0.375572 0.981790 0.527604
O O11 0.311507 0.748875 0.820230
O O12 0.916526 0.029917 0.116197
O O13 0.891953 0.616031 0.257105
O O14 0.826156 0.859960 0.269091
O O15 0.000000 0.000000 0.500000
O O16 0.024256 0.353362 0.226502
O O17 0.470493 0.192103 0.948770
#
# Coordination Sequence:
#
# PCOD9029993 Si02
#       8
#     2   2   2   2   2   2   2   2
#     4  11  26  44  72  99 146 185 236 295 359 419
#     4  10  23  40  72 106 134 186 246 288 350 418
#     4  11  27  46  70 107 136 191 240 285 356 432
#     4  10  22  45  71  99 143 186 238 290 355 421
#     4  12  27  42  69 104 145 182 235 297 359 421
#     4  12  25  45  69 103 146 187 233 295 363 411
#     4  12  24  46  73 100 145 186 236 295 349 430
#     4  10  22  42  69 104 135 189 237 287 355 421
#
# _framework density 24.248374999999999
#
# number of rings (size 3 to 8) (size 9 to 14) (size 15 to 20)
#    0.000    1.000    2.500    3.000   12.250    0.500 
#    0.000    0.625    0.000    0.000    0.000    0.000 
#    0.000    0.000    0.000    0.000    0.000    0.000 
#
# Total GULP energy -89584.892947 kJ/mol
# GULP energy per Si atom -5599.055809 kJ/mol
# Density = 2.419318 g / cm^3
# Si number density = 24.248375 Si / 1000 Ang^3
#
#
#
# Elastic Constant Matrix: (Units=GPa)
#
#
# Indices 1 2 3 4 5 6 
#
# 1 85.4255 11.4239 23.7947 -11.2072 -23.8090 3.8776
# 2 11.4239 87.8192 26.9953 -6.0449 -10.5075 9.8136
# 3 23.7947 26.9953 103.0540 -7.1237 -20.8920 -9.4298
# 4 -11.2072 -6.0449 -7.1237 37.3186 2.9812 -3.4242
# 5 -23.8090 -10.5075 -20.8920 2.9812 35.2370 -10.6348
# 6 3.8776 9.8136 -9.4298 -3.4242 -10.6348 32.7583
#
#
#
# Elastic Compliance Matrix: (Units=1/GPa)
#
#
# Indices 1 2 3 4 5 6 
#
# 1 0.015151 -0.000419 -0.001036 0.003655 0.009657 0.001551
# 2 -0.000419 0.013199 -0.003789 0.000847 -0.000162 -0.004959
# 3 -0.001036 -0.003789 0.013511 0.001718 0.008473 0.008077
# 4 0.003655 0.000847 0.001718 0.028494 0.002407 0.003568
# 5 0.009657 -0.000162 0.008473 0.002407 0.044520 0.016049
# 6 0.001551 -0.004959 0.008077 0.003568 0.016049 0.039737
#
#
# Mechanical properties :
#
#
# Convention : Reuss Voigt Hill
#
# Bulk Modulus (GPa) = 31.87365 44.52516 38.19941
# Shear Modulus (GPa) = 28.48037 35.33509 31.90773
#
# Velocity S-wave (km/s) = 3.43086 3.82149 3.63143
# Velocity P-wave (km/s) = 5.37285 6.15416 5.77673
#
# Compressibility (1/GPa) = 0.03137387
#
# Stress axis : x y z
#
# Youngs Moduli (GPa) = 66.00030 75.76126 74.01306
#
# Poissons Ratio (x) = 0.03171 0.07671
# Poissons Ratio (y) = 0.02763 0.28044
# Poissons Ratio (z) = 0.06840 0.28706
#
# Static dielectric constant tensor:
#      x y z
#    x 1.957220 0.023140 -0.003930 
#    y 0.023140 1.857830 -0.033660 
#    z -0.003930 -0.033660 1.891890 
# 
# From -- ./inp_files/405597.got.cif
#   From: 2010.05.17/outbox.cif.g08.bks.cpg/sg2_203_cif.got.tgz:405597.got - 2010.06.03 11:33:40.
