data_PCOD9029855
_publ_section_title
;
Structure prediction by ZEFSAII (Michael W. Deem and Ramdas Pophale) SiO2 
 PCOD9029855
Probable space group: P -1
;
_chemical_formula_sum "Si O2"
_cell_formula_units_Z 16
_cell_length_a 25.526820
_cell_length_b 5.945748
_cell_length_c 4.898089
_cell_angle_alpha 81.147020
_cell_angle_beta 52.779357
_cell_angle_gamma 92.910046
_cell_volume 575.075722
_symmetry_space_group_name_H-M "P -1"
_symmetry_group_IT_number 2
_symmetry_cell_setting 'triclinic'
loop_
_space_group_symop_operation_xyz
x,y,z
-x,-y,-z
loop_
_atom_site_type_symbol
_atom_site_label
_atom_site_fract_x
_atom_site_fract_y
_atom_site_fract_z
Si Si1 0.860083 0.905166 0.586237
Si Si2 0.746587 0.348990 0.398445
Si Si3 0.644710 0.289937 0.359254
Si Si4 0.547709 0.855158 0.715242
Si Si5 0.574804 0.439141 0.070077
Si Si6 0.019220 0.793211 0.655131
Si Si7 0.234317 0.130784 0.613215
Si Si8 0.102214 0.499665 0.086112
O O1 0.822481 0.854843 0.432744
O O2 0.882585 0.691455 0.709726
O O3 0.927796 0.095465 0.306023
O O4 0.804478 0.960752 0.967467
O O5 0.723477 0.355869 0.149187
O O6 0.730656 0.600787 0.500965
O O7 0.724193 0.068255 0.569393
O O8 0.823680 0.374652 0.242758
O O9 0.610833 0.454637 0.242553
O O10 0.613244 0.036942 0.394614
O O11 0.617445 0.310997 0.748334
O O12 0.499453 0.719344 0.661083
O O13 0.567649 0.671046 0.895459
O O14 0.500000 0.000000 0.000000
O O15 0.062328 0.662658 0.346009
O O16 0.948751 0.624066 0.961904
O O17 0.000000 0.000000 0.500000
#
# Coordination Sequence:
#
# PCOD9029855 Si02
#       8
#     2   2   2   2   2   2   2   2
#     4  10  22  42  68  97 129 177 229 291 352 418
#     4  11  26  47  68 104 141 193 231 295 350 435
#     4  11  25  42  69 101 142 187 237 286 358 423
#     4   9  21  43  70 105 139 186 230 296 349 416
#     4  10  23  43  70 104 143 179 238 291 353 415
#     4   9  17  36  68  97 131 173 233 291 358 418
#     4  11  26  44  71  96 139 180 234 283 352 415
#     4   9  19  39  65  98 137 177 231 291 353 424
#
# _framework density 27.822420999999999
#
# number of rings (size 3 to 8) (size 9 to 14) (size 15 to 20)
#    0.000    2.000    1.250    0.375    3.500    9.500 
#    0.000   10.625    0.000    0.000    0.000    0.000 
#    0.000    0.000    0.000    0.000    0.000    0.000 
#
# Total GULP energy -89516.432150 kJ/mol
# GULP energy per Si atom -5594.777009 kJ/mol
# Density = 2.775910 g / cm^3
# Si number density = 27.822421 Si / 1000 Ang^3
#
#
#
# Elastic Constant Matrix: (Units=GPa)
#
#
# Indices 1 2 3 4 5 6 
#
# 1 200.9335 60.0747 30.3099 -3.0750 -3.3169 24.2649
# 2 60.0747 196.6545 19.9472 -3.1764 -13.2654 -16.4567
# 3 30.3099 19.9472 93.1501 6.7356 -1.4626 7.4707
# 4 -3.0750 -3.1764 6.7356 21.9373 6.4069 -10.0612
# 5 -3.3169 -13.2654 -1.4626 6.4069 37.0260 -3.9898
# 6 24.2649 -16.4567 7.4707 -10.0612 -3.9898 53.4901
#
#
#
# Elastic Compliance Matrix: (Units=1/GPa)
#
#
# Indices 1 2 3 4 5 6 
#
# 1 0.006187 -0.002089 -0.001270 -0.000447 -0.000533 -0.003396
# 2 -0.002089 0.006301 -0.001065 0.001975 0.002070 0.003561
# 3 -0.001270 -0.001065 0.011958 -0.005275 0.000635 -0.002367
# 4 -0.000447 0.001975 -0.005275 0.054889 -0.007822 0.011288
# 5 -0.000533 0.002070 0.000635 -0.007822 0.029242 0.001500
# 6 -0.003396 0.003561 -0.002367 0.011288 0.001500 0.023897
#
#
# Mechanical properties :
#
#
# Convention : Reuss Voigt Hill
#
# Bulk Modulus (GPa) = 64.11028 79.04464 71.57746
# Shear Modulus (GPa) = 34.12499 47.85112 40.98805
#
# Velocity S-wave (km/s) = 3.50598 4.15164 3.84240
# Velocity P-wave (km/s) = 6.28346 7.17311 6.74298
#
# Compressibility (1/GPa) = 0.01559812
#
# Stress axis : x y z
#
# Youngs Moduli (GPa) = 161.62413 158.71288 83.62722
#
# Poissons Ratio (x) = 0.33149 0.10618
# Poissons Ratio (y) = 0.33757 0.08910
# Poissons Ratio (z) = 0.20521 0.16911
#
# Static dielectric constant tensor:
#      x y z
#    x 2.161320 0.050380 -0.127410 
#    y 0.050380 2.241630 0.005140 
#    z -0.127410 0.005140 2.243860 
# 
# From -- ./inp_files/121517.got.cif
#   From: 2010.05.17/outbox.cif.g08.bks.cpg/sg2_61_cif.got.tgz:121517.got - 2010.06.03 11:33:40.
