data_PCOD9029446
_publ_section_title
;
Structure prediction by ZEFSAII (Michael W. Deem and Ramdas Pophale) SiO2 
 PCOD9029446
Probable space group: P -1
;
_chemical_formula_sum "Si O2"
_cell_formula_units_Z 14
_cell_length_a 19.468299
_cell_length_b 10.552874
_cell_length_c 17.713449
_cell_angle_alpha 135.083190
_cell_angle_beta 21.282568
_cell_angle_gamma 147.779496
_cell_volume 640.997466
_symmetry_space_group_name_H-M "P -1"
_symmetry_group_IT_number 2
_symmetry_cell_setting 'triclinic'
loop_
_space_group_symop_operation_xyz
x,y,z
-x,-y,-z
loop_
_atom_site_type_symbol
_atom_site_label
_atom_site_fract_x
_atom_site_fract_y
_atom_site_fract_z
Si Si1 0.499590 0.226665 0.133216
Si Si2 0.202099 0.282976 0.881581
Si Si3 0.993672 0.325906 0.633357
Si Si4 0.344548 0.942412 0.331513
Si Si5 0.284901 0.499171 0.248388
Si Si6 0.767515 0.294157 0.314583
Si Si7 0.469757 0.672507 0.563949
O O1 0.576583 0.479191 0.186833
O O2 0.212692 0.987852 0.283961
O O3 0.461807 0.093603 0.195505
O O4 0.759968 0.323772 0.862235
O O5 0.327997 0.242999 0.673507
O O6 0.015491 0.322586 0.065160
O O7 0.000000 0.000000 0.000000
O O8 0.201901 0.451346 0.402457
O O9 0.148865 0.498854 0.621775
O O10 0.393257 0.767141 0.223411
O O11 0.014325 0.740476 0.582988
O O12 0.459277 0.137844 0.364475
O O13 0.500000 0.500000 0.000000
O O14 0.751470 0.380509 0.285916
O O15 0.500000 0.000000 0.500000
O O16 0.500000 0.500000 0.500000
#
# Coordination Sequence:
#
# PCOD9029446 Si02
#       7
#     2   2   2   2   2   2   2
#     4   9  19  42  67  99 137 181 227 285 357 407
#     4  11  23  43  70 101 138 185 233 285 354 424
#     4   9  20  41  69  95 136 179 227 292 342 414
#     4  10  22  42  67  94 142 180 225 292 346 414
#     4  10  22  43  69 100 132 180 234 284 356 421
#     4  11  23  42  69 104 137 183 238 286 344 420
#     4  12  25  44  69  99 143 184 232 290 350 415
#
# _framework density 21.840959999999999
#
# number of rings (size 3 to 8) (size 9 to 14) (size 15 to 20)
#    0.000    1.714    2.857    0.857    2.000    2.857 
#    5.143    1.429    0.000    0.000    0.000    0.000 
#    0.000    0.000    0.000    0.000    0.000    0.000 
#
# Total GULP energy -77958.542546 kJ/mol
# GULP energy per Si atom -5568.467325 kJ/mol
# Density = 2.179125 g / cm^3
# Si number density = 21.840960 Si / 1000 Ang^3
#
#
#
# Elastic Constant Matrix: (Units=GPa)
#
#
# Indices 1 2 3 4 5 6 
#
# 1 1003.9519 -479.0338 488.5602 -365.0495 300.1041 -361.2037
# 2 -479.0338 481.9982 -261.3746 235.3105 -191.1937 246.6219
# 3 488.5602 -261.3746 363.6653 -164.6664 158.3659 -206.7433
# 4 -365.0495 235.3105 -164.6664 192.7315 -139.6689 167.5743
# 5 300.1041 -191.1937 158.3659 -139.6689 145.4654 -120.1185
# 6 -361.2037 246.6219 -206.7433 167.5743 -120.1185 204.4241
#
#
#
# Elastic Compliance Matrix: (Units=1/GPa)
#
#
# Indices 1 2 3 4 5 6 
#
# 1 0.005870 -0.000451 -0.004782 0.007479 -0.000696 -0.000460
# 2 -0.000451 0.006534 0.000093 -0.001891 0.003481 -0.004990
# 3 -0.004782 0.000093 0.012445 -0.012593 -0.007390 0.010004
# 4 0.007479 -0.001891 -0.012593 0.045416 0.021248 -0.021984
# 5 -0.000696 0.003481 -0.007390 0.021248 0.031653 -0.011722
# 6 -0.000460 -0.004990 0.010004 -0.021984 -0.011722 0.031351
#
#
# Mechanical properties :
#
#
# Convention : Reuss Voigt Hill
#
# Bulk Modulus (GPa) = 68.63886 149.54656 109.09271
# Shear Modulus (GPa) = 33.69150 248.62176 141.15663
#
# Velocity S-wave (km/s) = 3.93183 10.68082 8.04796
# Velocity P-wave (km/s) = 7.21854 14.85685 11.67975
#
# Compressibility (1/GPa) = 0.01456901
#
# Stress axis : x y z
#
# Youngs Moduli (GPa) = 170.36546 153.03575 80.35391
#
# Poissons Ratio (x) = 0.06908 0.38426
# Poissons Ratio (y) = 0.07690 -0.00751
# Poissons Ratio (z) = 0.81471 -0.01430
#
# Static dielectric constant tensor:
#      x y z
#    x 1.851540 -0.008690 -0.057910 
#    y -0.008690 1.801380 -0.024340 
#    z -0.057910 -0.024340 1.780610 
# 
# From -- ./inp_files/577976.got.cif
#   From: 2010.05.17/outbox.cif.g08.bks.cpg/sg2_289_cif.got.tgz:577976.got - 2010.06.03 11:33:40.
