data_PCOD9029191
_publ_section_title
;
Structure prediction by ZEFSAII (Michael W. Deem and Ramdas Pophale) SiO2 
 PCOD9029191
Probable space group: P -1
;
_chemical_formula_sum "Si O2"
_cell_formula_units_Z 16
_cell_length_a 13.564465
_cell_length_b 8.377574
_cell_length_c 8.590393
_cell_angle_alpha 91.964396
_cell_angle_beta 51.851338
_cell_angle_gamma 86.048815
_cell_volume 762.178448
_symmetry_space_group_name_H-M "P -1"
_symmetry_group_IT_number 2
_symmetry_cell_setting 'triclinic'
loop_
_space_group_symop_operation_xyz
x,y,z
-x,-y,-z
loop_
_atom_site_type_symbol
_atom_site_label
_atom_site_fract_x
_atom_site_fract_y
_atom_site_fract_z
Si Si1 0.316465 0.142722 0.733845
Si Si2 0.627516 0.920898 0.957774
Si Si3 0.383682 0.421961 0.185982
Si Si4 0.120603 0.925098 0.283551
Si Si5 0.501619 0.336324 0.391449
Si Si6 0.771885 0.174288 0.142697
Si Si7 0.127024 0.554221 0.310406
Si Si8 0.140818 0.485386 0.928602
O O1 0.439724 0.195808 0.533905
O O2 0.219475 0.309083 0.813486
O O3 0.262079 0.977639 0.725418
O O4 0.358331 0.097877 0.869516
O O5 0.633039 0.741084 0.889374
O O6 0.751390 0.002565 0.789757
O O7 0.500000 0.000000 0.000000
O O8 0.418067 0.388458 0.327701
O O9 0.247240 0.514486 0.300610
O O10 0.500000 0.500000 0.000000
O O11 0.118663 0.742142 0.316755
O O12 0.131319 0.914209 0.082578
O O13 0.000000 0.000000 0.500000
O O14 0.500000 0.500000 0.500000
O O15 0.639343 0.256343 0.199809
O O16 0.815214 0.342711 0.168350
O O17 0.000000 0.500000 0.500000
O O18 0.146155 0.492673 0.112191
O O19 0.000000 0.500000 0.000000
#
# Coordination Sequence:
#
# PCOD9029191 Si02
#       8
#     2   2   2   2   2   2   2   2
#     4  11  23  44  72  98 143 183 231 292 355 418
#     4  11  22  42  70 103 136 179 233 295 354 414
#     4  12  23  41  68 101 135 180 230 286 352 412
#     4  10  22  42  66  95 136 178 224 287 348 411
#     4  12  24  42  72 103 141 183 231 288 355 423
#     4  10  23  44  68 101 138 178 233 290 341 419
#     4  11  24  41  67  99 134 176 235 284 343 420
#     4  11  24  45  69  98 142 188 231 286 352 419
#
# _framework density 20.992457999999999
#
# number of rings (size 3 to 8) (size 9 to 14) (size 15 to 20)
#    0.000    1.000    2.500    5.625    3.500    0.500 
#    0.000    1.250    0.000    0.000    0.000    0.000 
#    0.000    0.000    0.000    0.000    0.000    0.000 
#
# Total GULP energy -89138.733362 kJ/mol
# GULP energy per Si atom -5571.170835 kJ/mol
# Density = 2.094468 g / cm^3
# Si number density = 20.992458 Si / 1000 Ang^3
#
#
#
# Elastic Constant Matrix: (Units=GPa)
#
#
# Indices 1 2 3 4 5 6 
#
# 1 87.5574 -9.0065 23.1706 -18.3721 -8.4887 8.5970
# 2 -9.0065 80.5424 15.2205 -33.4615 2.4493 30.5389
# 3 23.1706 15.2205 89.9286 -24.7404 -19.1382 2.0633
# 4 -18.3721 -33.4615 -24.7404 48.0231 6.1312 -12.6885
# 5 -8.4887 2.4493 -19.1382 6.1312 30.1275 -6.7573
# 6 8.5970 30.5389 2.0633 -12.6885 -6.7573 30.8395
#
#
#
# Elastic Compliance Matrix: (Units=1/GPa)
#
#
# Indices 1 2 3 4 5 6 
#
# 1 0.016479 0.011283 -0.004089 0.009215 -0.003546 -0.012479
# 2 0.011283 0.036241 -0.006186 0.019345 -0.015261 -0.034003
# 3 -0.004089 -0.006186 0.016456 0.003862 0.011314 0.010233
# 4 0.009215 0.019345 0.003862 0.038631 -0.006048 -0.007415
# 5 -0.003546 -0.015261 0.011314 -0.006048 0.047047 0.023164
# 6 -0.012479 -0.034003 0.010233 -0.007415 0.023164 0.070917
#
#
# Mechanical properties :
#
#
# Convention : Reuss Voigt Hill
#
# Bulk Modulus (GPa) = 14.04648 35.19974 24.62311
# Shear Modulus (GPa) = 20.20334 37.04093 28.62214
#
# Velocity S-wave (km/s) = 3.10564 4.20514 3.69650
# Velocity P-wave (km/s) = 4.42331 6.35467 5.47483
#
# Compressibility (1/GPa) = 0.07119223
#
# Stress axis : x y z
#
# Youngs Moduli (GPa) = 60.68378 27.59329 60.76842
#
# Poissons Ratio (x) = -0.31134 0.24846
# Poissons Ratio (y) = -0.68472 0.37594
# Poissons Ratio (z) = 0.24811 0.17070
#
# Static dielectric constant tensor:
#      x y z
#    x 1.701730 0.015800 0.090440 
#    y 0.015800 1.801950 -0.011900 
#    z 0.090440 -0.011900 1.670970 
# 
# From -- ./inp_files/243863.got.cif
#   From: 2010.05.17/outbox.cif.g08.bks.cpg/sg2_122_cif.got.tgz:243863.got - 2010.06.03 11:33:40.
