data_PCOD9029947
_publ_section_title
;
Structure prediction by ZEFSAII (Michael W. Deem and Ramdas Pophale) SiO2 
 PCOD9029947
Probable space group: P -1
;
_chemical_formula_sum "Si O2"
_cell_formula_units_Z 13
_cell_length_a 12.671292
_cell_length_b 23.062455
_cell_length_c 18.794167
_cell_angle_alpha 162.492545
_cell_angle_beta 27.352175
_cell_angle_gamma 161.303943
_cell_volume 523.036971
_symmetry_space_group_name_H-M "P -1"
_symmetry_group_IT_number 2
_symmetry_cell_setting 'triclinic'
loop_
_space_group_symop_operation_xyz
x,y,z
-x,-y,-z
loop_
_atom_site_type_symbol
_atom_site_label
_atom_site_fract_x
_atom_site_fract_y
_atom_site_fract_z
Si Si1 0.209508 0.929513 0.803419
Si Si2 0.214821 0.522689 0.824949
Si Si3 0.786589 0.604948 0.813059
Si Si4 0.093910 0.027621 0.557430
Si Si5 0.500000 0.500000 0.500000
Si Si6 0.821338 0.066862 0.899080
Si Si7 0.493890 0.859311 0.269939
O O1 0.270527 0.903063 0.654058
O O2 0.581585 0.203461 0.929238
O O3 0.002808 0.709811 0.734604
O O4 0.000000 0.000000 0.000000
O O5 0.486836 0.631774 0.731137
O O6 0.886229 0.383446 0.814849
O O7 0.105933 0.279051 0.654328
O O8 0.492590 0.270523 0.601684
O O9 0.628164 0.725312 0.045686
O O10 0.975774 0.712317 0.900330
O O11 0.001652 0.138582 0.799744
O O12 0.000000 0.000000 0.500000
O O13 0.719845 0.794565 0.669367
O O14 0.500000 0.000000 0.000000
O O15 0.500000 0.000000 0.500000
#
# Coordination Sequence:
#
# PCOD9029947 Si02
#       7
#     2   2   2   2   1   2   2
#     4  10  22  42  69 100 138 187 234 295 350 424
#     4  11  23  44  72  99 139 189 237 287 362 427
#     4  11  24  48  67 102 144 181 236 299 357 430
#     4  11  25  46  67 103 147 187 229 301 365 427
#     4  10  22  44  72 104 140 182 244 294 354 424
#     4  11  25  46  75 104 144 193 245 299 364 430
#     4  11  24  41  71 104 136 183 241 290 351 430
#
# _framework density 24.854838000000001
#
# number of rings (size 3 to 8) (size 9 to 14) (size 15 to 20)
#    0.000    1.231    1.538    4.615    4.308    1.231 
#    2.769    1.538    0.000    0.000    0.000    0.000 
#    0.000    0.000    0.000    0.000    0.000    0.000 
#
# Total GULP energy -72531.133624 kJ/mol
# GULP energy per Si atom -5579.317971 kJ/mol
# Density = 2.479827 g / cm^3
# Si number density = 24.854838 Si / 1000 Ang^3
#
#
#
# Elastic Constant Matrix: (Units=GPa)
#
#
# Indices 1 2 3 4 5 6 
#
# 1 171.5690 87.3786 40.8343 -5.5203 15.7951 -21.9559
# 2 87.3786 154.1002 55.4071 3.9184 17.9924 -54.2249
# 3 40.8343 55.4071 81.4954 3.5666 0.8011 -27.3436
# 4 -5.5203 3.9184 3.5666 37.0619 -11.7118 21.3067
# 5 15.7951 17.9924 0.8011 -11.7118 35.2425 -12.9766
# 6 -21.9559 -54.2249 -27.3436 21.3067 -12.9766 66.6634
#
#
#
# Elastic Compliance Matrix: (Units=1/GPa)
#
#
# Indices 1 2 3 4 5 6 
#
# 1 0.008982 -0.005752 -0.002161 0.004178 -0.001188 -0.004174
# 2 -0.005752 0.016165 -0.003424 -0.010834 -0.004627 0.012412
# 3 -0.002161 -0.003424 0.017708 -0.003921 0.003080 0.005619
# 4 0.004178 -0.010834 -0.003921 0.044754 0.010797 -0.021247
# 5 -0.001188 -0.004627 0.003080 0.010797 0.034958 0.000462
# 6 -0.004174 0.012412 0.005619 -0.021247 0.000462 0.032908
#
#
# Mechanical properties :
#
#
# Convention : Reuss Voigt Hill
#
# Bulk Modulus (GPa) = 49.55245 86.04494 67.79869
# Shear Modulus (GPa) = 27.04477 42.69654 34.87066
#
# Velocity S-wave (km/s) = 3.30223 4.14918 3.74969
# Velocity P-wave (km/s) = 5.87534 7.59265 6.78852
#
# Compressibility (1/GPa) = 0.02018064
#
# Stress axis : x y z
#
# Youngs Moduli (GPa) = 111.33098 61.86024 56.47047
#
# Poissons Ratio (x) = 0.35583 0.12206
# Poissons Ratio (y) = 0.64039 0.19336
# Poissons Ratio (z) = 0.24064 0.21182
#
# Static dielectric constant tensor:
#      x y z
#    x 2.003600 0.043180 -0.047860 
#    y 0.043180 2.039560 -0.143800 
#    z -0.047860 -0.143800 2.134660 
# 
# From -- ./inp_files/209956.got.cif
#   From: 2010.05.17/outbox.cif.g08.bks.cpg/sg2_105_cif.got.tgz:209956.got - 2010.06.03 11:33:40.
