data_PCOD9029976
_publ_section_title
;
Structure prediction by ZEFSAII (Michael W. Deem and Ramdas Pophale) SiO2 
 PCOD9029976
Probable space group: P -1
;
_chemical_formula_sum "Si O2"
_cell_formula_units_Z 15
_cell_length_a 6.011619
_cell_length_b 22.708263
_cell_length_c 6.930828
_cell_angle_alpha 125.255670
_cell_angle_beta 111.384939
_cell_angle_gamma 98.856594
_cell_volume 631.401906
_symmetry_space_group_name_H-M "P -1"
_symmetry_group_IT_number 2
_symmetry_cell_setting 'triclinic'
loop_
_space_group_symop_operation_xyz
x,y,z
-x,-y,-z
loop_
_atom_site_type_symbol
_atom_site_label
_atom_site_fract_x
_atom_site_fract_y
_atom_site_fract_z
Si Si1 0.408393 0.240687 0.624582
Si Si2 0.016672 0.336335 0.024006
Si Si3 0.263606 0.917238 0.179598
Si Si4 0.778247 0.523213 0.388142
Si Si5 0.000000 0.000000 0.000000
Si Si6 0.983051 0.828973 0.307365
Si Si7 0.223234 0.374096 0.769682
Si Si8 0.502348 0.123050 0.166750
O O1 0.238877 0.174394 0.614663
O O2 0.263080 0.293597 0.612102
O O3 0.439991 0.194109 0.361904
O O4 0.705152 0.299469 0.921668
O O5 0.241974 0.420412 0.344334
O O6 0.103851 0.266422 0.939019
O O7 0.004613 0.353278 0.827563
O O8 0.059359 0.871622 0.205082
O O9 0.500000 0.000000 0.500000
O O10 0.393272 0.870268 0.006977
O O11 0.130981 0.947679 0.034947
O O12 0.863312 0.588986 0.365109
O O13 0.000000 0.500000 0.500000
O O14 0.513043 0.444677 0.076733
O O15 0.759310 0.962545 0.027255
O O16 0.259775 0.864554 0.584856
#
# Coordination Sequence:
#
# PCOD9029976 Si02
#       8
#     2   2   2   2   1   2   2   2
#     4  10  22  46  73 100 147 189 238 298 354 425
#     4  10  22  42  69 102 139 185 242 287 351 428
#     4  12  27  48  75 105 142 184 237 297 361 428
#     4  11  22  42  71 104 144 189 239 288 357 417
#     4  12  26  44  76 104 138 184 230 292 360 430
#     4  10  24  47  71 102 144 186 239 298 354 428
#     4  10  23  44  69 103 146 185 237 300 346 416
#     4  11  25  45  70 106 142 179 242 295 353 435
#
# _framework density 23.75666
#
# number of rings (size 3 to 8) (size 9 to 14) (size 15 to 20)
#    0.000    1.333    2.667    1.600    1.867    7.467 
#    2.400    4.000    0.000    0.000    0.000    0.000 
#    0.000    0.000    0.000    0.000    0.000    0.000 
#
# Total GULP energy -83524.727375 kJ/mol
# GULP energy per Si atom -5568.315158 kJ/mol
# Density = 2.370259 g / cm^3
# Si number density = 23.756660 Si / 1000 Ang^3
#
#
#
# Elastic Constant Matrix: (Units=GPa)
#
#
# Indices 1 2 3 4 5 6 
#
# 1 67.5377 36.3974 35.8566 -12.3576 -8.2106 20.2067
# 2 36.3974 146.6756 41.4933 -28.7240 -15.6777 11.1041
# 3 35.8566 41.4933 96.2845 -2.2089 -21.2662 -8.0506
# 4 -12.3576 -28.7240 -2.2089 29.9462 3.1698 0.1922
# 5 -8.2106 -15.6777 -21.2662 3.1698 37.6580 -2.9341
# 6 20.2067 11.1041 -8.0506 0.1922 -2.9341 36.0518
#
#
#
# Elastic Compliance Matrix: (Units=1/GPa)
#
#
# Indices 1 2 3 4 5 6 
#
# 1 0.029374 -0.000277 -0.012978 0.011398 -0.003528 -0.019625
# 2 -0.000277 0.010328 -0.004309 0.009425 0.000702 -0.003981
# 3 -0.012978 -0.004309 0.019885 -0.009004 0.008437 0.013776
# 4 0.011398 0.009425 -0.009004 0.046925 -0.003548 -0.011841
# 5 -0.003528 0.000702 0.008437 -0.003548 0.031627 0.006238
# 6 -0.019625 -0.003981 0.013776 -0.011841 0.006238 0.043611
#
#
# Mechanical properties :
#
#
# Convention : Reuss Voigt Hill
#
# Bulk Modulus (GPa) = 40.88649 59.77690 50.33170
# Shear Modulus (GPa) = 22.21916 33.84791 28.03354
#
# Velocity S-wave (km/s) = 3.06155 3.77871 3.43888
# Velocity P-wave (km/s) = 5.45393 6.65245 6.08278
#
# Compressibility (1/GPa) = 0.02445796
#
# Stress axis : x y z
#
# Youngs Moduli (GPa) = 34.04323 96.82664 50.28969
#
# Poissons Ratio (x) = 0.02683 0.65268
# Poissons Ratio (y) = 0.00943 0.21670
# Poissons Ratio (z) = 0.44183 0.41723
#
# Static dielectric constant tensor:
#      x y z
#    x 1.985900 0.042060 -0.042710 
#    y 0.042060 1.923620 0.021070 
#    z -0.042710 0.021070 1.953850 
# 
# From -- ./inp_files/13752.got.cif
#   From: 2010.05.17/outbox.cif.g08.bks.cpg/sg2_7_cif.got.tgz:13752.got - 2010.06.03 11:33:40.
