data_PCOD9029798
_publ_section_title
;
Structure prediction by ZEFSAII (Michael W. Deem and Ramdas Pophale) SiO2 
 PCOD9029798
Probable space group: P -1
;
_chemical_formula_sum "Si O2"
_cell_formula_units_Z 16
_cell_length_a 18.511962
_cell_length_b 9.085667
_cell_length_c 12.527985
_cell_angle_alpha 59.010495
_cell_angle_beta 27.299158
_cell_angle_gamma 50.805096
_cell_volume 742.473616
_symmetry_space_group_name_H-M "P -1"
_symmetry_group_IT_number 2
_symmetry_cell_setting 'triclinic'
loop_
_space_group_symop_operation_xyz
x,y,z
-x,-y,-z
loop_
_atom_site_type_symbol
_atom_site_label
_atom_site_fract_x
_atom_site_fract_y
_atom_site_fract_z
Si Si1 0.755630 0.457309 0.976687
Si Si2 0.757172 0.760639 0.266681
Si Si3 0.193793 0.802584 0.189674
Si Si4 0.362765 0.104044 0.047562
Si Si5 0.549885 0.031167 0.247482
Si Si6 0.080921 0.776501 0.944940
Si Si7 0.651117 0.418033 0.506708
Si Si8 0.838280 0.145614 0.556244
O O1 0.878726 0.351539 0.954013
O O2 0.559513 0.483763 0.253512
O O3 0.822598 0.328038 0.832007
O O4 0.733267 0.668369 0.902848
O O5 0.687296 0.876906 0.205525
O O6 0.726161 0.573495 0.364138
O O7 0.631003 0.881138 0.484203
O O8 0.946809 0.738051 0.059170
O O9 0.179262 0.741066 0.352743
O O10 0.037341 0.018539 0.305568
O O11 0.377633 0.812123 0.927414
O O12 0.228642 0.011130 0.264786
O O13 0.454273 0.055873 0.829337
O O14 0.500000 0.000000 0.000000
O O15 0.261244 0.704789 0.668049
O O16 0.000000 0.000000 0.000000
O O17 0.719192 0.277905 0.570826
#
# Coordination Sequence:
#
# PCOD9029798 Si02
#       8
#     2   2   2   2   2   2   2   2
#     4  12  25  43  69 100 138 174 225 278 333 395
#     4  11  24  42  70  97 129 179 223 277 328 400
#     4  10  22  44  66  97 130 174 227 273 329 396
#     4  11  24  42  65  99 136 175 218 278 337 388
#     4  10  22  42  68  95 132 174 225 269 337 402
#     4  12  28  43  69 103 141 172 217 282 342 393
#     4  12  24  43  68  98 135 176 229 267 333 402
#     4  10  23  42  69  94 134 181 218 278 329 396
#
# _framework density 21.549586999999999
#
# number of rings (size 3 to 8) (size 9 to 14) (size 15 to 20)
#    0.000    1.000    2.500    3.750    3.500    6.000 
#    0.000    0.000    0.000    0.000    0.000    0.000 
#    0.000    0.000    0.000    0.000    0.000    0.000 
#
# Total GULP energy -89509.778950 kJ/mol
# GULP energy per Si atom -5594.361184 kJ/mol
# Density = 2.150054 g / cm^3
# Si number density = 21.549587 Si / 1000 Ang^3
#
#
#
# Elastic Constant Matrix: (Units=GPa)
#
#
# Indices 1 2 3 4 5 6 
#
# 1 62.5864 -6.6518 9.0431 32.6819 46.9255 -6.0293
# 2 -6.6518 56.6180 0.8583 12.0438 34.3398 -1.3432
# 3 9.0431 0.8583 76.6498 13.2033 21.0536 5.2085
# 4 32.6819 12.0438 13.2033 19.2876 -1.4493 -3.6750
# 5 46.9255 34.3398 21.0536 -1.4493 41.4140 -0.9734
# 6 -6.0293 -1.3432 5.2085 -3.6750 -0.9734 29.9361
#
#
#
# Elastic Compliance Matrix: (Units=1/GPa)
#
#
# Indices 1 2 3 4 5 6 
#
# 1 -0.000647 -0.010586 -0.005791 0.013109 0.012971 0.002433
# 2 -0.010586 0.009720 -0.003088 0.014593 0.006035 0.000829
# 3 -0.005791 -0.003088 0.012813 0.002570 0.002625 -0.003134
# 4 0.013109 0.014593 0.002570 0.017472 -0.027553 0.004097
# 5 0.012971 0.006035 0.002625 -0.027553 0.002126 -0.000887
# 6 0.002433 0.000829 -0.003134 0.004097 -0.000887 0.034951
#
#
# Mechanical properties :
#
#
# Convention : Reuss Voigt Hill
#
# Bulk Modulus (GPa) = -58.67255 22.48372 -18.09442
# Shear Modulus (GPa) = 45.58506 30.96784 38.27645
#
# Velocity S-wave (km/s) = 4.60429 3.79496 4.21907
# Velocity P-wave (km/s) = 0.99001 5.44595 3.91398
#
# Compressibility (1/GPa) = -0.01704375
#
# Stress axis : x y z
#
# Youngs Moduli (GPa) = -1545.90899 102.87716 78.04277
#
# Poissons Ratio (x) = 1.08908 0.45198
# Poissons Ratio (y) = -16.36540 0.24097
# Poissons Ratio (z) = -8.95305 0.31765
#
# Static dielectric constant tensor:
#      x y z
#    x 1.784570 0.013180 -0.004560 
#    y 0.013180 1.772610 0.003960 
#    z -0.004560 0.003960 1.797600 
# 
# From -- ./inp_files/278976.got.cif
#   From: 2010.05.17/outbox.cif.g08.bks.cpg/sg2_140_cif.got.tgz:278976.got - 2010.06.03 11:33:40.
