data_PCOD9029766
_publ_section_title
;
Structure prediction by ZEFSAII (Michael W. Deem and Ramdas Pophale) SiO2 
 PCOD9029766
Probable space group: P -1
;
_chemical_formula_sum "Si O2"
_cell_formula_units_Z 16
_cell_length_a 15.822653
_cell_length_b 10.237326
_cell_length_c 23.765629
_cell_angle_alpha 41.080520
_cell_angle_beta 162.914326
_cell_angle_gamma 140.712662
_cell_volume 714.150104
_symmetry_space_group_name_H-M "P -1"
_symmetry_group_IT_number 2
_symmetry_cell_setting 'triclinic'
loop_
_space_group_symop_operation_xyz
x,y,z
-x,-y,-z
loop_
_atom_site_type_symbol
_atom_site_label
_atom_site_fract_x
_atom_site_fract_y
_atom_site_fract_z
Si Si1 0.521326 0.696607 0.347173
Si Si2 0.505952 0.666586 0.617637
Si Si3 0.156800 0.932304 0.361920
Si Si4 0.843569 0.040064 0.517643
Si Si5 0.172082 0.518841 0.027000
Si Si6 0.579422 0.674933 0.040434
Si Si7 0.419499 0.073651 0.805217
Si Si8 0.658029 0.427718 0.281816
O O1 0.668713 0.530061 0.466278
O O2 0.676464 0.813164 0.462822
O O3 0.550584 0.867170 0.260746
O O4 0.175007 0.573805 0.178397
O O5 0.330191 0.756437 0.523558
O O6 0.755642 0.587783 0.834937
O O7 0.634789 0.852541 0.596850
O O8 0.065772 0.954783 0.360836
O O9 0.894287 0.850076 0.176322
O O10 0.626410 0.188538 0.325377
O O11 0.132965 0.123574 0.635216
O O12 0.396846 0.460615 0.144604
O O13 0.295618 0.766694 0.034955
O O14 0.629962 0.559925 0.166376
O O15 0.500000 0.500000 0.000000
O O16 0.372756 0.829836 0.863781
O O17 0.000000 0.500000 0.500000
#
# Coordination Sequence:
#
# PCOD9029766 Si02
#       8
#     2   2   2   2   2   2   2   2
#     4  11  25  41  69 104 137 179 235 287 345 405
#     4  10  22  42  68  93 137 186 223 282 345 422
#     4  11  23  43  67  94 139 183 228 275 356 408
#     4  12  25  44  71 101 141 183 235 280 349 418
#     4  11  21  44  73  95 139 179 234 280 347 409
#     4  12  26  42  68 104 138 176 237 288 337 402
#     4  11  24  44  70 101 138 183 231 289 344 411
#     4  12  23  46  70 101 137 188 227 277 350 415
#
# _framework density 22.404254000000002
#
# number of rings (size 3 to 8) (size 9 to 14) (size 15 to 20)
#    0.000    0.750    3.750    4.125    3.500    4.000 
#    4.500    0.000    0.000    0.000    0.000    0.000 
#    0.000    0.000    0.000    0.000    0.000    0.000 
#
# Total GULP energy -89398.870350 kJ/mol
# GULP energy per Si atom -5587.429397 kJ/mol
# Density = 2.235326 g / cm^3
# Si number density = 22.404254 Si / 1000 Ang^3
#
#
#
# Elastic Constant Matrix: (Units=GPa)
#
#
# Indices 1 2 3 4 5 6 
#
# 1 107.9850 48.2450 35.7249 4.8598 7.1313 -15.1784
# 2 48.2450 152.5009 36.8670 -1.7010 -9.9442 -28.1624
# 3 35.7249 36.8670 55.6916 0.1148 11.8136 -14.8666
# 4 4.8598 -1.7010 0.1148 46.3563 4.1283 -4.9009
# 5 7.1313 -9.9442 11.8136 4.1283 25.7103 0.5583
# 6 -15.1784 -28.1624 -14.8666 -4.9009 0.5583 34.5622
#
#
#
# Elastic Compliance Matrix: (Units=1/GPa)
#
#
# Indices 1 2 3 4 5 6 
#
# 1 0.012602 -0.002546 -0.005834 -0.001169 -0.001629 0.000811
# 2 -0.002546 0.009908 -0.005078 0.000549 0.006681 0.004741
# 3 -0.005834 -0.005078 0.029967 0.002370 -0.014643 0.006762
# 4 -0.001169 0.000549 0.002370 0.022534 -0.004262 0.004218
# 5 -0.001629 0.006681 -0.014643 -0.004262 0.049408 -0.002973
# 6 0.000811 0.004741 0.006762 0.004218 -0.002973 0.036707
#
#
# Mechanical properties :
#
#
# Convention : Reuss Voigt Hill
#
# Bulk Modulus (GPa) = 39.12408 61.98346 50.55377
# Shear Modulus (GPa) = 25.43713 34.34846 29.89280
#
# Velocity S-wave (km/s) = 3.37318 3.91976 3.65670
# Velocity P-wave (km/s) = 5.71593 6.94349 6.35940
#
# Compressibility (1/GPa) = 0.02555971
#
# Stress axis : x y z
#
# Youngs Moduli (GPa) = 79.35008 100.93209 33.37037
#
# Poissons Ratio (x) = 0.25697 0.19469
# Poissons Ratio (y) = 0.20202 0.16946
# Poissons Ratio (z) = 0.46295 0.51256
#
# Static dielectric constant tensor:
#      x y z
#    x 1.820670 -0.000970 0.013190 
#    y -0.000970 1.885380 -0.037840 
#    z 0.013190 -0.037840 1.920390 
# 
# From -- ./inp_files/611749.got.cif
#   From: 2010.05.17/outbox.cif.g08.bks.cpg/sg2_306_cif.got.tgz:611749.got - 2010.06.03 11:33:40.
