data_PCOD9029948
_publ_section_title
;
Structure prediction by ZEFSAII (Michael W. Deem and Ramdas Pophale) SiO2 
 PCOD9029948
Probable space group: P -1
;
_chemical_formula_sum "Si O2"
_cell_formula_units_Z 10
_cell_length_a 10.776468
_cell_length_b 13.647712
_cell_length_c 13.620952
_cell_angle_alpha 159.654913
_cell_angle_beta 31.458679
_cell_angle_gamma 148.203664
_cell_volume 349.342130
_symmetry_space_group_name_H-M "P -1"
_symmetry_group_IT_number 2
_symmetry_cell_setting 'triclinic'
loop_
_space_group_symop_operation_xyz
x,y,z
-x,-y,-z
loop_
_atom_site_type_symbol
_atom_site_label
_atom_site_fract_x
_atom_site_fract_y
_atom_site_fract_z
Si Si1 0.963697 0.506492 0.646112
Si Si2 0.273429 0.100399 0.049724
Si Si3 0.649783 0.202590 0.727966
Si Si4 0.883698 0.731200 0.193379
Si Si5 0.359333 0.216118 0.390370
O O1 0.000000 0.500000 0.500000
O O2 0.707875 0.319054 0.688718
O O3 0.030900 0.834823 0.947404
O O4 0.179791 0.362656 0.402457
O O5 0.399125 0.188744 0.941192
O O6 0.463826 0.969511 0.858092
O O7 0.702258 0.891707 0.412842
O O8 0.855009 0.434443 0.874461
O O9 0.776781 0.676974 0.324840
O O10 0.148756 0.966643 0.241728
O O11 0.500000 0.500000 0.500000
#
# Coordination Sequence:
#
# PCOD9029948 Si02
#       5
#     2   2   2   2   2
#     4  12  27  47  72  99 130 176 232 287 342 394
#     4  11  25  45  70 101 134 179 227 273 340 400
#     4  11  24  45  68  99 141 172 219 282 329 401
#     4  10  23  41  66 100 138 180 215 264 333 394
#     4  10  22  42  69 100 140 181 222 265 324 406
#
# _framework density 28.625232
#
# number of rings (size 3 to 8) (size 9 to 14) (size 15 to 20)
#    0.000    1.200    0.000    5.400    0.000   12.000 
#    0.000   17.000    0.000    0.000    0.000    0.000 
#    0.000    0.000    0.000    0.000    0.000    0.000 
#
# Total GULP energy -56223.065833 kJ/mol
# GULP energy per Si atom -5622.306583 kJ/mol
# Density = 2.856008 g / cm^3
# Si number density = 28.625232 Si / 1000 Ang^3
#
#
#
# Elastic Constant Matrix: (Units=GPa)
#
#
# Indices 1 2 3 4 5 6 
#
# 1 95.2865 29.1898 24.6036 0.0338 -11.5135 -9.5480
# 2 29.1898 201.8989 25.8192 -7.0314 -9.2450 -44.8690
# 3 24.6036 25.8192 132.8885 -2.8139 -1.0595 -5.7369
# 4 0.0338 -7.0314 -2.8139 57.2777 -2.8414 14.3653
# 5 -11.5135 -9.2450 -1.0595 -2.8414 27.7705 -4.7766
# 6 -9.5480 -44.8690 -5.7369 14.3653 -4.7766 56.4006
#
#
#
# Elastic Compliance Matrix: (Units=1/GPa)
#
#
# Indices 1 2 3 4 5 6 
#
# 1 0.012027 -0.000923 -0.001947 -0.000380 0.004843 0.001610
# 2 -0.000923 0.006460 -0.000847 -0.000430 0.002590 0.005225
# 3 -0.001947 -0.000847 0.008036 0.000337 -0.000807 -0.000340
# 4 -0.000380 -0.000430 0.000337 0.018734 0.000755 -0.005080
# 5 0.004843 0.002590 -0.000807 0.000755 0.039956 0.005990
# 6 0.001610 0.005225 -0.000340 -0.005080 0.005990 0.023926
#
#
# Mechanical properties :
#
#
# Convention : Reuss Voigt Hill
#
# Bulk Modulus (GPa) = 52.39010 65.47768 58.93389
# Shear Modulus (GPa) = 40.67106 51.65384 46.16245
#
# Velocity S-wave (km/s) = 3.77345 4.25253 4.02014
# Velocity P-wave (km/s) = 6.10959 6.85827 6.49472
#
# Compressibility (1/GPa) = 0.01908758
#
# Stress axis : x y z
#
# Youngs Moduli (GPa) = 83.14655 154.80657 124.43677
#
# Poissons Ratio (x) = 0.14295 0.24231
# Poissons Ratio (y) = 0.07678 0.10539
# Poissons Ratio (z) = 0.16191 0.13112
#
# Static dielectric constant tensor:
#      x y z
#    x 2.277610 -0.029110 -0.005740 
#    y -0.029110 2.174530 -0.032980 
#    z -0.005740 -0.032980 2.081270 
# 
# From -- ./inp_files/33126.got.cif
#   From: 2010.05.17/outbox.cif.g08.bks.cpg/sg2_17_cif.got.tgz:33126.got - 2010.06.03 11:33:40.
