data_PCOD9029207
_publ_section_title
;
Structure prediction by ZEFSAII (Michael W. Deem and Ramdas Pophale) SiO2 
 PCOD9029207
Probable space group: P -1
;
_chemical_formula_sum "Si O2"
_cell_formula_units_Z 15
_cell_length_a 8.721222
_cell_length_b 13.857239
_cell_length_c 16.667771
_cell_angle_alpha 158.611531
_cell_angle_beta 118.430548
_cell_angle_gamma 62.208561
_cell_volume 644.352853
_symmetry_space_group_name_H-M "P -1"
_symmetry_group_IT_number 2
_symmetry_cell_setting 'triclinic'
loop_
_space_group_symop_operation_xyz
x,y,z
-x,-y,-z
loop_
_atom_site_type_symbol
_atom_site_label
_atom_site_fract_x
_atom_site_fract_y
_atom_site_fract_z
Si Si1 0.567940 0.414656 0.039961
Si Si2 0.872233 0.287900 0.272839
Si Si3 0.799239 0.293910 0.518826
Si Si4 0.283574 0.257951 0.960670
Si Si5 0.821412 0.171422 0.607522
Si Si6 0.500000 0.000000 0.500000
Si Si7 0.483436 0.308283 0.215695
Si Si8 0.930942 0.268569 0.082972
O O1 0.423850 0.245333 0.913722
O O2 0.561371 0.692709 0.300388
O O3 0.761608 0.275791 0.988674
O O4 0.500000 0.500000 0.000000
O O5 0.679039 0.390678 0.329805
O O6 0.000000 0.500000 0.500000
O O7 0.871186 0.268082 0.160563
O O8 0.939968 0.997183 0.098012
O O9 0.745697 0.209907 0.529472
O O10 0.643964 0.504464 0.615551
O O11 0.966330 0.466625 0.698645
O O12 0.813063 0.010996 0.260113
O O13 0.158956 0.525601 0.124224
O O14 0.398732 0.303996 0.103117
O O15 0.691230 0.035438 0.529342
O O16 0.000000 0.000000 0.500000
O O17 0.500000 0.000000 0.000000
#
# Coordination Sequence:
#
# PCOD9029207 Si02
#       8
#     2   2   2   2   2   1   2   2
#     4  11  23  43  70  98 138 190 236 287 354 420
#     4  11  26  44  70 101 140 185 231 297 363 419
#     4  11  24  40  70 100 140 182 230 291 357 424
#     4  10  24  42  68 103 136 186 234 286 359 429
#     4  10  22  43  66  97 138 178 238 292 343 421
#     4  10  22  42  66  96 132 180 234 290 346 410
#     4  11  23  44  66 101 142 180 232 288 358 433
#     4  11  25  45  65 107 141 177 244 296 346 435
#
# _framework density 23.279169
#
# number of rings (size 3 to 8) (size 9 to 14) (size 15 to 20)
#    0.000    1.333    2.667    1.600    3.733    2.133 
#    0.000    5.333    0.000    0.000    0.000    0.000 
#    0.000    0.000    0.000    0.000    0.000    0.000 
#
# Total GULP energy -83529.001174 kJ/mol
# GULP energy per Si atom -5568.600078 kJ/mol
# Density = 2.322618 g / cm^3
# Si number density = 23.279169 Si / 1000 Ang^3
#
#
#
# Elastic Constant Matrix: (Units=GPa)
#
#
# Indices 1 2 3 4 5 6 
#
# 1 118.9486 32.6447 54.9135 14.0271 2.9920 -8.3443
# 2 32.6447 108.6616 37.4069 3.0564 3.6142 -3.6049
# 3 54.9135 37.4069 121.8967 27.9386 25.1349 -17.1569
# 4 14.0271 3.0564 27.9386 33.9821 1.8349 -1.9339
# 5 2.9920 3.6142 25.1349 1.8349 29.4103 7.3726
# 6 -8.3443 -3.6049 -17.1569 -1.9339 7.3726 33.0596
#
#
#
# Elastic Compliance Matrix: (Units=1/GPa)
#
#
# Indices 1 2 3 4 5 6 
#
# 1 0.011246 -0.001653 -0.005488 -0.000262 0.004044 -0.001107
# 2 -0.001653 0.010846 -0.003953 0.002728 0.002463 -0.001676
# 3 -0.005488 -0.003953 0.020232 -0.012326 -0.018509 0.012090
# 4 -0.000262 0.002728 -0.012326 0.038580 0.009319 -0.005987
# 5 0.004044 0.002463 -0.018509 0.009319 0.053461 -0.019694
# 6 -0.001107 -0.001676 0.012090 -0.005987 -0.019694 0.040102
#
#
# Mechanical properties :
#
#
# Convention : Reuss Voigt Hill
#
# Bulk Modulus (GPa) = 49.66231 66.60414 58.13322
# Shear Modulus (GPa) = 24.58591 34.25985 29.42288
#
# Velocity S-wave (km/s) = 3.25335 3.84043 3.55901
# Velocity P-wave (km/s) = 5.95752 6.95258 6.47419
#
# Compressibility (1/GPa) = 0.02013599
#
# Stress axis : x y z
#
# Youngs Moduli (GPa) = 88.92055 92.20012 49.42562
#
# Poissons Ratio (x) = 0.15241 0.27127
# Poissons Ratio (y) = 0.14699 0.19537
# Poissons Ratio (z) = 0.48803 0.36444
#
# Static dielectric constant tensor:
#      x y z
#    x 1.920200 0.060940 -0.002090 
#    y 0.060940 1.798480 -0.050880 
#    z -0.002090 -0.050880 1.957140 
# 
# From -- ./inp_files/561281.got.cif
#   From: 2010.05.17/outbox.cif.g08.bks.cpg/sg2_281_cif.got.tgz:561281.got - 2010.06.03 11:33:40.
