data_PCOD9029242
_publ_section_title
;
Structure prediction by ZEFSAII (Michael W. Deem and Ramdas Pophale) SiO2 
 PCOD9029242
Probable space group: P -1
;
_chemical_formula_sum "Si O2"
_cell_formula_units_Z 16
_cell_length_a 11.700930
_cell_length_b 13.650232
_cell_length_c 5.162219
_cell_angle_alpha 108.317295
_cell_angle_beta 90.048217
_cell_angle_gamma 112.029433
_cell_volume 718.954581
_symmetry_space_group_name_H-M "P -1"
_symmetry_group_IT_number 2
_symmetry_cell_setting 'triclinic'
loop_
_space_group_symop_operation_xyz
x,y,z
-x,-y,-z
loop_
_atom_site_type_symbol
_atom_site_label
_atom_site_fract_x
_atom_site_fract_y
_atom_site_fract_z
Si Si1 0.658551 0.415549 0.566336
Si Si2 0.015306 0.259557 0.325252
Si Si3 0.560529 0.689474 0.163208
Si Si4 0.692375 0.649426 0.619637
Si Si5 0.092243 0.594250 0.267021
Si Si6 0.870091 0.173851 0.737883
Si Si7 0.525657 0.178752 0.088089
Si Si8 0.612480 0.012531 0.704137
O O1 0.654745 0.516409 0.478182
O O2 0.798893 0.439937 0.663140
O O3 0.601455 0.297421 0.320033
O O4 0.571778 0.399585 0.805525
O O5 0.159685 0.295535 0.302541
O O6 0.982424 0.368478 0.480722
O O7 0.970835 0.187304 0.526817
O O8 0.932886 0.191314 0.031333
O O9 0.622485 0.661072 0.887872
O O10 0.350767 0.299745 0.583665
O O11 0.532865 0.795468 0.152184
O O12 0.158546 0.714334 0.218753
O O13 0.000000 0.500000 0.000000
O O14 0.746963 0.062248 0.616913
O O15 0.421256 0.096818 0.211092
O O16 0.613540 0.112954 0.977632
O O17 0.500000 0.000000 0.500000
#
# Coordination Sequence:
#
# PCOD9029242 Si02
#       8
#     2   2   2   2   2   2   2   2
#     4  12  25  44  69 107 144 187 235 290 352 423
#     4  10  24  44  65 102 130 197 223 288 336 426
#     4  12  26  47  67 106 139 194 229 298 334 418
#     4  12  27  44  73  96 152 186 246 268 349 416
#     4  10  23  39  66 100 142 180 224 284 349 416
#     4  10  22  42  66  97 140 171 230 279 357 412
#     4  11  25  42  71 104 143 178 236 290 367 405
#     4  11  24  43  73 110 138 185 224 305 364 422
#
# _framework density 22.254535000000001
#
# number of rings (size 3 to 8) (size 9 to 14) (size 15 to 20)
#    0.750    0.250    1.250    5.250    7.000    3.000 
#    0.000    0.000    0.000    4.500    0.000    0.000 
#    0.000    0.000    0.000    0.000    0.000    0.000 
#
# Total GULP energy -89475.868678 kJ/mol
# GULP energy per Si atom -5592.241792 kJ/mol
# Density = 2.220388 g / cm^3
# Si number density = 22.254535 Si / 1000 Ang^3
#
#
#
# Elastic Constant Matrix: (Units=GPa)
#
#
# Indices 1 2 3 4 5 6 
#
# 1 132.8056 26.7369 37.0888 -3.6363 12.2344 15.8498
# 2 26.7369 102.8199 14.9824 -9.1765 16.5158 6.4966
# 3 37.0888 14.9824 111.2984 -9.9890 13.6614 5.1437
# 4 -3.6363 -9.1765 -9.9890 27.5463 -5.0120 0.8908
# 5 12.2344 16.5158 13.6614 -5.0120 28.4644 -8.2249
# 6 15.8498 6.4966 5.1437 0.8908 -8.2249 41.2985
#
#
#
# Elastic Compliance Matrix: (Units=1/GPa)
#
#
# Indices 1 2 3 4 5 6 
#
# 1 0.009173 -0.001351 -0.002368 -0.000557 -0.003170 -0.003632
# 2 -0.001351 0.011498 0.000044 0.002585 -0.006416 -0.002629
# 3 -0.002368 0.000044 0.010566 0.002857 -0.003940 -0.001260
# 4 -0.000557 0.002585 0.002857 0.038881 0.004046 -0.000582
# 5 -0.003170 -0.006416 -0.003940 0.004046 0.046241 0.011839
# 6 -0.003632 -0.002629 -0.001260 -0.000582 0.011839 0.028549
#
#
# Mechanical properties :
#
#
# Convention : Reuss Voigt Hill
#
# Bulk Modulus (GPa) = 41.86474 56.06000 48.96237
# Shear Modulus (GPa) = 31.20643 37.33623 34.27133
#
# Velocity S-wave (km/s) = 3.74873 4.10041 3.92850
# Velocity P-wave (km/s) = 6.13106 6.90383 6.52889
#
# Compressibility (1/GPa) = 0.02388645
#
# Stress axis : x y z
#
# Youngs Moduli (GPa) = 109.00979 86.96948 94.63945
#
# Poissons Ratio (x) = 0.11753 0.22411
# Poissons Ratio (y) = 0.14732 -0.00413
# Poissons Ratio (z) = 0.25814 -0.00379
#
# Static dielectric constant tensor:
#      x y z
#    x 1.789650 -0.013780 -0.030970 
#    y -0.013780 1.850770 0.006790 
#    z -0.030970 0.006790 1.871490 
# 
# From -- ./inp_files/78330.got.cif
#   From: 2010.05.17/outbox.cif.g08.bks.cpg/sg2_40_cif.got.tgz:78330.got - 2010.06.03 11:33:40.
