data_PCOD9029035
_publ_section_title
;
Structure prediction by ZEFSAII (Michael W. Deem and Ramdas Pophale) SiO2 
 PCOD9029035
Probable space group: P -1
;
_chemical_formula_sum "Si O2"
_cell_formula_units_Z 13
_cell_length_a 9.327617
_cell_length_b 9.463707
_cell_length_c 8.905698
_cell_angle_alpha 99.463727
_cell_angle_beta 132.864066
_cell_angle_gamma 62.349561
_cell_volume 496.363603
_symmetry_space_group_name_H-M "P -1"
_symmetry_group_IT_number 2
_symmetry_cell_setting 'triclinic'
loop_
_space_group_symop_operation_xyz
x,y,z
-x,-y,-z
loop_
_atom_site_type_symbol
_atom_site_label
_atom_site_fract_x
_atom_site_fract_y
_atom_site_fract_z
Si Si1 0.608601 0.513846 0.924009
Si Si2 0.958154 0.625317 0.296515
Si Si3 0.222777 0.276756 0.484762
Si Si4 0.500000 0.000000 0.500000
Si Si5 0.915768 0.160838 0.067492
Si Si6 0.638454 0.157269 0.364926
Si Si7 0.844433 0.961808 0.210781
O O1 0.457953 0.659089 0.731049
O O2 0.500000 0.500000 0.000000
O O3 0.795292 0.556162 0.123629
O O4 0.744816 0.336861 0.912011
O O5 0.907204 0.689523 0.443978
O O6 0.888108 0.781178 0.166399
O O7 0.188479 0.451615 0.435655
O O8 0.471776 0.129837 0.641043
O O9 0.129504 0.179150 0.289272
O O10 0.517592 0.128727 0.412675
O O11 0.792823 0.120436 0.105245
O O12 0.000000 0.000000 0.000000
O O13 0.897884 0.093924 0.573538
O O14 0.660962 0.036903 0.223333
#
# Coordination Sequence:
#
# PCOD9029035 Si02
#       7
#     2   2   2   1   2   2   2
#     4  11  25  45  71 110 142 182 244 303 348 423
#     4  10  23  42  73 100 139 193 235 287 359 434
#     4  10  22  42  66 101 142 188 230 289 359 427
#     4  12  22  42  68 106 142 180 236 308 334 420
#     4  11  24  45  70 101 146 187 233 296 360 421
#     4  11  24  43  74 104 148 184 243 292 357 428
#     4  11  21  46  72 100 138 203 233 277 368 444
#
# _framework density 26.190476
#
# number of rings (size 3 to 8) (size 9 to 14) (size 15 to 20)
#    0.000    1.231    4.615    0.923    4.308    4.308 
#    0.000    4.615    0.000    0.000    0.000    0.000 
#    0.000    0.000    0.000    0.000    0.000    0.000 
#
# Total GULP energy -72416.952702 kJ/mol
# GULP energy per Si atom -5570.534823 kJ/mol
# Density = 2.613086 g / cm^3
# Si number density = 26.190476 Si / 1000 Ang^3
#
#
#
# Elastic Constant Matrix: (Units=GPa)
#
#
# Indices 1 2 3 4 5 6 
#
# 1 101.6832 41.0649 16.2659 -3.3475 -23.9588 15.4018
# 2 41.0649 244.5886 39.8992 -23.2214 -2.2349 3.9361
# 3 16.2659 39.8992 56.0147 -9.0605 1.1152 3.3915
# 4 -3.3475 -23.2214 -9.0605 56.4812 7.2374 -12.6230
# 5 -23.9588 -2.2349 1.1152 7.2374 24.3798 -3.0296
# 6 15.4018 3.9361 3.3915 -12.6230 -3.0296 44.7323
#
#
#
# Elastic Compliance Matrix: (Units=1/GPa)
#
#
# Indices 1 2 3 4 5 6 
#
# 1 0.015626 -0.002159 -0.003610 -0.003656 0.015802 -0.004878
# 2 -0.002159 0.005039 -0.002658 0.001982 -0.002011 0.000924
# 3 -0.003610 -0.002658 0.021357 0.002902 -0.005593 0.000298
# 4 -0.003656 0.001982 0.002902 0.021336 -0.009098 0.006269
# 5 0.015802 -0.002011 -0.005593 -0.009098 0.058894 -0.003418
# 6 -0.004878 0.000924 0.000298 0.006269 -0.003418 0.025468
#
#
# Mechanical properties :
#
#
# Convention : Reuss Voigt Hill
#
# Bulk Modulus (GPa) = 39.73340 66.30517 53.01928
# Shear Modulus (GPa) = 28.90781 45.45576 37.18179
#
# Velocity S-wave (km/s) = 3.32588 4.17055 3.77194
# Velocity P-wave (km/s) = 5.47289 6.96870 6.26559
#
# Compressibility (1/GPa) = 0.02516775
#
# Stress axis : x y z
#
# Youngs Moduli (GPa) = 63.99766 198.43479 46.82296
#
# Poissons Ratio (x) = 0.42835 0.16905
# Poissons Ratio (y) = 0.13815 0.12446
# Poissons Ratio (z) = 0.23106 0.52746
#
# Static dielectric constant tensor:
#      x y z
#    x 2.343810 0.056230 0.061230 
#    y 0.056230 1.932910 0.125780 
#    z 0.061230 0.125780 2.230650 
# 
# From -- ./inp_files/155068.got.cif
#   From: 2010.05.17/outbox.cif.g08.bks.cpg/sg2_78_cif.got.tgz:155068.got - 2010.06.03 11:33:40.
