data_PCOD9029465
_publ_section_title
;
Structure prediction by ZEFSAII (Michael W. Deem and Ramdas Pophale) SiO2 
 PCOD9029465
Probable space group: P -1
;
_chemical_formula_sum "Si O2"
_cell_formula_units_Z 16
_cell_length_a 9.526284
_cell_length_b 21.878890
_cell_length_c 9.733875
_cell_angle_alpha 50.203967
_cell_angle_beta 128.222165
_cell_angle_gamma 154.913773
_cell_volume 656.127421
_symmetry_space_group_name_H-M "P -1"
_symmetry_group_IT_number 2
_symmetry_cell_setting 'triclinic'
loop_
_space_group_symop_operation_xyz
x,y,z
-x,-y,-z
loop_
_atom_site_type_symbol
_atom_site_label
_atom_site_fract_x
_atom_site_fract_y
_atom_site_fract_z
Si Si1 0.661128 0.594194 0.098939
Si Si2 0.896282 0.369547 0.628707
Si Si3 0.471370 0.669602 0.009214
Si Si4 0.757997 0.041685 0.840019
Si Si5 0.648469 0.842054 0.626417
Si Si6 0.116314 0.876599 0.788222
Si Si7 0.956419 0.111688 0.564003
Si Si8 0.565613 0.249566 0.876388
O O1 0.423622 0.560982 0.093324
O O2 0.813074 0.582273 0.301802
O O3 0.500000 0.500000 0.000000
O O4 0.945643 0.757797 0.969417
O O5 0.579089 0.235926 0.533107
O O6 0.823598 0.322858 0.810764
O O7 0.000000 0.500000 0.500000
O O8 0.298553 0.644480 0.071378
O O9 0.437540 0.710564 0.795585
O O10 0.867502 0.823376 0.070569
O O11 0.506689 0.003284 0.828087
O O12 0.787516 0.081648 0.642795
O O13 0.605905 0.895168 0.962221
O O14 0.976867 0.912154 0.689777
O O15 0.743073 0.958537 0.592273
O O16 0.988678 0.813076 0.644976
O O17 0.294470 0.199369 0.699733
#
# Coordination Sequence:
#
# PCOD9029465 Si02
#       8
#     2   2   2   2   2   2   2   2
#     4  11  26  46  66  91 125 167 222 268 313 370
#     4  12  26  45  67  91 123 169 221 270 311 375
#     4  10  22  42  67  95 132 170 207 261 315 386
#     4  11  21  39  63  99 137 168 206 253 325 384
#     4  11  22  39  63  95 130 165 217 255 319 374
#     4  11  23  36  62  95 129 169 206 264 312 371
#     4  11  21  38  62  97 135 167 205 259 319 389
#     4  11  21  43  67  94 133 171 208 252 328 378
#
# _framework density 24.385508000000002
#
# number of rings (size 3 to 8) (size 9 to 14) (size 15 to 20)
#    0.000    1.000    5.000    3.000    1.750    2.000 
#    0.000    4.375    0.000    0.000    0.000    0.000 
#    0.000    0.000    0.000    0.000    0.000    0.000 
#
# Total GULP energy -89551.885430 kJ/mol
# GULP energy per Si atom -5596.992839 kJ/mol
# Density = 2.433001 g / cm^3
# Si number density = 24.385508 Si / 1000 Ang^3
#
#
#
# Elastic Constant Matrix: (Units=GPa)
#
#
# Indices 1 2 3 4 5 6 
#
# 1 129.9932 34.5430 26.4464 18.4735 -5.7517 -10.3179
# 2 34.5430 56.6060 6.4829 13.4748 5.7554 -7.5249
# 3 26.4464 6.4829 92.6414 10.8925 -4.5417 -4.2661
# 4 18.4735 13.4748 10.8925 23.8199 -1.9419 -0.5649
# 5 -5.7517 5.7554 -4.5417 -1.9419 53.5242 6.2353
# 6 -10.3179 -7.5249 -4.2661 -0.5649 6.2353 40.1232
#
#
#
# Elastic Compliance Matrix: (Units=1/GPa)
#
#
# Indices 1 2 3 4 5 6 
#
# 1 0.010129 -0.004951 -0.001957 -0.004036 0.001165 0.001230
# 2 -0.004951 0.023936 0.000941 -0.010354 -0.003840 0.003767
# 3 -0.001957 0.000941 0.011861 -0.004384 0.000442 0.000804
# 4 -0.004036 -0.010354 -0.004384 0.053112 0.002596 -0.003101
# 5 0.001165 -0.003840 0.000442 0.002596 0.019750 -0.003406
# 6 0.001230 0.003767 0.000804 -0.003101 -0.003406 0.026517
#
#
# Mechanical properties :
#
#
# Convention : Reuss Voigt Hill
#
# Bulk Modulus (GPa) = 29.41864 46.02058 37.71961
# Shear Modulus (GPa) = 29.66130 37.61133 33.63632
#
# Velocity S-wave (km/s) = 3.49140 3.93156 3.71800
# Velocity P-wave (km/s) = 5.32385 6.28670 5.82520
#
# Compressibility (1/GPa) = 0.03399205
#
# Stress axis : x y z
#
# Youngs Moduli (GPa) = 98.72383 41.77858 84.30854
#
# Poissons Ratio (x) = 0.20686 0.16498
# Poissons Ratio (y) = 0.48881 -0.07934
# Poissons Ratio (z) = 0.19319 -0.03932
#
# Static dielectric constant tensor:
#      x y z
#    x 2.010810 0.031220 0.004340 
#    y 0.031220 1.964160 -0.020890 
#    z 0.004340 -0.020890 1.945450 
# 
# From -- ./inp_files/204123.got.cif
#   From: 2010.05.17/outbox.cif.g08.bks.cpg/sg2_103_cif.got.tgz:204123.got - 2010.06.03 11:33:40.
