data_PCOD9029245
_publ_section_title
;
Structure prediction by ZEFSAII (Michael W. Deem and Ramdas Pophale) SiO2 
 PCOD9029245
Probable space group: P -1
;
_chemical_formula_sum "Si O2"
_cell_formula_units_Z 14
_cell_length_a 9.254108
_cell_length_b 8.197379
_cell_length_c 13.943574
_cell_angle_alpha 85.542221
_cell_angle_beta 139.615570
_cell_angle_gamma 113.993975
_cell_volume 576.006567
_symmetry_space_group_name_H-M "P -1"
_symmetry_group_IT_number 2
_symmetry_cell_setting 'triclinic'
loop_
_space_group_symop_operation_xyz
x,y,z
-x,-y,-z
loop_
_atom_site_type_symbol
_atom_site_label
_atom_site_fract_x
_atom_site_fract_y
_atom_site_fract_z
Si Si1 0.107050 0.403761 0.863798
Si Si2 0.567960 0.405538 0.171409
Si Si3 0.225443 0.056189 0.327473
Si Si4 0.607823 0.904454 0.373707
Si Si5 0.289797 0.040990 0.154550
Si Si6 0.821064 0.608688 0.661792
Si Si7 0.092804 0.301334 0.514248
O O1 0.293160 0.522297 0.862701
O O2 0.955758 0.175357 0.769141
O O3 0.919140 0.488392 0.774953
O O4 0.318234 0.432308 0.049536
O O5 0.450052 0.181911 0.142946
O O6 0.777379 0.525835 0.353638
O O7 0.376849 0.090433 0.502868
O O8 0.386800 0.136257 0.305928
O O9 0.082780 0.176051 0.261076
O O10 0.335668 0.866013 0.194618
O O11 0.832262 0.116896 0.436503
O O12 0.698587 0.765107 0.390309
O O13 0.000000 0.000000 0.000000
O O14 0.500000 0.500000 0.500000
O O15 0.927597 0.636784 0.605743
#
# Coordination Sequence:
#
# PCOD9029245 Si02
#       7
#     2   2   2   2   2   2   2
#     4  11  25  45  67  97 134 178 220 272 334 390
#     4  11  24  44  67  96 134 173 223 272 329 399
#     4  11  24  44  67  96 135 175 220 273 330 389
#     4  10  23  41  68  95 128 171 220 269 328 392
#     4  12  25  41  64  99 134 171 216 269 335 393
#     4  11  26  41  67 102 134 173 225 273 333 394
#     4  10  22  42  66  98 125 169 224 271 323 389
#
# _framework density 24.305277
#
# number of rings (size 3 to 8) (size 9 to 14) (size 15 to 20)
#    0.000    1.143    2.857    2.143    8.000    2.286 
#    0.000    3.571    0.000    0.000    0.000    0.000 
#    0.000    0.000    0.000    0.000    0.000    0.000 
#
# Total GULP energy -78271.050073 kJ/mol
# GULP energy per Si atom -5590.789291 kJ/mol
# Density = 2.424996 g / cm^3
# Si number density = 24.305277 Si / 1000 Ang^3
#
#
#
# Elastic Constant Matrix: (Units=GPa)
#
#
# Indices 1 2 3 4 5 6 
#
# 1 70.4899 16.7067 18.1866 -9.2867 10.4723 8.8318
# 2 16.7067 138.2015 45.1205 -27.8496 11.3124 -2.9431
# 3 18.1866 45.1205 94.0062 -33.3856 28.9504 -24.2323
# 4 -9.2867 -27.8496 -33.3856 43.4301 -11.0210 14.7197
# 5 10.4723 11.3124 28.9504 -11.0210 35.7143 -13.8387
# 6 8.8318 -2.9431 -24.2323 14.7197 -13.8387 50.4354
#
#
#
# Elastic Compliance Matrix: (Units=1/GPa)
#
#
# Indices 1 2 3 4 5 6 
#
# 1 0.016616 -0.000557 -0.002289 0.002325 -0.004422 -0.005934
# 2 -0.000557 0.009172 -0.003663 0.003801 0.000597 -0.002072
# 3 -0.002289 -0.003663 0.020170 0.008541 -0.010095 0.004616
# 4 0.002325 0.003801 0.008541 0.034514 -0.000608 -0.006321
# 5 -0.004422 0.000597 -0.010095 -0.000608 0.039842 0.007068
# 6 -0.005934 -0.002072 0.004616 -0.006321 0.007068 0.026747
#
#
# Mechanical properties :
#
#
# Convention : Reuss Voigt Hill
#
# Bulk Modulus (GPa) = 30.35854 51.41390 40.88622
# Shear Modulus (GPa) = 29.22965 40.76156 34.99560
#
# Velocity S-wave (km/s) = 3.47162 4.09964 3.79863
# Velocity P-wave (km/s) = 5.34670 6.60369 6.00816
#
# Compressibility (1/GPa) = 0.03293966
#
# Stress axis : x y z
#
# Youngs Moduli (GPa) = 60.18379 109.02892 49.57751
#
# Poissons Ratio (x) = 0.06074 0.11350
# Poissons Ratio (y) = 0.03353 0.18159
# Poissons Ratio (z) = 0.13778 0.39935
#
# Static dielectric constant tensor:
#      x y z
#    x 1.969780 -0.011910 0.070070 
#    y -0.011910 1.939500 -0.022220 
#    z 0.070070 -0.022220 1.977910 
# 
# From -- ./inp_files/184887.got.cif
#   From: 2010.05.17/outbox.cif.g08.bks.cpg/sg2_93_cif.got.tgz:184887.got - 2010.06.03 11:33:40.
