data_PCOD9029833
_publ_section_title
;
Structure prediction by ZEFSAII (Michael W. Deem and Ramdas Pophale) SiO2 
 PCOD9029833
Probable space group: P -1
;
_chemical_formula_sum "Si O2"
_cell_formula_units_Z 15
_cell_length_a 14.589414
_cell_length_b 8.536001
_cell_length_c 16.132329
_cell_angle_alpha 52.360690
_cell_angle_beta 155.362761
_cell_angle_gamma 127.772847
_cell_volume 653.086095
_symmetry_space_group_name_H-M "P -1"
_symmetry_group_IT_number 2
_symmetry_cell_setting 'triclinic'
loop_
_space_group_symop_operation_xyz
x,y,z
-x,-y,-z
loop_
_atom_site_type_symbol
_atom_site_label
_atom_site_fract_x
_atom_site_fract_y
_atom_site_fract_z
Si Si1 0.803778 0.399972 0.491737
Si Si2 0.455978 0.741995 0.282358
Si Si3 0.066488 0.717794 0.190692
Si Si4 0.641560 0.929678 0.776156
Si Si5 0.286730 0.371881 0.818337
Si Si6 0.930185 0.678023 0.749048
Si Si7 0.000000 0.500000 0.000000
Si Si8 0.353575 0.937011 0.978047
O O1 0.862511 0.417857 0.632620
O O2 0.598009 0.212233 0.385427
O O3 0.721623 0.554732 0.308607
O O4 0.045323 0.380731 0.657496
O O5 0.689771 0.703116 0.520015
O O6 0.276286 0.542058 0.207614
O O7 0.394944 0.925062 0.226027
O O8 0.474732 0.808168 0.181431
O O9 0.038979 0.559521 0.140962
O O10 0.253057 0.910281 0.260295
O O11 0.834248 0.793649 0.991222
O O12 0.312392 0.141960 0.918410
O O13 0.500000 0.500000 0.000000
O O14 0.117329 0.800956 0.806257
O O15 0.999509 0.730119 0.883265
O O16 0.500000 0.000000 0.000000
#
# Coordination Sequence:
#
# PCOD9029833 Si02
#       8
#     2   2   2   2   2   2   1   2
#     4  11  24  42  73  99 130 183 227 275 339 409
#     4  11  23  45  70  96 136 181 223 275 335 417
#     4  11  25  43  68 106 137 175 218 292 337 404
#     4  11  24  45  68 101 141 174 226 280 342 404
#     4  11  25  47  71  97 138 181 231 280 339 401
#     4  11  25  45  70 100 138 178 226 276 345 405
#     4  10  22  42  68  96 132 176 218 268 344 400
#     4  11  27  43  68 103 136 178 227 287 336 399
#
# _framework density 22.967873999999998
#
# number of rings (size 3 to 8) (size 9 to 14) (size 15 to 20)
#    0.000    1.067    1.333    4.000    5.600    3.733 
#    0.000    0.000    0.000    0.000    0.000    0.000 
#    0.000    0.000    0.000    0.000    0.000    0.000 
#
# Total GULP energy -83583.771204 kJ/mol
# GULP energy per Si atom -5572.251414 kJ/mol
# Density = 2.291560 g / cm^3
# Si number density = 22.967874 Si / 1000 Ang^3
#
#
#
# Elastic Constant Matrix: (Units=GPa)
#
#
# Indices 1 2 3 4 5 6 
#
# 1 96.2221 21.3363 51.4764 -0.0801 1.8406 33.1543
# 2 21.3363 107.4132 57.6363 18.2084 10.3250 17.1495
# 3 51.4764 57.6363 172.1787 22.2352 3.0882 14.1857
# 4 -0.0801 18.2084 22.2352 42.5020 8.4826 8.6460
# 5 1.8406 10.3250 3.0882 8.4826 33.1961 0.4790
# 6 33.1543 17.1495 14.1857 8.6460 0.4790 40.8422
#
#
#
# Elastic Compliance Matrix: (Units=1/GPa)
#
#
# Indices 1 2 3 4 5 6 
#
# 1 0.017933 0.000682 -0.005118 0.005715 -0.001985 -0.014252
# 2 0.000682 0.012440 -0.003729 -0.001958 -0.003001 -0.004032
# 3 -0.005118 -0.003729 0.008791 -0.004045 0.001609 0.003504
# 4 0.005715 -0.001958 -0.004045 0.029594 -0.006770 -0.008597
# 5 -0.001985 -0.003001 0.001609 -0.006770 0.032699 0.003362
# 6 -0.014252 -0.004032 0.003504 -0.008597 0.003362 0.038310
#
#
# Mechanical properties :
#
#
# Convention : Reuss Voigt Hill
#
# Bulk Modulus (GPa) = 43.79600 70.74577 57.27089
# Shear Modulus (GPa) = 30.54209 39.66573 35.10391
#
# Velocity S-wave (km/s) = 3.65056 4.16024 3.91371
# Velocity P-wave (km/s) = 6.07277 7.34477 6.73885
#
# Compressibility (1/GPa) = 0.02283313
#
# Stress axis : x y z
#
# Youngs Moduli (GPa) = 55.76356 80.38904 113.75207
#
# Poissons Ratio (x) = -0.05479 0.58215
# Poissons Ratio (y) = -0.03800 0.42418
# Poissons Ratio (z) = 0.28538 0.29977
#
# Static dielectric constant tensor:
#      x y z
#    x 1.263570 -0.044490 0.256600 
#    y -0.044490 1.730470 0.010470 
#    z 0.256600 0.010470 1.771700 
# 
# From -- ./inp_files/27932.got.cif
#   From: 2010.05.17/outbox.cif.g08.bks.cpg/sg2_14_cif.got.tgz:27932.got - 2010.06.03 11:33:40.
