data_PCOD9029404
_publ_section_title
;
Structure prediction by ZEFSAII (Michael W. Deem and Ramdas Pophale) SiO2 
 PCOD9029404
Probable space group: P -1
;
_chemical_formula_sum "Si O2"
_cell_formula_units_Z 16
_cell_length_a 17.788143
_cell_length_b 8.050380
_cell_length_c 5.314824
_cell_angle_alpha 86.390132
_cell_angle_beta 106.053231
_cell_angle_gamma 74.782198
_cell_volume 698.183549
_symmetry_space_group_name_H-M "P -1"
_symmetry_group_IT_number 2
_symmetry_cell_setting 'triclinic'
loop_
_space_group_symop_operation_xyz
x,y,z
-x,-y,-z
loop_
_atom_site_type_symbol
_atom_site_label
_atom_site_fract_x
_atom_site_fract_y
_atom_site_fract_z
Si Si1 0.198002 0.918213 0.470974
Si Si2 0.272445 0.078682 0.921831
Si Si3 0.888005 0.266756 0.213308
Si Si4 0.547944 0.022104 0.794936
Si Si5 0.275879 0.699259 0.180284
Si Si6 0.548119 0.418279 0.799886
Si Si7 0.942835 0.788286 0.851106
Si Si8 0.893326 0.635354 0.301948
O O1 0.136712 0.871717 0.620132
O O2 0.261796 0.736071 0.460589
O O3 0.131326 0.034248 0.205724
O O4 0.255587 0.028139 0.623870
O O5 0.359096 0.100317 0.078444
O O6 0.269887 0.898142 0.070131
O O7 0.197818 0.250194 0.874467
O O8 0.900636 0.433396 0.350396
O O9 0.969405 0.188285 0.134439
O O10 0.805749 0.343491 0.970201
O O11 0.553821 0.216608 0.804625
O O12 0.500000 0.000000 0.500000
O O13 0.500000 0.000000 0.000000
O O14 0.358691 0.576862 0.154651
O O15 0.500000 0.500000 0.500000
O O16 0.500000 0.500000 0.000000
O O17 0.916358 0.705054 0.581435
O O18 0.946268 0.673094 0.113645
#
# Coordination Sequence:
#
# PCOD9029404 Si02
#       8
#     2   2   2   2   2   2   2   2
#     4  10  22  42  67  93 128 180 222 267 319 397
#     4   9  22  43  65  89 130 175 219 261 330 397
#     4  11  25  38  64 100 131 169 221 281 316 386
#     4  11  25  42  71 101 132 171 224 274 334 405
#     4  10  23  42  69  91 131 175 220 264 333 393
#     4  11  26  46  71  98 137 174 218 278 343 399
#     4  11  24  43  64  93 134 178 219 263 332 388
#     4  11  24  42  64  93 131 177 216 269 331 381
#
# _framework density 22.916608
#
# number of rings (size 3 to 8) (size 9 to 14) (size 15 to 20)
#    0.000    1.500    1.250    1.875   12.250    2.500 
#    0.000    0.000    0.000    0.000    0.000    0.000 
#    0.000    0.000    0.000    0.000    0.000    0.000 
#
# Total GULP energy -89293.306708 kJ/mol
# GULP energy per Si atom -5580.831669 kJ/mol
# Density = 2.286445 g / cm^3
# Si number density = 22.916608 Si / 1000 Ang^3
#
#
#
# Elastic Constant Matrix: (Units=GPa)
#
#
# Indices 1 2 3 4 5 6 
#
# 1 163.1773 25.2867 68.8582 10.7209 24.2904 -37.6995
# 2 25.2867 52.1686 20.0914 4.7511 7.2195 -17.9317
# 3 68.8582 20.0914 112.5754 10.1042 11.1006 -12.0789
# 4 10.7209 4.7511 10.1042 33.7581 -4.6617 -1.7320
# 5 24.2904 7.2195 11.1006 -4.6617 36.6779 -4.5994
# 6 -37.6995 -17.9317 -12.0789 -1.7320 -4.5994 41.9833
#
#
#
# Elastic Compliance Matrix: (Units=1/GPa)
#
#
# Indices 1 2 3 4 5 6 
#
# 1 0.011014 0.000288 -0.005242 -0.002266 -0.005067 0.007857
# 2 0.000288 0.023998 -0.002925 -0.002563 -0.003200 0.009211
# 3 -0.005242 -0.002925 0.012542 -0.001844 -0.000291 -0.002456
# 4 -0.002266 -0.002563 -0.001844 0.032059 0.006433 -0.001632
# 5 -0.005067 -0.003200 -0.000291 0.006433 0.031874 -0.002243
# 6 0.007857 0.009211 -0.002456 -0.001632 -0.002243 0.033788
#
#
# Mechanical properties :
#
#
# Convention : Reuss Voigt Hill
#
# Bulk Modulus (GPa) = 31.45133 61.82153 46.63643
# Shear Modulus (GPa) = 29.13193 36.72954 32.93073
#
# Velocity S-wave (km/s) = 3.56928 4.00778 3.79487
# Velocity P-wave (km/s) = 5.54440 6.96072 6.29254
#
# Compressibility (1/GPa) = 0.03179516
#
# Stress axis : x y z
#
# Youngs Moduli (GPa) = 90.79266 41.67064 79.73096
#
# Poissons Ratio (x) = -0.01202 0.41798
# Poissons Ratio (y) = -0.02619 0.23325
# Poissons Ratio (z) = 0.47597 0.12191
#
# Static dielectric constant tensor:
#      x y z
#    x 1.887850 -0.058940 -0.064940 
#    y -0.058940 1.862100 0.082350 
#    z -0.064940 0.082350 2.043310 
# 
# From -- ./inp_files/90545.got.cif
#   From: 2010.05.17/outbox.cif.g08.bks.cpg/sg2_46_cif.got.tgz:90545.got - 2010.06.03 11:33:40.
