data_PCOD9029272
_publ_section_title
;
Structure prediction by ZEFSAII (Michael W. Deem and Ramdas Pophale) SiO2 
 PCOD9029272
Probable space group: P -1
;
_chemical_formula_sum "Si O2"
_cell_formula_units_Z 16
_cell_length_a 14.435190
_cell_length_b 9.002805
_cell_length_c 9.467761
_cell_angle_alpha 67.902612
_cell_angle_beta 127.553184
_cell_angle_gamma 78.842310
_cell_volume 739.079453
_symmetry_space_group_name_H-M "P -1"
_symmetry_group_IT_number 2
_symmetry_cell_setting 'triclinic'
loop_
_space_group_symop_operation_xyz
x,y,z
-x,-y,-z
loop_
_atom_site_type_symbol
_atom_site_label
_atom_site_fract_x
_atom_site_fract_y
_atom_site_fract_z
Si Si1 0.765280 0.070423 0.568306
Si Si2 0.118296 0.359248 0.548331
Si Si3 0.693123 0.428129 0.779408
Si Si4 0.403001 0.817032 0.352426
Si Si5 0.985545 0.349540 0.137221
Si Si6 0.702865 0.481601 0.446377
Si Si7 0.593818 0.929571 0.966236
Si Si8 0.478134 0.700695 0.949388
O O1 0.688759 0.058373 0.641303
O O2 0.761116 0.263890 0.526890
O O3 0.673379 0.125962 0.317745
O O4 0.916036 0.866154 0.763645
O O5 0.199350 0.456474 0.543724
O O6 0.245149 0.155736 0.809056
O O7 0.000000 0.500000 0.500000
O O8 0.049793 0.338005 0.353805
O O9 0.538947 0.615017 0.616450
O O10 0.680754 0.247971 0.799460
O O11 0.710214 0.483587 0.618366
O O12 0.827888 0.397735 0.993642
O O13 0.449979 0.923126 0.256045
O O14 0.000000 0.500000 0.000000
O O15 0.539119 0.640444 0.187041
O O16 0.582054 0.755046 0.963437
O O17 0.500000 0.000000 0.000000
O O18 0.500000 0.500000 0.000000
#
# Coordination Sequence:
#
# PCOD9029272 Si02
#       8
#     2   2   2   2   2   2   2   2
#     4  10  23  40  67 100 129 176 226 276 334 399
#     4  11  25  43  64  96 132 174 218 274 342 398
#     4  10  22  42  66  98 139 176 220 285 334 391
#     4  10  23  41  68 100 130 176 234 278 331 393
#     4  12  26  43  67  97 139 175 220 277 340 399
#     4   9  19  42  67  91 133 179 218 273 339 395
#     4  11  23  40  67  90 127 174 223 271 328 398
#     4   9  19  37  62  92 124 162 214 269 325 383
#
# _framework density 21.648554000000001
#
# number of rings (size 3 to 8) (size 9 to 14) (size 15 to 20)
#    0.000    1.750    1.250    2.250    3.500    6.500 
#    0.000    5.000    0.000    0.000    0.000    0.000 
#    0.000    0.000    0.000    0.000    0.000    0.000 
#
# Total GULP energy -89213.332674 kJ/mol
# GULP energy per Si atom -5575.833292 kJ/mol
# Density = 2.159928 g / cm^3
# Si number density = 21.648554 Si / 1000 Ang^3
#
#
#
# Elastic Constant Matrix: (Units=GPa)
#
#
# Indices 1 2 3 4 5 6 
#
# 1 77.4320 25.5671 11.6040 -4.3204 -2.2686 1.5961
# 2 25.5671 72.1770 33.2724 -3.0579 1.1804 0.9230
# 3 11.6040 33.2724 88.9094 0.5024 13.6956 10.1518
# 4 -4.3204 -3.0579 0.5024 31.7246 10.2905 -1.1694
# 5 -2.2686 1.1804 13.6956 10.2905 38.9810 -4.6034
# 6 1.5961 0.9230 10.1518 -1.1694 -4.6034 40.4267
#
#
#
# Elastic Compliance Matrix: (Units=1/GPa)
#
#
# Indices 1 2 3 4 5 6 
#
# 1 0.014718 -0.005133 -0.000070 0.001285 0.000658 -0.000334
# 2 -0.005133 0.018791 -0.006790 0.000793 0.001506 0.001673
# 3 -0.000070 -0.006790 0.015187 0.000839 -0.005863 -0.004299
# 4 0.001285 0.000793 0.000839 0.034821 -0.009478 -0.000351
# 5 0.000658 0.001506 -0.005863 -0.009478 0.030756 0.004640
# 6 -0.000334 0.001673 -0.004299 -0.000351 0.004640 0.026309
#
#
# Mechanical properties :
#
#
# Convention : Reuss Voigt Hill
#
# Bulk Modulus (GPa) = 40.47085 42.15617 41.31351
# Shear Modulus (GPa) = 28.93461 33.43145 31.18303
#
# Velocity S-wave (km/s) = 3.65987 3.93400 3.79941
# Velocity P-wave (km/s) = 6.04934 6.33643 6.19455
#
# Compressibility (1/GPa) = 0.02470915
#
# Stress axis : x y z
#
# Youngs Moduli (GPa) = 67.94471 53.21832 65.84671
#
# Poissons Ratio (x) = 0.27317 0.00464
# Poissons Ratio (y) = 0.34876 0.44707
# Poissons Ratio (z) = 0.00479 0.36133
#
# Static dielectric constant tensor:
#      x y z
#    x 1.750150 0.043720 -0.038580 
#    y 0.043720 1.795240 0.066920 
#    z -0.038580 0.066920 1.740320 
# 
# From -- ./inp_files/208269.got.cif
#   From: 2010.05.17/outbox.cif.g08.bks.cpg/sg2_105_cif.got.tgz:208269.got - 2010.06.03 11:33:40.
