data_PCOD9029856
_publ_section_title
;
Structure prediction by ZEFSAII (Michael W. Deem and Ramdas Pophale) SiO2 
 PCOD9029856
Probable space group: P -1
;
_chemical_formula_sum "Si O2"
_cell_formula_units_Z 16
_cell_length_a 11.088122
_cell_length_b 9.501254
_cell_length_c 18.061758
_cell_angle_alpha 128.016348
_cell_angle_beta 135.521448
_cell_angle_gamma 86.771460
_cell_volume 756.141718
_symmetry_space_group_name_H-M "P -1"
_symmetry_group_IT_number 2
_symmetry_cell_setting 'triclinic'
loop_
_space_group_symop_operation_xyz
x,y,z
-x,-y,-z
loop_
_atom_site_type_symbol
_atom_site_label
_atom_site_fract_x
_atom_site_fract_y
_atom_site_fract_z
Si Si1 0.378280 0.770359 0.818551
Si Si2 0.710163 0.604032 0.521139
Si Si3 0.524620 0.508759 0.767186
Si Si4 0.858984 0.315340 0.467496
Si Si5 0.775375 0.948155 0.418315
Si Si6 0.302128 0.817045 0.418371
Si Si7 0.974887 0.602031 0.948774
Si Si8 0.351747 0.160543 0.319368
O O1 0.564166 0.747231 0.873948
O O2 0.263245 0.775283 0.696138
O O3 0.144242 0.493177 0.655062
O O4 0.500000 0.000000 0.000000
O O5 0.675609 0.640669 0.434032
O O6 0.840455 0.508118 0.547955
O O7 0.454403 0.363426 0.366872
O O8 0.797147 0.825543 0.683438
O O9 0.749170 0.566613 0.852580
O O10 0.432271 0.340538 0.745120
O O11 0.729062 0.071395 0.378938
O O12 0.788908 0.076391 0.541643
O O13 0.000000 0.000000 0.500000
O O14 0.084348 0.564022 0.200318
O O15 0.435854 0.777209 0.519705
O O16 0.500000 0.000000 0.500000
O O17 0.000000 0.500000 0.000000
O O18 0.201038 0.891568 0.133085
#
# Coordination Sequence:
#
# PCOD9029856 Si02
#       8
#     2   2   2   2   2   2   2   2
#     4  10  23  45  67  97 134 177 225 279 337 405
#     4  10  22  42  68  97 130 178 219 285 340 401
#     4  11  23  43  68  96 135 174 232 275 337 403
#     4  10  22  43  69  94 131 180 221 278 339 400
#     4  12  23  44  72  99 136 182 229 279 339 407
#     4  12  22  45  69  97 137 178 224 282 341 402
#     4  12  25  41  67 103 133 178 226 283 342 403
#     4  11  22  41  67  98 133 171 228 279 341 403
#
# _framework density 21.160055
#
# number of rings (size 3 to 8) (size 9 to 14) (size 15 to 20)
#    0.000    1.000    6.250    0.000    1.750    0.500 
#    6.750    0.625    0.000    0.000    0.000    0.000 
#    0.000    0.000    0.000    0.000    0.000    0.000 
#
# Total GULP energy -89281.332361 kJ/mol
# GULP energy per Si atom -5580.083273 kJ/mol
# Density = 2.111189 g / cm^3
# Si number density = 21.160055 Si / 1000 Ang^3
#
#
#
# Elastic Constant Matrix: (Units=GPa)
#
#
# Indices 1 2 3 4 5 6 
#
# 1 100.1110 16.1208 19.4128 -2.1645 -22.9179 -21.1285
# 2 16.1208 107.0228 26.3326 1.1570 -7.7834 2.3462
# 3 19.4128 26.3326 94.6565 13.6949 -29.8871 -4.2517
# 4 -2.1645 1.1570 13.6949 20.6830 -10.6336 4.8401
# 5 -22.9179 -7.7834 -29.8871 -10.6336 30.7385 7.3117
# 6 -21.1285 2.3462 -4.2517 4.8401 7.3117 46.2160
#
#
#
# Elastic Compliance Matrix: (Units=1/GPa)
#
#
# Indices 1 2 3 4 5 6 
#
# 1 0.013748 -0.001514 0.000546 0.006215 0.011614 0.003924
# 2 -0.001514 0.010285 -0.003008 0.001284 -0.000642 -0.001524
# 3 0.000546 -0.003008 0.016292 -0.003141 0.014411 -0.000050
# 4 0.006215 0.001284 -0.003141 0.067064 0.027208 -0.008841
# 5 0.011614 -0.000642 0.014411 0.027208 0.066030 -0.006628
# 6 0.003924 -0.001524 -0.000050 -0.008841 -0.006628 0.025479
#
#
# Mechanical properties :
#
#
# Convention : Reuss Voigt Hill
#
# Bulk Modulus (GPa) = 30.88962 47.28031 39.08497
# Shear Modulus (GPa) = 22.97377 35.52243 29.24810
#
# Velocity S-wave (km/s) = 3.29859 4.10170 3.72187
# Velocity P-wave (km/s) = 5.39791 6.69511 6.08120
#
# Compressibility (1/GPa) = 0.03237333
#
# Stress axis : x y z
#
# Youngs Moduli (GPa) = 72.73697 97.23224 61.38107
#
# Poissons Ratio (x) = 0.14718 -0.03350
# Poissons Ratio (y) = 0.11010 0.18461
# Poissons Ratio (z) = -0.03969 0.29244
#
# Static dielectric constant tensor:
#      x y z
#    x 1.887100 -0.015360 0.013990 
#    y -0.015360 1.781890 0.008630 
#    z 0.013990 0.008630 1.749350 
# 
# From -- ./inp_files/452349.got.cif
#   From: 2010.05.17/outbox.cif.g08.bks.cpg/sg2_227_cif.got.tgz:452349.got - 2010.06.03 11:33:40.
