data_PCOD9029552
_publ_section_title
;
Structure prediction by ZEFSAII (Michael W. Deem and Ramdas Pophale) SiO2 
 PCOD9029552
Probable space group: P -1
;
_chemical_formula_sum "Si O2"
_cell_formula_units_Z 16
_cell_length_a 17.251212
_cell_length_b 5.094475
_cell_length_c 8.911739
_cell_angle_alpha 120.077537
_cell_angle_beta 118.836112
_cell_angle_gamma 68.607539
_cell_volume 585.842256
_symmetry_space_group_name_H-M "P -1"
_symmetry_group_IT_number 2
_symmetry_cell_setting 'triclinic'
loop_
_space_group_symop_operation_xyz
x,y,z
-x,-y,-z
loop_
_atom_site_type_symbol
_atom_site_label
_atom_site_fract_x
_atom_site_fract_y
_atom_site_fract_z
Si Si1 0.743846 0.640107 0.106199
Si Si2 0.532937 0.818387 0.626307
Si Si3 0.892449 0.721808 0.622883
Si Si4 0.578430 0.665721 0.177223
Si Si5 0.730277 0.326341 0.389868
Si Si6 0.271836 0.481397 0.249992
Si Si7 0.085141 0.223930 0.006837
Si Si8 0.074575 0.249269 0.665599
O O1 0.663867 0.629166 0.140309
O O2 0.849136 0.531591 0.197544
O O3 0.743078 0.016225 0.213106
O O4 0.720758 0.428880 0.888382
O O5 0.500000 0.500000 0.500000
O O6 0.639785 0.773544 0.725042
O O7 0.500000 0.000000 0.500000
O O8 0.475188 0.997064 0.755961
O O9 0.803239 0.556214 0.496403
O O10 0.909240 0.897177 0.846212
O O11 0.901413 0.895346 0.520997
O O12 0.976199 0.443116 0.618499
O O13 0.630366 0.510829 0.325953
O O14 0.500000 0.500000 0.000000
O O15 0.732958 0.264214 0.553862
O O16 0.180294 0.344715 0.128230
O O17 0.080460 0.091792 0.792356
O O18 0.000000 0.500000 0.000000
#
# Coordination Sequence:
#
# PCOD9029552 Si02
#       8
#     2   2   2   2   2   2   2   2
#     4  11  24  42  67 100 138 183 244 297 369 443
#     4  12  27  48  74 106 145 193 253 311 377 454
#     4   9  17  33  63  93 135 179 234 287 367 433
#     4  12  27  45  71 100 145 186 244 309 376 436
#     4  11  22  43  66 100 134 183 234 299 358 446
#     4  10  22  42  67  97 136 185 235 297 366 438
#     4   8  16  32  59  95 135 178 230 293 360 434
#     4   9  17  34  61  96 131 184 230 293 358 447
#
# _framework density 27.311102999999999
#
# number of rings (size 3 to 8) (size 9 to 14) (size 15 to 20)
#    0.000    1.750    2.500    1.500    1.750    1.500 
#    0.000    0.000    0.000    0.000    0.000   16.625 
#    0.000    0.000    0.000    0.000    0.000    0.000 
#
# Total GULP energy -89301.859762 kJ/mol
# GULP energy per Si atom -5581.366235 kJ/mol
# Density = 2.724894 g / cm^3
# Si number density = 27.311103 Si / 1000 Ang^3
#
#
#
# Elastic Constant Matrix: (Units=GPa)
#
#
# Indices 1 2 3 4 5 6 
#
# 1 162.1070 57.6189 79.3266 -10.6805 18.7798 -20.6784
# 2 57.6189 100.0133 47.0121 9.8973 8.3582 -10.3485
# 3 79.3266 47.0121 163.1958 -12.2751 -14.0184 5.1414
# 4 -10.6805 9.8973 -12.2751 27.3242 -4.3317 7.1525
# 5 18.7798 8.3582 -14.0184 -4.3317 83.2775 -15.0852
# 6 -20.6784 -10.3485 5.1414 7.1525 -15.0852 46.6311
#
#
#
# Elastic Compliance Matrix: (Units=1/GPa)
#
#
# Indices 1 2 3 4 5 6 
#
# 1 0.010240 -0.003801 -0.003958 0.002479 -0.001896 0.003140
# 2 -0.003801 0.015172 -0.003440 -0.009536 -0.001171 0.003145
# 3 -0.003958 -0.003440 0.009781 0.005439 0.002512 -0.003619
# 4 0.002479 -0.009536 0.005439 0.045897 0.002266 -0.007924
# 5 -0.001896 -0.001171 0.002512 0.002266 0.013577 0.002667
# 6 0.003140 0.003145 -0.003619 -0.007924 0.002667 0.026012
#
#
# Mechanical properties :
#
#
# Convention : Reuss Voigt Hill
#
# Bulk Modulus (GPa) = 78.15009 88.13681 83.14345
# Shear Modulus (GPa) = 33.93433 47.53713 40.73573
#
# Velocity S-wave (km/s) = 3.52875 4.17655 3.86624
# Velocity P-wave (km/s) = 6.72902 7.45651 7.10209
#
# Compressibility (1/GPa) = 0.01279589
#
# Stress axis : x y z
#
# Youngs Moduli (GPa) = 97.65501 65.90934 102.23531
#
# Poissons Ratio (x) = 0.25051 0.40465
# Poissons Ratio (y) = 0.37117 0.35170
# Poissons Ratio (z) = 0.38652 0.22673
#
# Static dielectric constant tensor:
#      x y z
#    x 2.143880 0.055000 -0.137010 
#    y 0.055000 2.104190 -0.095860 
#    z -0.137010 -0.095860 2.273240 
# 
# From -- ./inp_files/324160.got.cif
#   From: 2010.05.17/outbox.cif.g08.bks.cpg/sg2_163_cif.got.tgz:324160.got - 2010.06.03 11:33:40.
