data_PCOD9029761
_publ_section_title
;
Structure prediction by ZEFSAII (Michael W. Deem and Ramdas Pophale) SiO2 
 PCOD9029761
Probable space group: P -1
;
_chemical_formula_sum "Si O2"
_cell_formula_units_Z 14
_cell_length_a 8.571247
_cell_length_b 20.153841
_cell_length_c 11.699789
_cell_angle_alpha 149.730431
_cell_angle_beta 37.156236
_cell_angle_gamma 142.108285
_cell_volume 580.586216
_symmetry_space_group_name_H-M "P -1"
_symmetry_group_IT_number 2
_symmetry_cell_setting 'triclinic'
loop_
_space_group_symop_operation_xyz
x,y,z
-x,-y,-z
loop_
_atom_site_type_symbol
_atom_site_label
_atom_site_fract_x
_atom_site_fract_y
_atom_site_fract_z
Si Si1 0.670012 0.477050 0.759100
Si Si2 0.092125 0.660124 0.148706
Si Si3 0.814010 0.956463 0.378012
Si Si4 0.366860 0.110547 0.869521
Si Si5 0.730011 0.490289 0.498281
Si Si6 0.244732 0.214791 0.623149
Si Si7 0.794093 0.724024 0.621063
O O1 0.629235 0.532707 0.741048
O O2 0.558952 0.307707 0.557070
O O3 0.989704 0.537949 0.685371
O O4 0.500000 0.500000 0.000000
O O5 0.404588 0.735043 0.047381
O O6 0.919378 0.685886 0.180941
O O7 0.026296 0.740900 0.416416
O O8 0.000000 0.500000 0.000000
O O9 0.791864 0.922441 0.206613
O O10 0.785077 0.829856 0.293651
O O11 0.557088 0.013882 0.635535
O O12 0.096588 0.074935 0.428717
O O13 0.199046 0.135181 0.112096
O O14 0.807542 0.611351 0.539472
O O15 0.491000 0.354687 0.393131
#
# Coordination Sequence:
#
# PCOD9029761 Si02
#       7
#     2   2   2   2   2   2   2
#     4  11  25  40  67  97 134 177 211 274 344 405
#     4  11  23  40  70 101 133 176 215 272 351 402
#     4   9  22  45  67  96 124 184 235 271 324 383
#     4  10  23  43  70  94 134 173 227 282 323 394
#     4  10  24  41  59 102 141 161 217 264 348 410
#     4  10  22  42  68  93 133 176 228 273 330 395
#     4  11  23  40  66  98 136 172 213 274 327 408
#
# _framework density 24.113558999999999
#
# number of rings (size 3 to 8) (size 9 to 14) (size 15 to 20)
#    0.000    1.714    1.429    1.714   10.000    0.000 
#    0.000    7.857    0.000    0.000    0.000    0.000 
#    0.000    0.000    0.000    0.000    0.000    0.000 
#
# Total GULP energy -78309.277702 kJ/mol
# GULP energy per Si atom -5593.519836 kJ/mol
# Density = 2.405868 g / cm^3
# Si number density = 24.113559 Si / 1000 Ang^3
#
#
#
# Elastic Constant Matrix: (Units=GPa)
#
#
# Indices 1 2 3 4 5 6 
#
# 1 133.4096 22.0554 37.5398 2.7001 19.6335 -20.8703
# 2 22.0554 63.8877 -6.2308 11.9056 -4.8331 -20.9540
# 3 37.5398 -6.2308 97.9672 -18.4011 21.5976 -20.5384
# 4 2.7001 11.9056 -18.4011 37.4314 -15.8354 4.2080
# 5 19.6335 -4.8331 21.5976 -15.8354 32.6356 0.3209
# 6 -20.8703 -20.9540 -20.5384 4.2080 0.3209 44.7950
#
#
#
# Elastic Compliance Matrix: (Units=1/GPa)
#
#
# Indices 1 2 3 4 5 6 
#
# 1 0.010265 -0.002602 -0.002859 -0.004545 -0.006901 0.002731
# 2 -0.002602 0.021780 0.003734 -0.006596 -0.000992 0.011315
# 3 -0.002859 0.003734 0.014947 0.002923 -0.006270 0.007039
# 4 -0.004545 -0.006596 0.002923 0.039513 0.019072 -0.007711
# 5 -0.006901 -0.000992 -0.006270 0.019072 0.048135 -0.008691
# 6 0.002731 0.011315 0.007039 -0.007711 -0.008691 0.032903
#
#
# Mechanical properties :
#
#
# Convention : Reuss Voigt Hill
#
# Bulk Modulus (GPa) = 22.96756 44.66592 33.81674
# Shear Modulus (GPa) = 26.95285 39.09906 33.02596
#
# Velocity S-wave (km/s) = 3.34690 4.03110 3.70483
# Velocity P-wave (km/s) = 4.94783 6.34269 5.68818
#
# Compressibility (1/GPa) = 0.04353967
#
# Stress axis : x y z
#
# Youngs Moduli (GPa) = 97.41762 45.91377 66.90191
#
# Poissons Ratio (x) = 0.11946 0.19125
# Poissons Ratio (y) = 0.25347 -0.24982
# Poissons Ratio (z) = 0.27848 -0.17145
#
# Static dielectric constant tensor:
#      x y z
#    x 1.909370 0.008380 0.016740 
#    y 0.008380 1.928590 0.037440 
#    z 0.016740 0.037440 1.976950 
# 
# From -- ./inp_files/405005.got.cif
#   From: 2010.05.17/outbox.cif.g08.bks.cpg/sg2_203_cif.got.tgz:405005.got - 2010.06.03 11:33:40.
