data_PCOD9029605
_publ_section_title
;
Structure prediction by ZEFSAII (Michael W. Deem and Ramdas Pophale) SiO2 
 PCOD9029605
Probable space group: P -1
;
_chemical_formula_sum "Si O2"
_cell_formula_units_Z 14
_cell_length_a 9.520290
_cell_length_b 14.353900
_cell_length_c 10.811003
_cell_angle_alpha 150.429282
_cell_angle_beta 116.788021
_cell_angle_gamma 73.587454
_cell_volume 630.427765
_symmetry_space_group_name_H-M "P -1"
_symmetry_group_IT_number 2
_symmetry_cell_setting 'triclinic'
loop_
_space_group_symop_operation_xyz
x,y,z
-x,-y,-z
loop_
_atom_site_type_symbol
_atom_site_label
_atom_site_fract_x
_atom_site_fract_y
_atom_site_fract_z
Si Si1 0.657019 0.059697 0.007498
Si Si2 0.186235 0.423976 0.982871
Si Si3 0.125382 0.780646 0.481789
Si Si4 0.731147 0.103483 0.810241
Si Si5 0.591286 0.716083 0.747114
Si Si6 0.470595 0.308254 0.851186
Si Si7 0.930750 0.815942 0.105195
O O1 0.777723 0.160256 0.283419
O O2 0.499119 0.148542 0.050789
O O3 0.746200 0.102489 0.962622
O O4 0.595745 0.829082 0.748522
O O5 0.347679 0.350581 0.954507
O O6 0.086462 0.321680 0.943427
O O7 0.062791 0.346342 0.731043
O O8 0.214995 0.651870 0.284659
O O9 0.108954 0.978933 0.640690
O O10 0.632139 0.260650 0.912688
O O11 0.900223 0.144854 0.852793
O O12 0.624194 0.888717 0.482978
O O13 0.500000 0.500000 0.500000
O O14 0.778349 0.722056 0.850407
O O15 0.500000 0.500000 0.000000
#
# Coordination Sequence:
#
# PCOD9029605 Si02
#       7
#     2   2   2   2   2   2   2
#     4  10  23  44  66  99 142 178 225 279 345 409
#     4  11  23  43  70  99 133 177 237 282 330 411
#     4  10  23  39  71 100 130 178 227 281 333 394
#     4  11  26  45  68 102 139 180 226 281 351 413
#     4  10  22  42  67  99 135 183 227 272 339 401
#     4  11  27  46  68 100 138 182 226 286 350 403
#     4  11  23  42  71 100 133 180 227 283 337 401
#
# _framework density 22.207142999999999
#
# number of rings (size 3 to 8) (size 9 to 14) (size 15 to 20)
#    0.000    1.429    1.429    2.143    4.000    9.143 
#    0.000    2.857    0.000    0.000    0.000    0.000 
#    0.000    0.000    0.000    0.000    0.000    0.000 
#
# Total GULP energy -78185.207792 kJ/mol
# GULP energy per Si atom -5584.657699 kJ/mol
# Density = 2.215660 g / cm^3
# Si number density = 22.207143 Si / 1000 Ang^3
#
#
#
# Elastic Constant Matrix: (Units=GPa)
#
#
# Indices 1 2 3 4 5 6 
#
# 1 111.4361 55.5989 43.1753 10.3596 8.2512 -13.7618
# 2 55.5989 113.0155 54.3838 22.2664 1.6532 -3.5841
# 3 43.1753 54.3838 85.1731 31.3431 3.2065 -16.8152
# 4 10.3596 22.2664 31.3431 34.8671 -5.5221 1.0344
# 5 8.2512 1.6532 3.2065 -5.5221 35.6818 4.6514
# 6 -13.7618 -3.5841 -16.8152 1.0344 4.6514 39.5761
#
#
#
# Elastic Compliance Matrix: (Units=1/GPa)
#
#
# Indices 1 2 3 4 5 6 
#
# 1 0.013238 -0.005074 -0.003535 0.001991 -0.002577 0.002893
# 2 -0.005074 0.014965 -0.007362 -0.001092 0.001452 -0.003680
# 3 -0.003535 -0.007362 0.028560 -0.021245 -0.006198 0.011522
# 4 0.001991 -0.001092 -0.021245 0.049896 0.010654 -0.010989
# 5 -0.002577 0.001452 -0.006198 0.010654 0.031725 -0.007405
# 6 0.002893 -0.003680 0.011522 -0.010989 -0.007405 0.031994
#
#
# Mechanical properties :
#
#
# Convention : Reuss Voigt Hill
#
# Bulk Modulus (GPa) = 40.29196 68.43786 54.36491
# Shear Modulus (GPa) = 23.74239 32.45612 28.09925
#
# Velocity S-wave (km/s) = 3.27331 3.82713 3.56100
# Velocity P-wave (km/s) = 5.69817 7.10029 6.43751
#
# Compressibility (1/GPa) = 0.02481885
#
# Stress axis : x y z
#
# Youngs Moduli (GPa) = 75.53944 66.82465 35.01450
#
# Poissons Ratio (x) = 0.33909 0.12378
# Poissons Ratio (y) = 0.38331 0.25778
# Poissons Ratio (z) = 0.26705 0.49198
#
# Static dielectric constant tensor:
#      x y z
#    x 1.830650 -0.027320 0.032940 
#    y -0.027320 1.859550 -0.043040 
#    z 0.032940 -0.043040 1.897690 
# 
# From -- ./inp_files/400089.got.cif
#   From: 2010.05.17/outbox.cif.g08.bks.cpg/sg2_201_cif.got.tgz:400089.got - 2010.06.03 11:33:40.
