data_PCOD9029468
_publ_section_title
;
Structure prediction by ZEFSAII (Michael W. Deem and Ramdas Pophale) SiO2 
 PCOD9029468
Probable space group: P -1
;
_chemical_formula_sum "Si O2"
_cell_formula_units_Z 16
_cell_length_a 7.795514
_cell_length_b 14.438979
_cell_length_c 20.059840
_cell_angle_alpha 155.417180
_cell_angle_beta 50.742463
_cell_angle_gamma 126.252528
_cell_volume 726.433189
_symmetry_space_group_name_H-M "P -1"
_symmetry_group_IT_number 2
_symmetry_cell_setting 'triclinic'
loop_
_space_group_symop_operation_xyz
x,y,z
-x,-y,-z
loop_
_atom_site_type_symbol
_atom_site_label
_atom_site_fract_x
_atom_site_fract_y
_atom_site_fract_z
Si Si1 0.468682 0.810094 0.042711
Si Si2 0.062873 0.260917 0.645007
Si Si3 0.568929 0.711199 0.666082
Si Si4 0.507548 0.431631 0.256009
Si Si5 0.926805 0.348599 0.481228
Si Si6 0.952307 0.274288 0.825782
Si Si7 0.663455 0.346699 0.721737
Si Si8 0.334024 0.005449 0.622197
O O1 0.275021 0.826647 0.155387
O O2 0.550649 0.066189 0.180871
O O3 0.404823 0.724614 0.926953
O O4 0.601400 0.600812 0.899004
O O5 0.315858 0.355662 0.641195
O O6 0.962722 0.346727 0.794354
O O7 0.922374 0.337142 0.666853
O O8 0.000000 0.000000 0.500000
O O9 0.500000 0.500000 0.500000
O O10 0.514436 0.670845 0.731418
O O11 0.836864 0.727394 0.600311
O O12 0.254285 0.489258 0.336517
O O13 0.777102 0.116250 0.365829
O O14 0.000000 0.500000 0.500000
O O15 0.146236 0.116650 0.696654
O O16 0.000000 0.500000 0.000000
O O17 0.594665 0.195695 0.575391
O O18 0.523043 0.198006 0.713817
#
# Coordination Sequence:
#
# PCOD9029468 Si02
#       8
#     2   2   2   2   2   2   2   2
#     4  12  24  46  68  97 140 180 225 278 345 417
#     4  12  25  41  69 106 139 178 229 283 336 403
#     4  11  27  46  70 103 132 175 231 295 337 394
#     4  11  24  45  71  96 134 185 230 266 343 415
#     4  10  22  42  67  95 132 179 227 267 331 411
#     4  12  23  42  66 100 139 177 225 278 338 409
#     4  11  24  39  71 102 134 181 224 281 337 407
#     4  11  20  42  68  97 137 182 223 267 346 411
#
# _framework density 22.025426
#
# number of rings (size 3 to 8) (size 9 to 14) (size 15 to 20)
#    0.000    0.750    6.250    1.125    3.500    0.500 
#    0.000    6.250    0.000    0.000    0.000    0.000 
#    0.000    0.000    0.000    0.000    0.000    0.000 
#
# Total GULP energy -89070.574051 kJ/mol
# GULP energy per Si atom -5566.910878 kJ/mol
# Density = 2.197530 g / cm^3
# Si number density = 22.025426 Si / 1000 Ang^3
#
#
#
# Elastic Constant Matrix: (Units=GPa)
#
#
# Indices 1 2 3 4 5 6 
#
# 1 68.5116 14.3422 22.2713 5.7967 -16.7935 14.7407
# 2 14.3422 120.9635 24.3772 10.1599 -3.7436 8.7290
# 3 22.2713 24.3772 103.4620 27.8666 -11.9952 4.5335
# 4 5.7967 10.1599 27.8666 40.7673 -3.2480 -7.2129
# 5 -16.7935 -3.7436 -11.9952 -3.2480 35.0041 0.6596
# 6 14.7407 8.7290 4.5335 -7.2129 0.6596 28.3491
#
#
#
# Elastic Compliance Matrix: (Units=1/GPa)
#
#
# Indices 1 2 3 4 5 6 
#
# 1 0.020086 -0.000721 -0.001977 -0.002522 0.008850 -0.010754
# 2 -0.000721 0.008958 -0.001402 -0.001625 0.000029 -0.002573
# 3 -0.001977 -0.001402 0.013202 -0.008699 0.002674 -0.002927
# 4 -0.002522 -0.001625 -0.008699 0.033186 -0.001506 0.011682
# 5 0.008850 0.000029 0.002674 -0.001506 0.033711 -0.006206
# 6 -0.010754 -0.002573 -0.002927 0.011682 -0.006206 0.045243
#
#
# Mechanical properties :
#
#
# Convention : Reuss Voigt Hill
#
# Bulk Modulus (GPa) = 29.37151 46.10207 37.73679
# Shear Modulus (GPa) = 28.74625 36.28720 32.51672
#
# Velocity S-wave (km/s) = 3.61659 4.06336 3.84647
# Velocity P-wave (km/s) = 5.55012 6.55677 6.07434
#
# Compressibility (1/GPa) = 0.03404660
#
# Stress axis : x y z
#
# Youngs Moduli (GPa) = 49.78507 111.63206 75.74326
#
# Poissons Ratio (x) = 0.08053 0.14976
# Poissons Ratio (y) = 0.03591 0.10616
# Poissons Ratio (z) = 0.09843 0.15646
#
# Static dielectric constant tensor:
#      x y z
#    x 1.807670 -0.018660 -0.032980 
#    y -0.018660 1.889150 0.033300 
#    z -0.032980 0.033300 1.798810 
# 
# From -- ./inp_files/590503.got.cif
#   From: 2010.05.17/outbox.cif.g08.bks.cpg/sg2_296_cif.got.tgz:590503.got - 2010.06.03 11:33:40.
