data_PCOD9029618
_publ_section_title
;
Structure prediction by ZEFSAII (Michael W. Deem and Ramdas Pophale) SiO2 
 PCOD9029618
Probable space group: P -1
;
_chemical_formula_sum "Si O2"
_cell_formula_units_Z 14
_cell_length_a 11.386480
_cell_length_b 14.392628
_cell_length_c 11.571632
_cell_angle_alpha 150.616756
_cell_angle_beta 96.928825
_cell_angle_gamma 62.856198
_cell_volume 640.166505
_symmetry_space_group_name_H-M "P -1"
_symmetry_group_IT_number 2
_symmetry_cell_setting 'triclinic'
loop_
_space_group_symop_operation_xyz
x,y,z
-x,-y,-z
loop_
_atom_site_type_symbol
_atom_site_label
_atom_site_fract_x
_atom_site_fract_y
_atom_site_fract_z
Si Si1 0.803982 0.348593 0.165890
Si Si2 0.087390 0.165609 0.275839
Si Si3 0.547359 0.435417 0.072912
Si Si4 0.975793 0.454154 0.143825
Si Si5 0.750662 0.712231 0.712565
Si Si6 0.392467 0.072045 0.454589
Si Si7 0.651075 0.005750 0.263465
O O1 0.713607 0.355386 0.051950
O O2 0.939000 0.340280 0.116851
O O3 0.679598 0.620067 0.527303
O O4 0.874845 0.094500 0.976012
O O5 0.043126 0.316988 0.554824
O O6 0.237094 0.119518 0.187223
O O7 0.930120 0.403262 0.432734
O O8 0.400863 0.713577 0.429551
O O9 0.500000 0.500000 0.000000
O O10 0.581241 0.180819 0.834659
O O11 0.806622 0.639410 0.245785
O O12 0.174315 0.207900 0.870284
O O13 0.688915 0.866548 0.993828
O O14 0.494281 0.070549 0.368577
O O15 0.500000 0.000000 0.500000
#
# Coordination Sequence:
#
# PCOD9029618 Si02
#       7
#     2   2   2   2   2   2   2
#     4  11  20  39  72  95 140 180 219 274 340 394
#     4   9  18  37  64  98 140 178 216 274 331 403
#     4  12  25  46  67  97 134 177 228 282 335 395
#     4  10  22  42  68 100 133 179 222 274 337 394
#     4   9  21  37  62 102 140 172 221 276 334 395
#     4  12  24  47  70  91 136 179 223 288 339 388
#     4  11  25  44  68 101 136 172 230 276 329 415
#
# _framework density 21.869309000000001
#
# number of rings (size 3 to 8) (size 9 to 14) (size 15 to 20)
#    0.000    1.429    4.286    1.286    0.000    4.571 
#    0.000    2.857    0.000    0.000    0.000    0.000 
#    0.000    0.000    0.000    0.000    0.000    0.000 
#
# Total GULP energy -77961.739718 kJ/mol
# GULP energy per Si atom -5568.695694 kJ/mol
# Density = 2.181953 g / cm^3
# Si number density = 21.869309 Si / 1000 Ang^3
#
#
#
# Elastic Constant Matrix: (Units=GPa)
#
#
# Indices 1 2 3 4 5 6 
#
# 1 71.9061 17.6783 42.4381 18.4111 26.4813 -7.3556
# 2 17.6783 97.7231 25.7180 15.8259 13.4500 -8.6329
# 3 42.4381 25.7180 98.7956 18.2913 36.8707 7.7177
# 4 18.4111 15.8259 18.2913 42.4356 -4.5211 8.8574
# 5 26.4813 13.4500 36.8707 -4.5211 39.2130 11.1099
# 6 -7.3556 -8.6329 7.7177 8.8574 11.1099 37.4542
#
#
#
# Elastic Compliance Matrix: (Units=1/GPa)
#
#
# Indices 1 2 3 4 5 6 
#
# 1 0.034610 0.004829 -0.000533 -0.025286 -0.034292 0.024172
# 2 0.004829 0.013627 0.000068 -0.010621 -0.012108 0.010179
# 3 -0.000533 0.000068 0.020049 -0.011711 -0.021239 0.004849
# 4 -0.025286 -0.010621 -0.011711 0.055265 0.047188 -0.032068
# 5 -0.034292 -0.012108 -0.021239 0.047188 0.090445 -0.043137
# 6 0.024172 0.010179 0.004849 -0.032068 -0.043137 0.053172
#
#
# Mechanical properties :
#
#
# Convention : Reuss Voigt Hill
#
# Bulk Modulus (GPa) = 12.98446 48.89928 30.94187
# Shear Modulus (GPa) = 17.59873 35.99326 26.79599
#
# Velocity S-wave (km/s) = 2.83984 4.06129 3.50420
# Velocity P-wave (km/s) = 4.08694 6.66336 5.52736
#
# Compressibility (1/GPa) = 0.07701514
#
# Stress axis : x y z
#
# Youngs Moduli (GPa) = 28.89332 73.38291 49.87817
#
# Poissons Ratio (x) = -0.35438 0.02659
# Poissons Ratio (y) = -0.13953 -0.00341
# Poissons Ratio (z) = 0.01540 -0.00501
#
# Static dielectric constant tensor:
#      x y z
#    x 1.912220 -0.074350 -0.080810 
#    y -0.074350 1.930530 0.008970 
#    z -0.080810 0.008970 1.850300 
# 
# From -- ./inp_files/337906.got.cif
#   From: 2010.05.17/outbox.cif.g08.bks.cpg/sg2_169_cif.got.tgz:337906.got - 2010.06.03 11:33:40.
