data_PCOD9029085
_publ_section_title
;
Structure prediction by ZEFSAII (Michael W. Deem and Ramdas Pophale) SiO2 
 PCOD9029085
Probable space group: P -1
;
_chemical_formula_sum "Si O2"
_cell_formula_units_Z 13
_cell_length_a 24.138529
_cell_length_b 23.601536
_cell_length_c 5.548867
_cell_angle_alpha 135.523518
_cell_angle_beta 46.445047
_cell_angle_gamma 168.430312
_cell_volume 443.076682
_symmetry_space_group_name_H-M "P -1"
_symmetry_group_IT_number 2
_symmetry_cell_setting 'triclinic'
loop_
_space_group_symop_operation_xyz
x,y,z
-x,-y,-z
loop_
_atom_site_type_symbol
_atom_site_label
_atom_site_fract_x
_atom_site_fract_y
_atom_site_fract_z
Si Si1 0.775538 0.942867 0.885145
Si Si2 0.058828 0.512481 0.609083
Si Si3 0.713142 0.507105 0.291362
Si Si4 0.563020 0.931363 0.532438
Si Si5 0.467320 0.536149 0.943773
Si Si6 0.000000 0.000000 0.000000
Si Si7 0.033649 0.335946 0.619073
O O1 0.570323 0.667249 0.769296
O O2 0.925763 0.138512 0.249442
O O3 0.550077 0.778025 0.955935
O O4 0.023960 0.178650 0.666215
O O5 0.000000 0.500000 0.500000
O O6 0.381581 0.817813 0.596568
O O7 0.829015 0.207220 0.390273
O O8 0.000000 0.500000 0.000000
O O9 0.577593 0.427629 0.653045
O O10 0.830931 0.546713 0.175601
O O11 0.282989 0.611558 0.531531
O O12 0.768704 0.122952 0.732962
O O13 0.712226 0.736762 0.941816
O O14 0.169573 0.195125 0.832955
#
# Coordination Sequence:
#
# PCOD9029085 Si02
#       7
#     2   2   2   2   2   1   2
#     4  12  24  42  70  98 133 184 223 275 362 421
#     4  11  24  48  73 102 142 195 246 291 362 427
#     4  12  24  42  70  98 133 184 223 275 362 421
#     4  10  23  44  69 100 136 179 228 292 342 402
#     4  11  23  44  65  90 138 166 232 284 338 426
#     4  10  22  42  66  90 124 186 212 294 352 382
#     4  11  23  46  64 105 142 169 230 282 338 422
#
# _framework density 29.340292999999999
#
# number of rings (size 3 to 8) (size 9 to 14) (size 15 to 20)
#    0.000    0.923    0.000    8.308    0.000    0.000 
#   27.692   15.385    0.000    0.000    0.000    0.000 
#    0.000    0.000    0.000    0.000    0.000    0.000 
#
# Total GULP energy -72398.098747 kJ/mol
# GULP energy per Si atom -5569.084519 kJ/mol
# Density = 2.927351 g / cm^3
# Si number density = 29.340293 Si / 1000 Ang^3
#
#
#
# Elastic Constant Matrix: (Units=GPa)
#
#
# Indices 1 2 3 4 5 6 
#
# 1 156.2674 119.3575 2.9450 1.6754 42.3590 8.6321
# 2 119.3575 323.6183 67.0987 -30.0322 17.5425 24.8649
# 3 2.9450 67.0987 84.0707 -25.8139 10.2186 -6.1213
# 4 1.6754 -30.0322 -25.8139 38.7267 2.2246 2.4866
# 5 42.3590 17.5425 10.2186 2.2246 31.5228 -0.0650
# 6 8.6321 24.8649 -6.1213 2.4866 -0.0650 100.2001
#
#
#
# Elastic Compliance Matrix: (Units=1/GPa)
#
#
# Indices 1 2 3 4 5 6 
#
# 1 0.017455 -0.006854 0.007685 0.000284 -0.022152 0.000645
# 2 -0.006854 0.006625 -0.005611 0.001370 0.007242 -0.001426
# 3 0.007685 -0.005611 0.021142 0.010144 -0.014770 0.001761
# 4 0.000284 0.001370 0.010144 0.034065 -0.006837 -0.000594
# 5 -0.022152 0.007242 -0.014770 -0.006837 0.062728 -0.000581
# 6 0.000645 -0.001426 0.001761 -0.000594 -0.000581 0.010400
#
#
# Mechanical properties :
#
#
# Convention : Reuss Voigt Hill
#
# Bulk Modulus (GPa) = 28.04014 104.75098 66.39556
# Shear Modulus (GPa) = 28.75816 59.06025 43.90921
#
# Velocity S-wave (km/s) = 3.13415 4.49145 3.87272
# Velocity P-wave (km/s) = 4.76180 7.91688 6.53268
#
# Compressibility (1/GPa) = 0.03566316
#
# Stress axis : x y z
#
# Youngs Moduli (GPa) = 57.28911 150.93362 47.29851
#
# Poissons Ratio (x) = 1.03447 -0.36350
# Poissons Ratio (y) = 0.39265 0.26541
# Poissons Ratio (z) = -0.44028 0.84694
#
# Static dielectric constant tensor:
#      x y z
#    x 2.313440 -0.147980 -0.001750 
#    y -0.147980 2.130850 0.157330 
#    z -0.001750 0.157330 2.253100 
# 
# From -- ./inp_files/125057.got.cif
#   From: 2010.05.17/outbox.cif.g08.bks.cpg/sg2_63_cif.got.tgz:125057.got - 2010.06.03 11:33:40.
