data_PCOD9029098
_publ_section_title
;
Structure prediction by ZEFSAII (Michael W. Deem and Ramdas Pophale) SiO2 
 PCOD9029098
Probable space group: P -1
;
_chemical_formula_sum "Si O2"
_cell_formula_units_Z 14
_cell_length_a 21.776062
_cell_length_b 5.103895
_cell_length_c 5.295587
_cell_angle_alpha 97.041921
_cell_angle_beta 62.939645
_cell_angle_gamma 85.112394
_cell_volume 513.520756
_symmetry_space_group_name_H-M "P -1"
_symmetry_group_IT_number 2
_symmetry_cell_setting 'triclinic'
loop_
_space_group_symop_operation_xyz
x,y,z
-x,-y,-z
loop_
_atom_site_type_symbol
_atom_site_label
_atom_site_fract_x
_atom_site_fract_y
_atom_site_fract_z
Si Si1 0.457160 0.204398 0.405869
Si Si2 0.919304 0.146369 0.977243
Si Si3 0.046368 0.699901 0.563504
Si Si4 0.725926 0.480065 0.716052
Si Si5 0.209520 0.061037 0.628302
Si Si6 0.408086 0.677659 0.949142
Si Si7 0.323437 0.078864 0.775096
O O1 0.429606 0.465835 0.656026
O O2 0.516094 0.257728 0.102599
O O3 0.500000 0.000000 0.500000
O O4 0.386459 0.091348 0.461417
O O5 0.898597 0.269347 0.756125
O O6 0.922778 0.359153 0.221211
O O7 0.868837 0.943052 0.137677
O O8 0.995449 0.978173 0.754003
O O9 0.000000 0.500000 0.500000
O O10 0.771683 0.190538 0.622275
O O11 0.765229 0.673944 0.494615
O O12 0.646143 0.441658 0.783211
O O13 0.711973 0.633298 0.024172
O O14 0.261314 0.961601 0.750345
O O15 0.360977 0.925243 0.926526
#
# Coordination Sequence:
#
# PCOD9029098 Si02
#       7
#     2   2   2   2   2   2   2
#     4   8  16  32  65  92 121 178 227 283 365 407
#     4  10  25  43  70 108 141 185 240 287 352 422
#     4  10  22  46  74 104 143 184 236 294 345 418
#     4  11  25  43  63  95 138 176 230 283 347 421
#     4  12  28  42  67 102 137 182 231 281 354 429
#     4   9  17  38  65  89 129 179 226 292 352 415
#     4  10  22  42  66  91 136 179 225 295 352 426
#
# _framework density 27.262768999999999
#
# number of rings (size 3 to 8) (size 9 to 14) (size 15 to 20)
#    0.000    2.000    1.429    0.429    8.000    1.143 
#    0.000    1.429    0.000    0.000    0.000    0.000 
#    0.000    0.000    0.000    0.000    0.000    0.000 
#
# Total GULP energy -78270.049432 kJ/mol
# GULP energy per Si atom -5590.717817 kJ/mol
# Density = 2.720072 g / cm^3
# Si number density = 27.262769 Si / 1000 Ang^3
#
#
#
# Elastic Constant Matrix: (Units=GPa)
#
#
# Indices 1 2 3 4 5 6 
#
# 1 100.8009 27.6848 47.4244 -18.0075 4.5560 27.4704
# 2 27.6848 118.5772 40.6689 -23.0364 2.2013 17.1308
# 3 47.4244 40.6689 145.6017 -30.3954 5.3481 18.3646
# 4 -18.0075 -23.0364 -30.3954 57.2636 18.6318 -11.6863
# 5 4.5560 2.2013 5.3481 18.6318 42.0503 -5.4347
# 6 27.4704 17.1308 18.3646 -11.6863 -5.4347 44.1974
#
#
#
# Elastic Compliance Matrix: (Units=1/GPa)
#
#
# Indices 1 2 3 4 5 6 
#
# 1 0.013886 -0.000798 -0.002894 0.002035 -0.002893 -0.006936
# 2 -0.000798 0.010122 -0.001558 0.003180 -0.001935 -0.002177
# 3 -0.002894 -0.001558 0.009297 0.004138 -0.002711 -0.000700
# 4 0.002035 0.003180 0.004138 0.025768 -0.012189 0.001098
# 5 -0.002893 -0.001935 -0.002711 -0.012189 0.030484 0.004200
# 6 -0.006936 -0.002177 -0.000700 0.001098 0.004200 0.028879
#
#
# Mechanical properties :
#
#
# Convention : Reuss Voigt Hill
#
# Bulk Modulus (GPa) = 43.84917 66.28178 55.06547
# Shear Modulus (GPa) = 36.61971 45.31569 40.96770
#
# Velocity S-wave (km/s) = 3.66896 4.08141 3.88067
# Velocity P-wave (km/s) = 5.83671 6.82463 6.34991
#
# Compressibility (1/GPa) = 0.02280545
#
# Stress axis : x y z
#
# Youngs Moduli (GPa) = 72.01530 98.79323 107.55721
#
# Poissons Ratio (x) = 0.07887 0.31126
# Poissons Ratio (y) = 0.05749 0.16755
# Poissons Ratio (z) = 0.20840 0.15390
#
# Static dielectric constant tensor:
#      x y z
#    x 2.193530 0.031540 0.038290 
#    y 0.031540 2.235630 -0.046220 
#    z 0.038290 -0.046220 2.148040 
# 
# From -- ./inp_files/121300.got.cif
#   From: 2010.05.17/outbox.cif.g08.bks.cpg/sg2_61_cif.got.tgz:121300.got - 2010.06.03 11:33:40.
