data_PCOD9029258
_publ_section_title
;
Structure prediction by ZEFSAII (Michael W. Deem and Ramdas Pophale) SiO2 
 PCOD9029258
Probable space group: P -1
;
_chemical_formula_sum "Si O2"
_cell_formula_units_Z 14
_cell_length_a 24.268955
_cell_length_b 21.629647
_cell_length_c 11.967684
_cell_angle_alpha 26.640070
_cell_angle_beta 161.796307
_cell_angle_gamma 164.236014
_cell_volume 517.567089
_symmetry_space_group_name_H-M "P -1"
_symmetry_group_IT_number 2
_symmetry_cell_setting 'triclinic'
loop_
_space_group_symop_operation_xyz
x,y,z
-x,-y,-z
loop_
_atom_site_type_symbol
_atom_site_label
_atom_site_fract_x
_atom_site_fract_y
_atom_site_fract_z
Si Si1 0.287308 0.012011 0.345214
Si Si2 0.296433 0.109885 0.442230
Si Si3 0.030393 0.352557 0.325369
Si Si4 0.285178 0.087211 0.889712
Si Si5 0.125661 0.732094 0.061703
Si Si6 0.839755 0.527983 0.389254
Si Si7 0.677583 0.733623 0.534421
O O1 0.430904 0.167344 0.484951
O O2 0.055298 0.757992 0.362955
O O3 0.551685 0.107740 0.629599
O O4 0.040721 0.939726 0.913370
O O5 0.221653 0.913724 0.675172
O O6 0.412187 0.285900 0.479124
O O7 0.000000 0.000000 0.000000
O O8 0.255395 0.481506 0.655024
O O9 0.000000 0.500000 0.000000
O O10 0.065056 0.318321 0.322667
O O11 0.380612 0.171736 0.808600
O O12 0.553932 0.306919 0.126646
O O13 0.000000 0.000000 0.500000
O O14 0.185419 0.867296 0.061982
O O15 0.979523 0.497338 0.196578
O O16 0.500000 0.500000 0.500000
#
# Coordination Sequence:
#
# PCOD9029258 Si02
#       7
#     2   2   2   2   2   2   2
#     4  10  22  42  71  98 133 174 222 289 343 400
#     4   9  19  37  66  94 132 172 223 283 341 399
#     4   9  19  39  66  93 133 171 223 286 335 403
#     4  12  25  44  64  92 139 184 222 279 342 406
#     4  11  23  44  68  98 133 177 226 282 346 406
#     4  10  22  42  66  98 134 169 229 277 339 411
#     4  11  21  42  66  97 136 176 227 272 336 421
#
# _framework density 27.049633
#
# number of rings (size 3 to 8) (size 9 to 14) (size 15 to 20)
#    0.000    1.714    2.857    1.286    0.000    2.857 
#    2.571    3.571    0.000    0.000    0.000    0.000 
#    0.000    0.000    0.000    0.000    0.000    0.000 
#
# Total GULP energy -78078.953468 kJ/mol
# GULP energy per Si atom -5577.068105 kJ/mol
# Density = 2.698807 g / cm^3
# Si number density = 27.049633 Si / 1000 Ang^3
#
#
#
# Elastic Constant Matrix: (Units=GPa)
#
#
# Indices 1 2 3 4 5 6 
#
# 1 140.1441 42.4387 48.1128 17.5517 -23.5647 -24.6453
# 2 42.4387 97.0069 22.7294 1.8634 -11.9087 -32.9771
# 3 48.1128 22.7294 89.2836 7.8460 -13.6468 -0.5289
# 4 17.5517 1.8634 7.8460 41.7030 -4.4216 -17.0545
# 5 -23.5647 -11.9087 -13.6468 -4.4216 63.4586 6.5031
# 6 -24.6453 -32.9771 -0.5289 -17.0545 6.5031 60.4430
#
#
#
# Elastic Compliance Matrix: (Units=1/GPa)
#
#
# Indices 1 2 3 4 5 6 
#
# 1 0.010420 -0.002581 -0.004415 -0.002447 0.002071 0.001889
# 2 -0.002581 0.014827 -0.002604 0.004327 0.000730 0.008157
# 3 -0.004415 -0.002604 0.014606 -0.002216 0.001253 -0.003854
# 4 -0.002447 0.004327 -0.002216 0.029179 0.000484 0.009524
# 5 0.002071 0.000730 0.001253 0.000484 0.017013 -0.000440
# 6 0.001889 0.008157 -0.003854 0.009524 -0.000440 0.024466
#
#
# Mechanical properties :
#
#
# Convention : Reuss Voigt Hill
#
# Bulk Modulus (GPa) = 48.41999 61.44404 54.93202
# Shear Modulus (GPa) = 36.60470 47.33118 41.96794
#
# Velocity S-wave (km/s) = 3.68263 4.18759 3.94320
# Velocity P-wave (km/s) = 6.00181 6.79307 6.40966
#
# Compressibility (1/GPa) = 0.02065263
#
# Stress axis : x y z
#
# Youngs Moduli (GPa) = 95.97260 67.44428 68.46538
#
# Poissons Ratio (x) = 0.17405 0.30228
# Poissons Ratio (y) = 0.24767 0.17831
# Poissons Ratio (z) = 0.42372 0.17565
#
# Static dielectric constant tensor:
#      x y z
#    x 2.214060 -0.067230 -0.023240 
#    y -0.067230 2.317960 0.030100 
#    z -0.023240 0.030100 2.208070 
# 
# From -- ./inp_files/475580.got.cif
#   From: 2010.05.17/outbox.cif.g08.bks.cpg/sg2_238_cif.got.tgz:475580.got - 2010.06.03 11:33:40.
