data_PCOD9029934
_publ_section_title
;
Structure prediction by ZEFSAII (Michael W. Deem and Ramdas Pophale) SiO2 
 PCOD9029934
Probable space group: P -1
;
_chemical_formula_sum "Si O2"
_cell_formula_units_Z 14
_cell_length_a 12.714925
_cell_length_b 9.218238
_cell_length_c 8.528581
_cell_angle_alpha 131.914478
_cell_angle_beta 75.095458
_cell_angle_gamma 119.712441
_cell_volume 641.829006
_symmetry_space_group_name_H-M "P -1"
_symmetry_group_IT_number 2
_symmetry_cell_setting 'triclinic'
loop_
_space_group_symop_operation_xyz
x,y,z
-x,-y,-z
loop_
_atom_site_type_symbol
_atom_site_label
_atom_site_fract_x
_atom_site_fract_y
_atom_site_fract_z
Si Si1 0.542128 0.244477 0.708092
Si Si2 0.599843 0.818252 0.964635
Si Si3 0.403541 0.404192 0.661465
Si Si4 0.220879 0.694347 0.810572
Si Si5 0.024874 0.866056 0.032111
Si Si6 0.228621 0.488577 0.992578
Si Si7 0.770273 0.722463 0.639108
O O1 0.504878 0.343427 0.645386
O O2 0.500000 0.000000 0.500000
O O3 0.457935 0.242634 0.885098
O O4 0.680284 0.355674 0.797573
O O5 0.481381 0.665246 0.795210
O O6 0.709335 0.752011 0.844172
O O7 0.660296 0.076062 0.098336
O O8 0.302133 0.365314 0.802913
O O9 0.327659 0.281004 0.452535
O O10 0.215784 0.619858 0.940604
O O11 0.217258 0.496556 0.561367
O O12 0.107868 0.749217 0.864418
O O13 0.900450 0.681046 0.015052
O O14 0.104333 0.057724 0.263257
O O15 0.000000 0.000000 0.000000
#
# Coordination Sequence:
#
# PCOD9029934 Si02
#       7
#     2   2   2   2   2   2   2
#     4  11  26  40  70 107 140 179 224 276 348 409
#     4  10  22  42  68  99 143 172 220 281 340 398
#     4  10  23  42  68 102 139 179 220 282 344 406
#     4  10  24  43  72 102 131 183 232 278 339 409
#     4  11  26  44  71  97 140 182 227 288 335 395
#     4  10  23  46  67  98 144 177 225 285 337 401
#     4  10  24  44  71  98 134 182 227 277 339 403
#
# _framework density 21.812664999999999
#
# number of rings (size 3 to 8) (size 9 to 14) (size 15 to 20)
#    0.000    1.714    0.000    2.571   14.000    8.000 
#    2.571    0.000    0.000    0.000    0.000    0.000 
#    0.000    0.000    0.000    0.000    0.000    0.000 
#
# Total GULP energy -78161.432433 kJ/mol
# GULP energy per Si atom -5582.959460 kJ/mol
# Density = 2.176302 g / cm^3
# Si number density = 21.812665 Si / 1000 Ang^3
#
#
#
# Elastic Constant Matrix: (Units=GPa)
#
#
# Indices 1 2 3 4 5 6 
#
# 1 127.5136 61.8559 56.0128 14.1335 1.0665 4.1193
# 2 61.8559 130.4510 42.7247 25.3916 5.1645 19.0115
# 3 56.0128 42.7247 126.9063 26.6370 7.6529 10.8847
# 4 14.1335 25.3916 26.6370 28.4997 -3.4084 7.0773
# 5 1.0665 5.1645 7.6529 -3.4084 27.4701 13.7320
# 6 4.1193 19.0115 10.8847 7.0773 13.7320 48.4378
#
#
#
# Elastic Compliance Matrix: (Units=1/GPa)
#
#
# Indices 1 2 3 4 5 6 
#
# 1 0.011746 -0.004860 -0.004215 0.002326 0.001355 0.001132
# 2 -0.004860 0.011918 0.000116 -0.007866 -0.001736 -0.002649
# 3 -0.004215 0.000116 0.012025 -0.009896 -0.004619 0.000366
# 4 0.002326 -0.007866 -0.009896 0.053554 0.014151 -0.006723
# 5 0.001355 -0.001736 -0.004619 0.014151 0.046548 -0.013660
# 6 0.001132 -0.002649 0.000366 -0.006723 -0.013660 0.026361
#
#
# Mechanical properties :
#
#
# Convention : Reuss Voigt Hill
#
# Bulk Modulus (GPa) = 56.27299 78.45084 67.36191
# Shear Modulus (GPa) = 26.88240 35.83335 31.35788
#
# Velocity S-wave (km/s) = 3.51439 4.05752 3.79568
# Velocity P-wave (km/s) = 6.50556 7.61545 7.08228
#
# Compressibility (1/GPa) = 0.01777052
#
# Stress axis : x y z
#
# Youngs Moduli (GPa) = 85.13665 83.90427 83.15732
#
# Poissons Ratio (x) = 0.40780 0.35050
# Poissons Ratio (y) = 0.41379 -0.00962
# Poissons Ratio (z) = 0.35884 -0.00971
#
# Static dielectric constant tensor:
#      x y z
#    x 1.813680 -0.022890 -0.008090 
#    y -0.022890 1.871090 -0.015710 
#    z -0.008090 -0.015710 1.848610 
# 
# From -- ./inp_files/245904.got.cif
#   From: 2010.05.17/outbox.cif.g08.bks.cpg/sg2_123_cif.got.tgz:245904.got - 2010.06.03 11:33:40.
