data_PCOD9029189
_publ_section_title
;
Structure prediction by ZEFSAII (Michael W. Deem and Ramdas Pophale) SiO2 
 PCOD9029189
Probable space group: P -1
;
_chemical_formula_sum "Si O2"
_cell_formula_units_Z 16
_cell_length_a 5.919954
_cell_length_b 15.281365
_cell_length_c 14.166661
_cell_angle_alpha 142.598621
_cell_angle_beta 95.166192
_cell_angle_gamma 98.869741
_cell_volume 719.274667
_symmetry_space_group_name_H-M "P -1"
_symmetry_group_IT_number 2
_symmetry_cell_setting 'triclinic'
loop_
_space_group_symop_operation_xyz
x,y,z
-x,-y,-z
loop_
_atom_site_type_symbol
_atom_site_label
_atom_site_fract_x
_atom_site_fract_y
_atom_site_fract_z
Si Si1 0.389192 0.822222 0.374965
Si Si2 0.525236 0.891416 0.100499
Si Si3 0.142008 0.827191 0.885832
Si Si4 0.010313 0.069630 0.208992
Si Si5 0.111690 0.375859 0.863871
Si Si6 0.495875 0.218779 0.442746
Si Si7 0.507212 0.338588 0.943884
Si Si8 0.235851 0.496040 0.439833
O O1 0.463876 0.776455 0.439697
O O2 0.460302 0.733937 0.216802
O O3 0.095546 0.765093 0.313775
O O4 0.500000 0.000000 0.500000
O O5 0.419480 0.755610 0.054929
O O6 0.503693 0.051251 0.270686
O O7 0.390039 0.826987 0.941100
O O8 0.814794 0.937819 0.149301
O O9 0.142960 0.858981 0.802061
O O10 0.903272 0.671747 0.758635
O O11 0.121113 0.976601 0.063846
O O12 0.220436 0.197412 0.384136
O O13 0.229334 0.326051 0.915823
O O14 0.324993 0.480622 0.892680
O O15 0.000000 0.500000 0.000000
O O16 0.677400 0.362390 0.511218
O O17 0.500000 0.500000 0.500000
O O18 0.000000 0.500000 0.500000
#
# Coordination Sequence:
#
# PCOD9029189 Si02
#       8
#     2   2   2   2   2   2   2   2
#     4  11  23  42  65  95 142 176 227 286 351 415
#     4  11  23  39  70  95 131 181 236 283 347 430
#     4  10  23  42  66  97 133 179 228 286 358 412
#     4  10  22  42  66  95 136 173 236 281 351 423
#     4   9  22  42  63  86 129 172 226 284 341 409
#     4  11  25  43  66 102 135 184 230 291 354 427
#     4  10  22  43  64  95 129 183 226 287 346 413
#     4  12  27  49  74 104 148 187 234 303 366 430
#
# _framework density 22.244631999999999
#
# number of rings (size 3 to 8) (size 9 to 14) (size 15 to 20)
#    0.000    1.500    2.500    1.125    5.250    2.500 
#    4.500    0.000    0.000    0.000    0.000    0.000 
#    0.000    0.000    0.000    0.000    0.000    0.000 
#
# Total GULP energy -89136.786164 kJ/mol
# GULP energy per Si atom -5571.049135 kJ/mol
# Density = 2.219400 g / cm^3
# Si number density = 22.244632 Si / 1000 Ang^3
#
#
#
# Elastic Constant Matrix: (Units=GPa)
#
#
# Indices 1 2 3 4 5 6 
#
# 1 67.7697 35.3673 25.0466 -9.9883 23.9415 -4.4433
# 2 35.3673 148.7772 49.7776 18.4569 22.4865 -9.6646
# 3 25.0466 49.7776 86.9057 16.8524 42.9353 -2.8556
# 4 -9.9883 18.4569 16.8524 35.2441 -0.3829 0.7318
# 5 23.9415 22.4865 42.9353 -0.3829 40.5284 5.4503
# 6 -4.4433 -9.6646 -2.8556 0.7318 5.4503 19.2385
#
#
#
# Elastic Compliance Matrix: (Units=1/GPa)
#
#
# Indices 1 2 3 4 5 6 
#
# 1 0.022855 -0.004371 0.000928 0.008047 -0.012865 0.006559
# 2 -0.004371 0.009661 -0.003397 -0.004742 0.000315 0.003431
# 3 0.000928 -0.003397 0.036208 -0.016023 -0.039273 0.015618
# 4 0.008047 -0.004742 -0.016023 0.041167 0.016469 -0.009133
# 5 -0.012865 0.000315 -0.039273 0.016469 0.078082 -0.031390
# 6 0.006559 0.003431 0.015618 -0.009133 -0.031390 0.066776
#
#
# Mechanical properties :
#
#
# Convention : Reuss Voigt Hill
#
# Bulk Modulus (GPa) = 18.16764 58.20395 38.18580
# Shear Modulus (GPa) = 17.43517 31.88628 24.66072
#
# Velocity S-wave (km/s) = 2.80267 3.79018 3.33320
# Velocity P-wave (km/s) = 4.31951 6.73618 5.65837
#
# Compressibility (1/GPa) = 0.05504291
#
# Stress axis : x y z
#
# Youngs Moduli (GPa) = 43.75397 103.51303 27.61822
#
# Poissons Ratio (x) = 0.45249 -0.02562
# Poissons Ratio (y) = 0.19126 0.09381
# Poissons Ratio (z) = -0.04059 0.35161
#
# Static dielectric constant tensor:
#      x y z
#    x 3.090120 -0.168970 -0.359530 
#    y -0.168970 1.884970 0.063210 
#    z -0.359530 0.063210 1.951600 
# 
# From -- ./inp_files/38107.got.cif
#   From: 2010.05.17/outbox.cif.g08.bks.cpg/sg2_20_cif.got.tgz:38107.got - 2010.06.03 11:33:40.
