data_PCOD9029797
_publ_section_title
;
Structure prediction by ZEFSAII (Michael W. Deem and Ramdas Pophale) SiO2 
 PCOD9029797
Probable space group: P -1
;
_chemical_formula_sum "Si O2"
_cell_formula_units_Z 16
_cell_length_a 9.247092
_cell_length_b 17.380704
_cell_length_c 12.623631
_cell_angle_alpha 23.894014
_cell_angle_beta 75.243886
_cell_angle_gamma 64.501295
_cell_volume 686.131961
_symmetry_space_group_name_H-M "P -1"
_symmetry_group_IT_number 2
_symmetry_cell_setting 'triclinic'
loop_
_space_group_symop_operation_xyz
x,y,z
-x,-y,-z
loop_
_atom_site_type_symbol
_atom_site_label
_atom_site_fract_x
_atom_site_fract_y
_atom_site_fract_z
Si Si1 0.952631 0.314795 0.640663
Si Si2 0.772283 0.678125 0.057468
Si Si3 0.035870 0.017351 0.790615
Si Si4 0.221317 0.630241 0.743585
Si Si5 0.588159 0.505165 0.769895
Si Si6 0.650917 0.882239 0.203478
Si Si7 0.399544 0.843461 0.941255
Si Si8 0.927174 0.245189 0.166290
O O1 0.148539 0.264891 0.683226
O O2 0.814908 0.553445 0.320462
O O3 0.968675 0.167895 0.718986
O O4 0.911873 0.221263 0.871359
O O5 0.796009 0.519791 0.153528
O O6 0.568850 0.858020 0.864048
O O7 0.918204 0.739293 0.935349
O O8 0.207847 0.010679 0.722095
O O9 0.887950 0.125713 0.594659
O O10 0.420306 0.565206 0.795588
O O11 0.145946 0.613223 0.890673
O O12 0.607924 0.715607 0.482409
O O13 0.559348 0.394827 0.808087
O O14 0.765096 0.327035 0.015855
O O15 0.500000 0.000000 0.000000
O O16 0.636239 0.084696 0.020541
O O17 0.000000 0.000000 0.500000
#
# Coordination Sequence:
#
# PCOD9029797 Si02
#       8
#     2   2   2   2   2   2   2   2
#     4   9  18  37  63  94 132 169 216 269 333 400
#     4  10  22  43  65  96 132 179 223 275 337 394
#     4   9  18  37  66  96 129 172 215 268 334 398
#     4  10  22  42  68  95 130 177 220 279 339 394
#     4  11  24  45  66  98 135 173 226 277 339 394
#     4  11  23  41  68 100 135 176 220 273 336 400
#     4  10  24  43  67  98 137 175 222 274 329 410
#     4  12  25  43  66  97 134 174 231 283 333 393
#
# _framework density 23.319129
#
# number of rings (size 3 to 8) (size 9 to 14) (size 15 to 20)
#    0.000    1.750    1.250    2.250    1.750    5.000 
#    4.500    4.375    0.000    0.000    0.000    0.000 
#    0.000    0.000    0.000    0.000    0.000    0.000 
#
# Total GULP energy -89322.761813 kJ/mol
# GULP energy per Si atom -5582.672613 kJ/mol
# Density = 2.326605 g / cm^3
# Si number density = 23.319129 Si / 1000 Ang^3
#
#
#
# Elastic Constant Matrix: (Units=GPa)
#
#
# Indices 1 2 3 4 5 6 
#
# 1 147.9684 39.0311 45.9517 3.2851 21.1793 -22.3431
# 2 39.0311 61.9915 10.0726 -10.0761 11.0417 -1.6779
# 3 45.9517 10.0726 81.6408 6.3174 13.0283 -3.8168
# 4 3.2851 -10.0761 6.3174 18.6635 0.4030 3.5570
# 5 21.1793 11.0417 13.0283 0.4030 21.2929 -3.3069
# 6 -22.3431 -1.6779 -3.8168 3.5570 -3.3069 54.9556
#
#
#
# Elastic Compliance Matrix: (Units=1/GPa)
#
#
# Indices 1 2 3 4 5 6 
#
# 1 0.011015 -0.006061 -0.004195 -0.004459 -0.004538 0.004017
# 2 -0.006061 0.023385 0.000409 0.014293 -0.007096 -0.003074
# 3 -0.004195 0.000409 0.015758 -0.004123 -0.005708 -0.000675
# 4 -0.004459 0.014293 -0.004123 0.064678 -0.002611 -0.006006
# 5 -0.004538 -0.007096 -0.005708 -0.002611 0.058894 0.001255
# 6 0.004017 -0.003074 -0.000675 -0.006006 0.001255 0.020153
#
#
# Mechanical properties :
#
#
# Convention : Reuss Voigt Hill
#
# Bulk Modulus (GPa) = 32.82634 53.52350 43.17492
# Shear Modulus (GPa) = 22.34814 32.08541 27.21677
#
# Velocity S-wave (km/s) = 3.09910 3.71337 3.42005
# Velocity P-wave (km/s) = 5.18782 6.43335 5.84386
#
# Compressibility (1/GPa) = 0.03046334
#
# Stress axis : x y z
#
# Youngs Moduli (GPa) = 90.78544 42.76263 63.46079
#
# Poissons Ratio (x) = 0.25920 0.26621
# Poissons Ratio (y) = 0.55029 -0.02597
# Poissons Ratio (z) = 0.38084 -0.01750
#
# Static dielectric constant tensor:
#      x y z
#    x 1.888050 0.016710 -0.018820 
#    y 0.016710 1.891180 -0.020850 
#    z -0.018820 -0.020850 1.867300 
# 
# From -- ./inp_files/328626.got.cif
#   From: 2010.05.17/outbox.cif.g08.bks.cpg/sg2_165_cif.got.tgz:328626.got - 2010.06.03 11:33:40.
