data_PCOD9029479
_publ_section_title
;
Structure prediction by ZEFSAII (Michael W. Deem and Ramdas Pophale) SiO2 
 PCOD9029479
Probable space group: P -1
;
_chemical_formula_sum "Si O2"
_cell_formula_units_Z 16
_cell_length_a 11.623277
_cell_length_b 26.492495
_cell_length_c 14.826773
_cell_angle_alpha 20.014584
_cell_angle_beta 151.813291
_cell_angle_gamma 158.647609
_cell_volume 568.226359
_symmetry_space_group_name_H-M "P -1"
_symmetry_group_IT_number 2
_symmetry_cell_setting 'triclinic'
loop_
_space_group_symop_operation_xyz
x,y,z
-x,-y,-z
loop_
_atom_site_type_symbol
_atom_site_label
_atom_site_fract_x
_atom_site_fract_y
_atom_site_fract_z
Si Si1 0.748898 0.273324 0.205304
Si Si2 0.176401 0.285524 0.622236
Si Si3 0.567501 0.839340 0.141008
Si Si4 0.251351 0.698427 0.595000
Si Si5 0.169755 0.804067 0.066300
Si Si6 0.676144 0.722168 0.725912
Si Si7 0.209860 0.184421 0.087255
Si Si8 0.094504 0.749689 0.842461
O O1 0.424834 0.233691 0.065115
O O2 0.783655 0.204657 0.250750
O O3 0.888192 0.222208 0.463385
O O4 0.000000 0.500000 0.000000
O O5 0.500000 0.500000 0.500000
O O6 0.318670 0.210223 0.785016
O O7 0.982619 0.253802 0.633279
O O8 0.290180 0.713733 0.238374
O O9 0.386848 0.895308 0.865370
O O10 0.882528 0.983000 0.173527
O O11 0.411013 0.736973 0.543196
O O12 0.548608 0.792395 0.711224
O O13 0.038678 0.468290 0.860810
O O14 0.977099 0.837609 0.807645
O O15 0.912019 0.709464 0.129020
O O16 0.500000 0.000000 0.000000
O O17 0.815990 0.752687 0.672339
O O18 0.500000 0.500000 0.000000
#
# Coordination Sequence:
#
# PCOD9029479 Si02
#       8
#     2   2   2   2   2   2   2   2
#     4  11  20  33  50  72 104 139 166 202 254 304
#     4  11  20  33  51  73 103 135 167 209 255 297
#     4  10  19  32  53  79 101 126 169 214 252 292
#     4   9  16  30  49  73  96 129 168 204 244 285
#     4   8  15  29  48  74  99 120 162 214 249 278
#     4   8  15  25  47  72  90 121 167 208 231 280
#     4   9  18  31  52  78  99 130 170 210 247 293
#     4  10  17  32  50  74  99 129 166 206 248 295
#
# _framework density 28.157793999999999
#
# number of rings (size 3 to 8) (size 9 to 14) (size 15 to 20)
#    0.000    2.500    3.750    0.000    0.000    2.500 
#    0.000    0.000    0.000    4.500    0.000   30.625 
#    0.000    0.000    0.000    0.000    0.000    0.000 
#
# Total GULP energy -89102.720384 kJ/mol
# GULP energy per Si atom -5568.920024 kJ/mol
# Density = 2.809371 g / cm^3
# Si number density = 28.157794 Si / 1000 Ang^3
#
#
#
# Elastic Constant Matrix: (Units=GPa)
#
#
# Indices 1 2 3 4 5 6 
#
# 1 234.3938 53.9603 59.9066 28.6352 88.4013 57.8507
# 2 53.9603 155.8140 42.9145 30.5231 10.4766 15.2457
# 3 59.9066 42.9145 97.3791 24.5557 31.5190 16.4564
# 4 28.6352 30.5231 24.5557 45.3336 10.6345 14.8306
# 5 88.4013 10.4766 31.5190 10.6345 63.2509 28.6147
# 6 57.8507 15.2457 16.4564 14.8306 28.6147 53.3167
#
#
#
# Elastic Compliance Matrix: (Units=1/GPa)
#
#
# Indices 1 2 3 4 5 6 
#
# 1 0.010606 -0.002109 -0.000815 -0.000698 -0.012174 -0.003925
# 2 -0.002109 0.008357 -0.002577 -0.003669 0.003551 -0.000191
# 3 -0.000815 -0.002577 0.014702 -0.004873 -0.005592 0.001441
# 4 -0.000698 -0.003669 -0.004873 0.029072 0.001696 -0.005687
# 5 -0.012174 0.003551 -0.005592 0.001696 0.037843 -0.006861
# 6 -0.003925 -0.000191 0.001441 -0.005687 -0.006861 0.027889
#
#
# Mechanical properties :
#
#
# Convention : Reuss Voigt Hill
#
# Bulk Modulus (GPa) = 44.12886 89.01666 66.57276
# Shear Modulus (GPa) = 34.00800 54.43394 44.22097
#
# Velocity S-wave (km/s) = 3.47906 4.40156 3.96721
# Velocity P-wave (km/s) = 5.64309 7.58378 6.68424
#
# Compressibility (1/GPa) = 0.02266091
#
# Stress axis : x y z
#
# Youngs Moduli (GPa) = 94.28904 119.66345 68.01878
#
# Poissons Ratio (x) = 0.25238 0.05546
# Poissons Ratio (y) = 0.19886 0.17530
# Poissons Ratio (z) = 0.07688 0.30840
#
# Static dielectric constant tensor:
#      x y z
#    x 2.393580 -0.025080 -0.044620 
#    y -0.025080 2.119870 -0.122230 
#    z -0.044620 -0.122230 2.244230 
# 
# From -- ./inp_files/331198.got.cif
#   From: 2010.05.17/outbox.cif.g08.bks.cpg/sg2_166_cif.got.tgz:331198.got - 2010.06.03 11:33:40.
