data_PCOD9029750
_publ_section_title
;
Structure prediction by ZEFSAII (Michael W. Deem and Ramdas Pophale) SiO2 
 PCOD9029750
Probable space group: P -1
;
_chemical_formula_sum "Si O2"
_cell_formula_units_Z 13
_cell_length_a 26.167959
_cell_length_b 15.287261
_cell_length_c 9.682019
_cell_angle_alpha 30.145980
_cell_angle_beta 150.970678
_cell_angle_gamma 162.320001
_cell_volume 557.457823
_symmetry_space_group_name_H-M "P -1"
_symmetry_group_IT_number 2
_symmetry_cell_setting 'triclinic'
loop_
_space_group_symop_operation_xyz
x,y,z
-x,-y,-z
loop_
_atom_site_type_symbol
_atom_site_label
_atom_site_fract_x
_atom_site_fract_y
_atom_site_fract_z
Si Si1 0.500000 0.500000 0.500000
Si Si2 0.939414 0.910276 0.822547
Si Si3 0.531760 0.248900 0.721966
Si Si4 0.133683 0.837942 0.861207
Si Si5 0.473071 0.736696 0.889176
Si Si6 0.391937 0.727210 0.419847
Si Si7 0.992405 0.173562 0.164736
O O1 0.424309 0.225890 0.604650
O O2 0.583168 0.480205 0.838652
O O3 0.732839 0.576353 0.787849
O O4 0.037004 0.906206 0.955778
O O5 0.939235 0.099053 0.489813
O O6 0.000000 0.000000 0.000000
O O7 0.524357 0.272136 0.507693
O O8 0.500000 0.000000 0.000000
O O9 0.141687 0.898259 0.959547
O O10 0.000000 0.500000 0.000000
O O11 0.325198 0.044724 0.973412
O O12 0.368733 0.602114 0.682549
O O13 0.483542 0.941894 0.701433
O O14 0.194122 0.518456 0.187361
O O15 0.000000 0.000000 0.500000
#
# Coordination Sequence:
#
# PCOD9029750 Si02
#       7
#     1   2   2   2   2   2   2
#     4  12  24  42  66  94 138 174 222 284 338 398
#     4  10  23  43  66  93 131 179 223 268 343 409
#     4  11  23  43  68  96 137 178 222 286 339 398
#     4  11  21  40  66  99 133 167 223 283 331 401
#     4  11  23  41  66 102 128 174 226 279 331 411
#     4  10  22  42  68  92 131 176 226 265 344 405
#     4   9  20  40  63  88 127 173 208 270 326 395
#
# _framework density 23.320150000000002
#
# number of rings (size 3 to 8) (size 9 to 14) (size 15 to 20)
#    0.000    1.538    4.615    0.000    0.000    4.308 
#    2.769    0.769    0.000    0.000    0.000    0.000 
#    0.000    0.000    0.000    0.000    0.000    0.000 
#
# Total GULP energy -72371.699920 kJ/mol
# GULP energy per Si atom -5567.053840 kJ/mol
# Density = 2.326707 g / cm^3
# Si number density = 23.320150 Si / 1000 Ang^3
#
#
#
# Elastic Constant Matrix: (Units=GPa)
#
#
# Indices 1 2 3 4 5 6 
#
# 1 138.5433 40.0170 43.2755 12.2940 -26.5456 -37.6929
# 2 40.0170 80.5077 40.3894 -10.1192 -11.8318 -30.2041
# 3 43.2755 40.3894 106.6713 -10.0170 -27.6693 -31.9353
# 4 12.2940 -10.1192 -10.0170 41.5310 -13.3661 -6.0728
# 5 -26.5456 -11.8318 -27.6693 -13.3661 37.5311 9.6841
# 6 -37.6929 -30.2041 -31.9353 -6.0728 9.6841 37.1810
#
#
#
# Elastic Compliance Matrix: (Units=1/GPa)
#
#
# Indices 1 2 3 4 5 6 
#
# 1 0.010983 -0.001746 -0.000307 -0.001117 0.004504 0.008096
# 2 -0.001746 0.021082 -0.000890 0.008941 0.004071 0.014991
# 3 -0.000307 -0.000890 0.018032 0.010328 0.013196 0.012703
# 4 -0.001117 0.008941 0.010328 0.037506 0.018813 0.016227
# 5 0.004504 0.004071 0.013196 0.018813 0.044805 0.010611
# 6 0.008096 0.014991 0.012703 0.016227 0.010611 0.058079
#
#
# Mechanical properties :
#
#
# Convention : Reuss Voigt Hill
#
# Bulk Modulus (GPa) = 22.61918 63.67621 43.14769
# Shear Modulus (GPa) = 23.68412 36.71797 30.20105
#
# Velocity S-wave (km/s) = 3.19032 3.97232 3.60260
# Velocity P-wave (km/s) = 4.82611 6.95727 5.98728
#
# Compressibility (1/GPa) = 0.04421027
#
# Stress axis : x y z
#
# Youngs Moduli (GPa) = 91.04775 47.43342 55.45611
#
# Poissons Ratio (x) = 0.08282 0.01704
# Poissons Ratio (y) = 0.15897 0.04938
# Poissons Ratio (z) = 0.02798 0.04224
#
# Static dielectric constant tensor:
#      x y z
#    x 1.939420 0.006470 -0.001330 
#    y 0.006470 1.871480 0.000110 
#    z -0.001330 0.000110 1.877220 
# 
# From -- ./inp_files/168369.got.cif
#   From: 2010.05.17/outbox.cif.g08.bks.cpg/sg2_85_cif.got.tgz:168369.got - 2010.06.03 11:33:40.
