data_PCOD9029681
_publ_section_title
;
Structure prediction by ZEFSAII (Michael W. Deem and Ramdas Pophale) SiO2 
 PCOD9029681
Probable space group: P -1
;
_chemical_formula_sum "Si O2"
_cell_formula_units_Z 16
_cell_length_a 9.817071
_cell_length_b 12.970480
_cell_length_c 11.336053
_cell_angle_alpha 104.877774
_cell_angle_beta 39.470397
_cell_angle_gamma 127.586578
_cell_volume 658.164818
_symmetry_space_group_name_H-M "P -1"
_symmetry_group_IT_number 2
_symmetry_cell_setting 'triclinic'
loop_
_space_group_symop_operation_xyz
x,y,z
-x,-y,-z
loop_
_atom_site_type_symbol
_atom_site_label
_atom_site_fract_x
_atom_site_fract_y
_atom_site_fract_z
Si Si1 0.177394 0.161224 0.640908
Si Si2 0.670438 0.353302 0.671025
Si Si3 0.659126 0.332482 0.940403
Si Si4 0.296542 0.529340 0.682318
Si Si5 0.631283 0.935912 0.341314
Si Si6 0.705374 0.560366 0.084076
Si Si7 0.177533 0.855804 0.917672
Si Si8 0.362033 0.045450 0.189901
O O1 0.497406 0.302919 0.434974
O O2 0.176736 0.052439 0.682431
O O3 0.977082 0.084890 0.637754
O O4 0.024362 0.192378 0.845693
O O5 0.603820 0.289039 0.828317
O O6 0.589197 0.230553 0.601206
O O7 0.494697 0.401681 0.767787
O O8 0.000000 0.500000 0.500000
O O9 0.994071 0.428255 0.785303
O O10 0.600412 0.438699 0.025618
O O11 0.467901 0.192689 0.109163
O O12 0.500000 0.500000 0.500000
O O13 0.262358 0.498524 0.835245
O O14 0.500000 0.000000 0.500000
O O15 0.800102 0.031011 0.140553
O O16 0.021763 0.715381 0.901534
O O17 0.489389 0.924863 0.775800
O O18 0.500000 0.000000 0.000000
#
# Coordination Sequence:
#
# PCOD9029681 Si02
#       8
#     2   2   2   2   2   2   2   2
#     4  11  23  44  73 103 140 188 236 296 364 432
#     4  12  27  48  70 106 145 189 244 306 367 432
#     4  12  26  44  73 104 146 191 248 296 363 439
#     4  12  22  45  71 106 144 190 240 295 365 433
#     4  12  28  46  74 104 144 194 240 300 370 442
#     4  12  26  44  75 105 142 196 242 299 364 442
#     4  11  23  44  73 100 143 186 243 292 368 432
#     4  10  22  42  68 104 132 183 234 293 355 426
#
# _framework density 24.310017999999999
#
# number of rings (size 3 to 8) (size 9 to 14) (size 15 to 20)
#    0.000    0.500    3.750    4.875    5.250    2.000 
#    0.000    1.250    0.000    0.000    0.000    0.000 
#    0.000    0.000    0.000    0.000    0.000    0.000 
#
# Total GULP energy -89601.063801 kJ/mol
# GULP energy per Si atom -5600.066488 kJ/mol
# Density = 2.425469 g / cm^3
# Si number density = 24.310018 Si / 1000 Ang^3
#
#
#
# Elastic Constant Matrix: (Units=GPa)
#
#
# Indices 1 2 3 4 5 6 
#
# 1 132.9413 26.3603 28.4281 -8.5171 -3.1605 -6.2789
# 2 26.3603 139.9428 31.1650 2.9506 -14.5980 -1.7149
# 3 28.4281 31.1650 53.1875 -15.1189 -4.2244 -3.4133
# 4 -8.5171 2.9506 -15.1189 47.8763 -3.7447 2.0984
# 5 -3.1605 -14.5980 -4.2244 -3.7447 36.0437 -6.2115
# 6 -6.2789 -1.7149 -3.4133 2.0984 -6.2115 37.9537
#
#
#
# Elastic Compliance Matrix: (Units=1/GPa)
#
#
# Indices 1 2 3 4 5 6 
#
# 1 0.008592 -0.000693 -0.004026 0.000270 0.000210 0.001047
# 2 -0.000693 0.008746 -0.005103 -0.002077 0.002734 0.000384
# 3 -0.004026 -0.005103 0.026449 0.008029 0.001742 0.001323
# 4 0.000270 -0.002077 0.008029 0.023809 0.002558 -0.000225
# 5 0.000210 0.002734 0.001742 0.002558 0.030222 0.005120
# 6 0.001047 0.000384 0.001323 -0.000225 0.005120 0.027508
#
#
# Mechanical properties :
#
#
# Convention : Reuss Voigt Hill
#
# Bulk Modulus (GPa) = 41.41834 55.33096 48.37465
# Shear Modulus (GPa) = 32.67605 40.38262 36.52934
#
# Velocity S-wave (km/s) = 3.67023 4.08014 3.88060
# Velocity P-wave (km/s) = 5.91906 6.70871 6.32622
#
# Compressibility (1/GPa) = 0.02414389
#
# Stress axis : x y z
#
# Youngs Moduli (GPa) = 116.38549 114.33211 37.80896
#
# Poissons Ratio (x) = 0.07923 0.15220
# Poissons Ratio (y) = 0.08065 0.19294
# Poissons Ratio (z) = 0.46852 0.58345
#
# Static dielectric constant tensor:
#      x y z
#    x 1.909620 0.014140 0.016870 
#    y 0.014140 2.122230 0.146660 
#    z 0.016870 0.146660 2.055150 
# 
# From -- ./inp_files/392559.got.cif
#   From: 2010.05.17/outbox.cif.g08.bks.cpg/sg2_197_cif.got.tgz:392559.got - 2010.06.03 11:33:40.
