data_PCOD9029870
_publ_section_title
;
Structure prediction by ZEFSAII (Michael W. Deem and Ramdas Pophale) SiO2 
 PCOD9029870
Probable space group: P -1
;
_chemical_formula_sum "Si O2"
_cell_formula_units_Z 16
_cell_length_a 15.721427
_cell_length_b 8.723097
_cell_length_c 21.922363
_cell_angle_alpha 122.134934
_cell_angle_beta 18.819340
_cell_angle_gamma 112.775322
_cell_volume 743.012488
_symmetry_space_group_name_H-M "P -1"
_symmetry_group_IT_number 2
_symmetry_cell_setting 'triclinic'
loop_
_space_group_symop_operation_xyz
x,y,z
-x,-y,-z
loop_
_atom_site_type_symbol
_atom_site_label
_atom_site_fract_x
_atom_site_fract_y
_atom_site_fract_z
Si Si1 0.123741 0.776683 0.340078
Si Si2 0.790883 0.385707 0.623481
Si Si3 0.618599 0.833801 0.436222
Si Si4 0.815018 0.443998 0.164396
Si Si5 0.256123 0.069733 0.847594
Si Si6 0.508040 0.810100 0.731713
Si Si7 0.767095 0.047293 0.810129
Si Si8 0.737350 0.264329 0.998657
O O1 0.855108 0.734632 0.487563
O O2 0.268845 0.634220 0.268725
O O3 0.000000 0.000000 0.500000
O O4 0.303364 0.799488 0.165885
O O5 0.000000 0.500000 0.500000
O O6 0.964578 0.161916 0.432931
O O7 0.508381 0.517126 0.803974
O O8 0.579568 0.637471 0.400673
O O9 0.964686 0.746544 0.181330
O O10 0.500000 0.000000 0.500000
O O11 0.485615 0.941599 0.612770
O O12 0.631153 0.331227 0.234571
O O13 0.000000 0.500000 0.000000
O O14 0.073161 0.300069 0.003494
O O15 0.395396 0.005374 0.806062
O O16 0.000000 0.000000 0.000000
O O17 0.389259 0.838848 0.887525
O O18 0.824401 0.146123 0.851635
O O19 0.500000 0.000000 0.000000
#
# Coordination Sequence:
#
# PCOD9029870 Si02
#       8
#     2   2   2   2   2   2   2   2
#     4  10  22  42  68  97 138 181 225 289 354 412
#     4  11  22  44  69 100 140 180 229 292 347 421
#     4  12  24  43  69 103 135 184 237 292 355 426
#     4  11  22  43  72 100 137 184 234 292 353 415
#     4  10  23  43  67  99 140 179 235 298 351 416
#     4  11  22  42  66  98 143 183 227 288 355 421
#     4  11  23  43  70 100 134 185 233 289 354 416
#     4  12  24  41  68  99 138 179 236 277 355 416
#
# _framework density 21.533957000000001
#
# number of rings (size 3 to 8) (size 9 to 14) (size 15 to 20)
#    0.000    1.000    5.000    2.250    0.000    6.500 
#    0.000    1.250    0.000    0.000    0.000    0.000 
#    0.000    0.000    0.000    0.000    0.000    0.000 
#
# Total GULP energy -89319.823104 kJ/mol
# GULP energy per Si atom -5582.488944 kJ/mol
# Density = 2.148494 g / cm^3
# Si number density = 21.533957 Si / 1000 Ang^3
#
#
#
# Elastic Constant Matrix: (Units=GPa)
#
#
# Indices 1 2 3 4 5 6 
#
# 1 114.5403 33.6658 37.6380 7.0453 7.9236 -43.7962
# 2 33.6658 82.0964 33.7140 4.6806 8.5269 -26.8907
# 3 37.6380 33.7140 104.7084 8.4135 -5.2182 -19.2745
# 4 7.0453 4.6806 8.4135 51.1762 3.4532 0.1054
# 5 7.9236 8.5269 -5.2182 3.4532 43.9024 -3.1315
# 6 -43.7962 -26.8907 -19.2745 0.1054 -3.1315 53.5187
#
#
#
# Elastic Compliance Matrix: (Units=1/GPa)
#
#
# Indices 1 2 3 4 5 6 
#
# 1 0.013899 -0.001091 -0.002853 -0.001240 -0.001847 0.009693
# 2 -0.001091 0.016496 -0.003962 -0.000515 -0.003024 0.005793
# 3 -0.002853 -0.003962 0.012150 -0.001436 0.002857 0.000220
# 4 -0.001240 -0.000515 -0.001436 0.020104 -0.001565 -0.001922
# 5 -0.001847 -0.003024 0.002857 -0.001565 0.024119 -0.000588
# 6 0.009693 0.005793 0.000220 -0.001922 -0.000588 0.029577
#
#
# Mechanical properties :
#
#
# Convention : Reuss Voigt Hill
#
# Bulk Modulus (GPa) = 37.40684 56.82006 47.11345
# Shear Modulus (GPa) = 35.44400 42.80795 39.12597
#
# Velocity S-wave (km/s) = 4.06144 4.46346 4.26719
# Velocity P-wave (km/s) = 6.27715 7.28058 6.79740
#
# Compressibility (1/GPa) = 0.02673308
#
# Stress axis : x y z
#
# Youngs Moduli (GPa) = 71.94856 60.61970 82.30492
#
# Poissons Ratio (x) = 0.06611 0.23482
# Poissons Ratio (y) = 0.07846 0.32613
# Poissons Ratio (z) = 0.20527 0.24020
#
# Static dielectric constant tensor:
#      x y z
#    x -53.055690 -11.468530 6.129460 
#    y -11.468530 -0.575250 1.273580 
#    z 6.129460 1.273580 1.053670 
# 
# From -- ./inp_files/343024.got.cif
#   From: 2010.05.17/outbox.cif.g08.bks.cpg/sg2_172_cif.got.tgz:343024.got - 2010.06.03 11:33:40.
