data_PCOD9029710
_publ_section_title
;
Structure prediction by ZEFSAII (Michael W. Deem and Ramdas Pophale) SiO2 
 PCOD9029710
Probable space group: P -1
;
_chemical_formula_sum "Si O2"
_cell_formula_units_Z 13
_cell_length_a 6.675315
_cell_length_b 10.453826
_cell_length_c 14.252020
_cell_angle_alpha 134.461910
_cell_angle_beta 79.775399
_cell_angle_gamma 127.786993
_cell_volume 502.032888
_symmetry_space_group_name_H-M "P -1"
_symmetry_group_IT_number 2
_symmetry_cell_setting 'triclinic'
loop_
_space_group_symop_operation_xyz
x,y,z
-x,-y,-z
loop_
_atom_site_type_symbol
_atom_site_label
_atom_site_fract_x
_atom_site_fract_y
_atom_site_fract_z
Si Si1 0.337259 0.672235 0.271271
Si Si2 0.476196 0.390419 0.046075
Si Si3 0.130308 0.444234 0.624462
Si Si4 0.863046 0.202320 0.797174
Si Si5 0.000000 0.500000 0.500000
Si Si6 0.569464 0.731101 0.465159
Si Si7 0.478964 0.001679 0.889438
O O1 0.318201 0.446726 0.147231
O O2 0.339073 0.774095 0.224499
O O3 0.575961 0.832412 0.414712
O O4 0.064740 0.597767 0.301040
O O5 0.808995 0.568388 0.132633
O O6 0.500000 0.500000 0.000000
O O7 0.353334 0.118094 0.932840
O O8 0.968800 0.300510 0.469052
O O9 0.334783 0.414843 0.624756
O O10 0.291813 0.724779 0.717589
O O11 0.777972 0.159894 0.891796
O O12 0.779433 0.963408 0.635849
O O13 0.261274 0.563803 0.449450
O O14 0.500000 0.000000 0.000000
#
# Coordination Sequence:
#
# PCOD9029710 Si02
#       7
#     2   2   2   2   1   2   2
#     4  11  25  47  74 108 146 196 248 304 371 446
#     4  12  28  50  74 106 149 203 251 301 364 442
#     4  11  25  46  73 108 150 190 245 310 371 437
#     4  12  26  47  75 106 152 191 245 312 369 439
#     4  10  22  42  68 108 146 184 238 296 374 438
#     4  11  24  46  76 111 148 189 245 307 380 435
#     4  12  26  47  74 105 146 196 244 305 366 433
#
# _framework density 25.894718000000001
#
# number of rings (size 3 to 8) (size 9 to 14) (size 15 to 20)
#    0.000    0.615    3.077    4.154    2.154    6.769 
#    2.769    0.000    0.000    0.000    0.000    0.000 
#    0.000    0.000    0.000    0.000    0.000    0.000 
#
# Total GULP energy -72508.642511 kJ/mol
# GULP energy per Si atom -5577.587885 kJ/mol
# Density = 2.583578 g / cm^3
# Si number density = 25.894718 Si / 1000 Ang^3
#
#
#
# Elastic Constant Matrix: (Units=GPa)
#
#
# Indices 1 2 3 4 5 6 
#
# 1 161.3030 53.4236 50.2974 3.6911 -27.1389 -22.2267
# 2 53.4236 104.7337 32.1243 -24.4068 -11.6131 -28.6678
# 3 50.2974 32.1243 85.7831 8.0619 -27.3601 -10.1997
# 4 3.6911 -24.4068 8.0619 53.0511 -11.2862 8.6707
# 5 -27.1389 -11.6131 -27.3601 -11.2862 44.6521 0.5052
# 6 -22.2267 -28.6678 -10.1997 8.6707 0.5052 46.4945
#
#
#
# Elastic Compliance Matrix: (Units=1/GPa)
#
#
# Indices 1 2 3 4 5 6 
#
# 1 0.008846 -0.003188 -0.002867 -0.001442 0.002405 0.001877
# 2 -0.003188 0.015833 -0.003434 0.007436 0.001886 0.006078
# 3 -0.002867 -0.003434 0.017275 -0.002569 0.007292 0.000701
# 4 -0.001442 0.007436 -0.002569 0.024155 0.005603 -0.001233
# 5 0.002405 0.001886 0.007292 0.005603 0.030203 0.002539
# 6 0.001877 0.006078 0.000701 -0.001233 0.002539 0.026509
#
#
# Mechanical properties :
#
#
# Convention : Reuss Voigt Hill
#
# Bulk Modulus (GPa) = 43.52609 69.27893 56.40251
# Shear Modulus (GPa) = 33.45405 43.23784 38.34594
#
# Velocity S-wave (km/s) = 3.59824 4.09070 3.85234
# Velocity P-wave (km/s) = 5.84024 7.00884 6.45106
#
# Compressibility (1/GPa) = 0.02297472
#
# Stress axis : x y z
#
# Youngs Moduli (GPa) = 113.05036 63.15728 57.88713
#
# Poissons Ratio (x) = 0.20137 0.16596
# Poissons Ratio (y) = 0.36045 0.19881
# Poissons Ratio (z) = 0.32410 0.21691
#
# Static dielectric constant tensor:
#      x y z
#    x 1.933590 -0.033630 -0.089010 
#    y -0.033630 2.108400 0.045980 
#    z -0.089010 0.045980 1.847520 
# 
# From -- ./inp_files/36546.got.cif
#   From: 2010.05.17/outbox.cif.g08.bks.cpg/sg2_19_cif.got.tgz:36546.got - 2010.06.03 11:33:40.
