data_PCOD9029998
_publ_section_title
;
Structure prediction by ZEFSAII (Michael W. Deem and Ramdas Pophale) SiO2 
 PCOD9029998
Probable space group: P -1
;
_chemical_formula_sum "Si O2"
_cell_formula_units_Z 16
_cell_length_a 17.976447
_cell_length_b 17.275664
_cell_length_c 5.512101
_cell_angle_alpha 118.370500
_cell_angle_beta 60.692027
_cell_angle_gamma 152.407658
_cell_volume 687.754356
_symmetry_space_group_name_H-M "P -1"
_symmetry_group_IT_number 2
_symmetry_cell_setting 'triclinic'
loop_
_space_group_symop_operation_xyz
x,y,z
-x,-y,-z
loop_
_atom_site_type_symbol
_atom_site_label
_atom_site_fract_x
_atom_site_fract_y
_atom_site_fract_z
Si Si1 0.588719 0.821145 0.683450
Si Si2 0.101350 0.336370 0.736726
Si Si3 0.198924 0.677720 0.474670
Si Si4 0.439494 0.401869 0.699339
Si Si5 0.310591 0.687203 0.813981
Si Si6 0.908931 0.096829 0.315112
Si Si7 0.233334 0.906916 0.855391
Si Si8 0.081748 0.139277 0.760985
O O1 0.511791 0.658245 0.506280
O O2 0.496543 0.817752 0.681643
O O3 0.773983 0.961927 0.528130
O O4 0.621342 0.899991 0.004647
O O5 0.227314 0.524791 0.805772
O O6 0.123842 0.272324 0.777237
O O7 0.080799 0.275299 0.415811
O O8 0.925823 0.226588 0.913530
O O9 0.242647 0.658708 0.618714
O O10 0.267343 0.834688 0.662762
O O11 0.000000 0.500000 0.500000
O O12 0.275165 0.719048 0.150355
O O13 0.500000 0.500000 0.500000
O O14 0.245909 0.246550 0.769003
O O15 0.500000 0.500000 0.000000
O O16 0.839086 0.116100 0.305769
O O17 0.938563 0.038009 0.022289
O O18 0.000000 0.000000 0.500000
#
# Coordination Sequence:
#
# PCOD9029998 Si02
#       8
#     2   2   2   2   2   2   2   2
#     4  11  28  47  70 106 150 193 238 303 377 434
#     4  10  22  42  69 105 136 191 241 302 363 430
#     4  12  26  47  75 109 143 185 252 301 358 442
#     4  12  30  50  75 110 155 195 249 311 371 438
#     4  12  28  44  75 106 146 190 240 300 373 431
#     4  10  23  44  74  99 147 187 249 295 366 437
#     4  10  23  44  72 102 145 188 238 304 364 430
#     4  11  25  45  76 109 142 199 259 304 369 446
#
# _framework density 23.264119999999998
#
# number of rings (size 3 to 8) (size 9 to 14) (size 15 to 20)
#    0.000    1.000    1.250    4.125   14.000    2.000 
#    0.000    0.000    0.000    0.000    0.000    0.000 
#    0.000    0.000    0.000    0.000    0.000    0.000 
#
# Total GULP energy -89224.407589 kJ/mol
# GULP energy per Si atom -5576.525474 kJ/mol
# Density = 2.321117 g / cm^3
# Si number density = 23.264120 Si / 1000 Ang^3
#
#
#
# Elastic Constant Matrix: (Units=GPa)
#
#
# Indices 1 2 3 4 5 6 
#
# 1 136.3270 20.8376 51.5795 12.5813 -3.7908 12.7709
# 2 20.8376 48.9471 39.9783 14.2822 -5.7347 -0.4171
# 3 51.5795 39.9783 145.1419 19.7658 -8.7310 -6.4705
# 4 12.5813 14.2822 19.7658 29.9360 -0.3001 -7.8218
# 5 -3.7908 -5.7347 -8.7310 -0.3001 40.9596 2.9513
# 6 12.7709 -0.4171 -6.4705 -7.8218 2.9513 32.8730
#
#
#
# Elastic Compliance Matrix: (Units=1/GPa)
#
#
# Indices 1 2 3 4 5 6 
#
# 1 0.009285 -0.000721 -0.002893 -0.002930 0.000475 -0.004926
# 2 -0.000721 0.029248 -0.006377 -0.010274 0.002831 -0.003303
# 3 -0.002893 -0.006377 0.010069 -0.001717 0.000790 0.002546
# 4 -0.002930 -0.010274 -0.001717 0.043591 -0.002569 0.011273
# 5 0.000475 0.002831 0.000790 -0.002569 0.025211 -0.002868
# 6 -0.004926 -0.003303 0.002546 0.011273 -0.002868 0.035733
#
#
# Mechanical properties :
#
#
# Convention : Reuss Voigt Hill
#
# Bulk Modulus (GPa) = 34.94202 61.68964 48.31583
# Shear Modulus (GPa) = 27.37325 35.28842 31.33084
#
# Velocity S-wave (km/s) = 3.43392 3.89891 3.67378
# Velocity P-wave (km/s) = 5.54750 6.84422 6.22969
#
# Compressibility (1/GPa) = 0.02861884
#
# Stress axis : x y z
#
# Youngs Moduli (GPa) = 107.69831 34.19066 99.31138
#
# Poissons Ratio (x) = 0.02466 0.28731
# Poissons Ratio (y) = 0.07768 0.63336
# Poissons Ratio (z) = 0.31157 0.21805
#
# Static dielectric constant tensor:
#      x y z
#    x 1.860730 -0.037270 -0.102070 
#    y -0.037270 1.967920 -0.065380 
#    z -0.102070 -0.065380 1.414780 
# 
# From -- ./inp_files/111699.got.cif
#   From: 2010.05.17/outbox.cif.g08.bks.cpg/sg2_56_cif.got.tgz:111699.got - 2010.06.03 11:33:40.
