data_PCOD9029282
_publ_section_title
;
Structure prediction by ZEFSAII (Michael W. Deem and Ramdas Pophale) SiO2 
 PCOD9029282
Probable space group: P -1
;
_chemical_formula_sum "Si O2"
_cell_formula_units_Z 16
_cell_length_a 19.709161
_cell_length_b 16.334100
_cell_length_c 11.048465
_cell_angle_alpha 146.418151
_cell_angle_beta 43.375009
_cell_angle_gamma 157.229808
_cell_volume 747.150826
_symmetry_space_group_name_H-M "P -1"
_symmetry_group_IT_number 2
_symmetry_cell_setting 'triclinic'
loop_
_space_group_symop_operation_xyz
x,y,z
-x,-y,-z
loop_
_atom_site_type_symbol
_atom_site_label
_atom_site_fract_x
_atom_site_fract_y
_atom_site_fract_z
Si Si1 0.266400 0.055124 0.263911
Si Si2 0.974567 0.476559 0.824556
Si Si3 0.655357 0.495074 0.648471
Si Si4 0.394888 0.255285 0.073849
Si Si5 0.751863 0.605663 0.942108
Si Si6 0.035314 0.880035 0.564553
Si Si7 0.984742 0.327125 0.237848
Si Si8 0.577966 0.958414 0.781620
O O1 0.144942 0.004325 0.448766
O O2 0.342500 0.205827 0.222605
O O3 0.422795 0.184655 0.304815
O O4 0.136867 0.756310 0.027936
O O5 0.999865 0.330870 0.600649
O O6 0.956463 0.552507 0.823123
O O7 0.783251 0.248810 0.851706
O O8 0.565565 0.538068 0.784196
O O9 0.700698 0.542761 0.789724
O O10 0.524036 0.206055 0.412128
O O11 0.841526 0.713272 0.602042
O O12 0.568297 0.370365 0.967862
O O13 0.220750 0.979063 0.887795
O O14 0.888999 0.643280 0.837161
O O15 0.851526 0.880196 0.193364
O O16 0.000000 0.500000 0.500000
O O17 0.500000 0.000000 0.000000
#
# Coordination Sequence:
#
# PCOD9029282 Si02
#       8
#     2   2   2   2   2   2   2   2
#     4  10  23  44  66 101 140 178 230 288 344 410
#     4  10  22  42  66  99 136 177 230 277 346 407
#     4  12  25  43  69 102 138 181 235 288 340 416
#     4  11  26  45  69 105 138 178 237 282 349 410
#     4  12  27  46  72 101 140 184 235 286 344 416
#     4  11  22  44  74  95 139 188 226 287 346 409
#     4  11  26  45  69 100 140 185 221 291 348 410
#     4  11  23  39  68  98 131 181 225 283 344 409
#
# _framework density 21.414686
#
# number of rings (size 3 to 8) (size 9 to 14) (size 15 to 20)
#    0.000    1.000    1.250    6.000    5.250    4.000 
#    0.000    0.000    0.000    0.000    0.000    0.000 
#    0.000    0.000    0.000    0.000    0.000    0.000 
#
# Total GULP energy -89401.567389 kJ/mol
# GULP energy per Si atom -5587.597962 kJ/mol
# Density = 2.136594 g / cm^3
# Si number density = 21.414686 Si / 1000 Ang^3
#
#
#
# Elastic Constant Matrix: (Units=GPa)
#
#
# Indices 1 2 3 4 5 6 
#
# 1 18.8228 62.2064 101.6663 29.3742 54.4135 38.1436
# 2 62.2064 55.8497 -10.2996 -19.7832 -18.0975 -8.6066
# 3 101.6663 -10.2996 83.1233 -22.7360 -19.0469 -33.0253
# 4 29.3742 -19.7832 -22.7360 16.3190 -12.1505 -17.5045
# 5 54.4135 -18.0975 -19.0469 -12.1505 15.1928 -26.3949
# 6 38.1436 -8.6066 -33.0253 -17.5045 -26.3949 12.2756
#
#
#
# Elastic Compliance Matrix: (Units=1/GPa)
#
#
# Indices 1 2 3 4 5 6 
#
# 1 0.004609 0.000354 0.000831 0.006498 0.005233 0.008680
# 2 0.000354 0.014152 -0.003187 -0.000341 -0.003987 -0.008811
# 3 0.000831 -0.003187 0.007109 -0.003269 -0.005952 -0.003152
# 4 0.006498 -0.000341 -0.003269 0.032275 -0.009951 -0.004598
# 5 0.005233 -0.003987 -0.005952 -0.009951 0.021445 -0.003146
# 6 0.008680 -0.008811 -0.003152 -0.004598 -0.003146 0.026515
#
#
# Mechanical properties :
#
#
# Convention : Reuss Voigt Hill
#
# Bulk Modulus (GPa) = 45.73034 51.66022 48.69528
# Shear Modulus (GPa) = 42.59062 9.03898 25.81480
#
# Velocity S-wave (km/s) = 4.46449 2.05672 3.47576
# Velocity P-wave (km/s) = 6.92651 5.46042 6.23670
#
# Compressibility (1/GPa) = 0.02186732
#
# Stress axis : x y z
#
# Youngs Moduli (GPa) = 216.95728 70.65924 140.67505
#
# Poissons Ratio (x) = -0.02504 -0.11695
# Poissons Ratio (y) = -0.07688 0.44835
# Poissons Ratio (z) = -0.18037 0.22520
#
# Static dielectric constant tensor:
#      x y z
#    x 1.579090 0.013710 -0.026510 
#    y 0.013710 1.756330 0.033330 
#    z -0.026510 0.033330 1.765720 
# 
# From -- ./inp_files/472492.got.cif
#   From: 2010.05.17/outbox.cif.g08.bks.cpg/sg2_237_cif.got.tgz:472492.got - 2010.06.03 11:33:40.
