data_PCOD9029755
_publ_section_title
;
Structure prediction by ZEFSAII (Michael W. Deem and Ramdas Pophale) SiO2 
 PCOD9029755
Probable space group: P -1
;
_chemical_formula_sum "Si O2"
_cell_formula_units_Z 16
_cell_length_a 9.994920
_cell_length_b 12.719593
_cell_length_c 11.375979
_cell_angle_alpha 80.450935
_cell_angle_beta 25.350057
_cell_angle_gamma 77.985082
_cell_volume 604.786914
_symmetry_space_group_name_H-M "P -1"
_symmetry_group_IT_number 2
_symmetry_cell_setting 'triclinic'
loop_
_space_group_symop_operation_xyz
x,y,z
-x,-y,-z
loop_
_atom_site_type_symbol
_atom_site_label
_atom_site_fract_x
_atom_site_fract_y
_atom_site_fract_z
Si Si1 0.182181 0.705185 0.395287
Si Si2 0.849333 0.031007 0.342263
Si Si3 0.669631 0.507954 0.103715
Si Si4 0.320073 0.157024 0.091733
Si Si5 0.169979 0.646142 0.779782
Si Si6 0.674350 0.774569 0.308532
Si Si7 0.440515 0.896615 0.839227
Si Si8 0.129835 0.695648 0.161472
O O1 0.360853 0.589759 0.308056
O O2 0.102226 0.706657 0.320385
O O3 0.877084 0.739297 0.708981
O O4 0.413080 0.798407 0.206448
O O5 0.538877 0.110433 0.535762
O O6 0.066575 0.099792 0.234175
O O7 0.716174 0.938404 0.540316
O O8 0.107211 0.969429 0.060935
O O9 0.665154 0.432104 0.235725
O O10 0.754741 0.425850 0.945064
O O11 0.946550 0.578711 0.898166
O O12 0.474365 0.089762 0.092996
O O13 0.430483 0.691412 0.487158
O O14 0.957668 0.746884 0.995571
O O15 0.817816 0.737182 0.327298
O O16 0.372210 0.774857 0.908264
#
# Coordination Sequence:
#
# PCOD9029755 Si02
#       8
#     2   2   2   2   2   2   2   2
#     4  11  23  41  66  95 126 165 208 249 312 381
#     4  12  23  41  69  92 121 166 211 258 314 368
#     4  10  22  42  68  93 127 167 207 252 312 372
#     4  11  23  42  66  95 128 155 205 271 311 360
#     4  10  23  41  66  98 126 158 206 263 311 363
#     4  11  24  43  65  94 127 161 208 261 312 365
#     4  11  24  41  62  94 127 164 209 253 312 373
#     4  10  25  43  61  91 134 168 205 257 304 367
#
# _framework density 26.4556
#
# number of rings (size 3 to 8) (size 9 to 14) (size 15 to 20)
#    0.000    1.250    0.000    5.625    0.000   13.500 
#    0.000    3.750    0.000    0.000    0.000    0.000 
#    0.000    0.000    0.000    0.000    0.000    0.000 
#
# Total GULP energy -89823.066645 kJ/mol
# GULP energy per Si atom -5613.941665 kJ/mol
# Density = 2.639539 g / cm^3
# Si number density = 26.455600 Si / 1000 Ang^3
#
#
#
# Elastic Constant Matrix: (Units=GPa)
#
#
# Indices 1 2 3 4 5 6 
#
# 1 82.0550 39.5146 30.7857 5.5497 -16.1541 -8.3671
# 2 39.5146 89.6343 30.1808 23.6034 -15.6617 -9.0524
# 3 30.7857 30.1808 107.7422 9.0600 -2.4640 -15.4149
# 4 5.5497 23.6034 9.0600 47.1431 -12.6194 -9.5594
# 5 -16.1541 -15.6617 -2.4640 -12.6194 40.1946 4.4321
# 6 -8.3671 -9.0524 -15.4149 -9.5594 4.4321 43.3278
#
#
#
# Elastic Compliance Matrix: (Units=1/GPa)
#
#
# Indices 1 2 3 4 5 6 
#
# 1 0.017409 -0.006486 -0.003169 0.003430 0.005231 0.001101
# 2 -0.006486 0.016859 -0.002288 -0.006827 0.001703 -0.000225
# 3 -0.003169 -0.002288 0.011259 -0.000569 -0.001984 0.002993
# 4 0.003430 -0.006827 -0.000569 0.026998 0.006685 0.004306
# 5 0.005231 0.001703 -0.001984 0.006685 0.029722 -0.000905
# 6 0.001101 -0.000225 0.002993 0.004306 -0.000905 0.025353
#
#
# Mechanical properties :
#
#
# Convention : Reuss Voigt Hill
#
# Bulk Modulus (GPa) = 46.20977 53.37706 49.79342
# Shear Modulus (GPa) = 31.50594 38.06313 34.78453
#
# Velocity S-wave (km/s) = 3.45468 3.79721 3.62999
# Velocity P-wave (km/s) = 5.78083 6.28052 6.03585
#
# Compressibility (1/GPa) = 0.02164044
#
# Stress axis : x y z
#
# Youngs Moduli (GPa) = 57.44055 59.31561 88.82109
#
# Poissons Ratio (x) = 0.38471 0.28146
# Poissons Ratio (y) = 0.37255 0.20326
# Poissons Ratio (z) = 0.18202 0.13574
#
# Static dielectric constant tensor:
#      x y z
#    x 2.064010 0.005020 -0.035120 
#    y 0.005020 2.077680 0.020030 
#    z -0.035120 0.020030 2.005960 
# 
# From -- ./inp_files/519663.got.cif
#   From: 2010.05.17/outbox.cif.g08.bks.cpg/sg2_260_cif.got.tgz:519663.got - 2010.06.03 11:33:40.
