data_PCOD9029751
_publ_section_title
;
Structure prediction by ZEFSAII (Michael W. Deem and Ramdas Pophale) SiO2 
 PCOD9029751
Probable space group: P -1
;
_chemical_formula_sum "Si O2"
_cell_formula_units_Z 16
_cell_length_a 9.770280
_cell_length_b 11.976654
_cell_length_c 11.459125
_cell_angle_alpha 51.068806
_cell_angle_beta 135.056647
_cell_angle_gamma 125.152908
_cell_volume 715.601773
_symmetry_space_group_name_H-M "P -1"
_symmetry_group_IT_number 2
_symmetry_cell_setting 'triclinic'
loop_
_space_group_symop_operation_xyz
x,y,z
-x,-y,-z
loop_
_atom_site_type_symbol
_atom_site_label
_atom_site_fract_x
_atom_site_fract_y
_atom_site_fract_z
Si Si1 0.516811 0.771404 0.178006
Si Si2 0.817254 0.264812 0.353571
Si Si3 0.264904 0.954368 0.024284
Si Si4 0.652398 0.859050 0.841765
Si Si5 0.781022 0.521266 0.880648
Si Si6 0.737558 0.565957 0.091896
Si Si7 0.168066 0.230436 0.432809
Si Si8 0.148960 0.027373 0.341843
O O1 0.595735 0.900675 0.048011
O O2 0.397208 0.624008 0.140944
O O3 0.701218 0.760052 0.378302
O O4 0.359483 0.820321 0.136806
O O5 0.581729 0.199929 0.235094
O O6 0.840042 0.437891 0.285743
O O7 0.951335 0.249052 0.331760
O O8 0.871558 0.148317 0.553430
O O9 0.264437 0.991446 0.135229
O O10 0.050643 0.934823 0.850932
O O11 0.683520 0.892198 0.701106
O O12 0.765399 0.735234 0.037277
O O13 0.740736 0.636361 0.686226
O O14 0.789062 0.579072 0.978183
O O15 0.000000 0.500000 0.000000
O O16 0.500000 0.500000 0.000000
O O17 0.170378 0.087180 0.448930
#
# Coordination Sequence:
#
# PCOD9029751 Si02
#       8
#     2   2   2   2   2   2   2   2
#     4  11  25  42  67 103 135 170 225 280 336 394
#     4  11  23  40  68  99 131 179 221 275 334 394
#     4  11  25  42  69  98 134 179 222 279 334 399
#     4  11  24  44  67  96 136 180 229 269 335 396
#     4  12  23  42  71  98 131 175 226 279 333 397
#     4  10  22  42  68  92 131 180 221 266 333 400
#     4  12  24  42  68 101 136 177 222 279 335 398
#     4  12  24  43  70 101 137 176 226 277 336 397
#
# _framework density 22.358803999999999
#
# number of rings (size 3 to 8) (size 9 to 14) (size 15 to 20)
#    0.000    0.750    3.750    4.500    3.500    0.000 
#    0.000    0.625    2.750    0.000    0.000    0.000 
#    0.000    0.000    0.000    0.000    0.000    0.000 
#
# Total GULP energy -89426.102635 kJ/mol
# GULP energy per Si atom -5589.131415 kJ/mol
# Density = 2.230791 g / cm^3
# Si number density = 22.358804 Si / 1000 Ang^3
#
#
#
# Elastic Constant Matrix: (Units=GPa)
#
#
# Indices 1 2 3 4 5 6 
#
# 1 90.5147 6.5705 21.3992 0.3355 11.8089 3.1285
# 2 6.5705 37.8729 5.5355 -2.1921 9.5753 0.5833
# 3 21.3992 5.5355 66.0650 -14.9101 13.5287 1.0944
# 4 0.3355 -2.1921 -14.9101 41.1244 1.1132 -0.5280
# 5 11.8089 9.5753 13.5287 1.1132 27.7713 -8.0365
# 6 3.1285 0.5833 1.0944 -0.5280 -8.0365 29.6692
#
#
#
# Elastic Compliance Matrix: (Units=1/GPa)
#
#
# Indices 1 2 3 4 5 6 
#
# 1 0.012518 -0.000693 -0.003428 -0.001303 -0.004025 -0.002293
# 2 -0.000693 0.029457 0.000580 0.002045 -0.011250 -0.003538
# 3 -0.003428 0.000580 0.019893 0.007494 -0.009555 -0.002839
# 4 -0.001303 0.002045 0.007494 0.027280 -0.005216 -0.001107
# 5 -0.004025 -0.011250 -0.009555 -0.005216 0.050699 0.014638
# 6 -0.002293 -0.003538 -0.002839 -0.001107 0.014638 0.038066
#
#
# Mechanical properties :
#
#
# Convention : Reuss Voigt Hill
#
# Bulk Modulus (GPa) = 18.25271 29.05143 23.65207
# Shear Modulus (GPa) = 24.59933 30.44281 27.52107
#
# Velocity S-wave (km/s) = 3.32054 3.69393 3.51220
# Velocity P-wave (km/s) = 4.78357 5.58704 5.20084
#
# Compressibility (1/GPa) = 0.05478637
#
# Stress axis : x y z
#
# Youngs Moduli (GPa) = 79.88495 33.94798 50.26796
#
# Poissons Ratio (x) = 0.02353 0.17234
# Poissons Ratio (y) = 0.05536 -0.02918
# Poissons Ratio (z) = 0.27387 -0.01970
#
# Static dielectric constant tensor:
#      x y z
#    x 1.724850 0.004000 -0.031440 
#    y 0.004000 1.826160 -0.047370 
#    z -0.031440 -0.047370 1.796650 
# 
# From -- ./inp_files/328841.got.cif
#   From: 2010.05.17/outbox.cif.g08.bks.cpg/sg2_165_cif.got.tgz:328841.got - 2010.06.03 11:33:40.
