data_PCOD9029665
_publ_section_title
;
Structure prediction by ZEFSAII (Michael W. Deem and Ramdas Pophale) SiO2 
 PCOD9029665
Probable space group: P -1
;
_chemical_formula_sum "Si O2"
_cell_formula_units_Z 16
_cell_length_a 10.044994
_cell_length_b 10.495061
_cell_length_c 13.085932
_cell_angle_alpha 147.985605
_cell_angle_beta 82.154550
_cell_angle_gamma 103.769510
_cell_volume 704.590628
_symmetry_space_group_name_H-M "P -1"
_symmetry_group_IT_number 2
_symmetry_cell_setting 'triclinic'
loop_
_space_group_symop_operation_xyz
x,y,z
-x,-y,-z
loop_
_atom_site_type_symbol
_atom_site_label
_atom_site_fract_x
_atom_site_fract_y
_atom_site_fract_z
Si Si1 0.641725 0.205171 0.150550
Si Si2 0.523693 0.632396 0.375434
Si Si3 0.607892 0.588775 0.960351
Si Si4 0.817488 0.142949 0.896467
Si Si5 0.279299 0.868119 0.312635
Si Si6 0.024572 0.881230 0.596717
Si Si7 0.283833 0.834465 0.649979
Si Si8 0.955851 0.702527 0.266568
O O1 0.608585 0.475758 0.326134
O O2 0.703749 0.202493 0.255370
O O3 0.748573 0.147570 0.016079
O O4 0.500000 0.000000 0.000000
O O5 0.465161 0.444311 0.163264
O O6 0.398564 0.715122 0.502186
O O7 0.623419 0.879706 0.485868
O O8 0.694104 0.379908 0.812282
O O9 0.500000 0.500000 0.000000
O O10 0.679923 0.869191 0.163160
O O11 0.701243 0.103599 0.792966
O O12 0.917366 0.958664 0.739658
O O13 0.907554 0.418343 0.052801
O O14 0.117165 0.825721 0.317565
O O15 0.104080 0.131499 0.696235
O O16 0.134541 0.757293 0.557702
O O17 0.940802 0.721461 0.403760
#
# Coordination Sequence:
#
# PCOD9029665 Si02
#       8
#     2   2   2   2   2   2   2   2
#     4  12  27  50  70  95 137 193 239 282 338 406
#     4  12  26  44  70 103 142 183 231 285 346 411
#     4  12  23  39  66 105 147 170 221 285 358 411
#     4  11  24  45  70  96 139 184 229 281 344 412
#     4  11  22  41  72 106 140 181 223 287 356 412
#     4  10  23  41  70 101 136 175 226 283 350 408
#     4  12  25  46  69 103 142 186 232 286 335 415
#     4  10  22  42  68 102 141 175 225 284 349 421
#
# _framework density 22.708223
#
# number of rings (size 3 to 8) (size 9 to 14) (size 15 to 20)
#    0.000    0.750    2.500    6.000    7.000    0.500 
#    0.000    0.625    0.000    0.000    0.000    0.000 
#    0.000    0.000    0.000    0.000    0.000    0.000 
#
# Total GULP energy -89406.908089 kJ/mol
# GULP energy per Si atom -5587.931756 kJ/mol
# Density = 2.265654 g / cm^3
# Si number density = 22.708223 Si / 1000 Ang^3
#
#
#
# Elastic Constant Matrix: (Units=GPa)
#
#
# Indices 1 2 3 4 5 6 
#
# 1 90.2980 46.1185 25.9797 -12.8713 -17.3216 -16.9338
# 2 46.1185 93.3133 18.6768 -21.6924 -24.0924 -20.4791
# 3 25.9797 18.6768 90.1466 -5.6058 -9.7639 1.2294
# 4 -12.8713 -21.6924 -5.6058 36.9445 -4.1596 -6.5734
# 5 -17.3216 -24.0924 -9.7639 -4.1596 27.2391 -0.5636
# 6 -16.9338 -20.4791 1.2294 -6.5734 -0.5636 42.6369
#
#
#
# Elastic Compliance Matrix: (Units=1/GPa)
#
#
# Indices 1 2 3 4 5 6 
#
# 1 0.017093 -0.002929 -0.003160 0.005829 0.008170 0.006480
# 2 -0.002929 0.026731 -0.000970 0.020010 0.024801 0.015117
# 3 -0.003160 -0.000970 0.012400 0.000019 0.001538 -0.002055
# 4 0.005829 0.020010 0.000019 0.047622 0.029090 0.019652
# 5 0.008170 0.024801 0.001538 0.029090 0.069262 0.020514
# 6 0.006480 0.015117 -0.002055 0.019652 0.020514 0.036648
#
#
# Mechanical properties :
#
#
# Convention : Reuss Voigt Hill
#
# Bulk Modulus (GPa) = 23.74909 50.58976 37.16942
# Shear Modulus (GPa) = 21.01640 33.56296 27.28968
#
# Velocity S-wave (km/s) = 3.04550 3.84866 3.47039
# Velocity P-wave (km/s) = 4.77994 6.48661 5.69754
#
# Compressibility (1/GPa) = 0.04210688
#
# Stress axis : x y z
#
# Youngs Moduli (GPa) = 58.50424 37.40992 80.64211
#
# Poissons Ratio (x) = 0.10956 0.25485
# Poissons Ratio (y) = 0.17134 0.07820
# Poissons Ratio (z) = 0.18489 0.03628
#
# Static dielectric constant tensor:
#      x y z
#    x 2.232610 -0.369330 -0.672470 
#    y -0.369330 2.236310 0.634840 
#    z -0.672470 0.634840 3.101780 
# 
# From -- ./inp_files/418595.got.cif
#   From: 2010.05.17/outbox.cif.g08.bks.cpg/sg2_210_cif.got.tgz:418595.got - 2010.06.03 11:33:40.
