data_PCOD9029106
_publ_section_title
;
Structure prediction by ZEFSAII (Michael W. Deem and Ramdas Pophale) SiO2 
 PCOD9029106
Probable space group: P -1
;
_chemical_formula_sum "Si O2"
_cell_formula_units_Z 14
_cell_length_a 15.817181
_cell_length_b 17.834522
_cell_length_c 7.568836
_cell_angle_alpha 41.231869
_cell_angle_beta 127.853811
_cell_angle_gamma 156.539459
_cell_volume 536.093874
_symmetry_space_group_name_H-M "P -1"
_symmetry_group_IT_number 2
_symmetry_cell_setting 'triclinic'
loop_
_space_group_symop_operation_xyz
x,y,z
-x,-y,-z
loop_
_atom_site_type_symbol
_atom_site_label
_atom_site_fract_x
_atom_site_fract_y
_atom_site_fract_z
Si Si1 0.693536 0.718726 0.112765
Si Si2 0.757943 0.466562 0.911936
Si Si3 0.527618 0.878313 0.317216
Si Si4 0.289152 0.006219 0.298419
Si Si5 0.818447 0.607896 0.340474
Si Si6 0.878775 0.332538 0.809815
Si Si7 0.201410 0.251623 0.401149
O O1 0.816444 0.742133 0.107023
O O2 0.432452 0.448832 0.246386
O O3 0.755178 0.751500 0.338517
O O4 0.739925 0.894119 0.832390
O O5 0.777281 0.527207 0.630930
O O6 0.831219 0.642743 0.813157
O O7 0.505126 0.205803 0.100319
O O8 0.919376 0.512640 0.078090
O O9 0.651789 0.017555 0.415954
O O10 0.396964 0.638566 0.598191
O O11 0.313461 0.758269 0.218971
O O12 0.716283 0.069494 0.072309
O O13 0.057964 0.776942 0.304796
O O14 0.000000 0.500000 0.500000
O O15 0.000000 0.000000 0.500000
#
# Coordination Sequence:
#
# PCOD9029106 Si02
#       7
#     2   2   2   2   2   2   2
#     4   9  21  37  59  97 136 170 205 259 314 378
#     4  10  22  42  66  92 131 172 208 270 326 369
#     4  11  26  42  69  97 123 170 223 265 321 390
#     4  11  22  43  64  96 136 168 213 261 314 389
#     4  11  24  42  65  98 134 168 214 262 318 384
#     4  11  23  47  69  90 128 167 217 278 327 373
#     4   9  19  36  63  95 130 169 217 254 309 390
#
# _framework density 26.114829
#
# number of rings (size 3 to 8) (size 9 to 14) (size 15 to 20)
#    0.000    1.714    2.857    1.286    2.000    4.571 
#    0.000    1.429    0.000    0.000    0.000    0.000 
#    0.000    0.000    0.000    0.000    0.000    0.000 
#
# Total GULP energy -78333.194477 kJ/mol
# GULP energy per Si atom -5595.228177 kJ/mol
# Density = 2.605539 g / cm^3
# Si number density = 26.114829 Si / 1000 Ang^3
#
#
#
# Elastic Constant Matrix: (Units=GPa)
#
#
# Indices 1 2 3 4 5 6 
#
# 1 55.4758 45.7034 17.4198 -7.6715 -8.0471 24.5784
# 2 45.7034 170.4259 48.2510 -26.5900 -11.5022 16.1082
# 3 17.4198 48.2510 115.5135 -13.3559 -25.0569 12.6402
# 4 -7.6715 -26.5900 -13.3559 63.8072 17.3982 -2.2481
# 5 -8.0471 -11.5022 -25.0569 17.3982 25.6066 -7.0506
# 6 24.5784 16.1082 12.6402 -2.2481 -7.0506 42.1907
#
#
#
# Elastic Compliance Matrix: (Units=1/GPa)
#
#
# Indices 1 2 3 4 5 6 
#
# 1 0.030366 -0.006745 0.000506 -0.000463 0.003263 -0.014746
# 2 -0.006745 0.008694 -0.003024 0.003009 -0.002889 0.001193
# 3 0.000506 -0.003024 0.012302 -0.001893 0.011865 -0.000944
# 4 -0.000463 0.003009 -0.001893 0.020521 -0.015067 -0.001736
# 5 0.003263 -0.002889 0.011865 -0.015067 0.062063 0.005217
# 6 -0.014746 0.001193 -0.000944 -0.001736 0.005217 0.032899
#
#
# Mechanical properties :
#
#
# Convention : Reuss Voigt Hill
#
# Bulk Modulus (GPa) = 30.45404 62.68487 46.56945
# Shear Modulus (GPa) = 25.46903 41.65697 33.56300
#
# Velocity S-wave (km/s) = 3.12632 3.99826 3.58887
# Velocity P-wave (km/s) = 4.97179 6.73576 5.91985
#
# Compressibility (1/GPa) = 0.03283637
#
# Stress axis : x y z
#
# Youngs Moduli (GPa) = 32.93147 115.01849 81.28820
#
# Poissons Ratio (x) = 0.77579 -0.04112
# Poissons Ratio (y) = 0.22212 0.24581
# Poissons Ratio (z) = -0.01666 0.34780
#
# Static dielectric constant tensor:
#      x y z
#    x 2.092930 -0.040920 0.110110 
#    y -0.040920 2.041510 -0.026970 
#    z 0.110110 -0.026970 2.093910 
# 
# From -- ./inp_files/337484.got.cif
#   From: 2010.05.17/outbox.cif.g08.bks.cpg/sg2_169_cif.got.tgz:337484.got - 2010.06.03 11:33:40.
