data_PCOD9029698
_publ_section_title
;
Structure prediction by ZEFSAII (Michael W. Deem and Ramdas Pophale) SiO2 
 PCOD9029698
Probable space group: P -1
;
_chemical_formula_sum "Si O2"
_cell_formula_units_Z 16
_cell_length_a 13.895218
_cell_length_b 14.153595
_cell_length_c 11.147940
_cell_angle_alpha 43.561249
_cell_angle_beta 118.697538
_cell_angle_gamma 149.404129
_cell_volume 701.633863
_symmetry_space_group_name_H-M "P -1"
_symmetry_group_IT_number 2
_symmetry_cell_setting 'triclinic'
loop_
_space_group_symop_operation_xyz
x,y,z
-x,-y,-z
loop_
_atom_site_type_symbol
_atom_site_label
_atom_site_fract_x
_atom_site_fract_y
_atom_site_fract_z
Si Si1 0.747636 0.267988 0.912910
Si Si2 0.001260 0.592030 0.535412
Si Si3 0.405554 0.187963 0.274026
Si Si4 0.726296 0.966165 0.288961
Si Si5 0.316759 0.510625 0.620197
Si Si6 0.862918 0.697102 0.653031
Si Si7 0.295305 0.374245 0.126675
Si Si8 0.157670 0.111769 0.755477
O O1 0.877872 0.388959 0.756932
O O2 0.793264 0.469231 0.797831
O O3 0.801084 0.199596 0.095667
O O4 0.500000 0.000000 0.000000
O O5 0.872946 0.593893 0.429409
O O6 0.000000 0.500000 0.500000
O O7 0.228893 0.886352 0.438970
O O8 0.592191 0.350467 0.325597
O O9 0.322581 0.243914 0.227788
O O10 0.510432 0.336421 0.074243
O O11 0.900974 0.071710 0.372118
O O12 0.509118 0.735426 0.438309
O O13 0.709914 0.869345 0.241359
O O14 0.244889 0.277002 0.773828
O O15 0.737535 0.629676 0.750024
O O16 0.845967 0.771618 0.455966
O O17 0.079599 0.188633 0.103453
#
# Coordination Sequence:
#
# PCOD9029698 Si02
#       8
#     2   2   2   2   2   2   2   2
#     4  12  24  44  64 100 141 181 238 295 344 416
#     4  12  28  49  70  99 148 190 236 291 355 426
#     4  11  25  45  68 101 145 192 231 286 363 423
#     4  11  23  38  71 105 135 183 237 289 361 411
#     4  12  23  44  72  98 141 186 235 289 352 429
#     4  11  22  41  74 101 145 177 236 303 353 415
#     4  10  22  42  68 105 142 182 234 298 351 418
#     4  11  21  42  69 108 137 178 236 300 356 411
#
# _framework density 22.803916000000001
#
# number of rings (size 3 to 8) (size 9 to 14) (size 15 to 20)
#    0.000    0.750    3.750    4.500    1.750    4.000 
#    2.250    0.000    0.000    0.000    0.000    0.000 
#    0.000    0.000    0.000    0.000    0.000    0.000 
#
# Total GULP energy -89572.854552 kJ/mol
# GULP energy per Si atom -5598.303409 kJ/mol
# Density = 2.275201 g / cm^3
# Si number density = 22.803916 Si / 1000 Ang^3
#
#
#
# Elastic Constant Matrix: (Units=GPa)
#
#
# Indices 1 2 3 4 5 6 
#
# 1 88.9688 3.5020 35.8602 -8.7915 -10.1574 -17.8226
# 2 3.5020 85.5968 18.2442 -14.8536 -8.9812 -12.7596
# 3 35.8602 18.2442 91.0516 -17.9220 -16.9220 0.7537
# 4 -8.7915 -14.8536 -17.9220 27.7375 2.5702 11.3373
# 5 -10.1574 -8.9812 -16.9220 2.5702 39.0436 -3.3266
# 6 -17.8226 -12.7596 0.7537 11.3373 -3.3266 24.0911
#
#
#
# Elastic Compliance Matrix: (Units=1/GPa)
#
#
# Indices 1 2 3 4 5 6 
#
# 1 0.018069 0.003190 -0.008377 -0.005947 0.003783 0.018640
# 2 0.003190 0.014412 -0.003068 0.002612 0.003439 0.009334
# 3 -0.008377 -0.003068 0.018084 0.012853 0.002911 -0.014035
# 4 -0.005947 0.002612 0.012853 0.056355 -0.001656 -0.030168
# 5 0.003783 0.003439 0.002911 -0.001656 0.029558 0.009390
# 6 0.018640 0.009334 -0.014035 -0.030168 0.009390 0.076176
#
#
# Mechanical properties :
#
#
# Convention : Reuss Voigt Hill
#
# Bulk Modulus (GPa) = 29.36510 42.31446 35.83978
# Shear Modulus (GPa) = 20.78859 32.04182 26.41521
#
# Velocity S-wave (km/s) = 3.02259 3.75254 3.40717
# Velocity P-wave (km/s) = 5.00865 6.11322 5.58829
#
# Compressibility (1/GPa) = 0.03405403
#
# Stress axis : x y z
#
# Youngs Moduli (GPa) = 55.34218 69.38839 55.29731
#
# Poissons Ratio (x) = -0.22134 0.46325
# Poissons Ratio (y) = -0.17654 0.16965
# Poissons Ratio (z) = 0.46363 0.21288
#
# Static dielectric constant tensor:
#      x y z
#    x 1.842760 0.001030 0.010590 
#    y 0.001030 1.919010 0.012730 
#    z 0.010590 0.012730 1.847400 
# 
# From -- ./inp_files/455497.got.cif
#   From: 2010.05.17/outbox.cif.g08.bks.cpg/sg2_228_cif.got.tgz:455497.got - 2010.06.03 11:33:40.
