data_PCOD9029215
_publ_section_title
;
Structure prediction by ZEFSAII (Michael W. Deem and Ramdas Pophale) SiO2 
 PCOD9029215
Probable space group: P -1
;
_chemical_formula_sum "Si O2"
_cell_formula_units_Z 16
_cell_length_a 7.469068
_cell_length_b 16.466459
_cell_length_c 10.847781
_cell_angle_alpha 132.915758
_cell_angle_beta 85.679842
_cell_angle_gamma 60.052184
_cell_volume 640.182145
_symmetry_space_group_name_H-M "P -1"
_symmetry_group_IT_number 2
_symmetry_cell_setting 'triclinic'
loop_
_space_group_symop_operation_xyz
x,y,z
-x,-y,-z
loop_
_atom_site_type_symbol
_atom_site_label
_atom_site_fract_x
_atom_site_fract_y
_atom_site_fract_z
Si Si1 0.909125 0.662325 0.265159
Si Si2 0.428541 0.469015 0.185522
Si Si3 0.765076 0.801315 0.809982
Si Si4 0.469074 0.972148 0.335396
Si Si5 0.863657 0.197225 0.309282
Si Si6 0.383277 0.833380 0.025166
Si Si7 0.314365 0.350011 0.525274
Si Si8 0.963169 0.331923 0.005594
O O1 0.690457 0.683846 0.365329
O O2 0.208656 0.513566 0.154660
O O3 0.783756 0.837895 0.499352
O O4 0.930753 0.651179 0.104322
O O5 0.282787 0.646354 0.430162
O O6 0.712037 0.377103 0.015383
O O7 0.538739 0.330897 0.138970
O O8 0.828496 0.683097 0.575026
O O9 0.004092 0.782259 0.778464
O O10 0.635726 0.779051 0.893035
O O11 0.500000 0.000000 0.000000
O O12 0.394711 0.881472 0.212219
O O13 0.500000 0.000000 0.500000
O O14 0.774882 0.856594 0.152740
O O15 0.608298 0.236059 0.332678
O O16 0.102838 0.008635 0.159777
O O17 0.147444 0.541062 0.746041
#
# Coordination Sequence:
#
# PCOD9029215 Si02
#       8
#     2   2   2   2   2   2   2   2
#     4  11  20  42  69  90 141 182 219 281 338 396
#     4  11  22  42  66 101 136 175 230 276 336 406
#     4  10  22  44  67  99 134 178 223 284 335 403
#     4  10  22  42  66  96 135 175 225 275 332 403
#     4  10  23  44  65 103 136 176 229 279 335 404
#     4  11  23  42  70  95 137 183 220 280 346 396
#     4  11  22  41  72  95 134 179 226 275 344 398
#     4  10  24  40  64 103 133 176 231 276 333 406
#
# _framework density 24.992885999999999
#
# number of rings (size 3 to 8) (size 9 to 14) (size 15 to 20)
#    0.000    1.500    2.500    2.250    1.750    3.500 
#    2.250    3.750    0.000    0.000    0.000    0.000 
#    0.000    0.000    0.000    0.000    0.000    0.000 
#
# Total GULP energy -89209.068952 kJ/mol
# GULP energy per Si atom -5575.566809 kJ/mol
# Density = 2.493600 g / cm^3
# Si number density = 24.992886 Si / 1000 Ang^3
#
#
#
# Elastic Constant Matrix: (Units=GPa)
#
#
# Indices 1 2 3 4 5 6 
#
# 1 117.7164 33.8062 31.2726 11.8697 -24.2925 0.5889
# 2 33.8062 73.3150 29.9384 21.3249 -7.7720 7.1347
# 3 31.2726 29.9384 123.8993 23.5941 -7.9037 -9.5135
# 4 11.8697 21.3249 23.5941 38.4838 0.7802 -8.1185
# 5 -24.2925 -7.7720 -7.9037 0.7802 41.5821 -3.6507
# 6 0.5889 7.1347 -9.5135 -8.1185 -3.6507 31.9868
#
#
#
# Elastic Compliance Matrix: (Units=1/GPa)
#
#
# Indices 1 2 3 4 5 6 
#
# 1 0.011194 -0.003987 -0.001376 -0.000339 0.005612 0.000829
# 2 -0.003987 0.020239 -0.002526 -0.010069 0.000487 -0.007692
# 3 -0.001376 -0.002526 0.010013 -0.003760 0.000937 0.002720
# 4 -0.000339 -0.010069 -0.003760 0.036139 -0.002594 0.010010
# 5 0.005612 0.000487 0.000937 -0.002594 0.027872 0.002589
# 6 0.000829 -0.007692 0.002720 0.010010 0.002589 0.036608
#
#
# Mechanical properties :
#
#
# Convention : Reuss Voigt Hill
#
# Bulk Modulus (GPa) = 38.95931 56.10721 47.53326
# Shear Modulus (GPa) = 30.04837 37.07144 33.55990
#
# Velocity S-wave (km/s) = 3.47115 3.85552 3.66837
# Velocity P-wave (km/s) = 5.62913 6.50523 6.08297
#
# Compressibility (1/GPa) = 0.02566780
#
# Stress axis : x y z
#
# Youngs Moduli (GPa) = 89.33736 49.41043 99.86637
#
# Poissons Ratio (x) = 0.19699 0.13740
# Poissons Ratio (y) = 0.35617 0.25228
# Poissons Ratio (z) = 0.12291 0.12482
#
# Static dielectric constant tensor:
#      x y z
#    x 1.993420 -0.036630 0.067450 
#    y -0.036630 2.207760 -0.003280 
#    z 0.067450 -0.003280 2.105970 
# 
# From -- ./inp_files/402202.got.cif
#   From: 2010.05.17/outbox.cif.g08.bks.cpg/sg2_202_cif.got.tgz:402202.got - 2010.06.03 11:33:40.
