data_PCOD9029483
_publ_section_title
;
Structure prediction by ZEFSAII (Michael W. Deem and Ramdas Pophale) SiO2 
 PCOD9029483
Probable space group: P -1
;
_chemical_formula_sum "Si O2"
_cell_formula_units_Z 16
_cell_length_a 15.984157
_cell_length_b 14.079249
_cell_length_c 9.459338
_cell_angle_alpha 77.023194
_cell_angle_beta 47.683955
_cell_angle_gamma 37.448263
_cell_volume 693.426008
_symmetry_space_group_name_H-M "P -1"
_symmetry_group_IT_number 2
_symmetry_cell_setting 'triclinic'
loop_
_space_group_symop_operation_xyz
x,y,z
-x,-y,-z
loop_
_atom_site_type_symbol
_atom_site_label
_atom_site_fract_x
_atom_site_fract_y
_atom_site_fract_z
Si Si1 0.427441 0.080070 0.783528
Si Si2 0.877168 0.064146 0.766256
Si Si3 0.773477 0.336864 0.956227
Si Si4 0.777411 0.917340 0.618156
Si Si5 0.958600 0.133408 0.083530
Si Si6 0.476713 0.851944 0.608494
Si Si7 0.932506 0.424647 0.393385
Si Si8 0.435858 0.305339 0.048865
O O1 0.450443 0.147115 0.618181
O O2 0.665047 0.908390 0.674786
O O3 0.436932 0.969678 0.728709
O O4 0.171852 0.287848 0.092921
O O5 0.744943 0.257402 0.931190
O O6 0.662251 0.151450 0.950184
O O7 0.000000 0.000000 0.500000
O O8 0.082023 0.862459 0.708186
O O9 0.058475 0.148140 0.655714
O O10 0.758533 0.339690 0.141503
O O11 0.622509 0.543016 0.996847
O O12 0.947876 0.766073 0.613014
O O13 0.537854 0.160646 0.858255
O O14 0.218034 0.993750 0.835721
O O15 0.000000 0.000000 0.000000
O O16 0.706502 0.605872 0.477861
O O17 0.794766 0.563818 0.648191
#
# Coordination Sequence:
#
# PCOD9029483 Si02
#       8
#     2   2   2   2   2   2   2   2
#     4  11  25  42  68  94 139 178 223 278 330 402
#     4  11  21  40  72  96 133 174 223 282 339 396
#     4  10  22  42  67  95 135 178 221 275 342 398
#     4  11  23  42  65  98 134 174 223 278 332 398
#     4  10  22  43  71  96 132 174 217 278 336 401
#     4  11  23  46  68  96 134 176 225 276 339 398
#     4  11  24  41  65  99 129 176 224 273 335 394
#     4  11  23  40  66  97 135 176 221 281 333 408
#
# _framework density 23.073839
#
# number of rings (size 3 to 8) (size 9 to 14) (size 15 to 20)
#    0.000    1.250    3.750    1.875    0.000    3.000 
#    2.250    0.625    2.750    0.000    0.000    0.000 
#    0.000    0.000    0.000    0.000    0.000    0.000 
#
# Total GULP energy -89313.143396 kJ/mol
# GULP energy per Si atom -5582.071462 kJ/mol
# Density = 2.302132 g / cm^3
# Si number density = 23.073839 Si / 1000 Ang^3
#
#
#
# Elastic Constant Matrix: (Units=GPa)
#
#
# Indices 1 2 3 4 5 6 
#
# 1 112.4522 27.4086 22.1367 -4.1844 -9.9516 -4.1413
# 2 27.4086 115.7083 11.8279 -22.5350 22.6602 -23.4011
# 3 22.1367 11.8279 95.5116 -14.4727 7.1047 -2.7315
# 4 -4.1844 -22.5350 -14.4727 36.2596 -4.4956 6.2705
# 5 -9.9516 22.6602 7.1047 -4.4956 29.2920 -8.1704
# 6 -4.1413 -23.4011 -2.7315 6.2705 -8.1704 32.3593
#
#
#
# Elastic Compliance Matrix: (Units=1/GPa)
#
#
# Indices 1 2 3 4 5 6 
#
# 1 0.011035 -0.003972 -0.002829 -0.001485 0.007408 0.000459
# 2 -0.003972 0.013788 0.001057 0.006317 -0.009660 0.005889
# 3 -0.002829 0.001057 0.011998 0.004702 -0.004117 -0.000535
# 4 -0.001485 0.006317 0.004702 0.033339 -0.002028 -0.002197
# 5 0.007408 -0.009660 -0.004117 -0.002028 0.046413 0.005726
# 6 0.000459 0.005889 -0.000535 -0.002197 0.005726 0.037047
#
#
# Mechanical properties :
#
#
# Convention : Reuss Voigt Hill
#
# Bulk Modulus (GPa) = 39.47159 49.60205 44.53682
# Shear Modulus (GPa) = 28.80994 37.06878 32.93936
#
# Velocity S-wave (km/s) = 3.53738 4.01250 3.78241
# Velocity P-wave (km/s) = 5.81617 6.55825 6.19833
#
# Compressibility (1/GPa) = 0.02533468
#
# Stress axis : x y z
#
# Youngs Moduli (GPa) = 90.62258 72.52534 83.34768
#
# Poissons Ratio (x) = 0.28806 0.23576
# Poissons Ratio (y) = 0.35993 -0.08812
# Poissons Ratio (z) = 0.25633 -0.07668
#
# Static dielectric constant tensor:
#      x y z
#    x 1.845860 -0.029980 0.017690 
#    y -0.029980 1.917490 -0.030090 
#    z 0.017690 -0.030090 1.874090 
# 
# From -- ./inp_files/315039.got.cif
#   From: 2010.05.17/outbox.cif.g08.bks.cpg/sg2_158_cif.got.tgz:315039.got - 2010.06.03 11:33:40.
