data_PCOD9029069
_publ_section_title
;
Structure prediction by ZEFSAII (Michael W. Deem and Ramdas Pophale) SiO2 
 PCOD9029069
Probable space group: P -1
;
_chemical_formula_sum "Si O2"
_cell_formula_units_Z 15
_cell_length_a 26.257176
_cell_length_b 4.989005
_cell_length_c 16.344178
_cell_angle_alpha 118.932565
_cell_angle_beta 161.156035
_cell_angle_gamma 64.659633
_cell_volume 601.842949
_symmetry_space_group_name_H-M "P -1"
_symmetry_group_IT_number 2
_symmetry_cell_setting 'triclinic'
loop_
_space_group_symop_operation_xyz
x,y,z
-x,-y,-z
loop_
_atom_site_type_symbol
_atom_site_label
_atom_site_fract_x
_atom_site_fract_y
_atom_site_fract_z
Si Si1 0.000000 0.500000 0.000000
Si Si2 0.476106 0.539886 0.211125
Si Si3 0.751747 0.523726 0.746193
Si Si4 0.849529 0.272175 0.206941
Si Si5 0.132016 0.433264 0.892089
Si Si6 0.620533 0.042889 0.112545
Si Si7 0.244393 0.158125 0.420101
Si Si8 0.200730 0.311313 0.553278
O O1 0.900686 0.694544 0.948736
O O2 0.889231 0.634576 0.781796
O O3 0.586144 0.604229 0.468106
O O4 0.590730 0.667785 0.331455
O O5 0.311045 0.682569 0.982016
O O6 0.441645 0.176416 0.088489
O O7 0.772985 0.179862 0.694605
O O8 0.763250 0.541854 0.863003
O O9 0.808458 0.364060 0.065265
O O10 0.000000 0.500000 0.500000
O O11 0.886525 0.921878 0.215709
O O12 0.965605 0.553991 0.678532
O O13 0.772226 0.891124 0.356640
O O14 0.669754 0.391162 0.213850
O O15 0.500000 0.000000 0.000000
O O16 0.224185 0.114095 0.479081
#
# Coordination Sequence:
#
# PCOD9029069 Si02
#       8
#     1   2   2   2   2   2   2   2
#     4  10  22  42  66 106 156 186 236 282 374 436
#     4  11  27  46  72 102 149 187 242 298 370 422
#     4  11  26  43  73 109 147 193 236 298 369 435
#     4  12  29  54  76 104 142 195 250 303 360 423
#     4  12  28  48  78 106 141 193 250 299 353 436
#     4  12  25  44  69 109 146 187 237 299 366 439
#     4  11  24  41  71 107 149 190 227 304 369 435
#     4  12  25  43  73 107 144 185 246 298 364 431
#
# _framework density 24.923445999999998
#
# number of rings (size 3 to 8) (size 9 to 14) (size 15 to 20)
#    0.000    0.533    2.667    4.400    9.333    1.067 
#    0.000    0.000    0.000    0.000    0.000    0.000 
#    0.000    0.000    0.000    0.000    0.000    0.000 
#
# Total GULP energy -83894.511682 kJ/mol
# GULP energy per Si atom -5592.967445 kJ/mol
# Density = 2.486672 g / cm^3
# Si number density = 24.923446 Si / 1000 Ang^3
#
#
#
# Elastic Constant Matrix: (Units=GPa)
#
#
# Indices 1 2 3 4 5 6 
#
# 1 83.0029 -1.0006 39.1646 -0.1308 0.4878 -9.9031
# 2 -1.0006 112.2549 28.7291 -5.3311 10.2283 -5.8091
# 3 39.1646 28.7291 147.5399 -26.7824 6.6530 -21.4909
# 4 -0.1308 -5.3311 -26.7824 39.5450 3.5111 -0.1037
# 5 0.4878 10.2283 6.6530 3.5111 49.8831 -12.6151
# 6 -9.9031 -5.8091 -21.4909 -0.1037 -12.6151 50.0862
#
#
#
# Elastic Compliance Matrix: (Units=1/GPa)
#
#
# Indices 1 2 3 4 5 6 
#
# 1 0.014261 0.001108 -0.004364 -0.002820 0.000731 0.001254
# 2 0.001108 0.009608 -0.002079 0.000042 -0.001703 0.000013
# 3 -0.004364 -0.002079 0.009998 0.006533 -0.000550 0.003061
# 4 -0.002820 0.000042 0.006533 0.029938 -0.002536 0.001674
# 5 0.000731 -0.001703 -0.000550 -0.002536 0.021966 0.005238
# 6 0.001254 0.000013 0.003061 0.001674 0.005238 0.022851
#
#
# Mechanical properties :
#
#
# Convention : Reuss Voigt Hill
#
# Bulk Modulus (GPa) = 43.10657 52.95375 48.03016
# Shear Modulus (GPa) = 39.36308 46.29650 42.82979
#
# Velocity S-wave (km/s) = 3.97843 4.31460 4.14992
# Velocity P-wave (km/s) = 6.19976 6.79071 6.50195
#
# Compressibility (1/GPa) = 0.02319832
#
# Stress axis : x y z
#
# Youngs Moduli (GPa) = 70.12136 104.07928 100.02464
#
# Poissons Ratio (x) = -0.11535 0.43647
# Poissons Ratio (y) = -0.07771 0.20792
# Poissons Ratio (z) = 0.30598 0.21635
#
# Static dielectric constant tensor:
#      x y z
#    x 1.959430 -0.027410 -0.088180 
#    y -0.027410 1.925580 -0.053850 
#    z -0.088180 -0.053850 1.882210 
# 
# From -- ./inp_files/370837.got.cif
#   From: 2010.05.17/outbox.cif.g08.bks.cpg/sg2_186_cif.got.tgz:370837.got - 2010.06.03 11:33:40.
