data_PCOD9029590
_publ_section_title
;
Structure prediction by ZEFSAII (Michael W. Deem and Ramdas Pophale) SiO2 
 PCOD9029590
Probable space group: P -1
;
_chemical_formula_sum "Si O2"
_cell_formula_units_Z 14
_cell_length_a 14.374913
_cell_length_b 8.004005
_cell_length_c 13.223678
_cell_angle_alpha 48.980628
_cell_angle_beta 148.857873
_cell_angle_gamma 137.138062
_cell_volume 533.426506
_symmetry_space_group_name_H-M "P -1"
_symmetry_group_IT_number 2
_symmetry_cell_setting 'triclinic'
loop_
_space_group_symop_operation_xyz
x,y,z
-x,-y,-z
loop_
_atom_site_type_symbol
_atom_site_label
_atom_site_fract_x
_atom_site_fract_y
_atom_site_fract_z
Si Si1 0.321916 0.136505 0.896969
Si Si2 0.404210 0.686663 0.216065
Si Si3 0.830573 0.872391 0.809967
Si Si4 0.785963 0.291805 0.515046
Si Si5 0.248699 0.531589 0.803425
Si Si6 0.222237 0.285148 0.552151
Si Si7 0.870784 0.608118 0.777938
O O1 0.276164 0.299837 0.873524
O O2 0.179630 0.108970 0.679447
O O3 0.910716 0.853262 0.779677
O O4 0.554634 0.305315 0.013907
O O5 0.630345 0.776895 0.356657
O O6 0.352324 0.602278 0.318558
O O7 0.289626 0.417380 0.163214
O O8 0.325214 0.887130 0.037043
O O9 0.721528 0.042557 0.616562
O O10 0.000000 0.000000 0.000000
O O11 0.742208 0.295940 0.353466
O O12 0.688799 0.453645 0.410853
O O13 0.030815 0.437672 0.688003
O O14 0.093746 0.341132 0.325557
O O15 0.000000 0.500000 0.000000
#
# Coordination Sequence:
#
# PCOD9029590 Si02
#       7
#     2   2   2   2   2   2   2
#     4  10  22  43  70 101 139 180 236 279 342 410
#     4  10  25  42  69  99 142 181 220 289 335 418
#     4  10  24  42  68  96 132 182 227 278 339 406
#     4  10  22  42  67  98 139 178 235 281 338 413
#     4   9  22  42  69  98 138 188 223 287 343 401
#     4  11  23  43  67 108 132 181 228 284 346 397
#     4  10  24  43  67  98 138 178 227 280 347 401
#
# _framework density 26.245415000000001
#
# number of rings (size 3 to 8) (size 9 to 14) (size 15 to 20)
#    0.857    1.143    0.000    1.714    6.000    0.571 
#    0.000    1.429    0.000    0.000    0.000    0.000 
#    0.000    0.000    0.000    0.000    0.000    0.000 
#
# Total GULP energy -78174.969925 kJ/mol
# GULP energy per Si atom -5583.926423 kJ/mol
# Density = 2.618568 g / cm^3
# Si number density = 26.245415 Si / 1000 Ang^3
#
#
#
# Elastic Constant Matrix: (Units=GPa)
#
#
# Indices 1 2 3 4 5 6 
#
# 1 71.6956 37.0159 19.8950 -12.1976 -8.5041 -8.5560
# 2 37.0159 115.8558 50.9534 -46.6097 -13.2843 0.0694
# 3 19.8950 50.9534 139.3453 -33.9375 -8.9176 -13.1222
# 4 -12.1976 -46.6097 -33.9375 58.2340 -4.6888 4.0183
# 5 -8.5041 -13.2843 -8.9176 -4.6888 51.0721 -3.9246
# 6 -8.5560 0.0694 -13.1222 4.0183 -3.9246 19.1294
#
#
#
# Elastic Compliance Matrix: (Units=1/GPa)
#
#
# Indices 1 2 3 4 5 6 
#
# 1 0.018203 -0.006368 0.000338 -0.001557 0.001993 0.009132
# 2 -0.006368 0.016825 -0.002937 0.011143 0.003320 -0.006583
# 3 0.000338 -0.002937 0.009671 0.003048 0.001762 0.006517
# 4 -0.001557 0.011143 0.003048 0.028222 0.005498 -0.003446
# 5 0.001993 0.003320 0.001762 0.005498 0.022007 0.005448
# 6 0.009132 -0.006583 0.006517 -0.003446 0.005448 0.062696
#
#
# Mechanical properties :
#
#
# Convention : Reuss Voigt Hill
#
# Bulk Modulus (GPa) = 37.36108 60.29169 48.82639
# Shear Modulus (GPa) = 27.10352 40.28927 33.69640
#
# Velocity S-wave (km/s) = 3.21704 3.92228 3.58704
# Velocity P-wave (km/s) = 5.29767 6.59807 5.98331
#
# Compressibility (1/GPa) = 0.02676582
#
# Stress axis : x y z
#
# Youngs Moduli (GPa) = 54.93589 59.43543 103.40307
#
# Poissons Ratio (x) = 0.37847 -0.03494
# Poissons Ratio (y) = 0.34982 0.30367
# Poissons Ratio (z) = -0.01856 0.17455
#
# Static dielectric constant tensor:
#      x y z
#    x 2.106260 0.015780 0.096360 
#    y 0.015780 2.192220 0.074510 
#    z 0.096360 0.074510 2.155650 
# 
# From -- ./inp_files/531012.got.cif
#   From: 2010.05.17/outbox.cif.g08.bks.cpg/sg2_266_cif.got.tgz:531012.got - 2010.06.03 11:33:40.
