data_PCOD9029970
_publ_section_title
;
Structure prediction by ZEFSAII (Michael W. Deem and Ramdas Pophale) SiO2 
 PCOD9029970
Probable space group: P -1
;
_chemical_formula_sum "Si O2"
_cell_formula_units_Z 16
_cell_length_a 8.880412
_cell_length_b 12.330438
_cell_length_c 12.843638
_cell_angle_alpha 127.741408
_cell_angle_beta 44.451271
_cell_angle_gamma 130.155027
_cell_volume 721.854372
_symmetry_space_group_name_H-M "P -1"
_symmetry_group_IT_number 2
_symmetry_cell_setting 'triclinic'
loop_
_space_group_symop_operation_xyz
x,y,z
-x,-y,-z
loop_
_atom_site_type_symbol
_atom_site_label
_atom_site_fract_x
_atom_site_fract_y
_atom_site_fract_z
Si Si1 0.633154 0.688080 0.624084
Si Si2 0.707758 0.016580 0.826062
Si Si3 0.058124 0.354454 0.364317
Si Si4 0.164401 0.436638 0.740280
Si Si5 0.306967 0.756405 0.207631
Si Si6 0.394661 0.827947 0.435957
Si Si7 0.844640 0.753706 0.170421
Si Si8 0.149841 0.184050 0.027069
O O1 0.678673 0.858636 0.705317
O O2 0.358338 0.599275 0.727889
O O3 0.728177 0.648931 0.445449
O O4 0.770923 0.650924 0.630175
O O5 0.712888 0.124186 0.792498
O O6 0.958659 0.093153 0.799362
O O7 0.500000 0.000000 0.000000
O O8 0.801171 0.231629 0.418350
O O9 0.000000 0.500000 0.500000
O O10 0.144517 0.301827 0.186356
O O11 0.153690 0.373355 0.825482
O O12 0.898317 0.397084 0.813659
O O13 0.265534 0.785856 0.364648
O O14 0.577413 0.786035 0.089739
O O15 0.590878 0.760146 0.307265
O O16 0.500000 0.000000 0.500000
O O17 0.902437 0.754840 0.021014
O O18 0.000000 0.000000 0.000000
#
# Coordination Sequence:
#
# PCOD9029970 Si02
#       8
#     2   2   2   2   2   2   2   2
#     4  11  23  44  69  98 143 181 234 284 352 411
#     4  11  23  42  68 101 137 181 231 284 348 412
#     4  12  25  45  71 102 140 185 230 285 355 413
#     4  10  23  44  68  99 137 185 227 288 349 414
#     4  10  22  42  69 102 133 177 235 284 344 405
#     4  11  22  39  65  98 134 176 231 287 339 407
#     4  10  23  42  68 103 133 175 238 284 343 405
#     4  11  23  47  73 107 142 183 233 293 346 422
#
# _framework density 22.165136
#
# number of rings (size 3 to 8) (size 9 to 14) (size 15 to 20)
#    0.000    1.250    1.250    5.250    1.750    1.000 
#    9.000   13.750    0.000    0.000    0.000    0.000 
#    0.000    0.000    0.000    0.000    0.000    0.000 
#
# Total GULP energy -89307.519272 kJ/mol
# GULP energy per Si atom -5581.719955 kJ/mol
# Density = 2.211469 g / cm^3
# Si number density = 22.165136 Si / 1000 Ang^3
#
#
#
# Elastic Constant Matrix: (Units=GPa)
#
#
# Indices 1 2 3 4 5 6 
#
# 1 92.1025 24.3429 15.9668 -5.1768 12.0082 21.3984
# 2 24.3429 92.1066 4.7509 -3.5138 -5.3997 24.1781
# 3 15.9668 4.7509 53.1146 -0.6292 18.1515 -2.9612
# 4 -5.1768 -3.5138 -0.6292 32.8398 8.2750 -7.0350
# 5 12.0082 -5.3997 18.1515 8.2750 29.5660 -11.9918
# 6 21.3984 24.1781 -2.9612 -7.0350 -11.9918 26.7788
#
#
#
# Elastic Compliance Matrix: (Units=1/GPa)
#
#
# Indices 1 2 3 4 5 6 
#
# 1 0.018183 -0.000041 -0.001185 0.002315 -0.015882 -0.021128
# 2 -0.000041 0.014582 -0.001421 -0.001065 -0.002020 -0.014474
# 3 -0.001185 -0.001421 0.025054 0.004081 -0.016910 -0.001500
# 4 0.002315 -0.001065 0.004081 0.034496 -0.011971 0.003264
# 5 -0.015882 -0.002020 -0.016910 -0.011971 0.070249 0.040959
# 6 -0.021128 -0.014474 -0.001500 0.003264 0.040959 0.086328
#
#
# Mechanical properties :
#
#
# Convention : Reuss Voigt Hill
#
# Bulk Modulus (GPa) = 19.03876 36.38276 27.71076
# Shear Modulus (GPa) = 18.40295 30.65446 24.52870
#
# Velocity S-wave (km/s) = 2.88456 3.72291 3.33022
# Velocity P-wave (km/s) = 4.43874 5.91017 5.22650
#
# Compressibility (1/GPa) = 0.05252443
#
# Stress axis : x y z
#
# Youngs Moduli (GPa) = 54.99522 68.57955 39.91325
#
# Poissons Ratio (x) = 0.00283 0.04730
# Poissons Ratio (y) = 0.00227 0.05672
# Poissons Ratio (z) = 0.06518 0.09745
#
# Static dielectric constant tensor:
#      x y z
#    x 1.815580 -0.009630 0.014950 
#    y -0.009630 1.825790 0.002600 
#    z 0.014950 0.002600 1.791830 
# 
# From -- ./inp_files/382110.got.cif
#   From: 2010.05.17/outbox.cif.g08.bks.cpg/sg2_192_cif.got.tgz:382110.got - 2010.06.03 11:33:40.
