data_PCOD9029328
_publ_section_title
;
Structure prediction by ZEFSAII (Michael W. Deem and Ramdas Pophale) SiO2 
 PCOD9029328
Probable space group: P -1
;
_chemical_formula_sum "Si O2"
_cell_formula_units_Z 15
_cell_length_a 6.586526
_cell_length_b 14.783926
_cell_length_c 12.061952
_cell_angle_alpha 136.509427
_cell_angle_beta 124.688166
_cell_angle_gamma 58.516905
_cell_volume 652.146918
_symmetry_space_group_name_H-M "P -1"
_symmetry_group_IT_number 2
_symmetry_cell_setting 'triclinic'
loop_
_space_group_symop_operation_xyz
x,y,z
-x,-y,-z
loop_
_atom_site_type_symbol
_atom_site_label
_atom_site_fract_x
_atom_site_fract_y
_atom_site_fract_z
Si Si1 0.259971 0.119746 0.380058
Si Si2 0.760322 0.064157 0.232527
Si Si3 0.012719 0.606646 0.819169
Si Si4 0.224040 0.136155 0.138823
Si Si5 0.762180 0.930477 0.340346
Si Si6 0.966789 0.349973 0.876162
Si Si7 0.426707 0.399246 0.643963
Si Si8 0.500000 0.500000 0.500000
O O1 0.189265 0.082874 0.201492
O O2 0.302113 0.268695 0.504315
O O3 0.017274 0.116701 0.376360
O O4 0.511826 0.013517 0.393982
O O5 0.504796 0.174268 0.250815
O O6 0.718863 0.964438 0.227620
O O7 0.772226 0.979937 0.050812
O O8 0.975129 0.735395 0.842189
O O9 0.771580 0.535922 0.662383
O O10 0.266112 0.509534 0.772787
O O11 0.027410 0.660386 0.997329
O O12 0.832728 0.770133 0.224900
O O13 0.000000 0.000000 0.500000
O O14 0.702933 0.346263 0.732646
O O15 0.000000 0.500000 0.000000
O O16 0.431069 0.457598 0.572406
#
# Coordination Sequence:
#
# PCOD9029328 Si02
#       8
#     2   2   2   2   2   2   2   1
#     4  11  24  42  70 105 138 183 244 301 362 430
#     4  10  23  42  68 100 140 185 230 304 363 426
#     4  12  26  45  73 107 146 192 245 298 367 444
#     4  10  22  42  67 102 141 178 235 299 358 432
#     4  11  24  46  69 101 142 183 248 297 359 436
#     4  12  26  51  74 103 153 200 241 307 373 434
#     4  12  27  46  73 110 144 194 248 302 365 450
#     4  12  26  48  72 108 146 190 240 306 370 428
#
# _framework density 23.000952000000002
#
# number of rings (size 3 to 8) (size 9 to 14) (size 15 to 20)
#    0.000    0.800    5.333    1.200    1.867    2.667 
#    2.400    0.000    0.000    0.000    0.000    0.000 
#    0.000    0.000    0.000    0.000    0.000    0.000 
#
# Total GULP energy -83525.307848 kJ/mol
# GULP energy per Si atom -5568.353857 kJ/mol
# Density = 2.294860 g / cm^3
# Si number density = 23.000952 Si / 1000 Ang^3
#
#
#
# Elastic Constant Matrix: (Units=GPa)
#
#
# Indices 1 2 3 4 5 6 
#
# 1 93.8856 35.2626 1.8925 2.2969 6.0431 4.4581
# 2 35.2626 107.1998 9.2304 6.4267 -12.9834 -18.9835
# 3 1.8925 9.2304 47.5107 -12.9159 -14.9110 6.6608
# 4 2.2969 6.4267 -12.9159 44.3031 -2.5487 -6.0052
# 5 6.0431 -12.9834 -14.9110 -2.5487 33.2590 -0.3735
# 6 4.4581 -18.9835 6.6608 -6.0052 -0.3735 30.9700
#
#
#
# Elastic Compliance Matrix: (Units=1/GPa)
#
#
# Indices 1 2 3 4 5 6 
#
# 1 0.013549 -0.006006 -0.000465 -0.001050 -0.005160 -0.005797
# 2 -0.006006 0.013963 -0.002307 -0.000732 0.005562 0.009845
# 3 -0.000465 -0.002307 0.028624 0.008661 0.012617 -0.005672
# 4 -0.001050 -0.000732 0.008661 0.025992 0.005813 0.002949
# 5 -0.005160 0.005562 0.012617 0.005813 0.039312 0.003040
# 6 -0.005797 0.009845 -0.005672 0.002949 0.003040 0.040987
#
#
# Mechanical properties :
#
#
# Convention : Reuss Voigt Hill
#
# Bulk Modulus (GPa) = 25.91947 37.92965 31.92456
# Shear Modulus (GPa) = 25.92776 35.18714 30.55745
#
# Velocity S-wave (km/s) = 3.36109 3.91552 3.64885
# Velocity P-wave (km/s) = 5.13380 6.08014 5.62690
#
# Compressibility (1/GPa) = 0.03858103
#
# Stress axis : x y z
#
# Youngs Moduli (GPa) = 73.80389 71.61529 34.93572
#
# Poissons Ratio (x) = 0.43010 0.01625
# Poissons Ratio (y) = 0.44324 0.08061
# Poissons Ratio (z) = 0.03432 0.16523
#
# Static dielectric constant tensor:
#      x y z
#    x 1.917730 0.014050 0.111920 
#    y 0.014050 1.848090 0.021910 
#    z 0.111920 0.021910 2.094260 
# 
# From -- ./inp_files/67686.got.cif
#   From: 2010.05.17/outbox.cif.g08.bks.cpg/sg2_34_cif.got.tgz:67686.got - 2010.06.03 11:33:40.
