data_PCOD9029254
_publ_section_title
;
Structure prediction by ZEFSAII (Michael W. Deem and Ramdas Pophale) SiO2 
 PCOD9029254
Probable space group: P -1
;
_chemical_formula_sum "Si O2"
_cell_formula_units_Z 15
_cell_length_a 8.776660
_cell_length_b 7.997142
_cell_length_c 12.781502
_cell_angle_alpha 78.325724
_cell_angle_beta 120.849430
_cell_angle_gamma 119.654993
_cell_volume 667.718707
_symmetry_space_group_name_H-M "P -1"
_symmetry_group_IT_number 2
_symmetry_cell_setting 'triclinic'
loop_
_space_group_symop_operation_xyz
x,y,z
-x,-y,-z
loop_
_atom_site_type_symbol
_atom_site_label
_atom_site_fract_x
_atom_site_fract_y
_atom_site_fract_z
Si Si1 0.000000 0.000000 0.000000
Si Si2 0.699690 0.099878 0.490739
Si Si3 0.559458 0.722903 0.369189
Si Si4 0.552673 0.877549 0.949227
Si Si5 0.625225 0.690886 0.175532
Si Si6 0.950802 0.980195 0.738083
Si Si7 0.811167 0.593370 0.607008
Si Si8 0.240677 0.636283 0.701762
O O1 0.078910 0.019884 0.148120
O O2 0.221577 0.027681 0.029363
O O3 0.733011 0.290735 0.418129
O O4 0.500000 0.000000 0.500000
O O5 0.670153 0.946372 0.408612
O O6 0.864332 0.101874 0.627477
O O7 0.495608 0.675889 0.233158
O O8 0.720322 0.649827 0.467317
O O9 0.364311 0.605065 0.385940
O O10 0.523117 0.690613 0.030567
O O11 0.396975 0.807015 0.808718
O O12 0.500000 0.000000 0.000000
O O13 0.705016 0.535603 0.236139
O O14 0.814219 0.903517 0.218234
O O15 0.852930 0.765237 0.683354
O O16 0.015947 0.586435 0.660464
#
# Coordination Sequence:
#
# PCOD9029254 Si02
#       8
#     1   2   2   2   2   2   2   2
#     4  10  22  42  76  98 138 174 234 288 340 408
#     4  11  24  39  67  97 133 177 232 276 343 410
#     4  10  23  42  65 100 137 177 228 284 341 413
#     4  11  24  47  71 100 136 187 234 284 352 416
#     4  11  25  42  67  99 138 176 229 284 344 417
#     4  10  22  42  66  98 132 182 226 280 347 408
#     4  10  23  42  69  98 137 180 226 282 351 407
#     4  12  25  42  68  99 140 179 229 290 345 411
#
# _framework density 22.464549000000002
#
# number of rings (size 3 to 8) (size 9 to 14) (size 15 to 20)
#    0.000    1.333    0.000    5.200    9.333    3.200 
#    2.400    0.667    0.000    0.000    0.000    0.000 
#    0.000    0.000    0.000    0.000    0.000    0.000 
#
# Total GULP energy -83606.042147 kJ/mol
# GULP energy per Si atom -5573.736143 kJ/mol
# Density = 2.241342 g / cm^3
# Si number density = 22.464549 Si / 1000 Ang^3
#
#
#
# Elastic Constant Matrix: (Units=GPa)
#
#
# Indices 1 2 3 4 5 6 
#
# 1 119.8532 20.1286 48.3578 -10.2342 -3.4540 -8.1665
# 2 20.1286 78.9032 39.8097 -8.5919 -4.8925 -19.3832
# 3 48.3578 39.8097 157.5411 -19.6112 -5.7372 -3.4513
# 4 -10.2342 -8.5919 -19.6112 39.9991 2.8984 3.7790
# 5 -3.4540 -4.8925 -5.7372 2.8984 38.6425 1.2643
# 6 -8.1665 -19.3832 -3.4513 3.7790 1.2643 17.1265
#
#
#
# Elastic Compliance Matrix: (Units=1/GPa)
#
#
# Indices 1 2 3 4 5 6 
#
# 1 0.009823 -0.000027 -0.002821 0.000736 0.000273 0.003903
# 2 -0.000027 0.020568 -0.004667 -0.000065 0.001186 0.022251
# 3 -0.002821 -0.004667 0.008661 0.003020 0.000399 -0.005577
# 4 0.000736 -0.000065 0.003020 0.027229 -0.001372 -0.005021
# 5 0.000273 0.001186 0.000399 -0.001372 0.026217 -0.000080
# 6 0.003903 0.022251 -0.005577 -0.005021 -0.000080 0.085423
#
#
# Mechanical properties :
#
#
# Convention : Reuss Voigt Hill
#
# Bulk Modulus (GPa) = 41.62757 63.65442 52.64099
# Shear Modulus (GPa) = 24.88073 35.68706 30.28389
#
# Velocity S-wave (km/s) = 3.33161 3.99004 3.67560
# Velocity P-wave (km/s) = 5.77668 7.04445 6.44183
#
# Compressibility (1/GPa) = 0.02402254
#
# Stress axis : x y z
#
# Youngs Moduli (GPa) = 101.80185 48.61992 115.45832
#
# Poissons Ratio (x) = 0.00129 0.32576
# Poissons Ratio (y) = 0.00271 0.53880
# Poissons Ratio (z) = 0.28723 0.22689
#
# Static dielectric constant tensor:
#      x y z
#    x 1.826770 -0.025550 0.043960 
#    y -0.025550 1.862420 0.031210 
#    z 0.043960 0.031210 1.894750 
# 
# From -- ./inp_files/378903.got.cif
#   From: 2010.05.17/outbox.cif.g08.bks.cpg/sg2_190_cif.got.tgz:378903.got - 2010.06.03 11:33:40.
