data_PCOD9029547
_publ_section_title
;
Structure prediction by ZEFSAII (Michael W. Deem and Ramdas Pophale) SiO2 
 PCOD9029547
Probable space group: P -1
;
_chemical_formula_sum "Si O2"
_cell_formula_units_Z 12
_cell_length_a 16.768907
_cell_length_b 9.696630
_cell_length_c 12.347128
_cell_angle_alpha 55.779628
_cell_angle_beta 23.437358
_cell_angle_gamma 42.248678
_cell_volume 482.999117
_symmetry_space_group_name_H-M "P -1"
_symmetry_group_IT_number 2
_symmetry_cell_setting 'triclinic'
loop_
_space_group_symop_operation_xyz
x,y,z
-x,-y,-z
loop_
_atom_site_type_symbol
_atom_site_label
_atom_site_fract_x
_atom_site_fract_y
_atom_site_fract_z
Si Si1 0.666352 0.738063 0.084880
Si Si2 0.596893 0.782718 0.795698
Si Si3 0.216108 0.954729 0.989527
Si Si4 0.685551 0.120343 0.320020
Si Si5 0.214255 0.567852 0.115221
Si Si6 0.864130 0.443676 0.275368
O O1 0.464944 0.835865 0.398847
O O2 0.567656 0.968925 0.055927
O O3 0.662232 0.579733 0.084344
O O4 0.982551 0.587583 0.792762
O O5 0.602763 0.615406 0.936205
O O6 0.910172 0.662037 0.451318
O O7 0.455997 0.835166 0.831426
O O8 0.163273 0.791063 0.105175
O O9 0.267305 0.022421 0.781268
O O10 0.961931 0.199846 0.245052
O O11 0.453270 0.365330 0.442047
O O12 0.000000 0.000000 0.000000
O O13 0.000000 0.500000 0.000000
#
# Coordination Sequence:
#
# PCOD9029547 Si02
#       6
#     2   2   2   2   2   2
#     4  10  22  42  67  97 135 179 222 274 340 401
#     4  10  23  44  68  97 135 180 226 281 336 393
#     4  11  24  41  67 100 134 176 225 276 336 406
#     4  11  24  40  65  99 134 170 218 276 337 402
#     4  11  23  42  69  99 134 177 230 280 332 398
#     4   9  22  42  64  94 135 178 219 271 337 403
#
# _framework density 24.844766
#
# number of rings (size 3 to 8) (size 9 to 14) (size 15 to 20)
#    0.000    1.667    0.000    3.000    0.000   15.333 
#    0.000    0.000    0.000   14.000    0.000    0.000 
#    0.000    0.000    0.000    0.000    0.000    0.000 
#
# Total GULP energy -66900.714245 kJ/mol
# GULP energy per Si atom -5575.059520 kJ/mol
# Density = 2.478822 g / cm^3
# Si number density = 24.844766 Si / 1000 Ang^3
#
#
#
# Elastic Constant Matrix: (Units=GPa)
#
#
# Indices 1 2 3 4 5 6 
#
# 1 149.1379 32.2649 51.7473 2.2524 -21.2365 7.5829
# 2 32.2649 75.6571 40.7710 5.1373 -16.2382 22.6746
# 3 51.7473 40.7710 104.5312 23.1059 -34.9797 -4.0968
# 4 2.2524 5.1373 23.1059 28.5607 -9.3763 -13.5165
# 5 -21.2365 -16.2382 -34.9797 -9.3763 32.2186 12.4886
# 6 7.5829 22.6746 -4.0968 -13.5165 12.4886 44.9001
#
#
#
# Elastic Compliance Matrix: (Units=1/GPa)
#
#
# Indices 1 2 3 4 5 6 
#
# 1 0.008558 -0.001008 -0.003721 0.002762 0.002320 -0.001090
# 2 -0.001008 0.024097 -0.004576 -0.004801 0.011755 -0.017131
# 3 -0.003721 -0.004576 0.021060 -0.012264 0.015786 -0.003222
# 4 0.002762 -0.004801 -0.012264 0.052299 -0.005740 0.018179
# 5 0.002320 0.011755 0.015786 -0.005740 0.063355 -0.024238
# 6 -0.001090 -0.017131 -0.003222 0.018179 -0.024238 0.043027
#
#
# Mechanical properties :
#
#
# Convention : Reuss Voigt Hill
#
# Bulk Modulus (GPa) = 28.48509 64.32140 46.40325
# Shear Modulus (GPa) = 20.60089 34.77209 27.68649
#
# Velocity S-wave (km/s) = 2.88268 3.74515 3.34185
# Velocity P-wave (km/s) = 4.75078 6.68184 5.79728
#
# Compressibility (1/GPa) = 0.03510608
#
# Stress axis : x y z
#
# Youngs Moduli (GPa) = 116.84685 41.49962 47.48259
#
# Poissons Ratio (x) = 0.04183 0.17666
# Poissons Ratio (y) = 0.11777 0.21729
# Poissons Ratio (z) = 0.43473 0.18991
#
# Static dielectric constant tensor:
#      x y z
#    x 2.003590 -0.050620 0.070190 
#    y -0.050620 2.023710 -0.070730 
#    z 0.070190 -0.070730 2.107930 
# 
# From -- ./inp_files/447018.got.cif
#   From: 2010.05.17/outbox.cif.g08.bks.cpg/sg2_224_cif.got.tgz:447018.got - 2010.06.03 11:33:40.
