data_PCOD9029368
_publ_section_title
;
Structure prediction by ZEFSAII (Michael W. Deem and Ramdas Pophale) SiO2 
 PCOD9029368
Probable space group: P -1
;
_chemical_formula_sum "Si O2"
_cell_formula_units_Z 16
_cell_length_a 22.826853
_cell_length_b 26.583132
_cell_length_c 9.742739
_cell_angle_alpha 143.802307
_cell_angle_beta 24.671073
_cell_angle_gamma 161.189436
_cell_volume 730.889908
_symmetry_space_group_name_H-M "P -1"
_symmetry_group_IT_number 2
_symmetry_cell_setting 'triclinic'
loop_
_space_group_symop_operation_xyz
x,y,z
-x,-y,-z
loop_
_atom_site_type_symbol
_atom_site_label
_atom_site_fract_x
_atom_site_fract_y
_atom_site_fract_z
Si Si1 0.663714 0.147041 0.074640
Si Si2 0.179178 0.330707 0.755557
Si Si3 0.846184 0.488370 0.204127
Si Si4 0.974021 0.081059 0.429923
Si Si5 0.376755 0.990666 0.620034
Si Si6 0.838773 0.489391 0.899428
Si Si7 0.301560 0.128031 0.188247
Si Si8 0.345817 0.141081 0.639659
O O1 0.537956 0.175165 0.383372
O O2 0.553560 0.057135 0.257599
O O3 0.988072 0.333825 0.753254
O O4 0.500000 0.000000 0.000000
O O5 0.500000 0.500000 0.500000
O O6 0.129290 0.238347 0.530032
O O7 0.083722 0.373380 0.997643
O O8 0.960412 0.194899 0.046942
O O9 0.527730 0.307092 0.533876
O O10 0.860238 0.478564 0.990357
O O11 0.000000 0.500000 0.000000
O O12 0.728718 0.927804 0.719076
O O13 0.839524 0.012075 0.411316
O O14 0.172574 0.103470 0.036380
O O15 0.500000 0.000000 0.500000
O O16 0.422729 0.115394 0.812832
O O17 0.000000 0.500000 0.500000
O O18 0.518452 0.317015 0.152004
O O19 0.000000 0.000000 0.500000
#
# Coordination Sequence:
#
# PCOD9029368 Si02
#       8
#     2   2   2   2   2   2   2   2
#     4  11  25  39  66  97 135 171 220 274 339 397
#     4  11  26  43  69 101 142 174 229 288 343 404
#     4  10  23  42  64  99 133 173 223 279 335 404
#     4  10  22  42  67  90 132 178 220 271 337 402
#     4  11  24  43  67  97 135 178 222 275 337 401
#     4  12  24  42  70 102 134 178 225 280 338 402
#     4  11  22  40  69  95 132 173 228 272 331 404
#     4  10  22  43  66  93 131 177 222 272 333 408
#
# _framework density 21.891121999999999
#
# number of rings (size 3 to 8) (size 9 to 14) (size 15 to 20)
#    0.000    1.250    1.250    4.500    5.250    6.000 
#    0.000    0.625    0.000    0.000    0.000    0.000 
#    0.000    0.000    0.000    0.000    0.000    0.000 
#
# Total GULP energy -89183.328063 kJ/mol
# GULP energy per Si atom -5573.958004 kJ/mol
# Density = 2.184130 g / cm^3
# Si number density = 21.891122 Si / 1000 Ang^3
#
#
#
# Elastic Constant Matrix: (Units=GPa)
#
#
# Indices 1 2 3 4 5 6 
#
# 1 95.3759 42.9044 24.7930 2.7984 12.9762 -3.3900
# 2 42.9044 153.2269 35.8544 -9.6893 17.3029 16.6634
# 3 24.7930 35.8544 55.3555 5.8015 8.8972 8.0619
# 4 2.7984 -9.6893 5.8015 37.6478 2.2143 -2.8015
# 5 12.9762 17.3029 8.8972 2.2143 41.0492 -4.1950
# 6 -3.3900 16.6634 8.0619 -2.8015 -4.1950 34.4311
#
#
#
# Elastic Compliance Matrix: (Units=1/GPa)
#
#
# Indices 1 2 3 4 5 6 
#
# 1 0.013281 -0.002980 -0.004180 -0.000755 -0.001641 0.003467
# 2 -0.002980 0.009202 -0.003955 0.003065 -0.002643 -0.003893
# 3 -0.004180 -0.003955 0.024083 -0.004631 -0.002474 -0.004815
# 4 -0.000755 0.003065 -0.004631 0.028327 -0.001408 0.001660
# 5 -0.001641 -0.002643 -0.002474 -0.001408 0.027105 0.004885
# 6 0.003467 -0.003893 -0.004815 0.001660 0.004885 0.033127
#
#
# Mechanical properties :
#
#
# Convention : Reuss Voigt Hill
#
# Bulk Modulus (GPa) = 41.09208 56.78466 48.93837
# Shear Modulus (GPa) = 30.21779 35.98606 33.10193
#
# Velocity S-wave (km/s) = 3.71936 4.05886 3.89281
# Velocity P-wave (km/s) = 6.10383 6.92544 6.52757
#
# Compressibility (1/GPa) = 0.02433559
#
# Stress axis : x y z
#
# Youngs Moduli (GPa) = 75.29751 108.67519 41.52316
#
# Poissons Ratio (x) = 0.32386 0.17357
# Poissons Ratio (y) = 0.22439 0.16421
# Poissons Ratio (z) = 0.31475 0.42979
#
# Static dielectric constant tensor:
#      x y z
#    x 1.557710 -0.073800 0.093050 
#    y -0.073800 1.826200 -0.000720 
#    z 0.093050 -0.000720 1.771520 
# 
# From -- ./inp_files/270445.got.cif
#   From: 2010.05.17/outbox.cif.g08.bks.cpg/sg2_136_cif.got.tgz:270445.got - 2010.06.03 11:33:40.
