data_PCOD9029079
_publ_section_title
;
Structure prediction by ZEFSAII (Michael W. Deem and Ramdas Pophale) SiO2 
 PCOD9029079
Probable space group: P -1
;
_chemical_formula_sum "Si O2"
_cell_formula_units_Z 16
_cell_length_a 12.664751
_cell_length_b 12.715535
_cell_length_c 11.539724
_cell_angle_alpha 50.330331
_cell_angle_beta 41.146570
_cell_angle_gamma 32.471230
_cell_volume 656.450702
_symmetry_space_group_name_H-M "P -1"
_symmetry_group_IT_number 2
_symmetry_cell_setting 'triclinic'
loop_
_space_group_symop_operation_xyz
x,y,z
-x,-y,-z
loop_
_atom_site_type_symbol
_atom_site_label
_atom_site_fract_x
_atom_site_fract_y
_atom_site_fract_z
Si Si1 0.612350 0.581255 0.557919
Si Si2 0.503822 0.780487 0.294942
Si Si3 0.904416 0.816872 0.572370
Si Si4 0.849533 0.716042 0.915815
Si Si5 0.238254 0.605343 0.785441
Si Si6 0.232939 0.119894 0.628557
Si Si7 0.399390 0.747849 0.854608
Si Si8 0.208123 0.560452 0.105457
O O1 0.633594 0.692650 0.373324
O O2 0.371053 0.662682 0.661407
O O3 0.583932 0.633156 0.677729
O O4 0.820616 0.349444 0.535431
O O5 0.580190 0.598330 0.292254
O O6 0.239538 0.971825 0.402696
O O7 0.611624 0.836547 0.091913
O O8 0.842772 0.730066 0.772880
O O9 0.828463 0.850232 0.478081
O O10 0.001749 0.752015 0.806936
O O11 0.000000 0.500000 0.000000
O O12 0.185436 0.575969 0.975726
O O13 0.030095 0.329673 0.710769
O O14 0.500000 0.000000 0.500000
O O15 0.235074 0.972501 0.798252
O O16 0.563305 0.662619 0.890130
O O17 0.274970 0.676438 0.007694
#
# Coordination Sequence:
#
# PCOD9029079 Si02
#       8
#     2   2   2   2   2   2   2   2
#     4  11  21  43  68  93 134 167 218 268 319 387
#     4  11  23  42  67  91 135 173 212 265 321 388
#     4  12  24  42  69  94 129 174 214 264 336 371
#     4  10  22  42  66  88 132 177 205 267 322 386
#     4  10  23  41  65 101 130 170 216 264 319 384
#     4  12  27  43  68 102 130 167 224 274 319 396
#     4  10  22  46  68  95 129 179 214 268 333 380
#     4  10  23  44  71  92 135 173 217 268 326 388
#
# _framework density 24.373498999999999
#
# number of rings (size 3 to 8) (size 9 to 14) (size 15 to 20)
#    0.000    1.250    5.000    1.125    1.750    3.000 
#    2.250    0.000    0.000    0.000    0.000    0.000 
#    0.000    0.000    0.000    0.000    0.000    0.000 
#
# Total GULP energy -89360.512084 kJ/mol
# GULP energy per Si atom -5585.032005 kJ/mol
# Density = 2.431802 g / cm^3
# Si number density = 24.373499 Si / 1000 Ang^3
#
#
#
# Elastic Constant Matrix: (Units=GPa)
#
#
# Indices 1 2 3 4 5 6 
#
# 1 68.7360 -5.5104 23.0712 -17.2118 15.5773 -22.7852
# 2 -5.5104 71.4447 14.8548 -7.4323 11.3570 -19.2165
# 3 23.0712 14.8548 93.1683 -3.8272 21.9451 -16.5084
# 4 -17.2118 -7.4323 -3.8272 40.2423 2.4568 15.6177
# 5 15.5773 11.3570 21.9451 2.4568 39.8753 -5.8416
# 6 -22.7852 -19.2165 -16.5084 15.6177 -5.8416 26.0267
#
#
#
# Elastic Compliance Matrix: (Units=1/GPa)
#
#
# Indices 1 2 3 4 5 6 
#
# 1 0.028775 0.012238 -0.001487 0.003887 -0.009940 0.028721
# 2 0.012238 0.023173 -0.000390 -0.000179 -0.007341 0.026036
# 3 -0.001487 -0.000390 0.013646 -0.001702 -0.005716 0.006804
# 4 0.003887 -0.000179 -0.001702 0.034263 -0.005514 -0.019606
# 5 -0.009940 -0.007341 -0.005716 -0.005514 0.033525 -0.006915
# 6 0.028721 0.026036 0.006804 -0.019606 -0.006915 0.097317
#
#
# Mechanical properties :
#
#
# Convention : Reuss Voigt Hill
#
# Bulk Modulus (GPa) = 11.58539 33.13111 22.35825
# Shear Modulus (GPa) = 20.94254 34.62443 27.78349
#
# Velocity S-wave (km/s) = 2.93445 3.77314 3.37991
# Velocity P-wave (km/s) = 4.03050 5.71006 4.94215
#
# Compressibility (1/GPa) = 0.08631561
#
# Stress axis : x y z
#
# Youngs Moduli (GPa) = 34.75228 43.15376 73.28307
#
# Poissons Ratio (x) = -0.52811 0.10896
# Poissons Ratio (y) = -0.42530 0.02860
# Poissons Ratio (z) = 0.05167 0.01684
#
# Static dielectric constant tensor:
#      x y z
#    x 1.946160 0.019730 -0.052910 
#    y 0.019730 1.992060 -0.079010 
#    z -0.052910 -0.079010 2.026550 
# 
# From -- ./inp_files/416078.got.cif
#   From: 2010.05.17/outbox.cif.g08.bks.cpg/sg2_209_cif.got.tgz:416078.got - 2010.06.03 11:33:40.
