data_PCOD9029678
_publ_section_title
;
Structure prediction by ZEFSAII (Michael W. Deem and Ramdas Pophale) SiO2 
 PCOD9029678
Probable space group: P -1
;
_chemical_formula_sum "Si O2"
_cell_formula_units_Z 16
_cell_length_a 11.308713
_cell_length_b 14.387583
_cell_length_c 8.857721
_cell_angle_alpha 44.264007
_cell_angle_beta 101.242429
_cell_angle_gamma 128.834869
_cell_volume 692.706476
_symmetry_space_group_name_H-M "P -1"
_symmetry_group_IT_number 2
_symmetry_cell_setting 'triclinic'
loop_
_space_group_symop_operation_xyz
x,y,z
-x,-y,-z
loop_
_atom_site_type_symbol
_atom_site_label
_atom_site_fract_x
_atom_site_fract_y
_atom_site_fract_z
Si Si1 0.281767 0.377429 0.900244
Si Si2 0.789688 0.180611 0.657373
Si Si3 0.550749 0.144124 0.475930
Si Si4 0.598847 0.652842 0.481046
Si Si5 0.686901 0.906777 0.717121
Si Si6 0.704724 0.021638 0.126664
Si Si7 0.090155 0.214240 0.733357
Si Si8 0.981427 0.142896 0.292744
O O1 0.482096 0.562341 0.706034
O O2 0.188780 0.340516 0.761860
O O3 0.272295 0.210497 0.095172
O O4 0.171533 0.338946 0.061261
O O5 0.742022 0.273415 0.439016
O O6 0.966075 0.237159 0.631289
O O7 0.664886 0.976681 0.779317
O O8 0.749965 0.162660 0.845097
O O9 0.478234 0.217027 0.288558
O O10 0.430300 0.032831 0.721888
O O11 0.500000 0.000000 0.500000
O O12 0.500000 0.500000 0.500000
O O13 0.630856 0.832361 0.246624
O O14 0.780431 0.720340 0.446624
O O15 0.854693 0.094945 0.449355
O O16 0.867169 0.090251 0.178448
O O17 0.000000 0.000000 0.000000
O O18 0.000000 0.000000 0.500000
#
# Coordination Sequence:
#
# PCOD9029678 Si02
#       8
#     2   2   2   2   2   2   2   2
#     4  10  17  32  50  79 115 146 174 220 280 341
#     4  11  18  31  58  83 108 139 191 239 271 328
#     4   9  21  36  53  85 111 145 190 239 280 318
#     4  10  21  31  52  89 122 145 177 229 287 338
#     4   9  18  32  53  78 113 145 177 233 275 326
#     4  11  19  35  58  85 112 146 189 234 277 332
#     4  11  17  30  54  85 113 137 182 235 285 319
#     4   9  18  31  51  78 112 143 180 226 278 328
#
# _framework density 23.097805999999999
#
# number of rings (size 3 to 8) (size 9 to 14) (size 15 to 20)
#    0.000    2.000    3.750    1.125    1.750    0.000 
#    0.000    5.625    0.000    3.750   13.000    0.000 
#    0.000    0.000    0.000    0.000    0.000    0.000 
#
# Total GULP energy -89092.507757 kJ/mol
# GULP energy per Si atom -5568.281735 kJ/mol
# Density = 2.304523 g / cm^3
# Si number density = 23.097806 Si / 1000 Ang^3
#
#
#
# Elastic Constant Matrix: (Units=GPa)
#
#
# Indices 1 2 3 4 5 6 
#
# 1 127.0519 35.5890 30.3350 18.7319 -13.6231 33.4815
# 2 35.5890 55.5785 20.4992 26.8603 4.1381 2.1587
# 3 30.3350 20.4992 67.7470 19.0028 -17.9311 19.3771
# 4 18.7319 26.8603 19.0028 31.0340 10.8709 6.1779
# 5 -13.6231 4.1381 -17.9311 10.8709 33.2894 9.5655
# 6 33.4815 2.1587 19.3771 6.1779 9.5655 44.1694
#
#
#
# Elastic Compliance Matrix: (Units=1/GPa)
#
#
# Indices 1 2 3 4 5 6 
#
# 1 0.019569 -0.011126 0.013645 -0.015818 0.028895 -0.024322
# 2 -0.011126 0.038289 -0.008614 -0.020111 -0.011906 0.015732
# 3 0.013645 -0.008614 0.051081 -0.045379 0.060201 -0.039022
# 4 -0.015818 -0.020111 -0.045379 0.105675 -0.072647 0.033833
# 5 0.028895 -0.011906 0.060201 -0.072647 0.117609 -0.063040
# 6 -0.024322 0.015732 -0.039022 0.033833 -0.063040 0.066347
#
#
# Mechanical properties :
#
#
# Convention : Reuss Voigt Hill
#
# Bulk Modulus (GPa) = 10.33593 47.02486 28.68040
# Shear Modulus (GPa) = 11.28649 32.62883 21.95766
#
# Velocity S-wave (km/s) = 2.21292 3.76258 3.08659
# Velocity P-wave (km/s) = 3.31872 6.26732 5.01464
#
# Compressibility (1/GPa) = 0.09674986
#
# Stress axis : x y z
#
# Youngs Moduli (GPa) = 51.10090 26.11747 19.57691
#
# Poissons Ratio (x) = 0.29058 -0.26714
# Poissons Ratio (y) = 0.56855 0.16863
# Poissons Ratio (z) = -0.69729 0.22497
#
# Static dielectric constant tensor:
#      x y z
#    x 2.046840 0.055010 0.058610 
#    y 0.055010 1.902010 -0.002490 
#    z 0.058610 -0.002490 2.021510 
# 
# From -- ./inp_files/268681.got.cif
#   From: 2010.05.17/outbox.cif.g08.bks.cpg/sg2_135_cif.got.tgz:268681.got - 2010.06.03 11:33:40.
