data_PCOD9029316
_publ_section_title
;
Structure prediction by ZEFSAII (Michael W. Deem and Ramdas Pophale) SiO2 
 PCOD9029316
Probable space group: P -1
;
_chemical_formula_sum "Si O2"
_cell_formula_units_Z 16
_cell_length_a 8.250536
_cell_length_b 22.914514
_cell_length_c 14.960009
_cell_angle_alpha 16.739946
_cell_angle_beta 83.533298
_cell_angle_gamma 90.341417
_cell_volume 742.689096
_symmetry_space_group_name_H-M "P -1"
_symmetry_group_IT_number 2
_symmetry_cell_setting 'triclinic'
loop_
_space_group_symop_operation_xyz
x,y,z
-x,-y,-z
loop_
_atom_site_type_symbol
_atom_site_label
_atom_site_fract_x
_atom_site_fract_y
_atom_site_fract_z
Si Si1 0.290512 0.925231 0.395956
Si Si2 0.892060 0.518799 0.564877
Si Si3 0.598783 0.674649 0.315712
Si Si4 0.883784 0.139475 0.812858
Si Si5 0.185823 0.605859 0.722955
Si Si6 0.045718 0.096550 0.454310
Si Si7 0.466795 0.208430 0.660128
Si Si8 0.614896 0.031483 0.354422
O O1 0.187378 0.691423 0.697235
O O2 0.141981 0.004911 0.330196
O O3 0.450896 0.935868 0.434735
O O4 0.386347 0.093752 0.063002
O O5 0.791361 0.673117 0.317831
O O6 0.000000 0.500000 0.500000
O O7 0.032229 0.646310 0.445205
O O8 0.737835 0.289237 0.945052
O O9 0.500000 0.500000 0.500000
O O10 0.528728 0.650972 0.456872
O O11 0.857886 0.236520 0.576325
O O12 0.715888 0.938343 0.160302
O O13 0.000000 0.000000 0.000000
O O14 0.388079 0.644491 0.631878
O O15 0.078417 0.352731 0.078874
O O16 0.229388 0.066707 0.512568
O O17 0.000000 0.000000 0.500000
O O18 0.500000 0.000000 0.000000
O O19 0.500000 0.000000 0.500000
#
# Coordination Sequence:
#
# PCOD9029316 Si02
#       8
#     2   2   2   2   2   2   2   2
#     4  12  25  50  73 106 149 183 251 297 365 443
#     4  12  27  43  72 108 143 186 243 303 364 429
#     4  12  24  42  71 106 138 185 229 302 362 426
#     4  11  22  42  68 105 145 175 233 302 361 432
#     4  11  26  45  73 100 144 193 232 296 372 430
#     4  12  27  49  72 100 143 196 243 299 357 432
#     4  10  22  42  67 101 138 180 227 285 365 421
#     4  12  28  48  73 108 148 195 249 300 362 438
#
# _framework density 21.543334000000002
#
# number of rings (size 3 to 8) (size 9 to 14) (size 15 to 20)
#    0.000    0.500    6.250    1.875    8.750    0.500 
#    0.000    0.000    0.000    0.000    0.000    0.000 
#    0.000    0.000    0.000    0.000    0.000    0.000 
#
# Total GULP energy -89113.141808 kJ/mol
# GULP energy per Si atom -5569.571363 kJ/mol
# Density = 2.149430 g / cm^3
# Si number density = 21.543334 Si / 1000 Ang^3
#
#
#
# Elastic Constant Matrix: (Units=GPa)
#
#
# Indices 1 2 3 4 5 6 
#
# 1 112.2923 56.4375 6.5364 2.2915 -1.2178 -0.7309
# 2 56.4375 155.0310 42.1075 -26.8392 -11.9587 -4.0257
# 3 6.5364 42.1075 92.9946 -12.8809 -13.0168 8.8432
# 4 2.2915 -26.8392 -12.8809 38.8613 1.4615 -6.6640
# 5 -1.2178 -11.9587 -13.0168 1.4615 38.5636 1.5512
# 6 -0.7309 -4.0257 8.8432 -6.6640 1.5512 43.2382
#
#
#
# Elastic Compliance Matrix: (Units=1/GPa)
#
#
# Indices 1 2 3 4 5 6 
#
# 1 0.011579 -0.005297 0.001011 -0.004171 -0.000733 -0.001121
# 2 -0.005297 0.010739 -0.003558 0.006945 0.001592 0.002651
# 3 0.001011 -0.003558 0.013230 0.001232 0.003466 -0.002954
# 4 -0.004171 0.006945 0.001232 0.032041 0.001013 0.005226
# 5 -0.000733 0.001592 0.003466 0.001013 0.027590 -0.001407
# 6 -0.001121 0.002651 -0.002954 0.005226 -0.001407 0.024816
#
#
# Mechanical properties :
#
#
# Convention : Reuss Voigt Hill
#
# Bulk Modulus (GPa) = 50.35269 63.38674 56.86972
# Shear Modulus (GPa) = 35.13644 41.14840 38.14242
#
# Velocity S-wave (km/s) = 4.04290 4.37513 4.21229
# Velocity P-wave (km/s) = 6.72435 7.41681 7.07905
#
# Compressibility (1/GPa) = 0.01985991
#
# Stress axis : x y z
#
# Youngs Moduli (GPa) = 86.36445 93.11829 75.58681
#
# Poissons Ratio (x) = 0.49329 -0.07643
# Poissons Ratio (y) = 0.45752 0.26890
# Poissons Ratio (z) = -0.08733 0.33127
#
# Static dielectric constant tensor:
#      x y z
#    x 2.007930 -0.138450 -0.076650 
#    y -0.138450 1.874790 0.040840 
#    z -0.076650 0.040840 1.794420 
# 
# From -- ./inp_files/507809.got.cif
#   From: 2010.05.17/outbox.cif.g08.bks.cpg/sg2_254_cif.got.tgz:507809.got - 2010.06.03 11:33:40.
