data_PCOD9029622
_publ_section_title
;
Structure prediction by ZEFSAII (Michael W. Deem and Ramdas Pophale) SiO2 
 PCOD9029622
Probable space group: P -1
;
_chemical_formula_sum "Si O2"
_cell_formula_units_Z 16
_cell_length_a 11.629401
_cell_length_b 13.486732
_cell_length_c 8.916610
_cell_angle_alpha 67.400046
_cell_angle_beta 42.110033
_cell_angle_gamma 44.381116
_cell_volume 623.355989
_symmetry_space_group_name_H-M "P -1"
_symmetry_group_IT_number 2
_symmetry_cell_setting 'triclinic'
loop_
_space_group_symop_operation_xyz
x,y,z
-x,-y,-z
loop_
_atom_site_type_symbol
_atom_site_label
_atom_site_fract_x
_atom_site_fract_y
_atom_site_fract_z
Si Si1 0.461488 0.408781 0.685122
Si Si2 0.878069 0.687186 0.847179
Si Si3 0.186670 0.363268 0.757530
Si Si4 0.696299 0.387456 0.002400
Si Si5 0.968808 0.162333 0.435183
Si Si6 0.610678 0.176390 0.254120
Si Si7 0.442677 0.925116 0.925362
Si Si8 0.834176 0.908581 0.406990
O O1 0.500000 0.500000 0.500000
O O2 0.329404 0.382422 0.720188
O O3 0.338192 0.509111 0.895579
O O4 0.710462 0.243456 0.583574
O O5 0.049636 0.701035 0.602877
O O6 0.620294 0.818014 0.951103
O O7 0.980666 0.527578 0.798341
O O8 0.887957 0.691795 0.015907
O O9 0.358752 0.253842 0.525608
O O10 0.649762 0.286526 0.168805
O O11 0.500000 0.500000 0.000000
O O12 0.965142 0.260360 0.751637
O O13 0.053559 0.083189 0.559203
O O14 0.187073 0.059548 0.167986
O O15 0.598588 0.151790 0.106866
O O16 0.785647 0.020551 0.264911
O O17 0.593951 0.951802 0.672742
#
# Coordination Sequence:
#
# PCOD9029622 Si02
#       8
#     2   2   2   2   2   2   2   2
#     4  12  24  45  73  98 134 186 232 283 343 407
#     4  10  22  42  68 100 135 180 231 285 333 419
#     4  11  24  42  68 100 138 179 232 281 344 406
#     4  12  27  48  69 102 141 182 233 286 346 405
#     4  11  22  46  70  99 140 181 228 280 346 415
#     4  12  26  44  66 105 139 179 233 283 347 408
#     4  11  26  43  72 102 139 184 230 280 353 402
#     4  11  25  47  72 100 144 180 227 289 344 415
#
# _framework density 25.667515999999999
#
# number of rings (size 3 to 8) (size 9 to 14) (size 15 to 20)
#    0.000    0.750    3.750    3.750    5.250    3.500 
#    0.000    1.875    0.000    0.000    0.000    0.000 
#    0.000    0.000    0.000    0.000    0.000    0.000 
#
# Total GULP energy -89616.992988 kJ/mol
# GULP energy per Si atom -5601.062062 kJ/mol
# Density = 2.560910 g / cm^3
# Si number density = 25.667516 Si / 1000 Ang^3
#
#
#
# Elastic Constant Matrix: (Units=GPa)
#
#
# Indices 1 2 3 4 5 6 
#
# 1 88.4174 26.8073 22.3754 3.7794 -3.2916 13.5778
# 2 26.8073 115.7515 35.5735 15.2187 -3.6961 4.6903
# 3 22.3754 35.5735 119.6091 25.4006 12.2365 -0.3136
# 4 3.7794 15.2187 25.4006 48.6457 8.5593 -1.0628
# 5 -3.2916 -3.6961 12.2365 8.5593 44.2579 1.2839
# 6 13.5778 4.6903 -0.3136 -1.0628 1.2839 -1.7188
#
#
#
# Elastic Compliance Matrix: (Units=1/GPa)
#
#
# Indices 1 2 3 4 5 6 
#
# 1 0.006270 -0.003183 -0.000379 0.001763 -0.001166 0.038955
# 2 -0.003183 0.010125 -0.002136 -0.001944 0.001426 0.005143
# 3 -0.000379 -0.002136 0.010190 -0.004495 -0.001884 -0.009311
# 4 0.001763 -0.001944 -0.004495 0.023765 -0.003164 -0.007616
# 5 -0.001166 0.001426 -0.001884 -0.003164 0.023342 0.014419
# 6 0.038955 0.005143 -0.009311 -0.007616 0.014419 -0.242861
#
#
# Mechanical properties :
#
#
# Convention : Reuss Voigt Hill
#
# Bulk Modulus (GPa) = 65.83515 54.81006 60.32260
# Shear Modulus (GPa) = -32.74174 34.17175 0.71501
#
# Velocity S-wave (km/s) = -3.57544 3.65269 0.52836
# Velocity P-wave (km/s) = 2.94276 6.26017 4.89130
#
# Compressibility (1/GPa) = 0.01518945
#
# Stress axis : x y z
#
# Youngs Moduli (GPa) = 159.48386 98.76136 98.13951
#
# Poissons Ratio (x) = 0.31436 0.03722
# Poissons Ratio (y) = 0.50764 0.20959
# Poissons Ratio (z) = 0.06049 0.21091
#
# Static dielectric constant tensor:
#      x y z
#    x 2.035740 0.006530 -0.067400 
#    y 0.006530 2.055420 0.008150 
#    z -0.067400 0.008150 2.077540 
# 
# From -- ./inp_files/272375.got.cif
#   From: 2010.05.17/outbox.cif.g08.bks.cpg/sg2_137_cif.got.tgz:272375.got - 2010.06.03 11:33:40.
