data_PCOD9029084
_publ_section_title
;
Structure prediction by ZEFSAII (Michael W. Deem and Ramdas Pophale) SiO2 
 PCOD9029084
Probable space group: P -1
;
_chemical_formula_sum "Si O2"
_cell_formula_units_Z 12
_cell_length_a 9.501544
_cell_length_b 8.296850
_cell_length_c 13.239967
_cell_angle_alpha 124.605850
_cell_angle_beta 36.679702
_cell_angle_gamma 133.595498
_cell_volume 451.266235
_symmetry_space_group_name_H-M "P -1"
_symmetry_group_IT_number 2
_symmetry_cell_setting 'triclinic'
loop_
_space_group_symop_operation_xyz
x,y,z
-x,-y,-z
loop_
_atom_site_type_symbol
_atom_site_label
_atom_site_fract_x
_atom_site_fract_y
_atom_site_fract_z
Si Si1 0.282661 0.910776 0.742997
Si Si2 0.444391 0.518127 0.715901
Si Si3 0.997908 0.558312 0.330522
Si Si4 0.827210 0.948037 0.362860
Si Si5 0.499447 0.379225 0.854116
Si Si6 0.338185 0.026727 0.194337
O O1 0.580800 0.942570 0.563773
O O2 0.078712 0.649231 0.775656
O O3 0.195848 0.969924 0.705653
O O4 0.318783 0.110146 0.866996
O O5 0.219140 0.304275 0.712881
O O6 0.418800 0.461851 0.829476
O O7 0.717731 0.530782 0.520819
O O8 0.465802 0.758642 0.776787
O O9 0.187221 0.555558 0.310416
O O10 0.180185 0.797773 0.262372
O O11 0.109435 0.080849 0.301475
O O12 0.500000 0.500000 0.000000
O O13 0.500000 0.000000 0.000000
#
# Coordination Sequence:
#
# PCOD9029084 Si02
#       6
#     2   2   2   2   2   2
#     4   9  20  40  68  94 120 164 217 266 308 366
#     4  10  22  42  66  90 123 170 217 259 305 372
#     4  11  23  39  65  95 125 169 214 258 312 375
#     4   9  20  41  67  93 124 166 215 261 311 374
#     4  11  22  39  64  96 131 163 205 263 322 376
#     4  12  25  40  60  94 137 170 202 257 324 382
#
# _framework density 26.591842
#
# number of rings (size 3 to 8) (size 9 to 14) (size 15 to 20)
#    0.000    1.667    0.000    5.000    0.000    5.333 
#    0.000    3.333    0.000    0.000    0.000    0.000 
#    0.000    0.000    0.000    0.000    0.000    0.000 
#
# Total GULP energy -67291.094606 kJ/mol
# GULP energy per Si atom -5607.591217 kJ/mol
# Density = 2.653132 g / cm^3
# Si number density = 26.591842 Si / 1000 Ang^3
#
#
#
# Elastic Constant Matrix: (Units=GPa)
#
#
# Indices 1 2 3 4 5 6 
#
# 1 83.8181 21.3368 9.0666 2.9842 8.7681 10.3872
# 2 21.3368 214.2924 34.3396 39.9710 22.7750 23.0722
# 3 9.0666 34.3396 79.2185 -1.7048 22.1322 -3.3725
# 4 2.9842 39.9710 -1.7048 33.9741 13.5135 6.6887
# 5 8.7681 22.7750 22.1322 13.5135 36.9052 1.7162
# 6 10.3872 23.0722 -3.3725 6.6887 1.7162 42.9831
#
#
#
# Elastic Compliance Matrix: (Units=1/GPa)
#
#
# Indices 1 2 3 4 5 6 
#
# 1 0.012773 -0.000912 -0.000408 0.001532 -0.002660 -0.002761
# 2 -0.000912 0.007037 -0.003568 -0.008342 0.001188 -0.002586
# 3 -0.000408 -0.003568 0.017869 0.009416 -0.011978 0.002429
# 4 0.001532 -0.008342 0.009416 0.047105 -0.018029 -0.001764
# 5 -0.002660 0.001188 -0.011978 -0.018029 0.040769 0.000243
# 6 -0.002761 -0.002586 0.002429 -0.001764 0.000243 0.025776
#
#
# Mechanical properties :
#
#
# Convention : Reuss Voigt Hill
#
# Bulk Modulus (GPa) = 35.83785 56.31276 46.07531
# Shear Modulus (GPa) = 29.34180 43.61154 36.47667
#
# Velocity S-wave (km/s) = 3.32537 4.05413 3.70770
# Velocity P-wave (km/s) = 5.31511 6.56790 5.97443
#
# Compressibility (1/GPa) = 0.02790346
#
# Stress axis : x y z
#
# Youngs Moduli (GPa) = 78.29132 142.10297 55.96269
#
# Poissons Ratio (x) = 0.12964 0.02283
# Poissons Ratio (y) = 0.07142 0.19965
# Poissons Ratio (z) = 0.03193 0.50697
#
# Static dielectric constant tensor:
#      x y z
#    x 2.048080 -0.048320 -0.029340 
#    y -0.048320 2.114690 0.043100 
#    z -0.029340 0.043100 2.027070 
# 
# From -- ./inp_files/164826.got.cif
#   From: 2010.05.17/outbox.cif.g08.bks.cpg/sg2_83_cif.got.tgz:164826.got - 2010.06.03 11:33:40.
