data_PCOD9029293
_publ_section_title
;
Structure prediction by ZEFSAII (Michael W. Deem and Ramdas Pophale) SiO2 
 PCOD9029293
Probable space group: P -1
;
_chemical_formula_sum "Si O2"
_cell_formula_units_Z 14
_cell_length_a 9.406471
_cell_length_b 14.280151
_cell_length_c 12.621764
_cell_angle_alpha 147.866386
_cell_angle_beta 136.496874
_cell_angle_gamma 57.020725
_cell_volume 609.374935
_symmetry_space_group_name_H-M "P -1"
_symmetry_group_IT_number 2
_symmetry_cell_setting 'triclinic'
loop_
_space_group_symop_operation_xyz
x,y,z
-x,-y,-z
loop_
_atom_site_type_symbol
_atom_site_label
_atom_site_fract_x
_atom_site_fract_y
_atom_site_fract_z
Si Si1 0.822069 0.216048 0.180167
Si Si2 0.205755 0.174609 0.215494
Si Si3 0.910386 0.682012 0.113365
Si Si4 0.223799 0.275246 0.693365
Si Si5 0.298654 0.598526 0.914133
Si Si6 0.453159 0.551171 0.643672
Si Si7 0.882309 0.126519 0.796138
O O1 0.789169 0.341131 0.183810
O O2 0.714385 0.314425 0.308751
O O3 0.057057 0.184347 0.246861
O O4 0.701335 0.008022 0.905345
O O5 0.363838 0.362416 0.472236
O O6 0.067567 0.157770 0.015280
O O7 0.913982 0.754501 0.304133
O O8 0.036537 0.808758 0.214029
O O9 0.671224 0.641026 0.902260
O O10 0.000000 0.500000 0.000000
O O11 0.166429 0.412538 0.707291
O O12 0.222440 0.080762 0.460393
O O13 0.454281 0.385412 0.954298
O O14 0.273735 0.746911 0.129527
O O15 0.500000 0.500000 0.500000
#
# Coordination Sequence:
#
# PCOD9029293 Si02
#       7
#     2   2   2   2   2   2   2
#     4  10  23  44  70 100 134 174 232 281 338 403
#     4  10  24  44  69 103 130 180 230 282 341 400
#     4  12  25  46  66 101 138 183 225 272 341 402
#     4  11  23  42  68  96 132 175 219 279 334 397
#     4  10  22  42  67 100 129 170 225 275 337 395
#     4  12  25  46  70  97 144 180 227 282 335 410
#     4  11  23  42  66  97 136 171 226 273 336 399
#
# _framework density 22.974360000000001
#
# number of rings (size 3 to 8) (size 9 to 14) (size 15 to 20)
#    0.000    1.143    4.286    1.286    0.000    8.571 
#    2.571    0.000    0.000    0.000    0.000    0.000 
#    0.000    0.000    0.000    0.000    0.000    0.000 
#
# Total GULP energy -78200.540265 kJ/mol
# GULP energy per Si atom -5585.752876 kJ/mol
# Density = 2.292207 g / cm^3
# Si number density = 22.974360 Si / 1000 Ang^3
#
#
#
# Elastic Constant Matrix: (Units=GPa)
#
#
# Indices 1 2 3 4 5 6 
#
# 1 105.6560 33.4206 27.7940 17.9003 -34.5360 -5.8694
# 2 33.4206 99.7189 26.3993 24.9413 -11.4300 7.4636
# 3 27.7940 26.3993 69.2034 35.0097 -20.9412 -2.9815
# 4 17.9003 24.9413 35.0097 45.3306 -9.7534 -2.5470
# 5 -34.5360 -11.4300 -20.9412 -9.7534 39.2343 -0.9556
# 6 -5.8694 7.4636 -2.9815 -2.5470 -0.9556 26.0586
#
#
#
# Elastic Compliance Matrix: (Units=1/GPa)
#
#
# Indices 1 2 3 4 5 6 
#
# 1 0.015017 -0.003735 -0.000469 -0.000702 0.011822 0.004763
# 2 -0.003735 0.013224 -0.001689 -0.005178 -0.001755 -0.005393
# 3 -0.000469 -0.001689 0.027140 -0.017745 0.009221 0.002087
# 4 -0.000702 -0.005178 -0.017745 0.038647 -0.001917 0.003002
# 5 0.011822 -0.001755 0.009221 -0.001917 0.039962 0.005498
# 6 0.004763 -0.005393 0.002087 0.003002 0.005498 0.041726
#
#
# Mechanical properties :
#
#
# Convention : Reuss Voigt Hill
#
# Bulk Modulus (GPa) = 22.93755 49.97846 36.45800
# Shear Modulus (GPa) = 24.74820 34.58897 29.66859
#
# Velocity S-wave (km/s) = 3.28565 3.88435 3.59747
# Velocity P-wave (km/s) = 4.93960 6.47447 5.75840
#
# Compressibility (1/GPa) = 0.04359664
#
# Stress axis : x y z
#
# Youngs Moduli (GPa) = 66.58998 75.61725 36.84588
#
# Poissons Ratio (x) = 0.28242 0.01728
# Poissons Ratio (y) = 0.24870 0.06222
# Poissons Ratio (z) = 0.03123 0.12770
#
# Static dielectric constant tensor:
#      x y z
#    x 1.860560 -0.014640 -0.019910 
#    y -0.014640 1.933190 -0.032940 
#    z -0.019910 -0.032940 1.868330 
# 
# From -- ./inp_files/124359.got.cif
#   From: 2010.05.17/outbox.cif.g08.bks.cpg/sg2_63_cif.got.tgz:124359.got - 2010.06.03 11:33:40.
