data_PCOD9029076
_publ_section_title
;
Structure prediction by ZEFSAII (Michael W. Deem and Ramdas Pophale) SiO2 
 PCOD9029076
Probable space group: P -1
;
_chemical_formula_sum "Si O2"
_cell_formula_units_Z 16
_cell_length_a 9.281232
_cell_length_b 14.149338
_cell_length_c 18.520542
_cell_angle_alpha 162.318689
_cell_angle_beta 96.994947
_cell_angle_gamma 81.525239
_cell_volume 729.234430
_symmetry_space_group_name_H-M "P -1"
_symmetry_group_IT_number 2
_symmetry_cell_setting 'triclinic'
loop_
_space_group_symop_operation_xyz
x,y,z
-x,-y,-z
loop_
_atom_site_type_symbol
_atom_site_label
_atom_site_fract_x
_atom_site_fract_y
_atom_site_fract_z
Si Si1 0.684388 0.589494 0.722743
Si Si2 0.632661 0.284487 0.254734
Si Si3 0.846920 0.133523 0.509532
Si Si4 0.879025 0.095593 0.727431
Si Si5 0.665652 0.940686 0.490845
Si Si6 0.206144 0.565609 0.768987
Si Si7 0.139350 0.579730 0.521305
Si Si8 0.999583 0.743074 0.004559
O O1 0.533771 0.572041 0.657962
O O2 0.731281 0.297511 0.564614
O O3 0.814401 0.600704 0.680755
O O4 0.651818 0.912154 0.000043
O O5 0.705019 0.304024 0.194402
O O6 0.724547 0.458845 0.443989
O O7 0.766483 0.971394 0.449983
O O8 0.974244 0.910507 0.315610
O O9 0.925008 0.425760 0.759095
O O10 0.871944 0.728514 0.480385
O O11 0.735595 0.161821 0.716508
O O12 0.895901 0.274075 0.932079
O O13 0.500000 0.000000 0.500000
O O14 0.690345 0.605187 0.287370
O O15 0.088140 0.784486 0.965855
O O16 0.000000 0.500000 0.500000
O O17 0.110554 0.947446 0.766833
#
# Coordination Sequence:
#
# PCOD9029076 Si02
#       8
#     2   2   2   2   2   2   2   2
#     4  11  24  40  62  92 125 163 207 246 315 361
#     4  11  23  41  62  89 128 167 197 258 302 369
#     4  11  21  41  65  88 122 163 205 253 300 366
#     4   9  21  39  62  90 118 157 204 251 301 351
#     4  10  22  42  66  88 122 164 199 252 311 361
#     4   9  22  39  63  90 121 160 205 248 310 356
#     4  12  24  38  64  94 125 162 210 252 304 363
#     4  11  21  38  63  94 120 156 212 254 300 357
#
# _framework density 21.940818
#
# number of rings (size 3 to 8) (size 9 to 14) (size 15 to 20)
#    0.750    0.750    2.500    3.000    1.750    1.500 
#    0.000    0.625    2.750    0.000    0.000    0.000 
#    0.000    0.000    0.000    0.000    0.000    0.000 
#
# Total GULP energy -89341.953188 kJ/mol
# GULP energy per Si atom -5583.872074 kJ/mol
# Density = 2.189088 g / cm^3
# Si number density = 21.940818 Si / 1000 Ang^3
#
#
#
# Elastic Constant Matrix: (Units=GPa)
#
#
# Indices 1 2 3 4 5 6 
#
# 1 88.7240 21.8703 15.3257 -13.5260 2.0482 -14.3237
# 2 21.8703 84.9251 16.1376 -6.1730 -0.4259 -7.6473
# 3 15.3257 16.1376 52.5702 -12.5997 -9.6430 -8.1766
# 4 -13.5260 -6.1730 -12.5997 27.6869 -3.9915 3.7940
# 5 2.0482 -0.4259 -9.6430 -3.9915 21.7419 -6.6640
# 6 -14.3237 -7.6473 -8.1766 3.7940 -6.6640 45.2948
#
#
#
# Elastic Compliance Matrix: (Units=1/GPa)
#
#
# Indices 1 2 3 4 5 6 
#
# 1 0.013400 -0.002532 -0.001508 0.004850 -0.000137 0.003112
# 2 -0.002532 0.013117 -0.003329 -0.000035 -0.000772 0.000702
# 3 -0.001508 -0.003329 0.027234 0.012516 0.016044 0.005189
# 4 0.004850 -0.000035 0.012516 0.045938 0.014146 0.002020
# 5 -0.000137 -0.000772 0.016044 0.014146 0.058829 0.010193
# 6 0.003112 0.000702 0.005189 0.002020 0.010193 0.025447
#
#
# Mechanical properties :
#
#
# Convention : Reuss Voigt Hill
#
# Bulk Modulus (GPa) = 25.63338 36.98738 31.31038
# Shear Modulus (GPa) = 23.61746 30.47044 27.04395
#
# Velocity S-wave (km/s) = 3.28444 3.73064 3.51463
# Velocity P-wave (km/s) = 5.10800 5.95410 5.54721
#
# Compressibility (1/GPa) = 0.03901163
#
# Stress axis : x y z
#
# Youngs Moduli (GPa) = 74.62447 76.23921 36.71920
#
# Poissons Ratio (x) = 0.19307 0.05538
# Poissons Ratio (y) = 0.18898 0.12224
# Poissons Ratio (z) = 0.11254 0.25381
#
# Static dielectric constant tensor:
#      x y z
#    x 1.799890 -0.026650 0.002400 
#    y -0.026650 1.827360 0.008600 
#    z 0.002400 0.008600 1.829000 
# 
# From -- ./inp_files/561259.got.cif
#   From: 2010.05.17/outbox.cif.g08.bks.cpg/sg2_281_cif.got.tgz:561259.got - 2010.06.03 11:33:40.
