data_PCOD9029749
_publ_section_title
;
Structure prediction by ZEFSAII (Michael W. Deem and Ramdas Pophale) SiO2 
 PCOD9029749
Probable space group: P -1
;
_chemical_formula_sum "Si O2"
_cell_formula_units_Z 16
_cell_length_a 12.411335
_cell_length_b 14.640072
_cell_length_c 17.917354
_cell_angle_alpha 151.281974
_cell_angle_beta 151.006519
_cell_angle_gamma 48.670818
_cell_volume 673.991815
_symmetry_space_group_name_H-M "P -1"
_symmetry_group_IT_number 2
_symmetry_cell_setting 'triclinic'
loop_
_space_group_symop_operation_xyz
x,y,z
-x,-y,-z
loop_
_atom_site_type_symbol
_atom_site_label
_atom_site_fract_x
_atom_site_fract_y
_atom_site_fract_z
Si Si1 0.695140 0.110221 0.130593
Si Si2 0.035478 0.605319 0.704644
Si Si3 0.682562 0.180073 0.582592
Si Si4 0.920149 0.580162 0.122419
Si Si5 0.037833 0.314421 0.115785
Si Si6 0.705848 0.953662 0.874746
Si Si7 0.205027 0.069620 0.405597
Si Si8 0.491772 0.457464 0.053732
O O1 0.817399 0.369373 0.384191
O O2 0.935223 0.062983 0.251946
O O3 0.577666 0.003448 0.903792
O O4 0.500000 0.000000 0.000000
O O5 0.307818 0.625318 0.866123
O O6 0.029843 0.617690 0.799157
O O7 0.044845 0.817674 0.824885
O O8 0.751243 0.387121 0.824578
O O9 0.433522 0.102710 0.328418
O O10 0.698056 0.001168 0.514262
O O11 0.895600 0.240658 0.692356
O O12 0.772261 0.653877 0.144417
O O13 0.075551 0.487003 0.199170
O O14 0.248419 0.243916 0.213318
O O15 0.823571 0.095881 0.795031
O O16 0.393868 0.308115 0.672934
O O17 0.500000 0.500000 0.000000
#
# Coordination Sequence:
#
# PCOD9029749 Si02
#       8
#     2   2   2   2   2   2   2   2
#     4  10  24  45  67  94 135 176 214 270 339 398
#     4  11  23  42  66  99 132 168 225 269 331 390
#     4  10  23  42  65 100 132 169 228 273 328 383
#     4  10  23  42  65  99 134 173 218 277 329 389
#     4  10  22  42  68  92 131 173 221 269 324 392
#     4  11  24  43  66  98 130 174 222 272 323 389
#     4   9  22  42  65  95 132 170 223 271 325 397
#     4  11  21  38  67  94 131 175 219 267 331 393
#
# _framework density 23.739160999999999
#
# number of rings (size 3 to 8) (size 9 to 14) (size 15 to 20)
#    0.000    1.750    1.250    1.500    3.500    2.500 
#   11.250    1.875    0.000    0.000    0.000    0.000 
#    0.000    0.000    0.000    0.000    0.000    0.000 
#
# Total GULP energy -89452.852355 kJ/mol
# GULP energy per Si atom -5590.803272 kJ/mol
# Density = 2.368513 g / cm^3
# Si number density = 23.739161 Si / 1000 Ang^3
#
#
#
# Elastic Constant Matrix: (Units=GPa)
#
#
# Indices 1 2 3 4 5 6 
#
# 1 146.1829 33.3544 23.8488 -13.8750 0.4652 3.4528
# 2 33.3544 72.7623 25.3427 -5.1019 -8.9604 10.7511
# 3 23.8488 25.3427 51.7782 -10.3687 -7.9980 -4.6402
# 4 -13.8750 -5.1019 -10.3687 14.6091 6.4856 -12.5391
# 5 0.4652 -8.9604 -7.9980 6.4856 37.0894 -8.8177
# 6 3.4528 10.7511 -4.6402 -12.5391 -8.8177 29.4519
#
#
#
# Elastic Compliance Matrix: (Units=1/GPa)
#
#
# Indices 1 2 3 4 5 6 
#
# 1 0.008880 -0.004673 0.001215 0.013804 -0.001929 0.006156
# 2 -0.004673 0.022984 -0.016133 -0.026957 0.001775 -0.021329
# 3 0.001215 -0.016133 0.041599 0.054853 0.004244 0.036925
# 4 0.013804 -0.026957 0.054853 0.199614 -0.005973 0.100061
# 5 -0.001929 0.001775 0.004244 -0.005973 0.031038 0.006996
# 6 0.006156 -0.021329 0.036925 0.100061 0.006996 0.091531
#
#
# Mechanical properties :
#
#
# Convention : Reuss Voigt Hill
#
# Bulk Modulus (GPa) = 29.16976 48.42390 38.79683
# Shear Modulus (GPa) = 11.20439 28.77525 19.98982
#
# Velocity S-wave (km/s) = 2.17487 3.48536 2.90498
# Velocity P-wave (km/s) = 4.31521 6.05306 5.25645
#
# Compressibility (1/GPa) = 0.03428208
#
# Stress axis : x y z
#
# Youngs Moduli (GPa) = 112.61749 43.50790 24.03925
#
# Poissons Ratio (x) = 0.20331 -0.02921
# Poissons Ratio (y) = 0.52624 0.38782
# Poissons Ratio (z) = -0.13685 0.70190
#
# Static dielectric constant tensor:
#      x y z
#    x 1.906030 -0.037510 -0.006690 
#    y -0.037510 1.923920 -0.037310 
#    z -0.006690 -0.037310 1.927790 
# 
# From -- ./inp_files/569987.got.cif
#   From: 2010.05.17/outbox.cif.g08.bks.cpg/sg2_285_cif.got.tgz:569987.got - 2010.06.03 11:33:40.
