data_PCOD9029723
_publ_section_title
;
Structure prediction by ZEFSAII (Michael W. Deem and Ramdas Pophale) SiO2 
 PCOD9029723
Probable space group: P -1
;
_chemical_formula_sum "Si O2"
_cell_formula_units_Z 16
_cell_length_a 7.627692
_cell_length_b 17.908018
_cell_length_c 7.295220
_cell_angle_alpha 108.461136
_cell_angle_beta 125.834772
_cell_angle_gamma 58.105401
_cell_volume 685.863848
_symmetry_space_group_name_H-M "P -1"
_symmetry_group_IT_number 2
_symmetry_cell_setting 'triclinic'
loop_
_space_group_symop_operation_xyz
x,y,z
-x,-y,-z
loop_
_atom_site_type_symbol
_atom_site_label
_atom_site_fract_x
_atom_site_fract_y
_atom_site_fract_z
Si Si1 0.459569 0.618597 0.478895
Si Si2 0.453742 0.889260 0.299634
Si Si3 0.844279 0.435526 0.487867
Si Si4 0.816657 0.957170 0.483054
Si Si5 0.669587 0.073097 0.164074
Si Si6 0.771196 0.366776 0.039038
Si Si7 0.686837 0.739270 0.815329
Si Si8 0.367949 0.308556 0.838958
O O1 0.716457 0.531668 0.574141
O O2 0.288504 0.616722 0.535819
O O3 0.520775 0.700749 0.583925
O O4 0.326910 0.609409 0.208055
O O5 0.276390 0.950356 0.393279
O O6 0.533709 0.786478 0.271236
O O7 0.693787 0.903543 0.462051
O O8 0.339529 0.927509 0.060773
O O9 0.781781 0.439574 0.237577
O O10 0.128395 0.381925 0.654746
O O11 0.723820 0.984612 0.240016
O O12 0.101417 0.909419 0.631245
O O13 0.437663 0.156003 0.162765
O O14 0.049934 0.295719 0.138019
O O15 0.587463 0.333775 0.987263
O O16 0.702367 0.703940 0.006302
#
# Coordination Sequence:
#
# PCOD9029723 Si02
#       8
#     2   2   2   2   2   2   2   2
#     4  11  25  45  70 100 136 177 226 277 329 395
#     4  10  23  42  64  98 129 168 217 266 327 392
#     4  11  25  45  70 100 136 177 226 277 329 395
#     4  10  22  42  68  90 130 172 210 270 330 388
#     4  10  23  42  64  98 129 168 217 266 327 392
#     4  12  25  44  70  98 134 184 222 272 336 388
#     4  11  25  45  69 102 136 178 222 276 332 396
#     4  11  25  45  69 102 136 178 222 276 332 396
#
# _framework density 23.328244999999999
#
# number of rings (size 3 to 8) (size 9 to 14) (size 15 to 20)
#    0.000    1.250    2.500    1.875    5.250    3.500 
#   11.250    0.000    0.000    0.000    0.000    0.000 
#    0.000    0.000    0.000    0.000    0.000    0.000 
#
# Total GULP energy -89542.325570 kJ/mol
# GULP energy per Si atom -5596.395348 kJ/mol
# Density = 2.327515 g / cm^3
# Si number density = 23.328245 Si / 1000 Ang^3
#
#
#
# Elastic Constant Matrix: (Units=GPa)
#
#
# Indices 1 2 3 4 5 6 
#
# 1 85.1300 28.6147 35.4922 0.4683 17.5689 -11.1045
# 2 28.6147 41.7315 18.4800 7.5096 7.5342 -8.3751
# 3 35.4922 18.4800 80.6083 -1.9115 -10.9292 -8.0845
# 4 0.4683 7.5096 -1.9115 23.5905 -1.6663 1.5470
# 5 17.5689 7.5342 -10.9292 -1.6663 38.4739 -3.8085
# 6 -11.1045 -8.3751 -8.0845 1.5470 -3.8085 27.1206
#
#
#
# Elastic Compliance Matrix: (Units=1/GPa)
#
#
# Indices 1 2 3 4 5 6 
#
# 1 0.020110 -0.008234 -0.008066 0.000764 -0.009642 0.001889
# 2 -0.008234 0.036169 -0.004951 -0.012498 -0.004639 0.006383
# 3 -0.008066 -0.004951 0.018789 0.003859 0.010356 0.002003
# 4 0.000764 -0.012498 0.003859 0.047295 0.004806 -0.004419
# 5 -0.009642 -0.004639 0.010356 0.004806 0.034681 0.002303
# 6 0.001889 0.006383 0.002003 -0.004419 0.002303 0.040790
#
#
# Mechanical properties :
#
#
# Convention : Reuss Voigt Hill
#
# Bulk Modulus (GPa) = 30.70936 41.40482 36.05709
# Shear Modulus (GPa) = 19.90512 26.16255 23.03384
#
# Velocity S-wave (km/s) = 2.92424 3.35251 3.14567
# Velocity P-wave (km/s) = 4.95925 5.72478 5.35571
#
# Compressibility (1/GPa) = 0.03256337
#
# Stress axis : x y z
#
# Youngs Moduli (GPa) = 49.72762 27.64786 53.22291
#
# Poissons Ratio (x) = 0.22767 0.42931
# Poissons Ratio (y) = 0.40948 0.26353
# Poissons Ratio (z) = 0.40111 0.13690
#
# Static dielectric constant tensor:
#      x y z
#    x 1.869020 0.020080 -0.031330 
#    y 0.020080 1.837940 -0.002300 
#    z -0.031330 -0.002300 1.906670 
# 
# From -- ./inp_files/223917.got.cif
#   From: 2010.05.17/outbox.cif.g08.bks.cpg/sg2_112_cif.got.tgz:223917.got - 2010.06.03 11:33:40.
