data_PCOD9029302
_publ_section_title
;
Structure prediction by ZEFSAII (Michael W. Deem and Ramdas Pophale) SiO2 
 PCOD9029302
Probable space group: P -1
;
_chemical_formula_sum "Si O2"
_cell_formula_units_Z 16
_cell_length_a 9.618935
_cell_length_b 15.939018
_cell_length_c 7.890521
_cell_angle_alpha 89.914279
_cell_angle_beta 62.650870
_cell_angle_gamma 47.039431
_cell_volume 690.128629
_symmetry_space_group_name_H-M "P -1"
_symmetry_group_IT_number 2
_symmetry_cell_setting 'triclinic'
loop_
_space_group_symop_operation_xyz
x,y,z
-x,-y,-z
loop_
_atom_site_type_symbol
_atom_site_label
_atom_site_fract_x
_atom_site_fract_y
_atom_site_fract_z
Si Si1 0.811427 0.468471 0.751058
Si Si2 0.109946 0.784180 0.126039
Si Si3 0.681949 0.709021 0.708475
Si Si4 0.788072 0.255899 0.323467
Si Si5 0.321602 0.146213 0.665606
Si Si6 0.268226 0.152609 0.089867
Si Si7 0.725186 0.093083 0.317845
Si Si8 0.547685 0.409636 0.774232
O O1 0.713626 0.600212 0.745447
O O2 0.666701 0.453126 0.734499
O O3 0.098160 0.360061 0.546521
O O4 0.721020 0.490528 0.995327
O O5 0.292576 0.712942 0.182653
O O6 0.932492 0.779114 0.274041
O O7 0.219631 0.724717 0.875228
O O8 0.934646 0.937265 0.203919
O O9 0.717740 0.762900 0.833302
O O10 0.412093 0.836602 0.784902
O O11 0.819018 0.143699 0.325039
O O12 0.567330 0.374978 0.567974
O O13 0.019908 0.207235 0.274449
O O14 0.491164 0.157531 0.553405
O O15 0.500000 0.000000 0.500000
O O16 0.265142 0.161410 0.892103
O O17 0.500000 0.000000 0.000000
#
# Coordination Sequence:
#
# PCOD9029302 Si02
#       8
#     2   2   2   2   2   2   2   2
#     4  10  24  43  70  95 129 189 233 273 330 400
#     4  10  22  42  67 100 140 176 216 280 353 404
#     4  11  22  45  72  94 138 180 225 279 338 402
#     4  11  24  40  65 103 136 173 226 278 341 406
#     4   9  20  36  59  94 135 167 211 264 329 407
#     4  11  23  39  68  99 133 177 221 272 342 411
#     4  11  23  41  66 104 138 171 219 283 353 403
#     4  11  23  44  70  96 134 180 233 282 335 393
#
# _framework density 23.184083999999999
#
# number of rings (size 3 to 8) (size 9 to 14) (size 15 to 20)
#    0.000    1.500    1.250    4.125    5.250    1.500 
#    0.000    6.250    2.750    0.000    0.000    0.000 
#    0.000    0.000    0.000    0.000    0.000    0.000 
#
# Total GULP energy -89338.473767 kJ/mol
# GULP energy per Si atom -5583.654610 kJ/mol
# Density = 2.313132 g / cm^3
# Si number density = 23.184084 Si / 1000 Ang^3
#
#
#
# Elastic Constant Matrix: (Units=GPa)
#
#
# Indices 1 2 3 4 5 6 
#
# 1 71.6385 29.3974 26.1862 -0.1676 2.9787 21.1008
# 2 29.3974 107.7794 22.3662 9.9405 -2.5074 18.3749
# 3 26.1862 22.3662 134.6149 -0.7463 -8.2761 18.3633
# 4 -0.1676 9.9405 -0.7463 30.6060 6.1834 -13.5009
# 5 2.9787 -2.5074 -8.2761 6.1834 35.6589 2.6306
# 6 21.1008 18.3749 18.3633 -13.5009 2.6306 42.6190
#
#
#
# Elastic Compliance Matrix: (Units=1/GPa)
#
#
# Indices 1 2 3 4 5 6 
#
# 1 0.018217 -0.003155 -0.002127 -0.001842 -0.001384 -0.007240
# 2 -0.003155 0.011917 -0.000460 -0.006964 0.002626 -0.005746
# 3 -0.002127 -0.000460 0.008486 -0.001527 0.002605 -0.003050
# 4 -0.001842 -0.006964 -0.001527 0.045576 -0.010041 0.019630
# 5 -0.001384 0.002626 0.002605 -0.010041 0.031182 -0.006675
# 6 -0.007240 -0.005746 -0.003050 0.019630 -0.006675 0.037470
#
#
# Mechanical properties :
#
#
# Convention : Reuss Voigt Hill
#
# Bulk Modulus (GPa) = 36.85015 52.21470 44.53243
# Shear Modulus (GPa) = 28.83869 37.51566 33.17718
#
# Velocity S-wave (km/s) = 3.53072 4.02701 3.78700
# Velocity P-wave (km/s) = 5.70530 6.64779 6.19449
#
# Compressibility (1/GPa) = 0.02713693
#
# Stress axis : x y z
#
# Youngs Moduli (GPa) = 54.89326 83.91177 117.83521
#
# Poissons Ratio (x) = 0.26477 0.25064
# Poissons Ratio (y) = 0.17321 0.05415
# Poissons Ratio (z) = 0.11676 0.03856
#
# Static dielectric constant tensor:
#      x y z
#    x 1.844240 -0.011460 -0.035270 
#    y -0.011460 1.965820 -0.011450 
#    z -0.035270 -0.011450 1.902290 
# 
# From -- ./inp_files/207595.got.cif
#   From: 2010.05.17/outbox.cif.g08.bks.cpg/sg2_104_cif.got.tgz:207595.got - 2010.06.03 11:33:40.
