data_PCOD9029154
_publ_section_title
;
Structure prediction by ZEFSAII (Michael W. Deem and Ramdas Pophale) SiO2 
 PCOD9029154
Probable space group: P -1
;
_chemical_formula_sum "Si O2"
_cell_formula_units_Z 16
_cell_length_a 9.986220
_cell_length_b 15.327832
_cell_length_c 13.203572
_cell_angle_alpha 28.172235
_cell_angle_beta 78.261966
_cell_angle_gamma 60.289147
_cell_volume 681.295870
_symmetry_space_group_name_H-M "P -1"
_symmetry_group_IT_number 2
_symmetry_cell_setting 'triclinic'
loop_
_space_group_symop_operation_xyz
x,y,z
-x,-y,-z
loop_
_atom_site_type_symbol
_atom_site_label
_atom_site_fract_x
_atom_site_fract_y
_atom_site_fract_z
Si Si1 0.851541 0.307837 0.353218
Si Si2 0.954745 0.222169 0.056653
Si Si3 0.103662 0.470338 0.717519
Si Si4 0.707687 0.972919 0.226637
Si Si5 0.672241 0.741693 0.290518
Si Si6 0.656602 0.578775 0.903170
Si Si7 0.722970 0.947249 0.482983
Si Si8 0.190741 0.768168 0.149018
O O1 0.772749 0.521093 0.233661
O O2 0.890348 0.069435 0.635382
O O3 0.061878 0.184497 0.414017
O O4 0.722590 0.430846 0.149558
O O5 0.779501 0.378586 0.999704
O O6 0.879223 0.245193 0.933972
O O7 0.037125 0.351771 0.908808
O O8 0.167185 0.348754 0.721300
O O9 0.932335 0.765019 0.420410
O O10 0.672489 0.823518 0.319383
O O11 0.645650 0.023530 0.300256
O O12 0.676546 0.180694 0.950020
O O13 0.694832 0.500783 0.538690
O O14 0.500000 0.000000 0.000000
O O15 0.432957 0.787739 0.706545
O O16 0.712191 0.745966 0.727032
O O17 0.000000 0.000000 0.000000
#
# Coordination Sequence:
#
# PCOD9029154 Si02
#       8
#     2   2   2   2   2   2   2   2
#     4  11  23  43  66  94 132 175 218 269 326 383
#     4  12  22  41  68  98 122 170 227 259 323 397
#     4  11  22  42  66  93 125 172 216 263 324 397
#     4  11  21  43  68  89 129 171 218 261 323 400
#     4  12  26  41  65 103 132 164 218 277 331 392
#     4  11  23  40  67  96 134 168 222 271 322 387
#     4  10  22  42  66  94 129 180 209 267 332 387
#     4  12  22  42  72  91 125 177 215 265 329 400
#
# _framework density 23.484656000000001
#
# number of rings (size 3 to 8) (size 9 to 14) (size 15 to 20)
#    0.000    0.750    7.500    1.875    1.750    1.000 
#    2.250    0.000    0.000    0.000    0.000    0.000 
#    0.000    0.000    0.000    0.000    0.000    0.000 
#
# Total GULP energy -89433.200534 kJ/mol
# GULP energy per Si atom -5589.575033 kJ/mol
# Density = 2.343120 g / cm^3
# Si number density = 23.484656 Si / 1000 Ang^3
#
#
#
# Elastic Constant Matrix: (Units=GPa)
#
#
# Indices 1 2 3 4 5 6 
#
# 1 38.5416 -0.5947 25.2544 -4.1273 -16.7177 4.4123
# 2 -0.5947 100.4260 17.6006 -6.4930 3.5184 18.1323
# 3 25.2544 17.6006 135.3357 -0.4048 -19.4587 2.2528
# 4 -4.1273 -6.4930 -0.4048 30.4336 0.8560 -2.7661
# 5 -16.7177 3.5184 -19.4587 0.8560 35.7608 4.6829
# 6 4.4123 18.1323 2.2528 -2.7661 4.6829 25.9605
#
#
#
# Elastic Compliance Matrix: (Units=1/GPa)
#
#
# Indices 1 2 3 4 5 6 
#
# 1 0.037759 0.002654 -0.004913 0.004239 0.015961 -0.010273
# 2 0.002654 0.011961 -0.001891 0.002118 0.000088 -0.008431
# 3 -0.004913 -0.001891 0.008918 -0.000953 0.002660 0.000801
# 4 0.004239 0.002118 -0.000953 0.033998 0.000250 0.001460
# 5 0.015961 0.000088 0.002660 0.000250 0.038149 -0.009860
# 6 -0.010273 -0.008431 0.000801 0.001460 -0.009860 0.048020
#
#
# Mechanical properties :
#
#
# Convention : Reuss Voigt Hill
#
# Bulk Modulus (GPa) = 19.86548 39.86932 29.86740
# Shear Modulus (GPa) = 24.52364 33.90053 29.21209
#
# Velocity S-wave (km/s) = 3.23498 3.80349 3.53069
# Velocity P-wave (km/s) = 4.73611 6.02514 5.41909
#
# Compressibility (1/GPa) = 0.05033857
#
# Stress axis : x y z
#
# Youngs Moduli (GPa) = 26.48352 83.60532 112.13233
#
# Poissons Ratio (x) = -0.22191 0.55087
# Poissons Ratio (y) = -0.07029 0.21210
# Poissons Ratio (z) = 0.13010 0.15814
#
# Static dielectric constant tensor:
#      x y z
#    x 1.982270 0.488160 -0.103220 
#    y 0.488160 6.854990 -0.831470 
#    z -0.103220 -0.831470 2.049350 
# 
# From -- ./inp_files/433663.got.cif
#   From: 2010.05.17/outbox.cif.g08.bks.cpg/sg2_217_cif.got.tgz:433663.got - 2010.06.03 11:33:40.
