data_PCOD9029433
_publ_section_title
;
Structure prediction by ZEFSAII (Michael W. Deem and Ramdas Pophale) SiO2 
 PCOD9029433
Probable space group: P -1
;
_chemical_formula_sum "Si O2"
_cell_formula_units_Z 13
_cell_length_a 14.140933
_cell_length_b 11.075066
_cell_length_c 13.423812
_cell_angle_alpha 131.385026
_cell_angle_beta 159.844872
_cell_angle_gamma 42.639651
_cell_volume 486.761446
_symmetry_space_group_name_H-M "P -1"
_symmetry_group_IT_number 2
_symmetry_cell_setting 'triclinic'
loop_
_space_group_symop_operation_xyz
x,y,z
-x,-y,-z
loop_
_atom_site_type_symbol
_atom_site_label
_atom_site_fract_x
_atom_site_fract_y
_atom_site_fract_z
Si Si1 0.763513 0.336294 0.110673
Si Si2 0.775809 0.710412 0.760918
Si Si3 0.215951 0.165109 0.730782
Si Si4 0.800781 0.544379 0.488833
Si Si5 0.675130 0.204096 0.347401
Si Si6 0.909993 0.051315 0.821911
Si Si7 0.500000 0.500000 0.500000
O O1 0.562154 0.376013 0.831586
O O2 0.500000 0.500000 0.000000
O O3 0.066700 0.358775 0.402409
O O4 0.879950 0.126497 0.130595
O O5 0.880316 0.586997 0.699416
O O6 0.702120 0.601228 0.711765
O O7 0.452265 0.882790 0.510101
O O8 0.022294 0.786763 0.065347
O O9 0.983363 0.333601 0.530569
O O10 0.015032 0.163644 0.626946
O O11 0.321930 0.967181 0.683940
O O12 0.483455 0.208431 0.060761
O O13 0.552030 0.384408 0.384829
O O14 0.000000 0.000000 0.000000
#
# Coordination Sequence:
#
# PCOD9029433 Si02
#       7
#     2   2   2   2   2   2   1
#     4  12  27  43  71 106 135 175 237 301 349 420
#     4  12  26  43  74 105 141 191 228 297 350 424
#     4  10  22  42  67  94 132 190 229 274 351 424
#     4  12  22  44  73  99 139 185 232 280 367 428
#     4  10  23  41  64  96 138 182 234 283 334 416
#     4  12  24  47  72 101 138 184 241 285 357 419
#     4  12  28  44  70 112 146 180 248 292 352 418
#
# _framework density 26.707128999999998
#
# number of rings (size 3 to 8) (size 9 to 14) (size 15 to 20)
#    0.000    0.615    4.615    2.769    2.154    4.923 
#    0.000    0.000    0.000    0.000    0.000    0.000 
#    0.000    0.000    0.000    0.000    0.000    0.000 
#
# Total GULP energy -72563.896876 kJ/mol
# GULP energy per Si atom -5581.838221 kJ/mol
# Density = 2.664634 g / cm^3
# Si number density = 26.707129 Si / 1000 Ang^3
#
#
#
# Elastic Constant Matrix: (Units=GPa)
#
#
# Indices 1 2 3 4 5 6 
#
# 1 76.7557 11.4134 -0.0729 14.7025 27.7591 -9.4490
# 2 11.4134 159.1142 25.0391 19.9235 0.8847 -10.2295
# 3 -0.0729 25.0391 108.9657 -3.3394 13.2918 -4.6943
# 4 14.7025 19.9235 -3.3394 54.4657 9.8474 3.1573
# 5 27.7591 0.8847 13.2918 9.8474 33.1892 8.4065
# 6 -9.4490 -10.2295 -4.6943 3.1573 8.4065 38.7454
#
#
#
# Elastic Compliance Matrix: (Units=1/GPa)
#
#
# Indices 1 2 3 4 5 6 
#
# 1 0.023258 -0.001116 0.003478 -0.002142 -0.022955 0.010954
# 2 -0.001116 0.007086 -0.001919 -0.002849 0.002067 0.001150
# 3 0.003478 -0.001919 0.010870 0.001788 -0.008597 0.003378
# 4 -0.002142 -0.002849 0.001788 0.021032 -0.004642 -0.001764
# 5 -0.022955 0.002067 -0.008597 -0.004642 0.058773 -0.018468
# 6 0.010954 0.001150 0.003378 -0.001764 -0.018468 0.033344
#
#
# Mechanical properties :
#
#
# Convention : Reuss Voigt Hill
#
# Bulk Modulus (GPa) = 23.75233 46.39941 35.07587
# Shear Modulus (GPa) = 29.84919 45.84381 37.84650
#
# Velocity S-wave (km/s) = 3.34675 4.14761 3.76851
# Velocity P-wave (km/s) = 4.88337 6.35201 5.66548
#
# Compressibility (1/GPa) = 0.04210113
#
# Stress axis : x y z
#
# Youngs Moduli (GPa) = 42.99570 141.12431 92.00047
#
# Poissons Ratio (x) = 0.15745 -0.32001
# Poissons Ratio (y) = 0.04797 0.17654
# Poissons Ratio (z) = -0.14955 0.27080
#
# Static dielectric constant tensor:
#      x y z
#    x 2.035810 0.043160 -0.142160 
#    y 0.043160 2.145830 -0.024450 
#    z -0.142160 -0.024450 2.096720 
# 
# From -- ./inp_files/74014.got.cif
#   From: 2010.05.17/outbox.cif.g08.bks.cpg/sg2_38_cif.got.tgz:74014.got - 2010.06.03 11:33:40.
