data_PCOD9029542
_publ_section_title
;
Structure prediction by ZEFSAII (Michael W. Deem and Ramdas Pophale) SiO2 
 PCOD9029542
Probable space group: P -1
;
_chemical_formula_sum "Si O2"
_cell_formula_units_Z 16
_cell_length_a 13.986614
_cell_length_b 12.031030
_cell_length_c 8.513674
_cell_angle_alpha 80.211423
_cell_angle_beta 93.206512
_cell_angle_gamma 31.787438
_cell_volume 685.995801
_symmetry_space_group_name_H-M "P -1"
_symmetry_group_IT_number 2
_symmetry_cell_setting 'triclinic'
loop_
_space_group_symop_operation_xyz
x,y,z
-x,-y,-z
loop_
_atom_site_type_symbol
_atom_site_label
_atom_site_fract_x
_atom_site_fract_y
_atom_site_fract_z
Si Si1 0.090635 0.056090 0.138428
Si Si2 0.838689 0.827054 0.628071
Si Si3 0.854636 0.890280 0.190674
Si Si4 0.116091 0.910955 0.690658
Si Si5 0.542396 0.475302 0.694442
Si Si6 0.201361 0.309959 0.768472
Si Si7 0.492423 0.251399 0.255037
Si Si8 0.352099 0.165367 0.173132
O O1 0.289470 0.784096 0.185682
O O2 0.939148 0.116472 0.166763
O O3 0.120287 0.106913 0.277300
O O4 0.062858 0.160653 0.958622
O O5 0.751636 0.817570 0.730602
O O6 0.044316 0.566080 0.647163
O O7 0.670690 0.031447 0.439810
O O8 0.928365 0.914098 0.306611
O O9 0.886399 0.724661 0.259289
O O10 0.613950 0.147247 0.128762
O O11 0.343202 0.664011 0.727347
O O12 0.000000 0.000000 0.500000
O O13 0.500000 0.500000 0.500000
O O14 0.602427 0.540945 0.728024
O O15 0.414114 0.102591 0.755805
O O16 0.252550 0.265365 0.969103
O O17 0.349039 0.294781 0.208145
#
# Coordination Sequence:
#
# PCOD9029542 Si02
#       8
#     2   2   2   2   2   2   2   2
#     4  12  24  42  68  98 131 174 221 263 331 395
#     4  12  23  42  68 100 134 173 223 274 328 391
#     4  10  23  44  66  93 134 171 216 272 325 390
#     4  11  23  43  67  98 129 165 222 267 322 395
#     4  11  22  45  68  92 134 175 207 277 332 378
#     4  10  23  44  67  95 136 174 217 278 329 388
#     4  10  23  43  68  99 133 172 228 275 326 397
#     4  10  22  42  67  97 133 173 223 269 332 395
#
# _framework density 23.323757000000001
#
# number of rings (size 3 to 8) (size 9 to 14) (size 15 to 20)
#    0.000    1.250    3.750    1.875    0.000    6.000 
#    2.250    0.000    0.000    0.000    0.000    0.000 
#    0.000    0.000    0.000    0.000    0.000    0.000 
#
# Total GULP energy -89569.232509 kJ/mol
# GULP energy per Si atom -5598.077032 kJ/mol
# Density = 2.327067 g / cm^3
# Si number density = 23.323757 Si / 1000 Ang^3
#
#
#
# Elastic Constant Matrix: (Units=GPa)
#
#
# Indices 1 2 3 4 5 6 
#
# 1 123.9749 38.8122 13.2572 -0.0415 19.2282 24.5367
# 2 38.8122 137.9810 29.3087 -19.8637 15.1166 23.4596
# 3 13.2572 29.3087 58.4437 0.4803 14.1001 2.8772
# 4 -0.0415 -19.8637 0.4803 24.7843 5.2231 2.5575
# 5 19.2282 15.1166 14.1001 5.2231 26.1098 14.9516
# 6 24.5367 23.4596 2.8772 2.5575 14.9516 49.8829
#
#
#
# Elastic Compliance Matrix: (Units=1/GPa)
#
#
# Indices 1 2 3 4 5 6 
#
# 1 0.009885 -0.001849 -0.000064 -0.000218 -0.004651 -0.002583
# 2 -0.001849 0.011034 -0.004422 0.009830 -0.002429 -0.003801
# 3 -0.000064 -0.004422 0.021866 -0.002039 -0.011275 0.004334
# 4 -0.000218 0.009830 -0.002039 0.051307 -0.012879 -0.003169
# 5 -0.004651 -0.002429 -0.011275 -0.012879 0.059252 -0.013019
# 6 -0.002583 -0.003801 0.004334 -0.003169 -0.013019 0.026920
#
#
# Mechanical properties :
#
#
# Convention : Reuss Voigt Hill
#
# Bulk Modulus (GPa) = 33.20558 53.68397 43.44478
# Shear Modulus (GPa) = 24.63399 36.09014 30.36206
#
# Velocity S-wave (km/s) = 3.25341 3.93791 3.61191
# Velocity P-wave (km/s) = 5.32735 6.61385 6.00515
#
# Compressibility (1/GPa) = 0.03011542
#
# Stress axis : x y z
#
# Youngs Moduli (GPa) = 101.16776 90.62724 45.73297
#
# Poissons Ratio (x) = 0.16761 0.00291
# Poissons Ratio (y) = 0.18710 0.20222
# Poissons Ratio (z) = 0.00643 0.40073
#
# Static dielectric constant tensor:
#      x y z
#    x 1.409630 -0.142420 -0.055680 
#    y -0.142420 1.829230 -0.005330 
#    z -0.055680 -0.005330 1.896580 
# 
# From -- ./inp_files/307338.got.cif
#   From: 2010.05.17/outbox.cif.g08.bks.cpg/sg2_154_cif.got.tgz:307338.got - 2010.06.03 11:33:40.
