data_PCOD9029358
_publ_section_title
;
Structure prediction by ZEFSAII (Michael W. Deem and Ramdas Pophale) SiO2 
 PCOD9029358
Probable space group: P -1
;
_chemical_formula_sum "Si O2"
_cell_formula_units_Z 14
_cell_length_a 18.611671
_cell_length_b 7.804143
_cell_length_c 11.366306
_cell_angle_alpha 139.394061
_cell_angle_beta 31.940546
_cell_angle_gamma 139.578512
_cell_volume 534.615421
_symmetry_space_group_name_H-M "P -1"
_symmetry_group_IT_number 2
_symmetry_cell_setting 'triclinic'
loop_
_space_group_symop_operation_xyz
x,y,z
-x,-y,-z
loop_
_atom_site_type_symbol
_atom_site_label
_atom_site_fract_x
_atom_site_fract_y
_atom_site_fract_z
Si Si1 0.216624 0.913369 0.135881
Si Si2 0.522960 0.600961 0.705236
Si Si3 0.834341 0.726654 0.407061
Si Si4 0.546567 0.175112 0.850516
Si Si5 0.127481 0.052737 0.093586
Si Si6 0.787303 0.670041 0.095844
Si Si7 0.786944 0.232569 0.362840
O O1 0.183245 0.012310 0.361597
O O2 0.149474 0.048935 0.198621
O O3 0.182729 0.580685 0.010759
O O4 0.387877 0.054845 0.955075
O O5 0.676826 0.560024 0.484110
O O6 0.388347 0.415544 0.716985
O O7 0.566199 0.914744 0.757545
O O8 0.459027 0.603604 0.926853
O O9 0.873704 0.538780 0.354645
O O10 0.965351 0.836693 0.192936
O O11 0.663177 0.267470 0.634588
O O12 0.150293 0.320153 0.119606
O O13 0.240603 0.927189 0.808732
O O14 0.841825 0.999244 0.228201
#
# Coordination Sequence:
#
# PCOD9029358 Si02
#       7
#     2   2   2   2   2   2   2
#     4  10  22  42  67  88 123 165 209 258 297 368
#     4   9  20  39  65  89 123 158 206 266 293 366
#     4  11  23  41  63  92 125 164 206 253 310 362
#     4   9  20  39  62  96 119 158 212 252 311 357
#     4  10  24  43  61  91 132 162 202 255 308 369
#     4   9  23  42  63  95 117 165 210 248 313 360
#     4  10  24  38  62  94 127 161 205 254 309 374
#
# _framework density 26.187051
#
# number of rings (size 3 to 8) (size 9 to 14) (size 15 to 20)
#    0.857    1.429    0.000    1.714    4.000    7.429 
#    2.571    1.429    0.000    0.000    0.000    0.000 
#    0.000    0.000    0.000    0.000    0.000    0.000 
#
# Total GULP energy -78116.395341 kJ/mol
# GULP energy per Si atom -5579.742524 kJ/mol
# Density = 2.612745 g / cm^3
# Si number density = 26.187051 Si / 1000 Ang^3
#
#
#
# Elastic Constant Matrix: (Units=GPa)
#
#
# Indices 1 2 3 4 5 6 
#
# 1 93.1672 26.2059 29.1536 -8.8308 -12.4664 6.2320
# 2 26.2059 85.8575 32.2313 -8.8484 -0.6709 -18.0613
# 3 29.1536 32.2313 79.9637 -18.0432 -2.2949 -2.9987
# 4 -8.8308 -8.8484 -18.0432 48.4211 -0.2447 4.4691
# 5 -12.4664 -0.6709 -2.2949 -0.2447 37.3055 -6.2889
# 6 6.2320 -18.0613 -2.9987 4.4691 -6.2889 20.6182
#
#
#
# Elastic Compliance Matrix: (Units=1/GPa)
#
#
# Indices 1 2 3 4 5 6 
#
# 1 0.014129 -0.004676 -0.003191 0.001303 0.003071 -0.008177
# 2 -0.004676 0.018715 -0.005374 -0.001061 0.001418 0.017688
# 3 -0.003191 -0.005374 0.016840 0.004942 -0.000520 -0.002523
# 4 0.001303 -0.001061 0.004942 0.023056 -0.000077 -0.005626
# 5 0.003071 0.001418 -0.000520 -0.000077 0.029379 0.009216
# 6 -0.008177 0.017688 -0.002523 -0.005626 0.009216 0.070130
#
#
# Mechanical properties :
#
#
# Convention : Reuss Voigt Hill
#
# Bulk Modulus (GPa) = 43.09939 48.24112 45.67026
# Shear Modulus (GPa) = 24.21727 32.69545 28.45636
#
# Velocity S-wave (km/s) = 3.04432 3.53729 3.30003
# Velocity P-wave (km/s) = 5.37133 5.92832 5.65669
#
# Compressibility (1/GPa) = 0.02320218
#
# Stress axis : x y z
#
# Youngs Moduli (GPa) = 70.77858 53.43421 59.38101
#
# Poissons Ratio (x) = 0.24988 0.18946
# Poissons Ratio (y) = 0.33099 0.31910
# Poissons Ratio (z) = 0.22582 0.28714
#
# Static dielectric constant tensor:
#      x y z
#    x 2.142770 0.024480 0.004580 
#    y 0.024480 2.055940 0.003050 
#    z 0.004580 0.003050 2.036020 
# 
# From -- ./inp_files/469633.got.cif
#   From: 2010.05.17/outbox.cif.g08.bks.cpg/sg2_235_cif.got.tgz:469633.got - 2010.06.03 11:33:40.
