data_PCOD9029649
_publ_section_title
;
Structure prediction by ZEFSAII (Michael W. Deem and Ramdas Pophale) SiO2 
 PCOD9029649
Probable space group: P -1
;
_chemical_formula_sum "Si O2"
_cell_formula_units_Z 10
_cell_length_a 7.579790
_cell_length_b 9.316596
_cell_length_c 10.692849
_cell_angle_alpha 41.919159
_cell_angle_beta 112.981263
_cell_angle_gamma 133.634041
_cell_volume 353.101701
_symmetry_space_group_name_H-M "P -1"
_symmetry_group_IT_number 2
_symmetry_cell_setting 'triclinic'
loop_
_space_group_symop_operation_xyz
x,y,z
-x,-y,-z
loop_
_atom_site_type_symbol
_atom_site_label
_atom_site_fract_x
_atom_site_fract_y
_atom_site_fract_z
Si Si1 0.986611 0.839443 0.755942
Si Si2 0.475678 0.316223 0.996445
Si Si3 0.544831 0.938694 0.417307
Si Si4 0.214876 0.834404 0.071378
Si Si5 0.762953 0.563402 0.498202
O O1 0.709480 0.569224 0.814040
O O2 0.188367 0.961746 0.621228
O O3 0.020497 0.102743 0.650503
O O4 0.054039 0.744998 0.958740
O O5 0.500000 0.500000 0.000000
O O6 0.519678 0.119227 0.199673
O O7 0.243383 0.079785 0.996649
O O8 0.320886 0.607233 0.543350
O O9 0.500000 0.000000 0.500000
O O10 0.157151 0.581264 0.300477
O O11 0.500000 0.000000 0.000000
O O12 0.500000 0.500000 0.500000
#
# Coordination Sequence:
#
# PCOD9029649 Si02
#       5
#     2   2   2   2   2
#     4  11  23  47  74  95 139 190 221 278 353 400
#     4  11  26  45  67 105 137 178 236 281 334 413
#     4  10  22  42  68 101 139 171 224 290 335 402
#     4  11  21  42  72  97 139 182 225 280 344 406
#     4   9  19  39  67 101 135 178 229 276 336 415
#
# _framework density 28.320452
#
# number of rings (size 3 to 8) (size 9 to 14) (size 15 to 20)
#    0.000    1.600    6.000    0.600    2.800    0.800 
#    3.600    4.000    0.000    0.000    0.000    0.000 
#    0.000    0.000    0.000    0.000    0.000    0.000 
#
# Total GULP energy -56037.909156 kJ/mol
# GULP energy per Si atom -5603.790916 kJ/mol
# Density = 2.825599 g / cm^3
# Si number density = 28.320452 Si / 1000 Ang^3
#
#
#
# Elastic Constant Matrix: (Units=GPa)
#
#
# Indices 1 2 3 4 5 6 
#
# 1 121.4438 59.4340 39.4072 -6.2605 -10.6012 -10.2969
# 2 59.4340 203.7153 49.6278 -10.4904 7.0597 -39.1767
# 3 39.4072 49.6278 145.4441 -11.5253 18.1868 7.8638
# 4 -6.2605 -10.4904 -11.5253 61.2933 -9.3107 4.4288
# 5 -10.6012 7.0597 18.1868 -9.3107 31.2761 2.4249
# 6 -10.2969 -39.1767 7.8638 4.4288 2.4249 55.4144
#
#
#
# Elastic Compliance Matrix: (Units=1/GPa)
#
#
# Indices 1 2 3 4 5 6 
#
# 1 0.011073 -0.002671 -0.002800 0.001088 0.006293 0.000204
# 2 -0.002671 0.007108 -0.001730 -0.000019 -0.001886 0.004859
# 3 -0.002800 -0.001730 0.009103 0.000502 -0.005483 -0.002835
# 4 0.001088 -0.000019 0.000502 0.017446 0.005392 -0.001513
# 5 0.006293 -0.001886 -0.005483 0.005392 0.039445 -0.001543
# 6 0.000204 0.004859 -0.002835 -0.001513 -0.001543 0.022110
#
#
# Mechanical properties :
#
#
# Convention : Reuss Voigt Hill
#
# Bulk Modulus (GPa) = 77.63163 85.28235 81.45699
# Shear Modulus (GPa) = 40.00584 51.07238 45.53911
#
# Velocity S-wave (km/s) = 3.76255 4.25122 4.01433
# Velocity P-wave (km/s) = 6.80787 7.36722 7.09306
#
# Compressibility (1/GPa) = 0.01288135
#
# Stress axis : x y z
#
# Youngs Moduli (GPa) = 90.31067 140.68000 109.85082
#
# Poissons Ratio (x) = 0.37576 0.30762
# Poissons Ratio (y) = 0.24123 0.19005
# Poissons Ratio (z) = 0.25290 0.24339
#
# Static dielectric constant tensor:
#      x y z
#    x 2.319020 -0.070970 -0.010660 
#    y -0.070970 2.305880 0.082550 
#    z -0.010660 0.082550 2.188770 
# 
# From -- ./inp_files/146065.got.cif
#   From: 2010.05.17/outbox.cif.g08.bks.cpg/sg2_74_cif.got.tgz:146065.got - 2010.06.03 11:33:40.
