data_PCOD9029528
_publ_section_title
;
Structure prediction by ZEFSAII (Michael W. Deem and Ramdas Pophale) SiO2 
 PCOD9029528
Probable space group: P -1
;
_chemical_formula_sum "Si O2"
_cell_formula_units_Z 16
_cell_length_a 5.207760
_cell_length_b 11.831132
_cell_length_c 12.700953
_cell_angle_alpha 77.866501
_cell_angle_beta 118.849917
_cell_angle_gamma 81.895710
_cell_volume 642.707733
_symmetry_space_group_name_H-M "P -1"
_symmetry_group_IT_number 2
_symmetry_cell_setting 'triclinic'
loop_
_space_group_symop_operation_xyz
x,y,z
-x,-y,-z
loop_
_atom_site_type_symbol
_atom_site_label
_atom_site_fract_x
_atom_site_fract_y
_atom_site_fract_z
Si Si1 0.015388 0.414795 0.774564
Si Si2 0.229470 0.248805 0.152256
Si Si3 0.738555 0.953464 0.647483
Si Si4 0.339355 0.770219 0.042687
Si Si5 0.558465 0.428266 0.253591
Si Si6 0.668649 0.047073 0.164359
Si Si7 0.508679 0.157936 0.736285
Si Si8 0.057898 0.628037 0.463099
O O1 0.308191 0.306512 0.885957
O O2 0.183780 0.518261 0.756690
O O3 0.742987 0.468104 0.790449
O O4 0.867942 0.378175 0.645345
O O5 0.432498 0.339636 0.174270
O O6 0.353531 0.141735 0.114699
O O7 0.267733 0.175497 0.283732
O O8 0.876118 0.299750 0.043069
O O9 0.666110 0.057994 0.702329
O O10 0.500000 0.000000 0.500000
O O11 0.093931 0.939147 0.700265
O O12 0.288643 0.789948 0.154072
O O13 0.255018 0.899148 0.940144
O O14 0.698497 0.361809 0.403628
O O15 0.650552 0.913218 0.198611
O O16 0.252195 0.264187 0.610405
O O17 0.000000 0.500000 0.500000
#
# Coordination Sequence:
#
# PCOD9029528 Si02
#       8
#     2   2   2   2   2   2   2   2
#     4  10  24  43  68 100 134 182 227 287 337 409
#     4  10  25  40  65  94 135 178 221 286 328 413
#     4  10  24  40  63  97 137 172 222 278 341 413
#     4  10  23  44  64  94 135 170 233 277 337 402
#     4  11  24  42  68  99 137 181 229 277 354 398
#     4  10  23  41  63  97 127 175 224 281 336 399
#     4  10  22  42  67  97 127 182 217 279 344 401
#     4   9  21  43  66  99 134 173 227 285 337 414
#
# _framework density 24.894676
#
# number of rings (size 3 to 8) (size 9 to 14) (size 15 to 20)
#    0.000    2.000    0.000    0.750    8.750    8.500 
#   11.250    0.000    0.000    0.000    0.000    0.000 
#    0.000    0.000    0.000    0.000    0.000    0.000 
#
# Total GULP energy -89467.480962 kJ/mol
# GULP energy per Si atom -5591.717560 kJ/mol
# Density = 2.483801 g / cm^3
# Si number density = 24.894676 Si / 1000 Ang^3
#
#
#
# Elastic Constant Matrix: (Units=GPa)
#
#
# Indices 1 2 3 4 5 6 
#
# 1 52.9485 6.3377 22.7392 4.9676 8.8028 6.7113
# 2 6.3377 78.3178 31.1634 -6.4946 6.6818 9.4827
# 3 22.7392 31.1634 182.1930 -5.7472 8.6700 10.0662
# 4 4.9676 -6.4946 -5.7472 35.5100 4.9835 7.3615
# 5 8.8028 6.6818 8.6700 4.9835 23.4177 -1.7824
# 6 6.7113 9.4827 10.0662 7.3615 -1.7824 31.9983
#
#
#
# Elastic Compliance Matrix: (Units=1/GPa)
#
#
# Indices 1 2 3 4 5 6 
#
# 1 0.021684 0.000099 -0.002204 -0.001525 -0.007339 -0.003942
# 2 0.000099 0.014890 -0.001920 0.004124 -0.004837 -0.005048
# 3 -0.002204 -0.001920 0.006277 0.001444 -0.001357 -0.001351
# 4 -0.001525 0.004124 0.001444 0.032527 -0.008770 -0.009328
# 5 -0.007339 -0.004837 -0.001357 -0.008770 0.049834 0.008193
# 6 -0.003942 -0.005048 -0.001351 -0.009328 0.008193 0.036602
#
#
# Mechanical properties :
#
#
# Convention : Reuss Voigt Hill
#
# Bulk Modulus (GPa) = 28.73489 48.21551 38.47520
# Shear Modulus (GPa) = 27.55356 35.06645 31.31001
#
# Velocity S-wave (km/s) = 3.33048 3.75719 3.55025
# Velocity P-wave (km/s) = 5.13392 6.18319 5.68282
#
# Compressibility (1/GPa) = 0.03480089
#
# Stress axis : x y z
#
# Youngs Moduli (GPa) = 46.11720 67.15760 159.31085
#
# Poissons Ratio (x) = -0.00668 0.35118
# Poissons Ratio (y) = -0.00458 0.30591
# Poissons Ratio (z) = 0.10166 0.12896
#
# Static dielectric constant tensor:
#      x y z
#    x 2.040140 0.039930 -0.018570 
#    y 0.039930 2.005280 0.035040 
#    z -0.018570 0.035040 1.965210 
# 
# From -- ./inp_files/71238.got.cif
#   From: 2010.05.17/outbox.cif.g08.bks.cpg/sg2_36_cif.got.tgz:71238.got - 2010.06.03 11:33:40.
