data_PCOD9029276
_publ_section_title
;
Structure prediction by ZEFSAII (Michael W. Deem and Ramdas Pophale) SiO2 
 PCOD9029276
Probable space group: P -1
;
_chemical_formula_sum "Si O2"
_cell_formula_units_Z 16
_cell_length_a 16.545321
_cell_length_b 16.467676
_cell_length_c 9.030386
_cell_angle_alpha 40.954269
_cell_angle_beta 44.320881
_cell_angle_gamma 26.687387
_cell_volume 717.364203
_symmetry_space_group_name_H-M "P -1"
_symmetry_group_IT_number 2
_symmetry_cell_setting 'triclinic'
loop_
_space_group_symop_operation_xyz
x,y,z
-x,-y,-z
loop_
_atom_site_type_symbol
_atom_site_label
_atom_site_fract_x
_atom_site_fract_y
_atom_site_fract_z
Si Si1 0.380189 0.212985 0.047439
Si Si2 0.525906 0.667114 0.662491
Si Si3 0.294894 0.219167 0.820505
Si Si4 0.908441 0.949798 0.252948
Si Si5 0.072311 0.495574 0.260140
Si Si6 0.887028 0.047540 0.444236
Si Si7 0.836883 0.338515 0.921896
Si Si8 0.493124 0.380256 0.576573
O O1 0.247624 0.284915 0.253220
O O2 0.580786 0.994526 0.108515
O O3 0.310529 0.211113 0.988180
O O4 0.379100 0.362375 0.820128
O O5 0.612924 0.730124 0.429316
O O6 0.311842 0.859902 0.718665
O O7 0.645695 0.508511 0.853440
O O8 0.553859 0.568354 0.607429
O O9 0.090365 0.374567 0.821905
O O10 0.964073 0.890527 0.435048
O O11 0.005148 0.776153 0.252551
O O12 0.000000 0.000000 0.000000
O O13 0.133348 0.582142 0.105075
O O14 0.000000 0.500000 0.500000
O O15 0.697380 0.158005 0.604115
O O16 0.847529 0.201227 0.184586
O O17 0.000000 0.000000 0.500000
O O18 0.500000 0.500000 0.500000
#
# Coordination Sequence:
#
# PCOD9029276 Si02
#       8
#     2   2   2   2   2   2   2   2
#     4  10  24  45  69  96 135 178 223 285 338 390
#     4  10  22  42  68  95 133 175 226 270 335 406
#     4  10  23  45  69  96 132 182 226 278 336 402
#     4   9  22  42  64  93 129 175 220 268 335 401
#     4  12  25  42  65 104 132 169 230 272 342 400
#     4  10  23  42  62  97 128 169 228 274 332 400
#     4  11  24  43  64  95 136 180 213 280 340 393
#     4  10  22  42  66  99 127 173 224 276 337 394
#
# _framework density 22.303871999999998
#
# number of rings (size 3 to 8) (size 9 to 14) (size 15 to 20)
#    0.000    1.750    1.250    1.125    5.250    6.000 
#    4.500    0.000    0.000    0.000    0.000    0.000 
#    0.000    0.000    0.000    0.000    0.000    0.000 
#
# Total GULP energy -89365.467500 kJ/mol
# GULP energy per Si atom -5585.341719 kJ/mol
# Density = 2.225311 g / cm^3
# Si number density = 22.303872 Si / 1000 Ang^3
#
#
#
# Elastic Constant Matrix: (Units=GPa)
#
#
# Indices 1 2 3 4 5 6 
#
# 1 96.5781 30.4512 16.0698 10.2373 -5.5042 -0.0402
# 2 30.4512 91.8417 21.2311 31.0849 0.9097 19.6277
# 3 16.0698 21.2311 66.0878 14.9795 4.3400 9.0047
# 4 10.2373 31.0849 14.9795 37.1082 4.9122 3.6816
# 5 -5.5042 0.9097 4.3400 4.9122 15.8815 0.5075
# 6 -0.0402 19.6277 9.0047 3.6816 0.5075 31.0875
#
#
#
# Elastic Compliance Matrix: (Units=1/GPa)
#
#
# Indices 1 2 3 4 5 6 
#
# 1 0.012415 -0.004413 -0.002454 0.000258 0.005038 0.003400
# 2 -0.004413 0.019503 -0.000719 -0.014087 0.002242 -0.010479
# 3 -0.002454 -0.000719 0.017916 -0.005016 -0.004023 -0.004079
# 4 0.000258 -0.014087 -0.005016 0.041572 -0.010770 0.005600
# 5 0.005038 0.002242 -0.004023 -0.010770 0.069018 -0.000095
# 6 0.003400 -0.010479 -0.004079 0.005600 -0.000095 0.039308
#
#
# Mechanical properties :
#
#
# Convention : Reuss Voigt Hill
#
# Bulk Modulus (GPa) = 28.84948 43.33465 36.09207
# Shear Modulus (GPa) = 22.07925 29.26581 25.67253
#
# Velocity S-wave (km/s) = 3.14973 3.62628 3.39637
# Velocity P-wave (km/s) = 5.11767 6.08314 5.62117
#
# Compressibility (1/GPa) = 0.03466267
#
# Stress axis : x y z
#
# Youngs Moduli (GPa) = 80.54620 51.27467 55.81646
#
# Poissons Ratio (x) = 0.22628 0.13696
# Poissons Ratio (y) = 0.35546 0.04012
# Poissons Ratio (z) = 0.19764 0.03686
#
# Static dielectric constant tensor:
#      x y z
#    x 1.911040 0.102610 -0.055210 
#    y 0.102610 1.899200 -0.035340 
#    z -0.055210 -0.035340 1.842980 
# 
# From -- ./inp_files/314585.got.cif
#   From: 2010.05.17/outbox.cif.g08.bks.cpg/sg2_158_cif.got.tgz:314585.got - 2010.06.03 11:33:40.
