data_PCOD9029261
_publ_section_title
;
Structure prediction by ZEFSAII (Michael W. Deem and Ramdas Pophale) SiO2 
 PCOD9029261
Probable space group: P -1
;
_chemical_formula_sum "Si O2"
_cell_formula_units_Z 14
_cell_length_a 15.993227
_cell_length_b 14.955411
_cell_length_c 5.864071
_cell_angle_alpha 74.166235
_cell_angle_beta 111.868426
_cell_angle_gamma 154.249355
_cell_volume 558.651367
_symmetry_space_group_name_H-M "P -1"
_symmetry_group_IT_number 2
_symmetry_cell_setting 'triclinic'
loop_
_space_group_symop_operation_xyz
x,y,z
-x,-y,-z
loop_
_atom_site_type_symbol
_atom_site_label
_atom_site_fract_x
_atom_site_fract_y
_atom_site_fract_z
Si Si1 0.906704 0.325474 0.279628
Si Si2 0.591162 0.987090 0.518425
Si Si3 0.132447 0.340675 0.910163
Si Si4 0.733143 0.705975 0.667527
Si Si5 0.741293 0.362434 0.898527
Si Si6 0.057426 0.923559 0.486486
Si Si7 0.262273 0.991971 0.977546
O O1 0.812194 0.173106 0.093175
O O2 0.137836 0.532542 0.293467
O O3 0.823919 0.218908 0.516051
O O4 0.822879 0.351357 0.134028
O O5 0.483702 0.860014 0.262653
O O6 0.500000 0.000000 0.500000
O O7 0.571859 0.888789 0.756259
O O8 0.063887 0.270898 0.627885
O O9 0.253884 0.358572 0.075908
O O10 0.235614 0.523353 0.010316
O O11 0.918932 0.137100 0.962224
O O12 0.500000 0.500000 0.500000
O O13 0.882026 0.805341 0.549146
O O14 0.841246 0.904478 0.689947
O O15 0.250084 0.057462 0.722130
#
# Coordination Sequence:
#
# PCOD9029261 Si02
#       7
#     2   2   2   2   2   2   2
#     4  10  22  45  63  93 142 176 229 283 333 398
#     4  12  24  42  66  96 135 184 234 284 333 387
#     4  10  22  44  69 100 136 175 223 272 343 408
#     4  10  23  44  71 104 131 167 226 275 344 415
#     4  10  23  44  68 102 130 182 232 277 340 401
#     4  10  22  46  70  95 141 177 211 285 340 403
#     4  10  22  42  66  98 134 183 228 270 343 391
#
# _framework density 25.06035
#
# number of rings (size 3 to 8) (size 9 to 14) (size 15 to 20)
#    0.000    1.714    1.429    1.714    0.000    3.429 
#    7.714    4.286    0.000    0.000    0.000    0.000 
#    0.000    0.000    0.000    0.000    0.000    0.000 
#
# Total GULP energy -78197.838631 kJ/mol
# GULP energy per Si atom -5585.559902 kJ/mol
# Density = 2.500331 g / cm^3
# Si number density = 25.060350 Si / 1000 Ang^3
#
#
#
# Elastic Constant Matrix: (Units=GPa)
#
#
# Indices 1 2 3 4 5 6 
#
# 1 119.8979 41.0303 45.4866 3.3683 12.0795 -14.3669
# 2 41.0303 62.8923 27.0388 6.8169 6.5132 6.4300
# 3 45.4866 27.0388 97.4018 4.6755 23.6770 -10.2277
# 4 3.3683 6.8169 4.6755 38.1912 -5.3064 -2.5848
# 5 12.0795 6.5132 23.6770 -5.3064 49.6447 4.4476
# 6 -14.3669 6.4300 -10.2277 -2.5848 4.4476 47.4990
#
#
#
# Elastic Compliance Matrix: (Units=1/GPa)
#
#
# Indices 1 2 3 4 5 6 
#
# 1 0.012638 -0.007263 -0.003269 0.000748 -0.000862 0.004223
# 2 -0.007263 0.023186 -0.003727 -0.003375 0.000715 -0.006389
# 3 -0.003269 -0.003727 0.014739 -0.001495 -0.006191 0.003188
# 4 0.000748 -0.003375 -0.001495 0.027531 0.003782 0.001505
# 5 -0.000862 0.000715 -0.006191 0.003782 0.023950 -0.003727
# 6 0.004223 -0.006389 0.003188 0.001505 -0.003727 0.024313
#
#
# Mechanical properties :
#
#
# Convention : Reuss Voigt Hill
#
# Bulk Modulus (GPa) = 45.36112 56.36705 50.86409
# Shear Modulus (GPa) = 30.82188 38.17605 34.49897
#
# Velocity S-wave (km/s) = 3.51081 3.90726 3.71433
# Velocity P-wave (km/s) = 5.88000 6.54958 6.22380
#
# Compressibility (1/GPa) = 0.02204531
#
# Stress axis : x y z
#
# Youngs Moduli (GPa) = 79.12716 43.12957 67.84627
#
# Poissons Ratio (x) = 0.31326 0.22176
# Poissons Ratio (y) = 0.57472 0.25287
# Poissons Ratio (z) = 0.25863 0.16075
#
# Static dielectric constant tensor:
#      x y z
#    x 1.980910 0.018960 0.006240 
#    y 0.018960 2.028780 -0.053990 
#    z 0.006240 -0.053990 2.042710 
# 
# From -- ./inp_files/97997.got.cif
#   From: 2010.05.17/outbox.cif.g08.bks.cpg/sg2_49_cif.got.tgz:97997.got - 2010.06.03 11:33:40.
