data_PCOD9029172
_publ_section_title
;
Structure prediction by ZEFSAII (Michael W. Deem and Ramdas Pophale) SiO2 
 PCOD9029172
Probable space group: P -1
;
_chemical_formula_sum "Si O2"
_cell_formula_units_Z 16
_cell_length_a 14.226539
_cell_length_b 5.304749
_cell_length_c 11.365961
_cell_angle_alpha 110.773930
_cell_angle_beta 92.580064
_cell_angle_gamma 112.006796
_cell_volume 727.738143
_symmetry_space_group_name_H-M "P -1"
_symmetry_group_IT_number 2
_symmetry_cell_setting 'triclinic'
loop_
_space_group_symop_operation_xyz
x,y,z
-x,-y,-z
loop_
_atom_site_type_symbol
_atom_site_label
_atom_site_fract_x
_atom_site_fract_y
_atom_site_fract_z
Si Si1 0.210755 0.463160 0.732198
Si Si2 0.854024 0.468799 0.677083
Si Si3 0.547136 0.786918 0.815486
Si Si4 0.982361 0.076358 0.647587
Si Si5 0.266816 0.917022 0.605849
Si Si6 0.503466 0.986854 0.359115
Si Si7 0.382730 0.607505 0.953275
Si Si8 0.696712 0.579111 0.839306
O O1 0.208340 0.692254 0.671312
O O2 0.299301 0.626612 0.860321
O O3 0.094532 0.282606 0.741074
O O4 0.241134 0.201947 0.641577
O O5 0.913977 0.265695 0.677183
O O6 0.765994 0.272226 0.546474
O O7 0.798865 0.556801 0.796491
O O8 0.927907 0.768943 0.663644
O O9 0.470098 0.565939 0.872136
O O10 0.664986 0.826192 0.821975
O O11 0.499432 0.745850 0.676393
O O12 0.556611 0.095951 0.920003
O O13 0.000000 0.000000 0.500000
O O14 0.386136 0.013862 0.658043
O O15 0.400998 0.706014 0.266147
O O16 0.500000 0.000000 0.500000
O O17 0.316815 0.388135 0.016513
#
# Coordination Sequence:
#
# PCOD9029172 Si02
#       8
#     2   2   2   2   2   2   2   2
#     4  12  25  42  72  96 133 167 237 284 331 391
#     4  12  25  44  69 101 140 172 225 278 355 408
#     4  10  22  42  66  94 136 182 228 269 327 410
#     4  12  24  45  70 100 131 177 227 287 345 403
#     4  12  23  41  66 104 132 176 213 284 339 407
#     4  11  23  37  61 101 141 172 216 265 343 409
#     4  10  23  42  66  98 127 186 229 275 322 404
#     4  11  25  41  66  95 144 182 218 276 340 402
#
# _framework density 21.98593
#
# number of rings (size 3 to 8) (size 9 to 14) (size 15 to 20)
#    0.000    0.750    5.000    2.250    5.250    1.500 
#    0.000    1.250    0.000    0.000    0.000    0.000 
#    0.000    0.000    0.000    0.000    0.000    0.000 
#
# Total GULP energy -89280.385766 kJ/mol
# GULP energy per Si atom -5580.024110 kJ/mol
# Density = 2.193589 g / cm^3
# Si number density = 21.985930 Si / 1000 Ang^3
#
#
#
# Elastic Constant Matrix: (Units=GPa)
#
#
# Indices 1 2 3 4 5 6 
#
# 1 102.5494 1.8959 7.3256 -6.0923 -14.8513 -4.1859
# 2 1.8959 61.1018 15.8530 0.5800 -14.6727 0.5526
# 3 7.3256 15.8530 75.8618 -17.2980 -5.6396 -2.0968
# 4 -6.0923 0.5800 -17.2980 14.9800 2.2052 8.2443
# 5 -14.8513 -14.6727 -5.6396 2.2052 27.5029 3.7060
# 6 -4.1859 0.5526 -2.0968 8.2443 3.7060 34.8309
#
#
#
# Elastic Compliance Matrix: (Units=1/GPa)
#
#
# Indices 1 2 3 4 5 6 
#
# 1 0.010830 0.001123 -0.000017 0.003549 0.006188 -0.000216
# 2 0.001123 0.020487 -0.005492 -0.008476 0.011048 0.000310
# 3 -0.000017 -0.005492 0.020151 0.026195 -0.000251 -0.004875
# 4 0.003549 -0.008476 0.026195 0.112522 -0.002999 -0.024176
# 5 0.006188 0.011048 -0.000251 -0.002999 0.046277 -0.003661
# 6 -0.000216 0.000310 -0.004875 -0.024176 -0.003661 0.034498
#
#
# Mechanical properties :
#
#
# Convention : Reuss Voigt Hill
#
# Bulk Modulus (GPa) = 23.42252 32.18467 27.80360
# Shear Modulus (GPa) = 18.67277 29.75866 24.21572
#
# Velocity S-wave (km/s) = 2.91745 3.68303 3.32236
# Velocity P-wave (km/s) = 4.69310 5.72336 5.23364
#
# Compressibility (1/GPa) = 0.04269395
#
# Stress axis : x y z
#
# Youngs Moduli (GPa) = 92.33550 48.81176 49.62596
#
# Poissons Ratio (x) = -0.05480 0.00085
# Poissons Ratio (y) = -0.10366 0.27257
# Poissons Ratio (z) = 0.00158 0.26809
#
# Static dielectric constant tensor:
#      x y z
#    x 1.904820 -0.099480 -0.004140 
#    y -0.099480 2.024920 -0.020770 
#    z -0.004140 -0.020770 1.808530 
# 
# From -- ./inp_files/80238.got.cif
#   From: 2010.05.17/outbox.cif.g08.bks.cpg/sg2_41_cif.got.tgz:80238.got - 2010.06.03 11:33:40.
