data_PCOD9029141
_publ_section_title
;
Structure prediction by ZEFSAII (Michael W. Deem and Ramdas Pophale) SiO2 
 PCOD9029141
Probable space group: P -1
;
_chemical_formula_sum "Si O2"
_cell_formula_units_Z 16
_cell_length_a 6.773545
_cell_length_b 16.781763
_cell_length_c 19.893436
_cell_angle_alpha 20.559912
_cell_angle_beta 112.521559
_cell_angle_gamma 113.768968
_cell_volume 726.674300
_symmetry_space_group_name_H-M "P -1"
_symmetry_group_IT_number 2
_symmetry_cell_setting 'triclinic'
loop_
_space_group_symop_operation_xyz
x,y,z
-x,-y,-z
loop_
_atom_site_type_symbol
_atom_site_label
_atom_site_fract_x
_atom_site_fract_y
_atom_site_fract_z
Si Si1 0.610878 0.691894 0.447861
Si Si2 0.474457 0.817976 0.700315
Si Si3 0.710709 0.192955 0.877025
Si Si4 0.154405 0.725396 0.314734
Si Si5 0.002912 0.273759 0.302043
Si Si6 0.280848 0.080078 0.586270
Si Si7 0.980574 0.030854 0.158312
Si Si8 0.079128 0.290625 0.103677
O O1 0.637948 0.440398 0.672447
O O2 0.400433 0.681362 0.384269
O O3 0.584489 0.834523 0.399115
O O4 0.821692 0.820675 0.336993
O O5 0.683604 0.698444 0.839367
O O6 0.244891 0.680671 0.755807
O O7 0.500000 0.000000 0.500000
O O8 0.419280 0.953524 0.652601
O O9 0.863590 0.199671 0.824692
O O10 0.500000 0.000000 0.000000
O O11 0.835645 0.160967 0.987271
O O12 0.000000 0.500000 0.500000
O O13 0.130024 0.921801 0.210750
O O14 0.176494 0.285974 0.374077
O O15 0.000000 0.000000 0.500000
O O16 0.050924 0.487473 0.089272
O O17 0.076249 0.904067 0.722813
O O18 0.082085 0.187498 0.109304
#
# Coordination Sequence:
#
# PCOD9029141 Si02
#       8
#     2   2   2   2   2   2   2   2
#     4  11  23  43  64  94 134 173 214 275 338 383
#     4  11  22  42  65  97 128 166 221 270 321 394
#     4  12  23  42  68  94 134 173 225 274 325 392
#     4  12  23  42  68  96 132 178 223 272 330 389
#     4  10  22  42  66  94 124 167 217 265 321 388
#     4  10  23  43  65  92 133 171 214 268 332 395
#     4  11  24  42  65  97 131 173 220 273 331 399
#     4  11  23  43  67  93 134 172 213 272 335 388
#
# _framework density 22.018117
#
# number of rings (size 3 to 8) (size 9 to 14) (size 15 to 20)
#    0.000    1.000    3.750    3.375    0.000    2.000 
#    4.500    1.250    0.000    0.000    0.000    0.000 
#    0.000    0.000    0.000    0.000    0.000    0.000 
#
# Total GULP energy -89221.807579 kJ/mol
# GULP energy per Si atom -5576.362974 kJ/mol
# Density = 2.196800 g / cm^3
# Si number density = 22.018117 Si / 1000 Ang^3
#
#
#
# Elastic Constant Matrix: (Units=GPa)
#
#
# Indices 1 2 3 4 5 6 
#
# 1 65.6406 19.4238 12.4550 -6.1803 2.6528 -7.6277
# 2 19.4238 73.4285 7.5548 7.1546 -3.7353 -8.3807
# 3 12.4550 7.5548 109.7668 12.2120 7.4192 8.6074
# 4 -6.1803 7.1546 12.2120 40.0534 0.4148 5.0613
# 5 2.6528 -3.7353 7.4192 0.4148 39.0957 9.2979
# 6 -7.6277 -8.3807 8.6074 5.0613 9.2979 48.3336
#
#
#
# Elastic Compliance Matrix: (Units=1/GPa)
#
#
# Indices 1 2 3 4 5 6 
#
# 1 0.017754 -0.004687 -0.002192 0.003971 -0.001829 0.002316
# 2 -0.004687 0.015573 -0.000395 -0.003670 0.001410 0.002144
# 3 -0.002192 -0.000395 0.009947 -0.003084 -0.001363 -0.001601
# 4 0.003971 -0.003670 -0.003084 0.027474 0.000241 -0.002384
# 5 -0.001829 0.001410 -0.001363 0.000241 0.027301 -0.005079
# 6 0.002316 0.002144 -0.001601 -0.002384 -0.005079 0.022938
#
#
# Mechanical properties :
#
#
# Convention : Reuss Voigt Hill
#
# Bulk Modulus (GPa) = 34.81043 36.41146 35.61094
# Shear Modulus (GPa) = 34.45657 39.45669 36.95663
#
# Velocity S-wave (km/s) = 3.96020 4.23781 4.10135
# Velocity P-wave (km/s) = 6.06260 6.36540 6.21584
#
# Compressibility (1/GPa) = 0.02872703
#
# Stress axis : x y z
#
# Youngs Moduli (GPa) = 56.32501 64.21320 100.53423
#
# Poissons Ratio (x) = 0.30095 0.22034
# Poissons Ratio (y) = 0.26398 0.03973
# Poissons Ratio (z) = 0.12345 0.02538
#
# Static dielectric constant tensor:
#      x y z
#    x 1.881940 -0.001440 -0.080580 
#    y -0.001440 1.889490 0.010030 
#    z -0.080580 0.010030 1.825820 
# 
# From -- ./inp_files/584045.got.cif
#   From: 2010.05.17/outbox.cif.g08.bks.cpg/sg2_293_cif.got.tgz:584045.got - 2010.06.03 11:33:40.
