data_PCOD9029178
_publ_section_title
;
Structure prediction by ZEFSAII (Michael W. Deem and Ramdas Pophale) SiO2 
 PCOD9029178
Probable space group: P -1
;
_chemical_formula_sum "Si O2"
_cell_formula_units_Z 12
_cell_length_a 11.543428
_cell_length_b 8.274986
_cell_length_c 8.299891
_cell_angle_alpha 53.018767
_cell_angle_beta 110.530552
_cell_angle_gamma 81.592478
_cell_volume 521.134893
_symmetry_space_group_name_H-M "P -1"
_symmetry_group_IT_number 2
_symmetry_cell_setting 'triclinic'
loop_
_space_group_symop_operation_xyz
x,y,z
-x,-y,-z
loop_
_atom_site_type_symbol
_atom_site_label
_atom_site_fract_x
_atom_site_fract_y
_atom_site_fract_z
Si Si1 0.756440 0.102487 0.225205
Si Si2 0.418787 0.768306 0.261572
Si Si3 0.027452 0.795466 0.362194
Si Si4 0.528164 0.060785 0.299290
Si Si5 0.135213 0.113238 0.101458
Si Si6 0.229655 0.469799 0.893126
O O1 0.674384 0.062473 0.355213
O O2 0.792699 0.305656 0.157940
O O3 0.895058 0.881020 0.365461
O O4 0.643571 0.184821 0.975574
O O5 0.500000 0.500000 0.500000
O O6 0.519633 0.878177 0.283586
O O7 0.281234 0.909756 0.222205
O O8 0.151654 0.559680 0.630655
O O9 0.974869 0.791345 0.159095
O O10 0.075932 0.992645 0.266035
O O11 0.500000 0.000000 0.500000
O O12 0.395515 0.307113 0.048194
O O13 0.168349 0.318130 0.040625
#
# Coordination Sequence:
#
# PCOD9029178 Si02
#       6
#     2   2   2   2   2   2
#     4  11  24  42  63 101 130 167 220 268 321 386
#     4  10  22  42  66  95 129 171 216 268 323 386
#     4  10  22  44  63  96 134 172 212 269 317 395
#     4  11  25  44  66  96 130 172 220 270 322 385
#     4   9  22  42  66  96 134 167 219 260 330 381
#     4  11  23  40  70  91 130 174 213 265 327 380
#
# _framework density 23.026668999999998
#
# number of rings (size 3 to 8) (size 9 to 14) (size 15 to 20)
#    0.000    1.667    0.000    3.000    7.000    0.667 
#   12.000    0.000    0.000    0.000    0.000    0.000 
#    0.000    0.000    0.000    0.000    0.000    0.000 
#
# Total GULP energy -67173.747599 kJ/mol
# GULP energy per Si atom -5597.812300 kJ/mol
# Density = 2.297426 g / cm^3
# Si number density = 23.026669 Si / 1000 Ang^3
#
#
#
# Elastic Constant Matrix: (Units=GPa)
#
#
# Indices 1 2 3 4 5 6 
#
# 1 112.2457 -2.4678 37.7143 6.6048 -16.2738 9.4521
# 2 -2.4678 63.3501 6.5154 1.7165 -3.0447 20.7555
# 3 37.7143 6.5154 113.5425 -1.0043 11.2001 -7.9015
# 4 6.6048 1.7165 -1.0043 19.0854 5.4020 2.3044
# 5 -16.2738 -3.0447 11.2001 5.4020 37.6232 -1.1499
# 6 9.4521 20.7555 -7.9015 2.3044 -1.1499 33.5940
#
#
#
# Elastic Compliance Matrix: (Units=1/GPa)
#
#
# Indices 1 2 3 4 5 6 
#
# 1 0.013246 0.003973 -0.006014 -0.006873 0.008620 -0.006830
# 2 0.003973 0.021601 -0.004094 -0.003034 0.004660 -0.015059
# 3 -0.006014 -0.004094 0.012224 0.004277 -0.006985 0.006564
# 4 -0.006873 -0.003034 0.004277 0.058894 -0.012938 0.000332
# 5 0.008620 0.004660 -0.006985 -0.012938 0.034473 -0.004880
# 6 -0.006830 -0.015059 0.006564 0.000332 -0.004880 0.042347
#
#
# Mechanical properties :
#
#
# Convention : Reuss Voigt Hill
#
# Bulk Modulus (GPa) = 28.73519 41.40689 35.07104
# Shear Modulus (GPa) = 24.19492 34.55229 29.37361
#
# Velocity S-wave (km/s) = 3.24502 3.87787 3.57548
# Velocity P-wave (km/s) = 5.15232 6.17023 5.68411
#
# Compressibility (1/GPa) = 0.03480054
#
# Stress axis : x y z
#
# Youngs Moduli (GPa) = 75.49231 46.29424 81.80958
#
# Poissons Ratio (x) = -0.18391 0.49202
# Poissons Ratio (y) = -0.29990 0.33489
# Poissons Ratio (z) = 0.45403 0.18951
#
# Static dielectric constant tensor:
#      x y z
#    x 1.860250 0.031500 -0.012670 
#    y 0.031500 1.866660 0.032770 
#    z -0.012670 0.032770 1.845410 
# 
# From -- ./inp_files/19890.got.cif
#   From: 2010.05.17/outbox.cif.g08.bks.cpg/sg2_10_cif.got.tgz:19890.got - 2010.06.03 11:33:40.
