data_PCOD9029694
_publ_section_title
;
Structure prediction by ZEFSAII (Michael W. Deem and Ramdas Pophale) SiO2 
 PCOD9029694
Probable space group: P -1
;
_chemical_formula_sum "Si O2"
_cell_formula_units_Z 13
_cell_length_a 7.968454
_cell_length_b 15.423221
_cell_length_c 10.037326
_cell_angle_alpha 41.088088
_cell_angle_beta 134.562776
_cell_angle_gamma 132.860870
_cell_volume 546.623799
_symmetry_space_group_name_H-M "P -1"
_symmetry_group_IT_number 2
_symmetry_cell_setting 'triclinic'
loop_
_space_group_symop_operation_xyz
x,y,z
-x,-y,-z
loop_
_atom_site_type_symbol
_atom_site_label
_atom_site_fract_x
_atom_site_fract_y
_atom_site_fract_z
Si Si1 0.357941 0.082494 0.414279
Si Si2 0.540538 0.920130 0.244051
Si Si3 0.321435 0.594698 0.806528
Si Si4 0.000000 0.500000 0.000000
Si Si5 0.687267 0.660987 0.566534
Si Si6 0.809657 0.584829 0.423145
Si Si7 0.985886 0.869828 0.047018
O O1 0.321295 0.014269 0.619125
O O2 0.525706 0.245280 0.327414
O O3 0.115059 0.090411 0.193516
O O4 0.500000 0.000000 0.500000
O O5 0.667773 0.810678 0.394117
O O6 0.255397 0.854311 0.207335
O O7 0.500000 0.000000 0.000000
O O8 0.209763 0.582015 0.908403
O O9 0.069233 0.552624 0.623640
O O10 0.500000 0.500000 0.000000
O O11 0.900891 0.633747 0.804060
O O12 0.745861 0.624686 0.491200
O O13 0.420287 0.550449 0.583626
O O14 0.821358 0.719128 0.185697
O O15 0.000000 0.000000 0.000000
#
# Coordination Sequence:
#
# PCOD9029694 Si02
#       7
#     2   2   2   1   2   2   2
#     4  12  26  47  74 107 145 203 249 305 388 459
#     4  12  27  48  72 109 150 194 258 317 372 463
#     4  11  23  43  73 110 150 192 254 314 384 460
#     4  10  22  42  68 104 148 188 242 314 370 456
#     4  10  23  43  71 107 146 194 247 311 385 444
#     4  10  22  44  71 104 146 196 241 310 385 451
#     4  12  24  45  74 103 147 196 242 308 380 460
#
# _framework density 23.782353000000001
#
# number of rings (size 3 to 8) (size 9 to 14) (size 15 to 20)
#    0.000    0.923    3.077    2.769    2.154    2.462 
#    2.769    0.000    0.000    0.000    0.000    0.000 
#    0.000    0.000    0.000    0.000    0.000    0.000 
#
# Total GULP energy -72439.570306 kJ/mol
# GULP energy per Si atom -5572.274639 kJ/mol
# Density = 2.372822 g / cm^3
# Si number density = 23.782353 Si / 1000 Ang^3
#
#
#
# Elastic Constant Matrix: (Units=GPa)
#
#
# Indices 1 2 3 4 5 6 
#
# 1 98.1025 25.3941 47.5186 -0.6320 19.6217 7.8434
# 2 25.3941 63.2302 45.8152 4.9939 5.2601 -4.0180
# 3 47.5186 45.8152 192.2240 -0.1072 27.7682 -5.7190
# 4 -0.6320 4.9939 -0.1072 44.9917 -0.3754 4.9366
# 5 19.6217 5.2601 27.7682 -0.3754 64.9662 -1.0323
# 6 7.8434 -4.0180 -5.7190 4.9366 -1.0323 19.0921
#
#
#
# Elastic Compliance Matrix: (Units=1/GPa)
#
#
# Indices 1 2 3 4 5 6 
#
# 1 0.013535 -0.004245 -0.002135 0.001469 -0.002944 -0.007632
# 2 -0.004245 0.020877 -0.003951 -0.003012 0.001355 0.005806
# 3 -0.002135 -0.003951 0.007021 0.000190 -0.002003 0.001991
# 4 0.001469 -0.003012 0.000190 0.023374 -0.000261 -0.007238
# 5 -0.002944 0.001355 -0.002003 -0.000261 0.017057 0.001885
# 6 -0.007632 0.005806 0.001991 -0.007238 0.001885 0.059305
#
#
# Mechanical properties :
#
#
# Convention : Reuss Voigt Hill
#
# Bulk Modulus (GPa) = 48.14602 65.66807 56.90704
# Shear Modulus (GPa) = 29.62885 41.46525 35.54705
#
# Velocity S-wave (km/s) = 3.53347 4.18009 3.87031
# Velocity P-wave (km/s) = 6.07746 7.13930 6.62967
#
# Compressibility (1/GPa) = 0.02077015
#
# Stress axis : x y z
#
# Youngs Moduli (GPa) = 73.88243 47.89927 142.43881
#
# Poissons Ratio (x) = 0.20333 0.30412
# Poissons Ratio (y) = 0.31362 0.56282
# Poissons Ratio (z) = 0.15775 0.18926
#
# Static dielectric constant tensor:
#      x y z
#    x 1.933530 -0.041960 -0.085750 
#    y -0.041960 1.934480 0.076560 
#    z -0.085750 0.076560 1.911890 
# 
# From -- ./inp_files/401748.got.cif
#   From: 2010.05.17/outbox.cif.g08.bks.cpg/sg2_201_cif.got.tgz:401748.got - 2010.06.03 11:33:40.
