data_PCOD9029963
_publ_section_title
;
Structure prediction by ZEFSAII (Michael W. Deem and Ramdas Pophale) SiO2 
 PCOD9029963
Probable space group: P -1
;
_chemical_formula_sum "Si O2"
_cell_formula_units_Z 14
_cell_length_a 8.917398
_cell_length_b 9.461555
_cell_length_c 11.135235
_cell_angle_alpha 126.997601
_cell_angle_beta 78.002887
_cell_angle_gamma 116.403017
_cell_volume 669.729781
_symmetry_space_group_name_H-M "P -1"
_symmetry_group_IT_number 2
_symmetry_cell_setting 'triclinic'
loop_
_space_group_symop_operation_xyz
x,y,z
-x,-y,-z
loop_
_atom_site_type_symbol
_atom_site_label
_atom_site_fract_x
_atom_site_fract_y
_atom_site_fract_z
Si Si1 0.847334 0.552044 0.518579
Si Si2 0.852717 0.793198 0.408969
Si Si3 0.824402 0.453608 0.074112
Si Si4 0.539772 0.815474 0.096447
Si Si5 0.628358 0.249340 0.228928
Si Si6 0.648614 0.625322 0.781695
Si Si7 0.456418 0.180408 0.625791
O O1 0.874649 0.678224 0.459851
O O2 0.696219 0.352734 0.397828
O O3 0.804329 0.667903 0.690760
O O4 0.000000 0.500000 0.500000
O O5 0.841845 0.661154 0.227431
O O6 0.682784 0.823875 0.447867
O O7 0.000000 0.000000 0.500000
O O8 0.774442 0.320211 0.137068
O O9 0.654831 0.342506 0.966717
O O10 0.000000 0.500000 0.000000
O O11 0.596427 0.841158 0.237132
O O12 0.554470 0.019630 0.143292
O O13 0.656612 0.740207 0.960677
O O14 0.493707 0.330389 0.245017
O O15 0.594318 0.399449 0.704660
O O16 0.500000 0.000000 0.500000
#
# Coordination Sequence:
#
# PCOD9029963 Si02
#       7
#     2   2   2   2   2   2   2
#     4  11  25  44  69  99 139 181 230 287 350 414
#     4  11  27  45  63 102 142 179 230 281 351 410
#     4  10  22  42  69 101 142 179 221 294 351 402
#     4  11  24  43  74 105 134 179 245 279 352 415
#     4  10  22  44  71 102 133 182 239 279 348 417
#     4  11  22  44  70  95 135 176 228 296 335 403
#     4  12  26  42  70 101 135 186 233 281 333 420
#
# _framework density 20.903953000000001
#
# number of rings (size 3 to 8) (size 9 to 14) (size 15 to 20)
#    0.000    1.143    4.286    3.429    8.000    2.286 
#    0.000    0.714    0.000    0.000    0.000    0.000 
#    0.000    0.000    0.000    0.000    0.000    0.000 
#
# Total GULP energy -78128.835079 kJ/mol
# GULP energy per Si atom -5580.631077 kJ/mol
# Density = 2.085637 g / cm^3
# Si number density = 20.903953 Si / 1000 Ang^3
#
#
#
# Elastic Constant Matrix: (Units=GPa)
#
#
# Indices 1 2 3 4 5 6 
#
# 1 78.6875 40.9716 43.5958 -9.2572 -21.7899 -14.7413
# 2 40.9716 101.8843 50.9688 17.1305 -7.3293 -15.8516
# 3 43.5958 50.9688 127.5328 8.2729 -16.5891 -8.4032
# 4 -9.2572 17.1305 8.2729 49.4121 1.6987 2.1197
# 5 -21.7899 -7.3293 -16.5891 1.6987 36.9555 1.1062
# 6 -14.7413 -15.8516 -8.4032 2.1197 1.1062 36.7666
#
#
#
# Elastic Compliance Matrix: (Units=1/GPa)
#
#
# Indices 1 2 3 4 5 6 
#
# 1 0.022916 -0.006989 -0.003889 0.006829 0.009928 0.004593
# 2 -0.006989 0.015892 -0.003628 -0.006285 -0.002418 0.003655
# 3 -0.003889 -0.003628 0.010924 -0.001341 0.001971 -0.000609
# 4 0.006829 -0.006285 -0.001341 0.023955 0.001127 -0.001693
# 5 0.009928 -0.002418 0.001971 0.001127 0.033197 0.002325
# 6 0.004593 0.003655 -0.000609 -0.001693 0.002325 0.030505
#
#
# Mechanical properties :
#
#
# Convention : Reuss Voigt Hill
#
# Bulk Modulus (GPa) = 48.26516 64.35300 56.30908
# Shear Modulus (GPa) = 28.85047 36.13139 32.49093
#
# Velocity S-wave (km/s) = 3.71906 4.16197 3.94673
# Velocity P-wave (km/s) = 6.44833 7.34492 6.91118
#
# Compressibility (1/GPa) = 0.02071888
#
# Stress axis : x y z
#
# Youngs Moduli (GPa) = 43.63854 62.92401 91.54251
#
# Poissons Ratio (x) = 0.43977 0.35603
# Poissons Ratio (y) = 0.30499 0.33214
# Poissons Ratio (z) = 0.16972 0.22830
#
# Static dielectric constant tensor:
#      x y z
#    x 1.737790 0.029250 0.015000 
#    y 0.029250 1.780290 0.020460 
#    z 0.015000 0.020460 1.800330 
# 
# From -- ./inp_files/223247.got.cif
#   From: 2010.05.17/outbox.cif.g08.bks.cpg/sg2_112_cif.got.tgz:223247.got - 2010.06.03 11:33:40.
