data_PCOD9029629
_publ_section_title
;
Structure prediction by ZEFSAII (Michael W. Deem and Ramdas Pophale) SiO2 
 PCOD9029629
Probable space group: P -1
;
_chemical_formula_sum "Si O2"
_cell_formula_units_Z 11
_cell_length_a 12.244070
_cell_length_b 9.987628
_cell_length_c 4.920693
_cell_angle_alpha 59.680284
_cell_angle_beta 78.342405
_cell_angle_gamma 53.409737
_cell_volume 412.805370
_symmetry_space_group_name_H-M "P -1"
_symmetry_group_IT_number 2
_symmetry_cell_setting 'triclinic'
loop_
_space_group_symop_operation_xyz
x,y,z
-x,-y,-z
loop_
_atom_site_type_symbol
_atom_site_label
_atom_site_fract_x
_atom_site_fract_y
_atom_site_fract_z
Si Si1 0.082728 0.289209 0.529319
Si Si2 0.542153 0.805432 0.314384
Si Si3 0.000000 0.000000 0.500000
Si Si4 0.749007 0.079596 0.794980
Si Si5 0.856168 0.279912 0.821968
Si Si6 0.720621 0.645478 0.894053
O O1 0.171678 0.299325 0.238713
O O2 0.000000 0.500000 0.500000
O O3 0.953210 0.279384 0.536516
O O4 0.191534 0.112655 0.854480
O O5 0.405313 0.818436 0.334539
O O6 0.591988 0.784179 0.618213
O O7 0.668710 0.648651 0.217341
O O8 0.500000 0.000000 0.000000
O O9 0.155830 0.956574 0.472499
O O10 0.027295 0.890669 0.878701
O O11 0.755906 0.234576 0.800683
O O12 0.787887 0.451334 0.892150
#
# Coordination Sequence:
#
# PCOD9029629 Si02
#       6
#     2   2   1   2   2   2
#     4   9  19  43  68 103 136 181 233 289 342 410
#     4  12  27  46  73 102 142 188 231 283 352 418
#     4  10  22  42  68 100 138 182 224 286 348 408
#     4  11  24  42  71 100 142 182 233 288 349 414
#     4  10  24  44  69 105 137 183 234 290 352 405
#     4  11  26  48  73 104 141 182 235 289 343 419
#
# _framework density 26.646937999999999
#
# number of rings (size 3 to 8) (size 9 to 14) (size 15 to 20)
#    0.000    1.455    1.818    2.727    5.091    2.909 
#    0.000    2.727    0.000    0.000    0.000    0.000 
#    0.000    0.000    0.000    0.000    0.000    0.000 
#
# Total GULP energy -61412.938908 kJ/mol
# GULP energy per Si atom -5582.994446 kJ/mol
# Density = 2.658629 g / cm^3
# Si number density = 26.646938 Si / 1000 Ang^3
#
#
#
# Elastic Constant Matrix: (Units=GPa)
#
#
# Indices 1 2 3 4 5 6 
#
# 1 177.4057 17.3919 21.0590 6.8390 -16.9057 -27.0291
# 2 17.3919 121.3518 27.5907 16.2405 -10.0699 -8.8438
# 3 21.0590 27.5907 68.1009 13.9938 4.1098 3.1568
# 4 6.8390 16.2405 13.9938 48.0593 -4.4478 -10.1691
# 5 -16.9057 -10.0699 4.1098 -4.4478 46.2062 7.7176
# 6 -27.0291 -8.8438 3.1568 -10.1691 7.7176 44.1895
#
#
#
# Elastic Compliance Matrix: (Units=1/GPa)
#
#
# Indices 1 2 3 4 5 6 
#
# 1 0.006739 -0.000023 -0.002570 0.000865 0.002082 0.004137
# 2 -0.000023 0.009584 -0.003722 -0.001662 0.002011 0.001436
# 3 -0.002570 -0.003722 0.018382 -0.004911 -0.003156 -0.004209
# 4 0.000865 -0.001662 -0.004911 0.024060 0.001742 0.005780
# 5 0.002082 0.002011 -0.003156 0.001742 0.023594 -0.001819
# 6 0.004137 0.001436 -0.004209 0.005780 -0.001819 0.027396
#
#
# Mechanical properties :
#
#
# Convention : Reuss Voigt Hill
#
# Bulk Modulus (GPa) = 45.30099 55.43796 50.36948
# Shear Modulus (GPa) = 38.53732 47.74545 43.14139
#
# Velocity S-wave (km/s) = 3.80705 4.23753 4.02804
# Velocity P-wave (km/s) = 6.03010 6.69269 6.37002
#
# Compressibility (1/GPa) = 0.02207457
#
# Stress axis : x y z
#
# Youngs Moduli (GPa) = 148.38140 104.33975 54.40209
#
# Poissons Ratio (x) = 0.00242 0.13980
# Poissons Ratio (y) = 0.00344 0.20250
# Poissons Ratio (z) = 0.38131 0.38839
#
# Static dielectric constant tensor:
#      x y z
#    x 1.948580 0.111970 -0.087000 
#    y 0.111970 2.275140 -0.099010 
#    z -0.087000 -0.099010 2.004830 
# 
# From -- ./inp_files/17700.got.cif
#   From: 2010.05.17/outbox.cif.g08.bks.cpg/sg2_9_cif.got.tgz:17700.got - 2010.06.03 11:33:40.
