data_PCOD9029029
_publ_section_title
;
Structure prediction by ZEFSAII (Michael W. Deem and Ramdas Pophale) SiO2 
 PCOD9029029
Probable space group: P -1
;
_chemical_formula_sum "Si O2"
_cell_formula_units_Z 14
_cell_length_a 6.824526
_cell_length_b 10.082994
_cell_length_c 10.988666
_cell_angle_alpha 60.516465
_cell_angle_beta 88.813850
_cell_angle_gamma 110.517048
_cell_volume 598.912675
_symmetry_space_group_name_H-M "P -1"
_symmetry_group_IT_number 2
_symmetry_cell_setting 'triclinic'
loop_
_space_group_symop_operation_xyz
x,y,z
-x,-y,-z
loop_
_atom_site_type_symbol
_atom_site_label
_atom_site_fract_x
_atom_site_fract_y
_atom_site_fract_z
Si Si1 0.320367 0.836644 0.641376
Si Si2 0.133730 0.296705 0.398185
Si Si3 0.324932 0.663734 0.300069
Si Si4 0.424856 0.333368 0.156723
Si Si5 0.735647 0.903230 0.328793
Si Si6 0.668748 0.821195 0.019193
Si Si7 0.019451 0.820097 0.164895
O O1 0.407114 0.701127 0.743975
O O2 0.118187 0.757133 0.590524
O O3 0.500000 0.000000 0.500000
O O4 0.256325 0.915584 0.725847
O O5 0.250909 0.465808 0.398048
O O6 0.235066 0.326522 0.249325
O O7 0.189827 0.155138 0.522748
O O8 0.496683 0.774647 0.347902
O O9 0.455101 0.725499 0.142826
O O10 0.114182 0.700334 0.277156
O O11 0.500000 0.500000 0.000000
O O12 0.358410 0.191833 0.118236
O O13 0.897195 0.885844 0.235149
O O14 0.841699 0.749604 0.093417
O O15 0.778158 0.017883 0.959585
#
# Coordination Sequence:
#
# PCOD9029029 Si02
#       7
#     2   2   2   2   2   2   2
#     4  12  28  47  76 102 142 193 240 286 359 425
#     4  12  27  45  71 108 145 183 242 293 359 419
#     4  11  24  43  71 103 142 185 233 292 361 410
#     4  12  26  46  74 103 148 180 235 300 356 417
#     4  11  25  46  72 104 139 188 239 290 346 431
#     4  10  22  42  66 101 138 186 233 290 348 426
#     4  10  23  41  71  98 142 183 237 285 351 424
#
# _framework density 23.375696999999999
#
# number of rings (size 3 to 8) (size 9 to 14) (size 15 to 20)
#    0.000    0.857    2.857    3.000    6.000    4.571 
#    0.000    0.000    0.000    0.000    0.000    0.000 
#    0.000    0.000    0.000    0.000    0.000    0.000 
#
# Total GULP energy -78341.264836 kJ/mol
# GULP energy per Si atom -5595.804631 kJ/mol
# Density = 2.332249 g / cm^3
# Si number density = 23.375697 Si / 1000 Ang^3
#
#
#
# Elastic Constant Matrix: (Units=GPa)
#
#
# Indices 1 2 3 4 5 6 
#
# 1 96.7189 13.2761 18.3410 -9.9817 19.4551 6.1126
# 2 13.2761 59.9821 -11.7203 -2.2708 5.9686 12.9117
# 3 18.3410 -11.7203 82.8942 -3.8691 6.5551 4.6542
# 4 -9.9817 -2.2708 -3.8691 36.9899 -2.2699 10.5059
# 5 19.4551 5.9686 6.5551 -2.2699 39.4053 3.1325
# 6 6.1126 12.9117 4.6542 10.5059 3.1325 27.2645
#
#
#
# Elastic Compliance Matrix: (Units=1/GPa)
#
#
# Indices 1 2 3 4 5 6 
#
# 1 0.012600 -0.002186 -0.002423 0.003279 -0.005135 -0.002050
# 2 -0.002186 0.020849 0.004417 0.004354 -0.001639 -0.011627
# 3 -0.002423 0.004417 0.013689 0.002285 -0.001251 -0.004622
# 4 0.003279 0.004354 0.002285 0.032989 0.000510 -0.015958
# 5 -0.005135 -0.001639 -0.001251 0.000510 0.028504 -0.001331
# 6 -0.002050 -0.011627 -0.004622 -0.015958 -0.001331 0.049735
#
#
# Mechanical properties :
#
#
# Convention : Reuss Voigt Hill
#
# Bulk Modulus (GPa) = 21.38791 31.04322 26.21556
# Shear Modulus (GPa) = 28.68070 35.37849 32.02959
#
# Velocity S-wave (km/s) = 3.50658 3.89456 3.70565
# Velocity P-wave (km/s) = 5.05611 5.79072 5.43584
#
# Compressibility (1/GPa) = 0.04675539
#
# Stress axis : x y z
#
# Youngs Moduli (GPa) = 79.36818 47.96353 73.05006
#
# Poissons Ratio (x) = 0.10484 0.17697
# Poissons Ratio (y) = 0.17348 -0.32267
# Poissons Ratio (z) = 0.19228 -0.21186
#
# Static dielectric constant tensor:
#      x y z
#    x 1.880730 -0.010340 -0.011620 
#    y -0.010340 1.942810 0.034900 
#    z -0.011620 0.034900 1.928380 
# 
# From -- ./inp_files/69064.got.cif
#   From: 2010.05.17/outbox.cif.g08.bks.cpg/sg2_35_cif.got.tgz:69064.got - 2010.06.03 11:33:40.
