data_PCOD9029360
_publ_section_title
;
Structure prediction by ZEFSAII (Michael W. Deem and Ramdas Pophale) SiO2 
 PCOD9029360
Probable space group: P -1
;
_chemical_formula_sum "Si O2"
_cell_formula_units_Z 12
_cell_length_a 10.180519
_cell_length_b 7.303423
_cell_length_c 10.520243
_cell_angle_alpha 42.610670
_cell_angle_beta 89.478889
_cell_angle_gamma 96.798431
_cell_volume 520.427567
_symmetry_space_group_name_H-M "P -1"
_symmetry_group_IT_number 2
_symmetry_cell_setting 'triclinic'
loop_
_space_group_symop_operation_xyz
x,y,z
-x,-y,-z
loop_
_atom_site_type_symbol
_atom_site_label
_atom_site_fract_x
_atom_site_fract_y
_atom_site_fract_z
Si Si1 0.575603 0.289985 0.179608
Si Si2 0.196185 0.387624 0.501005
Si Si3 0.148301 0.933493 0.534720
Si Si4 0.863794 0.531942 0.051256
Si Si5 0.621304 0.244036 0.502748
Si Si6 0.056231 0.872887 0.188919
O O1 0.726550 0.357273 0.089538
O O2 0.586563 0.330906 0.314182
O O3 0.498996 0.977815 0.326543
O O4 0.500000 0.500000 0.000000
O O5 0.319065 0.510688 0.528240
O O6 0.069393 0.245942 0.659450
O O7 0.145634 0.638053 0.299302
O O8 0.221123 0.156497 0.520595
O O9 0.124236 0.614565 0.739570
O O10 0.255962 0.923573 0.430345
O O11 0.000000 0.000000 0.500000
O O12 0.000000 0.500000 0.000000
O O13 0.858840 0.849019 0.895271
O O14 0.000000 0.000000 0.000000
#
# Coordination Sequence:
#
# PCOD9029360 Si02
#       6
#     2   2   2   2   2   2
#     4  10  22  42  67  89 131 179 214 271 333 388
#     4  11  22  39  64  96 134 171 216 277 326 390
#     4  11  22  39  66 101 131 172 218 272 331 388
#     4  11  22  39  64  95 126 164 217 268 322 390
#     4  10  23  42  64  92 130 175 223 263 332 399
#     4  11  21  37  60  93 134 168 210 269 334 384
#
# _framework density 23.057963999999998
#
# number of rings (size 3 to 8) (size 9 to 14) (size 15 to 20)
#    0.000    1.333    1.667    6.000    2.333    0.000 
#    0.000    7.500    0.000    6.000    0.000    0.000 
#    0.000    0.000    0.000    0.000    0.000    0.000 
#
# Total GULP energy -67001.645403 kJ/mol
# GULP energy per Si atom -5583.470450 kJ/mol
# Density = 2.300548 g / cm^3
# Si number density = 23.057964 Si / 1000 Ang^3
#
#
#
# Elastic Constant Matrix: (Units=GPa)
#
#
# Indices 1 2 3 4 5 6 
#
# 1 140.4408 19.9231 54.6417 -5.3497 -19.8084 6.2706
# 2 19.9231 90.3448 35.7563 -18.1063 -7.8408 23.1257
# 3 54.6417 35.7563 164.2938 -11.1830 9.1725 13.7776
# 4 -5.3497 -18.1063 -11.1830 33.4758 11.9727 -2.9172
# 5 -19.8084 -7.8408 9.1725 11.9727 58.0932 -1.5499
# 6 6.2706 23.1257 13.7776 -2.9172 -1.5499 38.6094
#
#
#
# Elastic Compliance Matrix: (Units=1/GPa)
#
#
# Indices 1 2 3 4 5 6 
#
# 1 0.008898 -0.000707 -0.003113 -0.001314 0.003705 0.000139
# 2 -0.000707 0.015433 -0.002043 0.006658 0.000582 -0.007874
# 3 -0.003113 -0.002043 0.007967 0.002055 -0.003048 -0.001081
# 4 -0.001314 0.006658 0.002055 0.036431 -0.007437 -0.002054
# 5 0.003705 0.000582 -0.003048 -0.007437 0.020580 0.000401
# 6 0.000139 -0.007874 -0.001081 -0.002054 0.000401 0.030841
#
#
# Mechanical properties :
#
#
# Convention : Reuss Voigt Hill
#
# Bulk Modulus (GPa) = 48.60894 68.41351 58.51122
# Shear Modulus (GPa) = 36.03991 45.01959 40.52975
#
# Velocity S-wave (km/s) = 3.95779 4.42345 4.19708
# Velocity P-wave (km/s) = 6.48170 7.47154 6.99415
#
# Compressibility (1/GPa) = 0.02057235
#
# Stress axis : x y z
#
# Youngs Moduli (GPa) = 112.37950 64.79432 125.51188
#
# Poissons Ratio (x) = 0.04583 0.39077
# Poissons Ratio (y) = 0.07950 0.25638
# Poissons Ratio (z) = 0.34988 0.13235
#
# Static dielectric constant tensor:
#      x y z
#    x 1.992630 0.063230 0.000290 
#    y 0.063230 1.895680 0.110170 
#    z 0.000290 0.110170 1.827720 
# 
# From -- ./inp_files/491770.got.cif
#   From: 2010.05.17/outbox.cif.g08.bks.cpg/sg2_246_cif.got.tgz:491770.got - 2010.06.03 11:33:40.
