data_PCOD9029087
_publ_section_title
;
Structure prediction by ZEFSAII (Michael W. Deem and Ramdas Pophale) SiO2 
 PCOD9029087
Probable space group: P -1
;
_chemical_formula_sum "Si O2"
_cell_formula_units_Z 16
_cell_length_a 9.233352
_cell_length_b 16.713993
_cell_length_c 8.602957
_cell_angle_alpha 95.327616
_cell_angle_beta 118.266911
_cell_angle_gamma 130.875163
_cell_volume 704.152346
_symmetry_space_group_name_H-M "P -1"
_symmetry_group_IT_number 2
_symmetry_cell_setting 'triclinic'
loop_
_space_group_symop_operation_xyz
x,y,z
-x,-y,-z
loop_
_atom_site_type_symbol
_atom_site_label
_atom_site_fract_x
_atom_site_fract_y
_atom_site_fract_z
Si Si1 0.824451 0.763823 0.645457
Si Si2 0.090249 0.123872 0.615270
Si Si3 0.555259 0.927482 0.506045
Si Si4 0.066816 0.617411 0.122396
Si Si5 0.559201 0.243830 0.057046
Si Si6 0.315928 0.635213 0.522516
Si Si7 0.124167 0.394466 0.271651
Si Si8 0.209849 0.014504 0.052522
O O1 0.911050 0.818735 0.524350
O O2 0.585678 0.733526 0.567147
O O3 0.771296 0.649429 0.621566
O O4 0.056917 0.873471 0.910324
O O5 0.397215 0.239562 0.858910
O O6 0.000000 0.000000 0.500000
O O7 0.860834 0.049042 0.614331
O O8 0.339035 0.782933 0.287166
O O9 0.568234 0.905303 0.687640
O O10 0.500000 0.000000 0.500000
O O11 0.088403 0.599893 0.311969
O O12 0.000000 0.500000 0.000000
O O13 0.852473 0.583158 0.899775
O O14 0.636602 0.318548 0.270216
O O15 0.337444 0.093329 0.972255
O O16 0.805139 0.289930 0.118833
O O17 0.242808 0.513230 0.454442
O O18 0.000000 0.000000 0.000000
#
# Coordination Sequence:
#
# PCOD9029087 Si02
#       8
#     2   2   2   2   2   2   2   2
#     4  12  24  41  65  97 129 162 211 271 327 366
#     4  12  24  41  65  94 128 172 213 265 316 392
#     4  12  24  40  64 100 134 162 214 276 328 367
#     4  10  22  42  66  90 126 175 216 253 316 397
#     4  12  23  41  65  93 125 164 221 251 315 385
#     4  11  22  45  69  86 128 176 214 250 318 401
#     4  11  26  41  63  98 128 164 213 271 314 375
#     4  12  21  40  66  90 124 171 205 261 316 387
#
# _framework density 22.722358
#
# number of rings (size 3 to 8) (size 9 to 14) (size 15 to 20)
#    0.000    0.500    5.000    3.750    1.750    0.500 
#    0.000    0.625    0.000    0.000    0.000    0.000 
#    0.000    0.000    0.000    0.000    0.000    0.000 
#
# Total GULP energy -89128.263709 kJ/mol
# GULP energy per Si atom -5570.516482 kJ/mol
# Density = 2.267064 g / cm^3
# Si number density = 22.722358 Si / 1000 Ang^3
#
#
#
# Elastic Constant Matrix: (Units=GPa)
#
#
# Indices 1 2 3 4 5 6 
#
# 1 60.1354 7.5928 4.8791 -8.2746 6.4000 -2.9903
# 2 7.5928 103.1803 31.0494 -10.4001 -7.3552 -27.1661
# 3 4.8791 31.0494 125.7636 -24.4867 -17.0311 -12.7021
# 4 -8.2746 -10.4001 -24.4867 37.5482 2.2450 9.7270
# 5 6.4000 -7.3552 -17.0311 2.2450 22.8390 -2.4472
# 6 -2.9903 -27.1661 -12.7021 9.7270 -2.4472 31.1879
#
#
#
# Elastic Compliance Matrix: (Units=1/GPa)
#
#
# Indices 1 2 3 4 5 6 
#
# 1 0.018053 -0.001678 -0.000581 0.003977 -0.006608 -0.001727
# 2 -0.001678 0.013666 -0.001635 -0.001003 0.005013 0.011783
# 3 -0.000581 -0.001635 0.010581 0.005453 0.007172 0.001692
# 4 0.003977 -0.001003 0.005453 0.033142 -0.001565 -0.008731
# 5 -0.006608 0.005013 0.007172 -0.001565 0.053972 0.011377
# 6 -0.001727 0.011783 0.001692 -0.008731 0.011377 0.046466
#
#
# Mechanical properties :
#
#
# Convention : Reuss Voigt Hill
#
# Bulk Modulus (GPa) = 28.97626 41.79133 35.38379
# Shear Modulus (GPa) = 25.61816 34.68556 30.15186
#
# Velocity S-wave (km/s) = 3.36138 3.91128 3.64671
# Velocity P-wave (km/s) = 5.27686 6.23134 5.77385
#
# Compressibility (1/GPa) = 0.03451101
#
# Stress axis : x y z
#
# Youngs Moduli (GPa) = 55.39280 73.17481 94.50510
#
# Poissons Ratio (x) = 0.12282 0.05490
# Poissons Ratio (y) = 0.09297 0.15453
# Poissons Ratio (z) = 0.03218 0.11965
#
# Static dielectric constant tensor:
#      x y z
#    x 1.989740 -0.021820 0.060390 
#    y -0.021820 1.977300 0.043150 
#    z 0.060390 0.043150 1.871690 
# 
# From -- ./inp_files/207976.got.cif
#   From: 2010.05.17/outbox.cif.g08.bks.cpg/sg2_104_cif.got.tgz:207976.got - 2010.06.03 11:33:40.
