data_PCOD9029472
_publ_section_title
;
Structure prediction by ZEFSAII (Michael W. Deem and Ramdas Pophale) SiO2 
 PCOD9029472
Probable space group: P -1
;
_chemical_formula_sum "Si O2"
_cell_formula_units_Z 16
_cell_length_a 11.496111
_cell_length_b 8.379005
_cell_length_c 12.649008
_cell_angle_alpha 48.969760
_cell_angle_beta 90.477880
_cell_angle_gamma 62.752944
_cell_volume 725.322135
_symmetry_space_group_name_H-M "P -1"
_symmetry_group_IT_number 2
_symmetry_cell_setting 'triclinic'
loop_
_space_group_symop_operation_xyz
x,y,z
-x,-y,-z
loop_
_atom_site_type_symbol
_atom_site_label
_atom_site_fract_x
_atom_site_fract_y
_atom_site_fract_z
Si Si1 0.271164 0.860149 0.785514
Si Si2 0.448024 0.932355 0.134560
Si Si3 0.980214 0.269872 0.845758
Si Si4 0.430791 0.606612 0.110801
Si Si5 0.866784 0.772529 0.935005
Si Si6 0.349265 0.300274 0.361408
Si Si7 0.292655 0.329582 0.581355
Si Si8 0.042661 0.880884 0.312177
O O1 0.404282 0.589647 0.846638
O O2 0.261522 0.119225 0.642847
O O3 0.322321 0.808997 0.931043
O O4 0.120975 0.904656 0.738781
O O5 0.423257 0.732408 0.167674
O O6 0.576515 0.805297 0.275883
O O7 0.295006 0.149907 0.100084
O O8 0.500000 0.000000 0.000000
O O9 0.820881 0.562567 0.729857
O O10 0.997025 0.230211 0.738449
O O11 0.094762 0.256297 0.927498
O O12 0.000000 0.000000 0.000000
O O13 0.383357 0.425040 0.215344
O O14 0.881394 0.990120 0.786966
O O15 0.000000 0.500000 0.000000
O O16 0.332291 0.395873 0.441096
O O17 0.500000 0.000000 0.500000
O O18 0.153238 0.618138 0.496741
#
# Coordination Sequence:
#
# PCOD9029472 Si02
#       8
#     2   2   2   2   2   2   2   2
#     4  11  22  41  71  98 131 174 228 278 327 400
#     4  12  26  45  67  96 139 178 220 269 346 409
#     4   9  19  39  64  89 125 170 219 269 321 388
#     4  11  23  40  68  98 132 181 222 272 336 398
#     4  11  25  41  68  99 132 181 223 270 327 409
#     4  11  22  39  66 100 130 168 229 283 329 389
#     4  11  24  43  67  98 131 175 216 282 344 398
#     4  10  22  42  67  95 133 170 225 277 332 391
#
# _framework density 22.059163000000002
#
# number of rings (size 3 to 8) (size 9 to 14) (size 15 to 20)
#    0.000    1.250    2.500    4.875    3.500    2.000 
#    0.000    0.625    0.000    0.000    0.000    0.000 
#    0.000    0.000    0.000    0.000    0.000    0.000 
#
# Total GULP energy -89167.115860 kJ/mol
# GULP energy per Si atom -5572.944741 kJ/mol
# Density = 2.200896 g / cm^3
# Si number density = 22.059163 Si / 1000 Ang^3
#
#
#
# Elastic Constant Matrix: (Units=GPa)
#
#
# Indices 1 2 3 4 5 6 
#
# 1 88.5442 15.4215 49.6968 -13.0730 19.3294 -36.7414
# 2 15.4215 51.8868 12.9778 -14.4135 2.9372 -17.5973
# 3 49.6968 12.9778 109.3093 -16.8871 19.1791 -14.7292
# 4 -13.0730 -14.4135 -16.8871 38.5823 -2.1017 7.1218
# 5 19.3294 2.9372 19.1791 -2.1017 32.6204 -6.6175
# 6 -36.7414 -17.5973 -14.7292 7.1218 -6.6175 33.6327
#
#
#
# Elastic Compliance Matrix: (Units=1/GPa)
#
#
# Indices 1 2 3 4 5 6 
#
# 1 0.028557 0.003990 -0.008206 0.002054 -0.006654 0.027946
# 2 0.003990 0.025842 -0.001619 0.007416 -0.000101 0.015581
# 3 -0.008206 -0.001619 0.013534 0.003316 -0.003818 -0.005338
# 4 0.002054 0.007416 0.003316 0.030603 -0.001708 0.000759
# 5 -0.006654 -0.000101 -0.003818 -0.001708 0.036446 -0.001461
# 6 0.027946 0.015581 -0.005338 0.000759 -0.001461 0.065628
#
#
# Mechanical properties :
#
#
# Convention : Reuss Voigt Hill
#
# Bulk Modulus (GPa) = 17.77412 45.10360 31.43886
# Shear Modulus (GPa) = 21.64170 32.41004 27.02587
#
# Velocity S-wave (km/s) = 3.13561 3.83722 3.50402
# Velocity P-wave (km/s) = 4.60265 6.33430 5.53659
#
# Compressibility (1/GPa) = 0.05626158
#
# Stress axis : x y z
#
# Youngs Moduli (GPa) = 35.01772 38.69731 73.88539
#
# Poissons Ratio (x) = -0.15441 0.60634
# Poissons Ratio (y) = -0.13972 0.11965
# Poissons Ratio (z) = 0.28737 0.06267
#
# Static dielectric constant tensor:
#      x y z
#    x 1.932600 -0.052990 0.019020 
#    y -0.052990 1.937580 -0.113550 
#    z 0.019020 -0.113550 1.882440 
# 
# From -- ./inp_files/418915.got.cif
#   From: 2010.05.17/outbox.cif.g08.bks.cpg/sg2_210_cif.got.tgz:418915.got - 2010.06.03 11:33:40.
