data_PCOD9029399
_publ_section_title
;
Structure prediction by ZEFSAII (Michael W. Deem and Ramdas Pophale) SiO2 
 PCOD9029399
Probable space group: P -1
;
_chemical_formula_sum "Si O2"
_cell_formula_units_Z 16
_cell_length_a 24.580498
_cell_length_b 16.959243
_cell_length_c 24.361412
_cell_angle_alpha 21.500273
_cell_angle_beta 167.673818
_cell_angle_gamma 159.327108
_cell_volume 747.079730
_symmetry_space_group_name_H-M "P -1"
_symmetry_group_IT_number 2
_symmetry_cell_setting 'triclinic'
loop_
_space_group_symop_operation_xyz
x,y,z
-x,-y,-z
loop_
_atom_site_type_symbol
_atom_site_label
_atom_site_fract_x
_atom_site_fract_y
_atom_site_fract_z
Si Si1 0.943117 0.398736 0.072847
Si Si2 0.074832 0.208707 0.896310
Si Si3 0.618707 0.381533 0.381029
Si Si4 0.524274 0.625899 0.548403
Si Si5 0.331674 0.922855 0.672959
Si Si6 0.201604 0.112638 0.765148
Si Si7 0.689805 0.350939 0.279582
Si Si8 0.657829 0.931680 0.587866
O O1 0.204271 0.521679 0.288555
O O2 0.890741 0.128033 0.201479
O O3 0.681546 0.453525 0.800294
O O4 0.000000 0.500000 0.000000
O O5 0.879784 0.351103 0.628979
O O6 0.964097 0.076050 0.816323
O O7 0.386011 0.346184 0.128250
O O8 0.000000 0.000000 0.000000
O O9 0.670745 0.629722 0.299296
O O10 0.509812 0.187395 0.446448
O O11 0.613886 0.737743 0.624069
O O12 0.622720 0.834290 0.467595
O O13 0.308825 0.745681 0.717001
O O14 0.061574 0.872659 0.473545
O O15 0.581022 0.923148 0.955501
O O16 0.000000 0.500000 0.500000
O O17 0.577973 0.131397 0.351063
O O18 0.500000 0.500000 0.000000
#
# Coordination Sequence:
#
# PCOD9029399 Si02
#       8
#     2   2   2   2   2   2   2   2
#     4  12  22  41  67  95 127 164 216 266 330 384
#     4  10  22  42  67  93 124 174 221 252 309 375
#     4  11  25  43  65  96 128 177 213 264 311 379
#     4  11  23  41  67  95 125 170 209 270 329 380
#     4  11  22  40  60  93 127 167 206 270 317 375
#     4  12  24  39  66  92 130 159 220 264 317 375
#     4  11  26  40  61  92 129 169 210 257 321 376
#     4  10  25  45  66  93 136 168 218 259 321 386
#
# _framework density 21.416723999999999
#
# number of rings (size 3 to 8) (size 9 to 14) (size 15 to 20)
#    0.000    1.000    2.500    4.125    5.250    8.000 
#    0.000    1.250    0.000    0.000    0.000    0.000 
#    0.000    0.000    0.000    0.000    0.000    0.000 
#
# Total GULP energy -89420.145101 kJ/mol
# GULP energy per Si atom -5588.759069 kJ/mol
# Density = 2.136798 g / cm^3
# Si number density = 21.416724 Si / 1000 Ang^3
#
#
#
# Elastic Constant Matrix: (Units=GPa)
#
#
# Indices 1 2 3 4 5 6 
#
# 1 63.4136 25.1436 32.8391 -4.4232 -9.0938 0.6460
# 2 25.1436 114.1350 27.7760 -19.2389 2.7235 -9.3198
# 3 32.8391 27.7760 147.5567 -4.3959 13.8525 -3.0092
# 4 -4.4232 -19.2389 -4.3959 37.1389 -4.9563 -0.6512
# 5 -9.0938 2.7235 13.8525 -4.9563 21.9080 2.7864
# 6 0.6460 -9.3198 -3.0092 -0.6512 2.7864 30.9235
#
#
#
# Elastic Compliance Matrix: (Units=1/GPa)
#
#
# Indices 1 2 3 4 5 6 
#
# 1 0.022404 -0.003882 -0.005601 0.001825 0.014172 -0.003422
# 2 -0.003882 0.010985 -0.000815 0.004955 -0.001796 0.003579
# 3 -0.005601 -0.000815 0.008955 -0.001114 -0.008325 0.001470
# 4 0.001825 0.004955 -0.001114 0.030616 0.007607 0.001306
# 5 0.014172 -0.001796 -0.008325 0.007607 0.059609 -0.006858
# 6 -0.003422 0.003579 0.001470 0.001306 -0.006858 0.034276
#
#
# Mechanical properties :
#
#
# Convention : Reuss Voigt Hill
#
# Bulk Modulus (GPa) = 45.98017 55.18029 50.58023
# Shear Modulus (GPa) = 25.68166 33.95053 29.81610
#
# Velocity S-wave (km/s) = 3.46662 3.98582 3.73525
# Velocity P-wave (km/s) = 6.12692 6.85590 6.50163
#
# Compressibility (1/GPa) = 0.02174851
#
# Stress axis : x y z
#
# Youngs Moduli (GPa) = 44.63498 91.03006 111.66607
#
# Poissons Ratio (x) = 0.35341 0.62545
# Poissons Ratio (y) = 0.17329 0.09097
# Poissons Ratio (z) = 0.25001 0.07416
#
# Static dielectric constant tensor:
#      x y z
#    x 1.784290 0.003050 -0.012190 
#    y 0.003050 1.897750 0.012550 
#    z -0.012190 0.012550 1.745560 
# 
# From -- ./inp_files/621351.got.cif
#   From: 2010.05.17/outbox.cif.g08.bks.cpg/sg2_311_cif.got.tgz:621351.got - 2010.06.03 11:33:40.
