data_PCOD9029037
_publ_section_title
;
Structure prediction by ZEFSAII (Michael W. Deem and Ramdas Pophale) SiO2 
 PCOD9029037
Probable space group: P -1
;
_chemical_formula_sum "Si O2"
_cell_formula_units_Z 13
_cell_length_a 11.548516
_cell_length_b 5.968756
_cell_length_c 9.050683
_cell_angle_alpha 115.213669
_cell_angle_beta 116.446597
_cell_angle_gamma 91.597880
_cell_volume 486.783960
_symmetry_space_group_name_H-M "P -1"
_symmetry_group_IT_number 2
_symmetry_cell_setting 'triclinic'
loop_
_space_group_symop_operation_xyz
x,y,z
-x,-y,-z
loop_
_atom_site_type_symbol
_atom_site_label
_atom_site_fract_x
_atom_site_fract_y
_atom_site_fract_z
Si Si1 0.500000 0.000000 0.500000
Si Si2 0.751503 0.076589 0.575500
Si Si3 0.981562 0.936146 0.139997
Si Si4 0.928837 0.212205 0.440915
Si Si5 0.251626 0.496455 0.075566
Si Si6 0.468895 0.223001 0.240287
Si Si7 0.608656 0.360942 0.082289
O O1 0.395022 0.102129 0.583389
O O2 0.513408 0.790710 0.579720
O O3 0.820842 0.220989 0.509169
O O4 0.703889 0.236104 0.730231
O O5 0.868955 0.978085 0.685658
O O6 0.888222 0.068024 0.221422
O O7 0.902650 0.638063 0.019534
O O8 0.000000 0.000000 0.000000
O O9 0.000000 0.500000 0.500000
O O10 0.000000 0.000000 0.500000
O O11 0.348377 0.341694 0.156750
O O12 0.263095 0.509135 0.908519
O O13 0.598814 0.351986 0.249943
O O14 0.425083 0.930443 0.074665
O O15 0.500000 0.500000 0.000000
#
# Coordination Sequence:
#
# PCOD9029037 Si02
#       7
#     1   2   2   2   2   2   2
#     4  12  24  44  68 102 152 188 248 292 382 452
#     4  11  25  46  69 109 149 197 247 306 384 449
#     4  11  24  45  78 107 141 190 252 313 372 445
#     4  10  24  49  73 106 152 194 247 311 380 453
#     4  11  22  43  74 106 139 187 252 308 370 439
#     4  10  22  42  66 101 143 187 244 300 362 441
#     4   9  20  41  67  98 142 185 242 299 360 437
#
# _framework density 26.705893
#
# number of rings (size 3 to 8) (size 9 to 14) (size 15 to 20)
#    0.000    1.538    1.538    2.308    0.000    6.769 
#    5.538    0.000    0.000    0.000    0.000    0.000 
#    0.000    0.000    0.000    0.000    0.000    0.000 
#
# Total GULP energy -72373.314463 kJ/mol
# GULP energy per Si atom -5567.178036 kJ/mol
# Density = 2.664511 g / cm^3
# Si number density = 26.705893 Si / 1000 Ang^3
#
#
#
# Elastic Constant Matrix: (Units=GPa)
#
#
# Indices 1 2 3 4 5 6 
#
# 1 169.7608 72.4543 52.2521 -43.8939 -38.3547 44.3705
# 2 72.4543 141.2235 35.3900 -8.7955 -20.8958 20.6858
# 3 52.2521 35.3900 74.4222 -10.1829 -17.9775 16.6566
# 4 -43.8939 -8.7955 -10.1829 38.4361 14.0407 -31.6816
# 5 -38.3547 -20.8958 -17.9775 14.0407 43.4615 -22.8888
# 6 44.3705 20.6858 16.6566 -31.6816 -22.8888 57.1323
#
#
#
# Elastic Compliance Matrix: (Units=1/GPa)
#
#
# Indices 1 2 3 4 5 6 
#
# 1 0.012836 -0.004244 -0.004627 0.011932 0.004148 0.001195
# 2 -0.004244 0.009813 -0.001700 -0.005304 0.000709 -0.002419
# 3 -0.004627 -0.001700 0.018099 -0.003413 0.002699 -0.001879
# 4 0.011932 -0.005304 -0.003413 0.059362 0.001751 0.027269
# 5 0.004148 0.000709 0.002699 0.001751 0.032733 0.009819
# 6 0.001195 -0.002419 -0.001879 0.027269 0.009819 0.037054
#
#
# Mechanical properties :
#
#
# Convention : Reuss Voigt Hill
#
# Bulk Modulus (GPa) = 51.00230 78.39994 64.70112
# Shear Modulus (GPa) = 25.30684 42.82667 34.06676
#
# Velocity S-wave (km/s) = 3.08167 4.00889 3.57547
# Velocity P-wave (km/s) = 5.63928 7.13084 6.42846
#
# Compressibility (1/GPa) = 0.01960696
#
# Stress axis : x y z
#
# Youngs Moduli (GPa) = 77.90477 101.90278 55.25073
#
# Poissons Ratio (x) = 0.43250 0.25564
# Poissons Ratio (y) = 0.33065 0.09391
# Poissons Ratio (z) = 0.36046 0.17321
#
# Static dielectric constant tensor:
#      x y z
#    x 1.641060 -0.175710 -0.448950 
#    y -0.175710 2.150120 -0.112290 
#    z -0.448950 -0.112290 1.743960 
# 
# From -- ./inp_files/65335.got.cif
#   From: 2010.05.17/outbox.cif.g08.bks.cpg/sg2_33_cif.got.tgz:65335.got - 2010.06.03 11:33:40.
