data_PCOD9029184
_publ_section_title
;
Structure prediction by ZEFSAII (Michael W. Deem and Ramdas Pophale) SiO2 
 PCOD9029184
Probable space group: P -1
;
_chemical_formula_sum "Si O2"
_cell_formula_units_Z 14
_cell_length_a 11.824684
_cell_length_b 11.586272
_cell_length_c 11.723571
_cell_angle_alpha 108.763136
_cell_angle_beta 104.690786
_cell_angle_gamma 136.968460
_cell_volume 678.859500
_symmetry_space_group_name_H-M "P -1"
_symmetry_group_IT_number 2
_symmetry_cell_setting 'triclinic'
loop_
_space_group_symop_operation_xyz
x,y,z
-x,-y,-z
loop_
_atom_site_type_symbol
_atom_site_label
_atom_site_fract_x
_atom_site_fract_y
_atom_site_fract_z
Si Si1 0.768532 0.772149 0.456018
Si Si2 0.956688 0.635020 0.743423
Si Si3 0.833691 0.039222 0.745848
Si Si4 0.670032 0.416251 0.385340
Si Si5 0.805779 0.711376 0.893961
Si Si6 0.472683 0.831992 0.963513
Si Si7 0.016659 0.458077 0.866416
O O1 0.785747 0.657430 0.484392
O O2 0.486006 0.515859 0.247593
O O3 0.785801 0.892237 0.593804
O O4 0.000000 0.000000 0.500000
O O5 0.821361 0.483270 0.541278
O O6 0.822497 0.618534 0.774939
O O7 0.963796 0.518649 0.783849
O O8 0.239511 0.945343 0.887616
O O9 0.838330 0.175279 0.730474
O O10 0.615313 0.838575 0.721711
O O11 0.088612 0.245524 0.946972
O O12 0.665016 0.355445 0.239296
O O13 0.000000 0.000000 0.000000
O O14 0.500000 0.000000 0.000000
O O15 0.705795 0.339176 0.027308
O O16 0.000000 0.500000 0.000000
#
# Coordination Sequence:
#
# PCOD9029184 Si02
#       7
#     2   2   2   2   2   2   2
#     4  12  27  44  66 105 139 173 229 286 338 403
#     4  11  23  42  69  98 130 180 224 274 338 397
#     4  12  23  41  71  95 135 180 225 280 335 404
#     4  12  23  44  68  98 134 174 226 279 337 401
#     4  12  22  42  72  95 129 183 226 271 342 400
#     4  10  22  42  66  95 132 173 224 274 329 401
#     4  11  23  43  66  99 138 176 223 277 338 405
#
# _framework density 20.622824999999999
#
# number of rings (size 3 to 8) (size 9 to 14) (size 15 to 20)
#    0.000    0.571    5.714    3.000    0.000    4.571 
#    0.000    0.000    0.000    0.000    0.000    0.000 
#    0.000    0.000    0.000    0.000    0.000    0.000 
#
# Total GULP energy -78239.502313 kJ/mol
# GULP energy per Si atom -5588.535879 kJ/mol
# Density = 2.057589 g / cm^3
# Si number density = 20.622825 Si / 1000 Ang^3
#
#
#
# Elastic Constant Matrix: (Units=GPa)
#
#
# Indices 1 2 3 4 5 6 
#
# 1 83.5125 49.5748 30.1694 0.5691 -13.0901 1.5977
# 2 49.5748 123.6489 28.3142 12.7071 8.1701 5.1413
# 3 30.1694 28.3142 102.0022 -16.6742 5.3070 11.8733
# 4 0.5691 12.7071 -16.6742 31.6811 -5.4611 -1.6674
# 5 -13.0901 8.1701 5.3070 -5.4611 47.9004 5.1570
# 6 1.5977 5.1413 11.8733 -1.6674 5.1570 40.1847
#
#
#
# Elastic Compliance Matrix: (Units=1/GPa)
#
#
# Indices 1 2 3 4 5 6 
#
# 1 0.018699 -0.007353 -0.003584 0.001946 0.006935 0.000447
# 2 -0.007353 0.012554 -0.002145 -0.006854 -0.004655 -0.000367
# 3 -0.003584 -0.002145 0.013083 0.007500 -0.000883 -0.003024
# 4 0.001946 -0.006854 0.007500 0.039128 0.005383 -0.000484
# 5 0.006935 -0.004655 -0.000883 0.005383 0.024530 -0.002344
# 6 0.000447 -0.000367 -0.003024 -0.000484 -0.002344 0.026089
#
#
# Mechanical properties :
#
#
# Convention : Reuss Voigt Hill
#
# Bulk Modulus (GPa) = 55.03397 58.36451 56.69924
# Shear Modulus (GPa) = 30.06497 37.36025 33.71261
#
# Velocity S-wave (km/s) = 3.82232 4.26090 4.04756
# Velocity P-wave (km/s) = 6.79883 7.25048 7.02828
#
# Compressibility (1/GPa) = 0.01817059
#
# Stress axis : x y z
#
# Youngs Moduli (GPa) = 53.47766 79.65546 76.43317
#
# Poissons Ratio (x) = 0.58572 0.27397
# Poissons Ratio (y) = 0.39323 0.16399
# Poissons Ratio (z) = 0.19169 0.17090
#
# Static dielectric constant tensor:
#      x y z
#    x 1.742600 0.007120 0.041980 
#    y 0.007120 1.725790 0.031310 
#    z 0.041980 0.031310 1.753590 
# 
# From -- ./inp_files/426357.got.cif
#   From: 2010.05.17/outbox.cif.g08.bks.cpg/sg2_214_cif.got.tgz:426357.got - 2010.06.03 11:33:40.
