data_PCOD9029563
_publ_section_title
;
Structure prediction by ZEFSAII (Michael W. Deem and Ramdas Pophale) SiO2 
 PCOD9029563
Probable space group: P -1
;
_chemical_formula_sum "Si O2"
_cell_formula_units_Z 14
_cell_length_a 7.255942
_cell_length_b 11.923178
_cell_length_c 6.780824
_cell_angle_alpha 100.840764
_cell_angle_beta 119.869469
_cell_angle_gamma 86.203707
_cell_volume 499.369804
_symmetry_space_group_name_H-M "P -1"
_symmetry_group_IT_number 2
_symmetry_cell_setting 'triclinic'
loop_
_space_group_symop_operation_xyz
x,y,z
-x,-y,-z
loop_
_atom_site_type_symbol
_atom_site_label
_atom_site_fract_x
_atom_site_fract_y
_atom_site_fract_z
Si Si1 0.321541 0.502050 0.134496
Si Si2 0.869209 0.961739 0.195440
Si Si3 0.023778 0.414843 0.302544
Si Si4 0.551687 0.281927 0.551795
Si Si5 0.591314 0.750360 0.956278
Si Si6 0.869004 0.215513 0.386251
Si Si7 0.333434 0.932429 0.249101
O O1 0.184059 0.461119 0.236550
O O2 0.489864 0.593419 0.345175
O O3 0.190883 0.575278 0.936017
O O4 0.381283 0.382938 0.028092
O O5 0.905269 0.080434 0.377027
O O6 0.242183 0.157985 0.832453
O O7 0.697947 0.002149 0.951147
O O8 0.092437 0.933661 0.204325
O O9 0.035977 0.291329 0.374666
O O10 0.000000 0.500000 0.500000
O O11 0.216093 0.723391 0.440175
O O12 0.574569 0.192432 0.707452
O O13 0.394447 0.245607 0.277772
O O14 0.347546 0.780682 0.854703
O O15 0.500000 0.000000 0.500000
#
# Coordination Sequence:
#
# PCOD9029563 Si02
#       7
#     2   2   2   2   2   2   2
#     4  11  24  41  72  99 142 188 231 303 354 415
#     4  11  24  41  70  99 141 188 237 294 355 421
#     4  11  23  42  67 102 142 185 244 291 354 427
#     4  10  22  42  67  97 141 182 230 292 355 415
#     4  10  23  42  69 101 140 189 236 294 359 423
#     4  10  23  42  66  99 143 180 240 294 344 431
#     4  11  23  42  67 102 137 185 239 290 362 420
#
# _framework density 28.035335
#
# number of rings (size 3 to 8) (size 9 to 14) (size 15 to 20)
#    0.857    0.571    2.857    1.714    8.000    1.143 
#    0.000    2.857    0.000    0.000    0.000    0.000 
#    0.000    0.000    0.000    0.000    0.000    0.000 
#
# Total GULP energy -78282.271044 kJ/mol
# GULP energy per Si atom -5591.590789 kJ/mol
# Density = 2.797153 g / cm^3
# Si number density = 28.035335 Si / 1000 Ang^3
#
#
#
# Elastic Constant Matrix: (Units=GPa)
#
#
# Indices 1 2 3 4 5 6 
#
# 1 88.6235 27.0938 2.7892 7.3095 -8.8593 29.5559
# 2 27.0938 227.5413 32.6877 24.1703 -0.8295 -6.4947
# 3 2.7892 32.6877 118.1715 12.6485 -2.6772 11.5944
# 4 7.3095 24.1703 12.6485 59.5909 7.8990 3.6358
# 5 -8.8593 -0.8295 -2.6772 7.8990 37.0203 -6.6519
# 6 29.5559 -6.4947 11.5944 3.6358 -6.6519 35.5977
#
#
#
# Elastic Compliance Matrix: (Units=1/GPa)
#
#
# Indices 1 2 3 4 5 6 
#
# 1 0.017308 -0.002685 0.001933 -0.000744 0.001667 -0.015103
# 2 -0.002685 0.005243 -0.001577 -0.001764 0.000450 0.003963
# 3 0.001933 -0.001577 0.009479 -0.001395 0.000560 -0.004733
# 4 -0.000744 -0.001764 -0.001395 0.018624 -0.004656 -0.002022
# 5 0.001667 0.000450 0.000560 -0.004656 0.029256 0.004458
# 6 -0.015103 0.003963 -0.004733 -0.002022 0.004458 0.043935
#
#
# Mechanical properties :
#
#
# Convention : Reuss Voigt Hill
#
# Bulk Modulus (GPa) = 36.53064 62.16420 49.34742
# Shear Modulus (GPa) = 36.32988 51.22616 43.77802
#
# Velocity S-wave (km/s) = 3.60371 4.27921 3.95591
# Velocity P-wave (km/s) = 5.51127 6.82914 6.20529
#
# Compressibility (1/GPa) = 0.02737428
#
# Stress axis : x y z
#
# Youngs Moduli (GPa) = 57.77573 190.72554 105.49408
#
# Poissons Ratio (x) = 0.51203 -0.20395
# Poissons Ratio (y) = 0.15511 0.16634
# Poissons Ratio (z) = -0.11170 0.30074
#
# Static dielectric constant tensor:
#      x y z
#    x 2.174540 -0.067790 -0.051270 
#    y -0.067790 2.182860 0.031200 
#    z -0.051270 0.031200 2.312100 
# 
# From -- ./inp_files/254408.got.cif
#   From: 2010.05.17/outbox.cif.g08.bks.cpg/sg2_128_cif.got.tgz:254408.got - 2010.06.03 11:33:40.
