data_PCOD9029264
_publ_section_title
;
Structure prediction by ZEFSAII (Michael W. Deem and Ramdas Pophale) SiO2 
 PCOD9029264
Probable space group: P -1
;
_chemical_formula_sum "Si O2"
_cell_formula_units_Z 14
_cell_length_a 10.822667
_cell_length_b 9.453459
_cell_length_c 7.336392
_cell_angle_alpha 74.142161
_cell_angle_beta 98.130756
_cell_angle_gamma 134.693796
_cell_volume 511.859826
_symmetry_space_group_name_H-M "P -1"
_symmetry_group_IT_number 2
_symmetry_cell_setting 'triclinic'
loop_
_space_group_symop_operation_xyz
x,y,z
-x,-y,-z
loop_
_atom_site_type_symbol
_atom_site_label
_atom_site_fract_x
_atom_site_fract_y
_atom_site_fract_z
Si Si1 0.177014 0.460720 0.057356
Si Si2 0.781121 0.728380 0.382027
Si Si3 0.347905 0.704781 0.516850
Si Si4 0.927306 0.373760 0.304715
Si Si5 0.839173 0.866718 0.755490
Si Si6 0.349849 0.062388 0.785135
Si Si7 0.549543 0.836029 0.867487
O O1 0.113357 0.242659 0.089323
O O2 0.112941 0.462803 0.242881
O O3 0.101177 0.508284 0.873335
O O4 0.383375 0.631042 0.009359
O O5 0.699235 0.506337 0.391107
O O6 0.769150 0.751547 0.586940
O O7 0.693270 0.800164 0.251382
O O8 0.986656 0.897283 0.322190
O O9 0.171223 0.657005 0.518158
O O10 0.473338 0.812878 0.332977
O O11 0.467143 0.842482 0.670288
O O12 0.803390 0.139594 0.289177
O O13 0.688764 0.835497 0.825465
O O14 0.357570 0.997742 0.010285
#
# Coordination Sequence:
#
# PCOD9029264 Si02
#       7
#     2   2   2   2   2   2   2
#     4  10  22  42  66  98 136 182 226 277 331 416
#     4  11  25  43  73 104 138 178 233 285 348 403
#     4  11  25  46  69 105 140 180 227 287 342 408
#     4  10  24  45  68  96 146 185 224 277 349 406
#     4  11  23  45  70 106 138 177 231 293 339 407
#     4  12  24  46  71 104 139 183 227 286 339 416
#     4  11  26  39  74 103 137 177 234 278 349 397
#
# _framework density 27.351237999999999
#
# number of rings (size 3 to 8) (size 9 to 14) (size 15 to 20)
#    0.000    1.143    2.857    2.143    6.000    6.286 
#    0.000    4.286    0.000    0.000    0.000    0.000 
#    0.000    0.000    0.000    0.000    0.000    0.000 
#
# Total GULP energy -78525.537450 kJ/mol
# GULP energy per Si atom -5608.966961 kJ/mol
# Density = 2.728899 g / cm^3
# Si number density = 27.351238 Si / 1000 Ang^3
#
#
#
# Elastic Constant Matrix: (Units=GPa)
#
#
# Indices 1 2 3 4 5 6 
#
# 1 205.2126 38.3333 56.3204 -13.9750 -54.7160 3.2478
# 2 38.3333 78.4715 13.6448 -16.7330 -17.7963 -14.5653
# 3 56.3204 13.6448 131.3542 6.3351 -40.0235 9.3853
# 4 -13.9750 -16.7330 6.3351 28.1600 -2.2283 -4.2433
# 5 -54.7160 -17.7963 -40.0235 -2.2283 67.7507 -15.5030
# 6 3.2478 -14.5653 9.3853 -4.2433 -15.5030 41.9856
#
#
#
# Elastic Compliance Matrix: (Units=1/GPa)
#
#
# Indices 1 2 3 4 5 6 
#
# 1 0.007101 -0.000797 -0.001755 0.004122 0.005047 0.001846
# 2 -0.000797 0.019963 -0.001077 0.013952 0.006990 0.011219
# 3 -0.001755 -0.001077 0.009880 -0.003661 0.003683 -0.001456
# 4 0.004122 0.013952 -0.003661 0.049530 0.009642 0.013906
# 5 0.005047 0.006990 0.003683 0.009642 0.025849 0.011730
# 6 0.001846 0.011219 -0.001456 0.013906 0.011730 0.033629
#
#
# Mechanical properties :
#
#
# Convention : Reuss Voigt Hill
#
# Bulk Modulus (GPa) = 33.68552 70.18171 51.93361
# Shear Modulus (GPa) = 30.65538 48.02858 39.34198
#
# Velocity S-wave (km/s) = 3.35147 4.19500 3.79674
# Velocity P-wave (km/s) = 5.22677 7.01279 6.18459
#
# Compressibility (1/GPa) = 0.02968635
#
# Stress axis : x y z
#
# Youngs Moduli (GPa) = 140.83333 50.09316 101.21393
#
# Poissons Ratio (x) = 0.03994 0.17761
# Poissons Ratio (y) = 0.11228 0.10896
# Poissons Ratio (z) = 0.24713 0.05393
#
# Static dielectric constant tensor:
#      x y z
#    x 2.108840 0.046710 0.057900 
#    y 0.046710 2.136500 0.045880 
#    z 0.057900 0.045880 2.152790 
# 
# From -- ./inp_files/239059.got.cif
#   From: 2010.05.17/outbox.cif.g08.bks.cpg/sg2_120_cif.got.tgz:239059.got - 2010.06.03 11:33:40.
