data_PCOD9029363
_publ_section_title
;
Structure prediction by ZEFSAII (Michael W. Deem and Ramdas Pophale) SiO2 
 PCOD9029363
Probable space group: P -1
;
_chemical_formula_sum "Si O2"
_cell_formula_units_Z 14
_cell_length_a 8.511862
_cell_length_b 24.445771
_cell_length_c 5.046524
_cell_angle_alpha 115.321263
_cell_angle_beta 58.592553
_cell_angle_gamma 140.604259
_cell_volume 568.202710
_symmetry_space_group_name_H-M "P -1"
_symmetry_group_IT_number 2
_symmetry_cell_setting 'triclinic'
loop_
_space_group_symop_operation_xyz
x,y,z
-x,-y,-z
loop_
_atom_site_type_symbol
_atom_site_label
_atom_site_fract_x
_atom_site_fract_y
_atom_site_fract_z
Si Si1 0.690903 0.915737 0.569695
Si Si2 0.903183 0.561880 0.462785
Si Si3 0.615927 0.263790 0.282937
Si Si4 0.999860 0.737846 0.342095
Si Si5 0.293332 0.607228 0.824317
Si Si6 0.553354 0.079754 0.709161
Si Si7 0.681816 0.632011 0.902698
O O1 0.588236 0.824285 0.553373
O O2 0.591738 0.910710 0.356095
O O3 0.552171 0.928410 0.926127
O O4 0.000000 0.000000 0.500000
O O5 0.788897 0.469308 0.440357
O O6 0.679668 0.559584 0.701353
O O7 0.155124 0.648857 0.570308
O O8 0.027509 0.578397 0.097057
O O9 0.518994 0.297280 0.261824
O O10 0.770400 0.253700 0.936784
O O11 0.136287 0.834169 0.391066
O O12 0.916051 0.707177 0.652141
O O13 0.768567 0.668237 0.196572
O O14 0.437177 0.610541 0.955723
O O15 0.500000 0.000000 0.500000
#
# Coordination Sequence:
#
# PCOD9029363 Si02
#       7
#     2   2   2   2   2   2   2
#     4  11  25  44  71 103 138 179 229 285 341 410
#     4  10  22  43  62  97 138 177 227 282 342 394
#     4  10  22  42  67  89 139 182 223 272 353 397
#     4  10  22  43  65  92 132 181 217 277 339 407
#     4  11  23  39  68  98 130 184 229 280 334 409
#     4  11  23  45  70  99 136 182 222 283 355 405
#     4  11  23  42  65  98 132 176 228 276 332 397
#
# _framework density 24.639094
#
# number of rings (size 3 to 8) (size 9 to 14) (size 15 to 20)
#    0.000    1.429    1.429    4.286    4.000    1.143 
#    2.571    2.143    0.000    0.000    0.000    0.000 
#    0.000    0.000    0.000    0.000    0.000    0.000 
#
# Total GULP energy -78318.589813 kJ/mol
# GULP energy per Si atom -5594.184987 kJ/mol
# Density = 2.458301 g / cm^3
# Si number density = 24.639094 Si / 1000 Ang^3
#
#
#
# Elastic Constant Matrix: (Units=GPa)
#
#
# Indices 1 2 3 4 5 6 
#
# 1 97.3933 25.6036 0.0247 13.6161 1.1998 -4.1453
# 2 25.6036 170.3474 20.6059 21.2142 -9.4678 -6.5335
# 3 0.0247 20.6059 58.6179 16.2341 -9.0246 -5.3730
# 4 13.6161 21.2142 16.2341 51.4011 2.1274 -4.3914
# 5 1.1998 -9.4678 -9.0246 2.1274 28.1513 9.5315
# 6 -4.1453 -6.5335 -5.3730 -4.3914 9.5315 38.5455
#
#
#
# Elastic Compliance Matrix: (Units=1/GPa)
#
#
# Indices 1 2 3 4 5 6 
#
# 1 0.011072 -0.001491 0.001215 -0.002587 -0.000724 0.000992
# 2 -0.001491 0.006627 -0.001485 -0.001947 0.001945 0.000053
# 3 0.001215 -0.001485 0.020354 -0.006362 0.006308 0.000431
# 4 -0.002587 -0.001947 -0.006362 0.023376 -0.005180 0.002449
# 5 -0.000724 0.001945 0.006308 -0.005180 0.041950 -0.009832
# 6 0.000992 0.000053 0.000431 0.002449 -0.009832 0.028829
#
#
# Mechanical properties :
#
#
# Convention : Reuss Voigt Hill
#
# Bulk Modulus (GPa) = 28.96014 46.53632 37.74823
# Shear Modulus (GPa) = 33.95784 42.29453 38.12619
#
# Velocity S-wave (km/s) = 3.71645 4.14764 3.93795
# Velocity P-wave (km/s) = 5.49502 6.47035 6.00253
#
# Compressibility (1/GPa) = 0.03453022
#
# Stress axis : x y z
#
# Youngs Moduli (GPa) = 90.31677 150.90308 49.13076
#
# Poissons Ratio (x) = 0.22504 -0.05971
# Poissons Ratio (y) = 0.13469 0.07298
# Poissons Ratio (z) = -0.10977 0.22414
#
# Static dielectric constant tensor:
#      x y z
#    x 2.053450 -0.015280 -0.002910 
#    y -0.015280 1.996560 -0.009880 
#    z -0.002910 -0.009880 1.944360 
# 
# From -- ./inp_files/55102.got.cif
#   From: 2010.05.17/outbox.cif.g08.bks.cpg/sg2_28_cif.got.tgz:55102.got - 2010.06.03 11:33:40.
