data_PCOD9029240
_publ_section_title
;
Structure prediction by ZEFSAII (Michael W. Deem and Ramdas Pophale) SiO2 
 PCOD9029240
Probable space group: P -1
;
_chemical_formula_sum "Si O2"
_cell_formula_units_Z 16
_cell_length_a 14.385978
_cell_length_b 8.664144
_cell_length_c 20.620470
_cell_angle_alpha 123.102134
_cell_angle_beta 160.028010
_cell_angle_gamma 65.670132
_cell_volume 687.761837
_symmetry_space_group_name_H-M "P -1"
_symmetry_group_IT_number 2
_symmetry_cell_setting 'triclinic'
loop_
_space_group_symop_operation_xyz
x,y,z
-x,-y,-z
loop_
_atom_site_type_symbol
_atom_site_label
_atom_site_fract_x
_atom_site_fract_y
_atom_site_fract_z
Si Si1 0.233422 0.329565 0.465429
Si Si2 0.819189 0.559147 0.951403
Si Si3 0.952243 0.987315 0.543446
Si Si4 0.288682 0.930406 0.406827
Si Si5 0.189010 0.691125 0.707780
Si Si6 0.682359 0.594450 0.076690
Si Si7 0.316594 0.284593 0.356491
Si Si8 0.279328 0.736335 0.063610
O O1 0.498849 0.523477 0.706196
O O2 0.271481 0.309991 0.409580
O O3 0.946024 0.326201 0.312341
O O4 0.251971 0.122365 0.455591
O O5 0.764666 0.392287 0.930758
O O6 0.000000 0.500000 0.000000
O O7 0.999419 0.766008 0.150580
O O8 0.609684 0.877588 0.305102
O O9 0.141374 0.870955 0.677693
O O10 0.000000 0.000000 0.500000
O O11 0.056785 0.209400 0.688435
O O12 0.474268 0.835947 0.550012
O O13 0.500000 0.000000 0.500000
O O14 0.000000 0.500000 0.500000
O O15 0.496853 0.668178 0.918778
O O16 0.500000 0.500000 0.000000
O O17 0.773710 0.425251 0.065482
O O18 0.500000 0.500000 0.500000
O O19 0.986814 0.184816 0.093094
#
# Coordination Sequence:
#
# PCOD9029240 Si02
#       8
#     2   2   2   2   2   2   2   2
#     4  11  24  43  72 100 138 183 237 289 365 423
#     4  12  21  42  71  96 142 181 230 295 350 427
#     4  12  26  47  72 105 148 191 247 306 364 437
#     4  10  22  42  66  97 138 180 235 287 351 422
#     4  12  24  48  74 109 142 191 248 299 364 444
#     4  12  25  49  74 103 149 193 239 310 365 432
#     4  11  22  43  71 103 141 186 235 291 359 432
#     4  12  25  45  70 102 149 187 238 296 371 425
#
# _framework density 23.263866
#
# number of rings (size 3 to 8) (size 9 to 14) (size 15 to 20)
#    0.000    0.500    7.500    1.125    1.750    0.000 
#    2.250    6.875    0.000    0.000    0.000    0.000 
#    0.000    0.000    0.000    0.000    0.000    0.000 
#
# Total GULP energy -89447.059207 kJ/mol
# GULP energy per Si atom -5590.441200 kJ/mol
# Density = 2.321092 g / cm^3
# Si number density = 23.263866 Si / 1000 Ang^3
#
#
#
# Elastic Constant Matrix: (Units=GPa)
#
#
# Indices 1 2 3 4 5 6 
#
# 1 112.5580 16.6273 5.3531 7.9854 4.9738 12.8246
# 2 16.6273 87.6855 45.8177 9.6158 10.5678 -1.4258
# 3 5.3531 45.8177 138.2812 23.0443 -0.2640 -2.1456
# 4 7.9854 9.6158 23.0443 42.8401 -1.1084 -0.6341
# 5 4.9738 10.5678 -0.2640 -1.1084 31.4495 3.8511
# 6 12.8246 -1.4258 -2.1456 -0.6341 3.8511 43.1660
#
#
#
# Elastic Compliance Matrix: (Units=1/GPa)
#
#
# Indices 1 2 3 4 5 6 
#
# 1 0.009609 -0.001863 0.000481 -0.001690 -0.000599 -0.002864
# 2 -0.001863 0.014926 -0.004773 -0.000545 -0.004932 0.001241
# 3 0.000481 -0.004773 0.009477 -0.004078 0.001466 -0.000020
# 4 -0.001690 -0.000545 -0.004078 0.026015 0.001266 0.000551
# 5 -0.000599 -0.004932 0.001466 0.001266 0.033964 -0.002924
# 6 -0.002864 0.001241 -0.000020 0.000551 -0.002924 0.024326
#
#
# Mechanical properties :
#
#
# Convention : Reuss Voigt Hill
#
# Bulk Modulus (GPa) = 46.07627 52.68010 49.37818
# Shear Modulus (GPa) = 36.26894 41.53956 38.90425
#
# Velocity S-wave (km/s) = 3.95273 4.23020 4.09382
# Velocity P-wave (km/s) = 6.37817 6.82299 6.60433
#
# Compressibility (1/GPa) = 0.02170315
#
# Stress axis : x y z
#
# Youngs Moduli (GPa) = 104.06662 66.99809 105.52397
#
# Poissons Ratio (x) = 0.12480 -0.05078
# Poissons Ratio (y) = 0.19385 0.50364
# Poissons Ratio (z) = -0.05008 0.31976
#
# Static dielectric constant tensor:
#      x y z
#    x 1.781300 0.009550 0.000730 
#    y 0.009550 1.886630 -0.068390 
#    z 0.000730 -0.068390 1.890240 
# 
# From -- ./inp_files/597422.got.cif
#   From: 2010.05.17/outbox.cif.g08.bks.cpg/sg2_299_cif.got.tgz:597422.got - 2010.06.03 11:33:40.
