data_PCOD9029221
_publ_section_title
;
Structure prediction by ZEFSAII (Michael W. Deem and Ramdas Pophale) SiO2 
 PCOD9029221
Probable space group: P -1
;
_chemical_formula_sum "Si O2"
_cell_formula_units_Z 15
_cell_length_a 5.058536
_cell_length_b 17.243002
_cell_length_c 11.807165
_cell_angle_alpha 139.804411
_cell_angle_beta 92.261016
_cell_angle_gamma 107.301876
_cell_volume 572.119827
_symmetry_space_group_name_H-M "P -1"
_symmetry_group_IT_number 2
_symmetry_cell_setting 'triclinic'
loop_
_space_group_symop_operation_xyz
x,y,z
-x,-y,-z
loop_
_atom_site_type_symbol
_atom_site_label
_atom_site_fract_x
_atom_site_fract_y
_atom_site_fract_z
Si Si1 0.681177 0.431237 0.481724
Si Si2 0.676098 0.824519 0.945287
Si Si3 0.691906 0.856946 0.516491
Si Si4 0.255625 0.410736 0.798032
Si Si5 0.378855 0.993877 0.120213
Si Si6 0.000000 0.000000 0.500000
Si Si7 0.788617 0.230969 0.755304
Si Si8 0.280911 0.391719 0.130210
O O1 0.500000 0.500000 0.500000
O O2 0.492478 0.268065 0.273165
O O3 0.738164 0.485897 0.669882
O O4 0.000000 0.500000 0.500000
O O5 0.704023 0.718035 0.910171
O O6 0.464333 0.883664 0.050621
O O7 0.019195 0.938030 0.044304
O O8 0.723130 0.723701 0.389561
O O9 0.574033 0.839574 0.357683
O O10 0.991150 0.001295 0.647984
O O11 0.518760 0.884980 0.646704
O O12 0.386695 0.526148 0.833236
O O13 0.925527 0.340128 0.773383
O O14 0.500000 0.500000 0.000000
O O15 0.500000 0.000000 0.000000
O O16 0.134871 0.890227 0.389169
O O17 0.987374 0.317271 0.960587
#
# Coordination Sequence:
#
# PCOD9029221 Si02
#       8
#     2   2   2   2   2   1   2   2
#     4  10  22  44  67 104 139 183 239 302 364 434
#     4  11  25  49  75 110 148 194 262 310 380 442
#     4  11  25  44  72 105 147 195 253 306 379 450
#     4   9  22  44  64 101 146 183 245 294 383 440
#     4  12  29  49  78 110 152 204 255 314 375 454
#     4  10  22  42  66  96 146 178 248 294 368 424
#     4  10  22  42  68 104 141 188 239 300 376 446
#     4  10  22  43  71 104 143 186 240 310 372 450
#
# _framework density 26.218285999999999
#
# number of rings (size 3 to 8) (size 9 to 14) (size 15 to 20)
#    0.000    1.600    0.000    3.200    7.467    3.200 
#   31.200    0.000    0.000    0.000    0.000    0.000 
#    0.000    0.000    0.000    0.000    0.000    0.000 
#
# Total GULP energy -83623.472931 kJ/mol
# GULP energy per Si atom -5574.898195 kJ/mol
# Density = 2.615861 g / cm^3
# Si number density = 26.218286 Si / 1000 Ang^3
#
#
#
# Elastic Constant Matrix: (Units=GPa)
#
#
# Indices 1 2 3 4 5 6 
#
# 1 118.7716 1.2464 25.2235 -5.1241 -1.3918 -7.4455
# 2 1.2464 118.9434 13.7206 -12.0319 -1.2011 12.6510
# 3 25.2235 13.7206 138.3310 -13.4563 -0.2978 -9.7266
# 4 -5.1241 -12.0319 -13.4563 33.5825 1.2237 -2.8070
# 5 -1.3918 -1.2011 -0.2978 1.2237 42.7851 -1.7298
# 6 -7.4455 12.6510 -9.7266 -2.8070 -1.7298 29.6094
#
#
#
# Elastic Compliance Matrix: (Units=1/GPa)
#
#
# Indices 1 2 3 4 5 6 
#
# 1 0.008878 -0.000037 -0.001390 0.000931 0.000328 0.001899
# 2 -0.000037 0.009203 -0.000936 0.002581 0.000015 -0.004003
# 3 -0.001390 -0.000936 0.008071 0.002935 0.000021 0.002981
# 4 0.000931 0.002581 0.002935 0.032305 -0.000675 0.003118
# 5 0.000328 0.000015 0.000021 -0.000675 0.023459 0.001390
# 6 0.001899 -0.004003 0.002981 0.003118 0.001390 0.037317
#
#
# Mechanical properties :
#
#
# Convention : Reuss Voigt Hill
#
# Bulk Modulus (GPa) = 46.67715 50.71410 48.69563
# Shear Modulus (GPa) = 38.13809 43.58577 40.86193
#
# Velocity S-wave (km/s) = 3.81811 4.08170 3.95210
# Velocity P-wave (km/s) = 6.10567 6.44971 6.28004
#
# Compressibility (1/GPa) = 0.02142376
#
# Stress axis : x y z
#
# Youngs Moduli (GPa) = 112.63489 108.66225 123.90715
#
# Poissons Ratio (x) = 0.00404 0.17228
# Poissons Ratio (y) = 0.00418 0.11603
# Poissons Ratio (z) = 0.15661 0.10175
#
# Static dielectric constant tensor:
#      x y z
#    x 0.922010 -1.052280 -0.950150 
#    y -1.052280 1.053200 -1.055450 
#    z -0.950150 -1.055450 1.319470 
# 
# From -- ./inp_files/369182.got.cif
#   From: 2010.05.17/outbox.cif.g08.bks.cpg/sg2_185_cif.got.tgz:369182.got - 2010.06.03 11:33:40.
