data_PCOD9029451
_publ_section_title
;
Structure prediction by ZEFSAII (Michael W. Deem and Ramdas Pophale) SiO2 
 PCOD9029451
Probable space group: P -1
;
_chemical_formula_sum "Si O2"
_cell_formula_units_Z 12
_cell_length_a 8.193956
_cell_length_b 13.443058
_cell_length_c 9.095745
_cell_angle_alpha 142.182596
_cell_angle_beta 113.088438
_cell_angle_gamma 82.138304
_cell_volume 537.873281
_symmetry_space_group_name_H-M "P -1"
_symmetry_group_IT_number 2
_symmetry_cell_setting 'triclinic'
loop_
_space_group_symop_operation_xyz
x,y,z
-x,-y,-z
loop_
_atom_site_type_symbol
_atom_site_label
_atom_site_fract_x
_atom_site_fract_y
_atom_site_fract_z
Si Si1 0.255151 0.078769 0.071624
Si Si2 0.574626 0.658176 0.998078
Si Si3 0.362140 0.746647 0.761603
Si Si4 0.991536 0.475869 0.289719
Si Si5 0.945193 0.845722 0.183002
Si Si6 0.701212 0.673016 0.371063
O O1 0.454614 0.188232 0.198994
O O2 0.214637 0.177822 0.311706
O O3 0.108293 0.070872 0.883780
O O4 0.271939 0.897995 0.910106
O O5 0.761552 0.714994 0.037361
O O6 0.633367 0.737276 0.272351
O O7 0.428353 0.712358 0.907472
O O8 0.478183 0.460891 0.772268
O O9 0.205134 0.583162 0.453442
O O10 0.848503 0.567636 0.279908
O O11 0.000000 0.500000 0.500000
O O12 0.943689 0.282980 0.985363
O O13 0.000000 0.000000 0.500000
#
# Coordination Sequence:
#
# PCOD9029451 Si02
#       6
#     2   2   2   2   2   2
#     4  10  22  43  68  94 129 175 218 260 324 388
#     4  10  23  44  62  96 131 171 211 268 323 383
#     4  10  22  42  67  95 127 174 216 262 321 389
#     4  12  23  42  70  96 128 172 219 265 323 382
#     4  11  25  45  65  95 134 172 216 268 320 385
#     4  11  23  42  68  98 129 169 216 270 324 381
#
# _framework density 22.310085999999998
#
# number of rings (size 3 to 8) (size 9 to 14) (size 15 to 20)
#    0.000    1.333    3.333    1.000    2.333    6.000 
#   18.000    0.000    0.000    0.000    0.000    0.000 
#    0.000    0.000    0.000    0.000    0.000    0.000 
#
# Total GULP energy -67018.805648 kJ/mol
# GULP energy per Si atom -5584.900471 kJ/mol
# Density = 2.225931 g / cm^3
# Si number density = 22.310086 Si / 1000 Ang^3
#
#
#
# Elastic Constant Matrix: (Units=GPa)
#
#
# Indices 1 2 3 4 5 6 
#
# 1 69.9908 32.0759 48.0527 8.0421 -11.2174 -11.5451
# 2 32.0759 121.3813 46.9951 -14.0276 -21.3112 -1.5371
# 3 48.0527 46.9951 155.6622 -15.9424 -35.4041 -17.7929
# 4 8.0421 -14.0276 -15.9424 27.4679 0.6395 4.0821
# 5 -11.2174 -21.3112 -35.4041 0.6395 43.2580 11.1768
# 6 -11.5451 -1.5371 -17.7929 4.0821 11.1768 31.0970
#
#
#
# Elastic Compliance Matrix: (Units=1/GPa)
#
#
# Indices 1 2 3 4 5 6 
#
# 1 0.024725 -0.006183 -0.007508 -0.015886 -0.004703 0.008354
# 2 -0.006183 0.011736 -0.000155 0.008300 0.005156 -0.004746
# 3 -0.007508 -0.000155 0.011267 0.008495 0.007074 -0.000006
# 4 -0.015886 0.008300 0.008495 0.051594 0.008897 -0.010598
# 5 -0.004703 0.005156 0.007074 0.008897 0.032781 -0.010394
# 6 0.008354 -0.004746 -0.000006 -0.010598 -0.010394 0.040147
#
#
# Mechanical properties :
#
#
# Convention : Reuss Voigt Hill
#
# Bulk Modulus (GPa) = 49.90448 66.80909 58.35679
# Shear Modulus (GPa) = 24.19894 35.02529 29.61211
#
# Velocity S-wave (km/s) = 3.29700 3.96653 3.64716
# Velocity P-wave (km/s) = 6.07542 7.14063 6.62945
#
# Compressibility (1/GPa) = 0.02003828
#
# Stress axis : x y z
#
# Youngs Moduli (GPa) = 40.44458 85.20454 88.75739
#
# Poissons Ratio (x) = 0.52680 0.66636
# Poissons Ratio (y) = 0.25006 0.01371
# Poissons Ratio (z) = 0.30365 0.01317
#
# Static dielectric constant tensor:
#      x y z
#    x 1.869040 0.030470 0.014600 
#    y 0.030470 1.791170 -0.000110 
#    z 0.014600 -0.000110 1.846780 
# 
# From -- ./inp_files/156138.got.cif
#   From: 2010.05.17/outbox.cif.g08.bks.cpg/sg2_79_cif.got.tgz:156138.got - 2010.06.03 11:33:40.
