data_PCOD9029197
_publ_section_title
;
Structure prediction by ZEFSAII (Michael W. Deem and Ramdas Pophale) SiO2 
 PCOD9029197
Probable space group: P -1
;
_chemical_formula_sum "Si O2"
_cell_formula_units_Z 14
_cell_length_a 19.240882
_cell_length_b 4.911906
_cell_length_c 8.119041
_cell_angle_alpha 121.277526
_cell_angle_beta 116.138848
_cell_angle_gamma 69.670493
_cell_volume 581.647476
_symmetry_space_group_name_H-M "P -1"
_symmetry_group_IT_number 2
_symmetry_cell_setting 'triclinic'
loop_
_space_group_symop_operation_xyz
x,y,z
-x,-y,-z
loop_
_atom_site_type_symbol
_atom_site_label
_atom_site_fract_x
_atom_site_fract_y
_atom_site_fract_z
Si Si1 0.414838 0.739312 0.291811
Si Si2 0.265002 0.448570 0.948881
Si Si3 0.410227 0.466542 0.553317
Si Si4 0.740889 0.281416 0.315311
Si Si5 0.894026 0.048126 0.580989
Si Si6 0.121082 0.954404 0.072008
Si Si7 0.947815 0.661589 0.190171
O O1 0.410526 0.706710 0.475661
O O2 0.503828 0.592026 0.293424
O O3 0.399334 0.118649 0.357601
O O4 0.350315 0.547930 0.090703
O O5 0.243870 0.492742 0.748356
O O6 0.262499 0.077891 0.871611
O O7 0.203091 0.710592 0.061630
O O8 0.340557 0.589835 0.641651
O O9 0.811717 0.255295 0.509774
O O10 0.884024 0.904777 0.705661
O O11 0.966722 0.246397 0.718861
O O12 0.915601 0.800139 0.375833
O O13 0.057151 0.711892 0.923801
O O14 0.105269 0.181043 0.967939
#
# Coordination Sequence:
#
# PCOD9029197 Si02
#       7
#     2   2   2   2   2   2   2
#     4  10  22  42  66  96 126 173 218 276 323 405
#     4  12  24  41  63  96 139 166 227 277 327 403
#     4  10  22  42  67  93 129 169 226 264 337 397
#     4  12  25  42  63  99 133 175 221 278 332 403
#     4  11  25  44  71  94 137 179 221 284 343 387
#     4  12  24  45  67  97 134 177 225 281 337 400
#     4  11  26  45  66 101 131 173 234 280 329 415
#
# _framework density 24.069564
#
# number of rings (size 3 to 8) (size 9 to 14) (size 15 to 20)
#    0.000    0.857    2.857    3.429    0.000    8.000 
#    0.000    0.000    0.000    0.000    0.000    0.000 
#    0.000    0.000    0.000    0.000    0.000    0.000 
#
# Total GULP energy -78490.498816 kJ/mol
# GULP energy per Si atom -5606.464201 kJ/mol
# Density = 2.401478 g / cm^3
# Si number density = 24.069564 Si / 1000 Ang^3
#
#
#
# Elastic Constant Matrix: (Units=GPa)
#
#
# Indices 1 2 3 4 5 6 
#
# 1 140.4262 36.2163 49.3098 -1.9021 -13.5350 -24.5396
# 2 36.2163 87.4426 16.1963 -1.1897 -8.9630 -0.9909
# 3 49.3098 16.1963 65.4681 -22.0254 -4.4019 -11.8951
# 4 -1.9021 -1.1897 -22.0254 22.3011 4.4534 0.9168
# 5 -13.5350 -8.9630 -4.4019 4.4534 61.6786 0.2248
# 6 -24.5396 -0.9909 -11.8951 0.9168 0.2248 44.5153
#
#
#
# Elastic Compliance Matrix: (Units=1/GPa)
#
#
# Indices 1 2 3 4 5 6 
#
# 1 0.012849 -0.002988 -0.011894 -0.011446 0.002348 0.004063
# 2 -0.002988 0.013075 -0.001700 -0.001409 0.001231 -0.001788
# 3 -0.011894 -0.001700 0.037010 0.035905 -0.002818 0.002570
# 4 -0.011446 -0.001409 0.035905 0.080375 -0.005963 0.001628
# 5 0.002348 0.001231 -0.002818 -0.005963 0.017135 0.000605
# 6 0.004063 -0.001788 0.002570 0.001628 0.000605 0.025314
#
#
# Mechanical properties :
#
#
# Convention : Reuss Voigt Hill
#
# Bulk Modulus (GPa) = 33.58922 55.19798 44.39360
# Shear Modulus (GPa) = 21.84878 38.47328 30.16103
#
# Velocity S-wave (km/s) = 3.01613 4.00236 3.54372
# Velocity P-wave (km/s) = 5.11026 6.65890 5.93531
#
# Compressibility (1/GPa) = 0.02977146
#
# Stress axis : x y z
#
# Youngs Moduli (GPa) = 77.82485 76.48010 27.01944
#
# Poissons Ratio (x) = 0.22851 0.32136
# Poissons Ratio (y) = 0.23253 0.04594
# Poissons Ratio (z) = 0.92561 0.13004
#
# Static dielectric constant tensor:
#      x y z
#    x 1.903190 -0.036230 0.007390 
#    y -0.036230 1.879750 -0.002390 
#    z 0.007390 -0.002390 1.925540 
# 
# From -- ./inp_files/340022.got.cif
#   From: 2010.05.17/outbox.cif.g08.bks.cpg/sg2_171_cif.got.tgz:340022.got - 2010.06.03 11:33:40.
