data_PCOD9029120
_publ_section_title
;
Structure prediction by ZEFSAII (Michael W. Deem and Ramdas Pophale) SiO2 
 PCOD9029120
Probable space group: P -1
;
_chemical_formula_sum "Si O2"
_cell_formula_units_Z 14
_cell_length_a 11.768491
_cell_length_b 8.334517
_cell_length_c 8.191295
_cell_angle_alpha 65.125133
_cell_angle_beta 95.959310
_cell_angle_gamma 130.258604
_cell_volume 539.625596
_symmetry_space_group_name_H-M "P -1"
_symmetry_group_IT_number 2
_symmetry_cell_setting 'triclinic'
loop_
_space_group_symop_operation_xyz
x,y,z
-x,-y,-z
loop_
_atom_site_type_symbol
_atom_site_label
_atom_site_fract_x
_atom_site_fract_y
_atom_site_fract_z
Si Si1 0.153704 0.496872 0.893834
Si Si2 0.236854 0.530421 0.351238
Si Si3 0.140636 0.995393 0.795396
Si Si4 0.565483 0.269893 0.382979
Si Si5 0.668083 0.083337 0.010713
Si Si6 0.269743 0.200247 0.361603
Si Si7 0.996841 0.214032 0.695227
O O1 0.311353 0.577596 0.808664
O O2 0.233184 0.739327 0.897546
O O3 0.053736 0.415444 0.748092
O O4 0.019369 0.278155 0.083367
O O5 0.351561 0.615180 0.481144
O O6 0.274438 0.419288 0.270511
O O7 0.069169 0.334259 0.480657
O O8 0.255048 0.748849 0.205163
O O9 0.286667 0.072460 0.887440
O O10 0.192587 0.074721 0.581177
O O11 0.087557 0.130319 0.796848
O O12 0.430562 0.269895 0.349473
O O13 0.500000 0.000000 0.500000
O O14 0.500000 0.000000 0.000000
O O15 0.172097 0.022544 0.272943
#
# Coordination Sequence:
#
# PCOD9029120 Si02
#       7
#     2   2   2   2   2   2   2
#     4  11  24  41  64  96 131 165 211 270 325 370
#     4  10  22  42  66  93 127 175 218 255 321 398
#     4  11  23  44  69  96 129 169 217 268 317 384
#     4  11  24  42  63  98 137 168 212 271 323 376
#     4  12  25  42  65  97 132 171 215 266 322 383
#     4  11  22  44  71  93 125 176 222 258 315 397
#     4  10  23  43  68  95 127 170 219 266 320 384
#
# _framework density 25.943912999999998
#
# number of rings (size 3 to 8) (size 9 to 14) (size 15 to 20)
#    0.000    1.143    0.000    7.286    0.000    5.714 
#    0.000    8.571    0.000    0.000    0.000    0.000 
#    0.000    0.000    0.000    0.000    0.000    0.000 
#
# Total GULP energy -78186.148811 kJ/mol
# GULP energy per Si atom -5584.724915 kJ/mol
# Density = 2.588486 g / cm^3
# Si number density = 25.943913 Si / 1000 Ang^3
#
#
#
# Elastic Constant Matrix: (Units=GPa)
#
#
# Indices 1 2 3 4 5 6 
#
# 1 138.6424 32.6848 48.7462 2.5280 9.5542 32.5510
# 2 32.6848 116.3311 -4.3800 13.8266 0.7905 15.8568
# 3 48.7462 -4.3800 66.7658 -3.7795 -3.1986 5.7689
# 4 2.5280 13.8266 -3.7795 36.1453 6.1899 1.9252
# 5 9.5542 0.7905 -3.1986 6.1899 50.6955 1.0410
# 6 32.5510 15.8568 5.7689 1.9252 1.0410 30.2963
#
#
#
# Elastic Compliance Matrix: (Units=1/GPa)
#
#
# Indices 1 2 3 4 5 6 
#
# 1 0.014297 -0.002753 -0.009719 0.000196 -0.003043 -0.011978
# 2 -0.002753 0.010254 0.002773 -0.003467 0.001014 -0.002752
# 3 -0.009719 0.002773 0.022064 0.001177 0.002942 0.004614
# 4 0.000196 -0.003467 0.001177 0.029727 -0.003530 -0.000388
# 5 -0.003043 0.001014 0.002942 -0.003530 0.020865 0.001686
# 6 -0.011978 -0.002752 0.004614 -0.000388 0.001686 0.046405
#
#
# Mechanical properties :
#
#
# Convention : Reuss Voigt Hill
#
# Bulk Modulus (GPa) = 36.74077 52.87127 44.80602
# Shear Modulus (GPa) = 29.05567 39.73997 34.39782
#
# Velocity S-wave (km/s) = 3.35018 3.91802 3.64518
# Velocity P-wave (km/s) = 5.39975 6.39462 5.91813
#
# Compressibility (1/GPa) = 0.02721772
#
# Stress axis : x y z
#
# Youngs Moduli (GPa) = 69.94398 97.52023 45.32203
#
# Poissons Ratio (x) = 0.26846 0.44048
# Poissons Ratio (y) = 0.19255 -0.12566
# Poissons Ratio (z) = 0.67977 -0.27039
#
# Static dielectric constant tensor:
#      x y z
#    x 2.122760 -0.076730 0.011290 
#    y -0.076730 2.104860 -0.073710 
#    z 0.011290 -0.073710 2.117940 
# 
# From -- ./inp_files/158614.got.cif
#   From: 2010.05.17/outbox.cif.g08.bks.cpg/sg2_80_cif.got.tgz:158614.got - 2010.06.03 11:33:40.
