data_PCOD9029631
_publ_section_title
;
Structure prediction by ZEFSAII (Michael W. Deem and Ramdas Pophale) SiO2 
 PCOD9029631
Probable space group: P -1
;
_chemical_formula_sum "Si O2"
_cell_formula_units_Z 14
_cell_length_a 14.542649
_cell_length_b 9.338270
_cell_length_c 9.691100
_cell_angle_alpha 43.986728
_cell_angle_beta 146.416029
_cell_angle_gamma 125.038454
_cell_volume 504.496180
_symmetry_space_group_name_H-M "P -1"
_symmetry_group_IT_number 2
_symmetry_cell_setting 'triclinic'
loop_
_space_group_symop_operation_xyz
x,y,z
-x,-y,-z
loop_
_atom_site_type_symbol
_atom_site_label
_atom_site_fract_x
_atom_site_fract_y
_atom_site_fract_z
Si Si1 0.318479 0.036355 0.525501
Si Si2 0.821071 0.616374 0.428789
Si Si3 0.419035 0.358165 0.115905
Si Si4 0.345656 0.824957 0.221309
Si Si5 0.808572 0.572007 0.744441
Si Si6 0.151927 0.883727 0.183120
Si Si7 0.868780 0.365264 0.335404
O O1 0.298174 0.996251 0.364914
O O2 0.517003 0.058256 0.774986
O O3 0.220782 0.243819 0.312986
O O4 0.219501 0.845021 0.591925
O O5 0.746069 0.655968 0.457914
O O6 0.837376 0.363885 0.604814
O O7 0.708874 0.732701 0.090424
O O8 0.009787 0.679399 0.609391
O O9 0.552454 0.255459 0.457776
O O10 0.500000 0.500000 0.000000
O O11 0.292620 0.481444 0.975188
O O12 0.295661 0.623601 0.215938
O O13 0.172093 0.899813 0.032163
O O14 0.000000 0.500000 0.000000
O O15 0.000000 0.000000 0.000000
O O16 0.000000 0.500000 0.500000
#
# Coordination Sequence:
#
# PCOD9029631 Si02
#       7
#     2   2   2   2   2   2   2
#     4  12  23  42  69 106 142 181 237 291 357 414
#     4  10  22  45  68 100 142 188 236 284 353 413
#     4  11  19  41  73  98 139 179 229 297 353 403
#     4  11  25  43  72 107 141 181 236 300 358 408
#     4  11  25  45  69  99 146 191 232 286 356 434
#     4  11  22  39  68 102 134 180 237 288 340 421
#     4  10  22  42  68 100 139 187 236 289 347 412
#
# _framework density 27.750457000000001
#
# number of rings (size 3 to 8) (size 9 to 14) (size 15 to 20)
#    0.000    1.143    5.714    2.571    4.000    0.571 
#    0.000    3.571    0.000    0.000    0.000    0.000 
#    0.000    0.000    0.000    0.000    0.000    0.000 
#
# Total GULP energy -78056.357852 kJ/mol
# GULP energy per Si atom -5575.454132 kJ/mol
# Density = 2.768730 g / cm^3
# Si number density = 27.750457 Si / 1000 Ang^3
#
#
#
# Elastic Constant Matrix: (Units=GPa)
#
#
# Indices 1 2 3 4 5 6 
#
# 1 131.5764 73.4642 16.2931 -8.7599 21.1692 28.8071
# 2 73.4642 192.6455 27.5365 -15.2936 13.4986 16.7213
# 3 16.2931 27.5365 85.1981 -3.6928 15.3005 1.5708
# 4 -8.7599 -15.2936 -3.6928 35.7143 -5.4365 12.0835
# 5 21.1692 13.4986 15.3005 -5.4365 54.9787 5.5775
# 6 28.8071 16.7213 1.5708 12.0835 5.5775 66.6977
#
#
#
# Elastic Compliance Matrix: (Units=1/GPa)
#
#
# Indices 1 2 3 4 5 6 
#
# 1 0.011030 -0.003445 -0.000346 0.002160 -0.002679 -0.004059
# 2 -0.003445 0.006934 -0.001534 0.002236 0.000338 -0.000648
# 3 -0.000346 -0.001534 0.012848 -0.000059 -0.003123 0.000503
# 4 0.002160 0.002236 -0.000059 0.032447 0.002614 -0.007589
# 5 -0.002679 0.000338 -0.003123 0.002614 0.020370 -0.001031
# 6 -0.004059 -0.000648 0.000503 -0.007589 -0.001031 0.018358
#
#
# Mechanical properties :
#
#
# Convention : Reuss Voigt Hill
#
# Bulk Modulus (GPa) = 49.59935 71.55640 60.57788
# Shear Modulus (GPa) = 41.89052 50.95322 46.42187
#
# Velocity S-wave (km/s) = 3.88950 4.28965 4.09446
# Velocity P-wave (km/s) = 6.17115 7.09763 6.65055
#
# Compressibility (1/GPa) = 0.02016155
#
# Stress axis : x y z
#
# Youngs Moduli (GPa) = 90.65929 144.21563 77.83122
#
# Poissons Ratio (x) = 0.49686 0.02695
# Poissons Ratio (y) = 0.31235 0.11940
# Poissons Ratio (z) = 0.03139 0.22124
#
# Static dielectric constant tensor:
#      x y z
#    x 2.361200 0.098990 -0.073960 
#    y 0.098990 2.264710 -0.012070 
#    z -0.073960 -0.012070 2.384120 
# 
# From -- ./inp_files/444086.got.cif
#   From: 2010.05.17/outbox.cif.g08.bks.cpg/sg2_223_cif.got.tgz:444086.got - 2010.06.03 11:33:40.
