data_PCOD9029682
_publ_section_title
;
Structure prediction by ZEFSAII (Michael W. Deem and Ramdas Pophale) SiO2 
 PCOD9029682
Probable space group: P -1
;
_chemical_formula_sum "Si O2"
_cell_formula_units_Z 14
_cell_length_a 20.196884
_cell_length_b 13.333940
_cell_length_c 15.215953
_cell_angle_alpha 20.136639
_cell_angle_beta 29.818368
_cell_angle_gamma 28.431447
_cell_volume 649.240584
_symmetry_space_group_name_H-M "P -1"
_symmetry_group_IT_number 2
_symmetry_cell_setting 'triclinic'
loop_
_space_group_symop_operation_xyz
x,y,z
-x,-y,-z
loop_
_atom_site_type_symbol
_atom_site_label
_atom_site_fract_x
_atom_site_fract_y
_atom_site_fract_z
Si Si1 0.107377 0.703087 0.297838
Si Si2 0.540564 0.624393 0.262037
Si Si3 0.622233 0.634780 0.478301
Si Si4 0.957643 0.372272 0.246358
Si Si5 0.142283 0.617239 0.957578
Si Si6 0.924320 0.367535 0.800474
Si Si7 0.402796 0.672334 0.053574
O O1 0.138254 0.534723 0.304789
O O2 0.239585 0.768725 0.127893
O O3 0.054463 0.462098 0.607612
O O4 0.966108 0.021721 0.203776
O O5 0.500000 0.500000 0.500000
O O6 0.459734 0.521841 0.361584
O O7 0.711498 0.443602 0.209066
O O8 0.500000 0.000000 0.000000
O O9 0.789989 0.516677 0.350726
O O10 0.595456 0.533043 0.692138
O O11 0.567038 0.013012 0.221374
O O12 0.000000 0.000000 0.500000
O O13 0.000000 0.500000 0.000000
O O14 0.054827 0.445177 0.148474
O O15 0.188170 0.513082 0.090921
O O16 0.000000 0.000000 0.000000
O O17 0.500000 0.500000 0.000000
#
# Coordination Sequence:
#
# PCOD9029682 Si02
#       7
#     2   2   2   2   2   2   2
#     4  10  22  42  68 104 137 177 242 283 350 420
#     4  12  28  49  72 104 145 185 242 296 359 421
#     4  12  26  49  71 106 147 189 237 297 363 426
#     4  12  25  43  72 103 135 181 240 292 352 412
#     4  11  24  42  74  96 138 182 230 293 354 406
#     4   9  21  38  66 101 133 175 227 290 343 417
#     4  12  27  45  74 104 149 192 236 288 360 441
#
# _framework density 21.563656999999999
#
# number of rings (size 3 to 8) (size 9 to 14) (size 15 to 20)
#    0.000    0.857    1.429    4.714    8.000    3.429 
#    0.000    0.000    0.000    0.000    0.000    0.000 
#    0.000    0.000    0.000    0.000    0.000    0.000 
#
# Total GULP energy -78112.540513 kJ/mol
# GULP energy per Si atom -5579.467180 kJ/mol
# Density = 2.151458 g / cm^3
# Si number density = 21.563657 Si / 1000 Ang^3
#
#
#
# Elastic Constant Matrix: (Units=GPa)
#
#
# Indices 1 2 3 4 5 6 
#
# 1 96.3181 40.0335 45.9569 10.5498 -15.9556 18.9383
# 2 40.0335 122.4833 62.0732 4.9334 -4.9521 13.5821
# 3 45.9569 62.0732 156.5286 -3.5483 -8.5547 18.5469
# 4 10.5498 4.9334 -3.5483 27.0549 8.5454 -2.0556
# 5 -15.9556 -4.9521 -8.5547 8.5454 52.4420 9.8697
# 6 18.9383 13.5821 18.5469 -2.0556 9.8697 38.0370
#
#
#
# Elastic Compliance Matrix: (Units=1/GPa)
#
#
# Indices 1 2 3 4 5 6 
#
# 1 0.016658 -0.002435 -0.002711 -0.009442 0.007548 -0.008571
# 2 -0.002435 0.010942 -0.003518 -0.001655 0.000199 -0.001121
# 3 -0.002711 -0.003518 0.008838 0.002690 0.000147 -0.001596
# 4 -0.009442 -0.001655 0.002690 0.045762 -0.011840 0.009526
# 5 0.007548 0.000199 0.000147 -0.011840 0.025434 -0.011140
# 6 -0.008571 -0.001121 -0.001596 0.009526 -0.011140 0.035141
#
#
# Mechanical properties :
#
#
# Convention : Reuss Voigt Hill
#
# Bulk Modulus (GPa) = 52.32991 74.60636 63.46814
# Shear Modulus (GPa) = 30.03501 38.65789 34.34645
#
# Velocity S-wave (km/s) = 3.73614 4.23866 3.99531
# Velocity P-wave (km/s) = 6.55225 7.65691 7.12602
#
# Compressibility (1/GPa) = 0.01910953
#
# Stress axis : x y z
#
# Youngs Moduli (GPa) = 60.03281 91.38967 113.14884
#
# Poissons Ratio (x) = 0.22250 0.30677
# Poissons Ratio (y) = 0.14616 0.39809
# Poissons Ratio (z) = 0.16276 0.32154
#
# Static dielectric constant tensor:
#      x y z
#    x 1.855880 0.017610 -0.057430 
#    y 0.017610 1.780800 -0.038190 
#    z -0.057430 -0.038190 2.137620 
# 
# From -- ./inp_files/69242.got.cif
#   From: 2010.05.17/outbox.cif.g08.bks.cpg/sg2_35_cif.got.tgz:69242.got - 2010.06.03 11:33:40.
