data_PCOD9029945
_publ_section_title
;
Structure prediction by ZEFSAII (Michael W. Deem and Ramdas Pophale) SiO2 
 PCOD9029945
Probable space group: P -1
;
_chemical_formula_sum "Si O2"
_cell_formula_units_Z 16
_cell_length_a 9.417864
_cell_length_b 21.633373
_cell_length_c 8.025153
_cell_angle_alpha 124.157989
_cell_angle_beta 46.956975
_cell_angle_gamma 146.687977
_cell_volume 656.107279
_symmetry_space_group_name_H-M "P -1"
_symmetry_group_IT_number 2
_symmetry_cell_setting 'triclinic'
loop_
_space_group_symop_operation_xyz
x,y,z
-x,-y,-z
loop_
_atom_site_type_symbol
_atom_site_label
_atom_site_fract_x
_atom_site_fract_y
_atom_site_fract_z
Si Si1 0.439651 0.608747 0.920361
Si Si2 0.637535 0.310661 0.409269
Si Si3 0.155267 0.498757 0.640583
Si Si4 0.220467 0.136376 0.968718
Si Si5 0.059005 0.096450 0.685424
Si Si6 0.345751 0.874294 0.461498
Si Si7 0.988502 0.688016 0.716222
Si Si8 0.078893 0.161610 0.435729
O O1 0.376970 0.558222 0.708674
O O2 0.661912 0.626169 0.883933
O O3 0.597945 0.734190 0.972252
O O4 0.117596 0.528120 0.129033
O O5 0.722104 0.421658 0.498987
O O6 0.404458 0.218795 0.597207
O O7 0.419841 0.245474 0.328864
O O8 0.888694 0.321108 0.236310
O O9 0.032454 0.383958 0.512633
O O10 0.997662 0.078080 0.901316
O O11 0.452743 0.136513 0.769345
O O12 0.040067 0.087778 0.212574
O O13 0.934871 0.112877 0.661956
O O14 0.000000 0.000000 0.500000
O O15 0.218625 0.816279 0.658823
O O16 0.049150 0.799679 0.478208
O O17 0.500000 0.000000 0.500000
#
# Coordination Sequence:
#
# PCOD9029945 Si02
#       8
#     2   2   2   2   2   2   2   2
#     4  11  23  41  70 101 132 181 240 277 351 422
#     4  10  22  43  65  98 144 171 232 286 334 416
#     4  11  22  43  67  97 139 183 226 290 351 405
#     4  12  22  47  72  99 139 188 221 296 349 404
#     4  10  22  42  69 100 138 181 225 283 345 408
#     4  12  24  41  70 104 135 181 235 283 347 418
#     4  12  23  42  68  99 142 182 226 292 346 405
#     4  10  24  45  66 104 138 174 239 277 344 417
#
# _framework density 24.386254999999998
#
# number of rings (size 3 to 8) (size 9 to 14) (size 15 to 20)
#    0.750    0.250    5.000    1.500    0.000    2.500 
#    2.250    0.000    0.000    4.500    0.000    0.000 
#    0.000    0.000    0.000    0.000    0.000    0.000 
#
# Total GULP energy -89096.401951 kJ/mol
# GULP energy per Si atom -5568.525122 kJ/mol
# Density = 2.433075 g / cm^3
# Si number density = 24.386255 Si / 1000 Ang^3
#
#
#
# Elastic Constant Matrix: (Units=GPa)
#
#
# Indices 1 2 3 4 5 6 
#
# 1 163.3297 10.5896 50.8833 6.6483 -10.4856 7.1429
# 2 10.5896 91.8449 7.1353 8.4801 5.5733 -4.1021
# 3 50.8833 7.1353 65.9535 15.8093 -9.2673 13.2604
# 4 6.6483 8.4801 15.8093 20.5474 8.8956 -2.5467
# 5 -10.4856 5.5733 -9.2673 8.8956 50.7414 1.5684
# 6 7.1429 -4.1021 13.2604 -2.5467 1.5684 38.6442
#
#
#
# Elastic Compliance Matrix: (Units=1/GPa)
#
#
# Indices 1 2 3 4 5 6 
#
# 1 0.008269 -0.000636 -0.007441 0.003567 -0.000243 0.001202
# 2 -0.000636 0.011433 -0.000142 -0.003932 -0.000759 0.001152
# 3 -0.007441 -0.000142 0.030877 -0.026657 0.009142 -0.011363
# 4 0.003567 -0.003932 -0.026657 0.079183 -0.018015 0.014020
# 5 -0.000243 -0.000759 0.009142 -0.018015 0.024735 -0.005364
# 6 0.001202 0.001152 -0.011363 0.014020 -0.005364 0.030818
#
#
# Mechanical properties :
#
#
# Convention : Reuss Voigt Hill
#
# Bulk Modulus (GPa) = 29.29092 50.92716 40.10904
# Shear Modulus (GPa) = 23.45949 38.82125 31.14037
#
# Velocity S-wave (km/s) = 3.10497 3.99423 3.57734
# Velocity P-wave (km/s) = 4.98917 6.49621 5.79191
#
# Compressibility (1/GPa) = 0.03414027
#
# Stress axis : x y z
#
# Youngs Moduli (GPa) = 120.93748 87.46731 32.38618
#
# Poissons Ratio (x) = 0.05564 0.24100
# Poissons Ratio (y) = 0.07693 0.00459
# Poissons Ratio (z) = 0.89994 0.01240
#
# Static dielectric constant tensor:
#      x y z
#    x 1.992320 -0.024800 0.050680 
#    y -0.024800 2.105560 -0.099630 
#    z 0.050680 -0.099630 2.007620 
# 
# From -- ./inp_files/222294.got.cif
#   From: 2010.05.17/outbox.cif.g08.bks.cpg/sg2_112_cif.got.tgz:222294.got - 2010.06.03 11:33:40.
