data_PCOD9029146
_publ_section_title
;
Structure prediction by ZEFSAII (Michael W. Deem and Ramdas Pophale) SiO2 
 PCOD9029146
Probable space group: P -1
;
_chemical_formula_sum "Si O2"
_cell_formula_units_Z 15
_cell_length_a 17.688016
_cell_length_b 6.162070
_cell_length_c 18.192662
_cell_angle_alpha 108.927792
_cell_angle_beta 158.703610
_cell_angle_gamma 71.416902
_cell_volume 680.453416
_symmetry_space_group_name_H-M "P -1"
_symmetry_group_IT_number 2
_symmetry_cell_setting 'triclinic'
loop_
_space_group_symop_operation_xyz
x,y,z
-x,-y,-z
loop_
_atom_site_type_symbol
_atom_site_label
_atom_site_fract_x
_atom_site_fract_y
_atom_site_fract_z
Si Si1 0.445026 0.440459 0.704302
Si Si2 0.076933 0.739296 0.626969
Si Si3 0.170443 0.318062 0.989764
Si Si4 0.500000 0.000000 0.500000
Si Si5 0.156629 0.020281 0.076249
Si Si6 0.156752 0.306524 0.304016
Si Si7 0.673639 0.134468 0.002950
Si Si8 0.296264 0.899587 0.701428
O O1 0.272440 0.317246 0.487261
O O2 0.332581 0.665017 0.663340
O O3 0.631902 0.530813 0.832747
O O4 0.552044 0.280370 0.846090
O O5 0.175766 0.718328 0.794959
O O6 0.239899 0.829748 0.725084
O O7 0.000000 0.500000 0.500000
O O8 0.890921 0.933979 0.480377
O O9 0.950924 0.447059 0.786312
O O10 0.210938 0.089823 0.952856
O O11 0.167076 0.253654 0.065665
O O12 0.379648 0.962783 0.307445
O O13 0.325022 0.206419 0.386460
O O14 0.000000 0.000000 0.000000
O O15 0.040501 0.854759 0.896046
O O16 0.502803 0.036800 0.892386
#
# Coordination Sequence:
#
# PCOD9029146 Si02
#       8
#     2   2   2   1   2   2   2   2
#     4  11  25  43  67  96 130 172 220 271 323 383
#     4  11  24  42  66  97 134 172 218 271 323 383
#     4  11  24  42  67  95 128 172 218 267 325 389
#     4  10  22  42  66  94 128 164 208 262 324 386
#     4  10  24  44  66  94 129 167 211 265 323 388
#     4  11  23  43  66  94 129 167 213 266 324 386
#     4  11  24  43  65  94 132 173 220 270 324 386
#     4  10  24  42  65  96 130 176 219 265 326 388
#
# _framework density 22.044122000000002
#
# number of rings (size 3 to 8) (size 9 to 14) (size 15 to 20)
#    0.000    1.333    0.000    4.400    0.000   17.067 
#    0.000    6.000    0.000    0.000    0.000    0.000 
#    0.000    0.000    0.000    0.000    0.000    0.000 
#
# Total GULP energy -83533.428498 kJ/mol
# GULP energy per Si atom -5568.895233 kJ/mol
# Density = 2.199395 g / cm^3
# Si number density = 22.044122 Si / 1000 Ang^3
#
#
#
# Elastic Constant Matrix: (Units=GPa)
#
#
# Indices 1 2 3 4 5 6 
#
# 1 97.0510 52.9612 70.9783 -17.1347 5.6841 6.7195
# 2 52.9612 125.4656 78.0408 -20.4080 -7.3241 -12.3409
# 3 70.9783 78.0408 157.2192 -11.9522 -48.3884 -6.3177
# 4 -17.1347 -20.4080 -11.9522 43.0873 -11.1619 3.3939
# 5 5.6841 -7.3241 -48.3884 -11.1619 46.4300 -5.8467
# 6 6.7195 -12.3409 -6.3177 3.3939 -5.8467 37.1594
#
#
#
# Elastic Compliance Matrix: (Units=1/GPa)
#
#
# Indices 1 2 3 4 5 6 
#
# 1 0.030493 -0.002345 -0.022515 -0.001808 -0.029847 -0.014652
# 2 -0.002345 0.013362 -0.006174 0.002660 -0.003010 0.003095
# 3 -0.022515 -0.006174 0.032534 0.006172 0.038821 0.013097
# 4 -0.001808 0.002660 0.006172 0.029015 0.014282 0.001857
# 5 -0.029847 -0.003010 0.038821 0.014282 0.071241 0.020903
# 6 -0.014652 0.003095 0.013097 0.001857 0.020903 0.035934
#
#
# Mechanical properties :
#
#
# Convention : Reuss Voigt Hill
#
# Bulk Modulus (GPa) = 69.82671 87.07737 78.45204
# Shear Modulus (GPa) = 17.89418 37.18572 27.53995
#
# Velocity S-wave (km/s) = 2.85220 4.11162 3.53839
# Velocity P-wave (km/s) = 6.52621 7.88211 7.23599
#
# Compressibility (1/GPa) = 0.01432117
#
# Stress axis : x y z
#
# Youngs Moduli (GPa) = 32.79419 74.84131 30.73742
#
# Poissons Ratio (x) = 0.17547 0.69206
# Poissons Ratio (y) = 0.07689 0.18977
# Poissons Ratio (z) = 0.73837 0.46206
#
# Static dielectric constant tensor:
#      x y z
#    x 1.851420 -0.019870 0.007450 
#    y -0.019870 1.820680 0.032470 
#    z 0.007450 0.032470 1.803240 
# 
# From -- ./inp_files/552592.got.cif
#   From: 2010.05.17/outbox.cif.g08.bks.cpg/sg2_277_cif.got.tgz:552592.got - 2010.06.03 11:33:40.
