data_PCOD9029519
_publ_section_title
;
Structure prediction by ZEFSAII (Michael W. Deem and Ramdas Pophale) SiO2 
 PCOD9029519
Probable space group: P -1
;
_chemical_formula_sum "Si O2"
_cell_formula_units_Z 16
_cell_length_a 12.544949
_cell_length_b 23.110021
_cell_length_c 20.379682
_cell_angle_alpha 16.482656
_cell_angle_beta 27.404579
_cell_angle_gamma 35.196366
_cell_volume 744.782021
_symmetry_space_group_name_H-M "P -1"
_symmetry_group_IT_number 2
_symmetry_cell_setting 'triclinic'
loop_
_space_group_symop_operation_xyz
x,y,z
-x,-y,-z
loop_
_atom_site_type_symbol
_atom_site_label
_atom_site_fract_x
_atom_site_fract_y
_atom_site_fract_z
Si Si1 0.508021 0.707998 0.727458
Si Si2 0.094227 0.954409 0.702168
Si Si3 0.900547 0.843290 0.786625
Si Si4 0.428017 0.915211 0.934161
Si Si5 0.856345 0.263335 0.849486
Si Si6 0.443725 0.379845 0.014066
Si Si7 0.037705 0.005602 0.128622
Si Si8 0.224033 0.622235 0.787047
O O1 0.293850 0.818165 0.738496
O O2 0.765876 0.864060 0.427505
O O3 0.500000 0.500000 0.000000
O O4 0.504116 0.608512 0.765767
O O5 0.947351 0.930946 0.739723
O O6 0.239408 0.202052 0.354055
O O7 0.941766 0.902471 0.908943
O O8 0.071517 0.685085 0.862135
O O9 0.618317 0.780092 0.993996
O O10 0.000000 0.000000 0.500000
O O11 0.592395 0.160255 0.574139
O O12 0.285119 0.849427 0.014950
O O13 0.238094 0.889693 0.124816
O O14 0.000000 0.500000 0.500000
O O15 0.662331 0.279353 0.993340
O O16 0.041789 0.156972 0.899242
O O17 0.357641 0.441364 0.924426
O O18 0.000000 0.500000 0.000000
#
# Coordination Sequence:
#
# PCOD9029519 Si02
#       8
#     2   2   2   2   2   2   2   2
#     4  12  23  42  66 100 140 182 234 286 354 418
#     4  12  24  44  67 104 138 183 241 288 345 422
#     4  10  22  42  67  96 136 178 232 297 333 412
#     4  11  24  44  66 101 144 181 237 295 352 417
#     4  12  24  42  67 102 143 185 231 290 358 420
#     4  12  21  38  68  95 134 176 229 285 345 409
#     4  12  25  42  67  99 147 185 229 296 351 421
#     4  11  21  40  69  98 129 181 234 287 350 409
#
# _framework density 21.482797999999999
#
# number of rings (size 3 to 8) (size 9 to 14) (size 15 to 20)
#    0.000    0.500    3.750    7.500    0.000    0.500 
#    0.000    0.000    0.000    3.000    0.000    0.000 
#    0.000    0.000    0.000    0.000    0.000    0.000 
#
# Total GULP energy -89193.781626 kJ/mol
# GULP energy per Si atom -5574.611352 kJ/mol
# Density = 2.143390 g / cm^3
# Si number density = 21.482798 Si / 1000 Ang^3
#
#
#
# Elastic Constant Matrix: (Units=GPa)
#
#
# Indices 1 2 3 4 5 6 
#
# 1 114.2719 34.4175 27.0643 7.4592 -8.2467 17.4409
# 2 34.4175 104.0620 -7.6706 19.5601 -1.7091 7.8447
# 3 27.0643 -7.6706 65.3336 -9.4037 1.5905 5.5894
# 4 7.4592 19.5601 -9.4037 33.7497 -0.9097 1.9727
# 5 -8.2467 -1.7091 1.5905 -0.9097 21.7447 -8.1364
# 6 17.4409 7.8447 5.5894 1.9727 -8.1364 44.2494
#
#
#
# Elastic Compliance Matrix: (Units=1/GPa)
#
#
# Indices 1 2 3 4 5 6 
#
# 1 0.011968 -0.003782 -0.005517 -0.001741 0.003595 -0.002611
# 2 -0.003782 0.012119 0.002304 -0.005525 -0.001229 -0.000928
# 3 -0.005517 0.002304 0.018816 0.005117 -0.003637 -0.001508
# 4 -0.001741 -0.005525 0.005117 0.034669 -0.000231 -0.000569
# 5 0.003595 -0.001229 -0.003637 -0.000231 0.050729 0.008598
# 6 -0.002611 -0.000928 -0.001508 -0.000569 0.008598 0.025590
#
#
# Mechanical properties :
#
#
# Convention : Reuss Voigt Hill
#
# Bulk Modulus (GPa) = 34.58663 43.47663 39.03163
# Shear Modulus (GPa) = 28.16615 35.27251 31.71933
#
# Velocity S-wave (km/s) = 3.62484 4.05643 3.84669
# Velocity P-wave (km/s) = 5.80120 6.49779 6.15935
#
# Compressibility (1/GPa) = 0.02891291
#
# Stress axis : x y z
#
# Youngs Moduli (GPa) = 83.55374 82.51820 53.14690
#
# Poissons Ratio (x) = 0.31208 0.29319
# Poissons Ratio (y) = 0.31599 -0.12243
# Poissons Ratio (z) = 0.46093 -0.19009
#
# Static dielectric constant tensor:
#      x y z
#    x 2.364730 0.242760 -0.270680 
#    y 0.242760 1.931410 -0.105030 
#    z -0.270680 -0.105030 2.105600 
# 
# From -- ./inp_files/569214.got.cif
#   From: 2010.05.17/outbox.cif.g08.bks.cpg/sg2_285_cif.got.tgz:569214.got - 2010.06.03 11:33:40.
