data_PCOD9029985
_publ_section_title
;
Structure prediction by ZEFSAII (Michael W. Deem and Ramdas Pophale) SiO2 
 PCOD9029985
Probable space group: P -1
;
_chemical_formula_sum "Si O2"
_cell_formula_units_Z 13
_cell_length_a 8.989193
_cell_length_b 7.590615
_cell_length_c 13.051662
_cell_angle_alpha 36.371249
_cell_angle_beta 103.367793
_cell_angle_gamma 93.564154
_cell_volume 501.800656
_symmetry_space_group_name_H-M "P -1"
_symmetry_group_IT_number 2
_symmetry_cell_setting 'triclinic'
loop_
_space_group_symop_operation_xyz
x,y,z
-x,-y,-z
loop_
_atom_site_type_symbol
_atom_site_label
_atom_site_fract_x
_atom_site_fract_y
_atom_site_fract_z
Si Si1 0.079198 0.348699 0.392092
Si Si2 0.828784 0.782864 0.244892
Si Si3 0.654259 0.739686 0.835623
Si Si4 0.359301 0.691856 0.319721
Si Si5 0.073078 0.612807 0.060780
Si Si6 0.294584 0.847270 0.742536
Si Si7 0.500000 0.000000 0.000000
O O1 0.227292 0.508582 0.358139
O O2 0.006909 0.492247 0.207260
O O3 0.946553 0.459876 0.404290
O O4 0.162377 0.992926 0.572470
O O5 0.759228 0.926322 0.275060
O O6 0.675849 0.801112 0.143810
O O7 0.923298 0.035224 0.103133
O O8 0.745367 0.567429 0.835398
O O9 0.470113 0.845505 0.735580
O O10 0.715948 0.024525 0.752209
O O11 0.682842 0.487397 0.048758
O O12 0.500000 0.500000 0.500000
O O13 0.430206 0.830074 0.167576
O O14 0.000000 0.500000 0.000000
#
# Coordination Sequence:
#
# PCOD9029985 Si02
#       7
#     2   2   2   2   2   2   1
#     4  12  24  43  74 105 140 190 252 292 361 442
#     4  11  23  43  72 102 143 188 243 303 360 436
#     4  10  22  43  66  94 154 179 230 302 363 426
#     4  12  24  45  73 111 140 189 248 302 361 440
#     4  11  25  42  66 101 142 194 236 297 367 428
#     4  10  22  42  69 103 140 189 229 305 368 422
#     4  12  24  42  74 108 140 186 246 296 380 404
#
# _framework density 25.906700000000001
#
# number of rings (size 3 to 8) (size 9 to 14) (size 15 to 20)
#    0.000    0.923    4.615    1.846    2.154    0.615 
#    2.769    3.077    0.000    0.000    0.000    0.000 
#    0.000    0.000    0.000    0.000    0.000    0.000 
#
# Total GULP energy -72526.962632 kJ/mol
# GULP energy per Si atom -5578.997126 kJ/mol
# Density = 2.584774 g / cm^3
# Si number density = 25.906700 Si / 1000 Ang^3
#
#
#
# Elastic Constant Matrix: (Units=GPa)
#
#
# Indices 1 2 3 4 5 6 
#
# 1 116.9791 7.7589 26.0716 -2.8802 33.4322 -7.0558
# 2 7.7589 59.1301 21.9087 -6.1676 8.8675 -4.6882
# 3 26.0716 21.9087 86.7468 -6.4417 23.7744 -10.7037
# 4 -2.8802 -6.1676 -6.4417 47.1858 -2.6988 -1.8802
# 5 33.4322 8.8675 23.7744 -2.6988 57.4477 0.5474
# 6 -7.0558 -4.6882 -10.7037 -1.8802 0.5474 28.7059
#
#
#
# Elastic Compliance Matrix: (Units=1/GPa)
#
#
# Indices 1 2 3 4 5 6 
#
# 1 0.010597 0.000172 -0.001392 0.000247 -0.005627 0.002237
# 2 0.000172 0.018947 -0.004140 0.001921 -0.001238 0.001742
# 3 -0.001392 -0.004140 0.014972 0.001336 -0.004730 0.004742
# 4 0.000247 0.001921 0.001336 0.021733 0.000006 0.002296
# 5 -0.005627 -0.001238 -0.004730 0.000006 0.022867 -0.003785
# 6 0.002237 0.001742 0.004742 0.002296 -0.003785 0.037661
#
#
# Mechanical properties :
#
#
# Convention : Reuss Voigt Hill
#
# Bulk Modulus (GPa) = 29.58854 41.59268 35.59061
# Shear Modulus (GPa) = 33.61062 40.47566 37.04314
#
# Velocity S-wave (km/s) = 3.60581 3.95696 3.78546
# Velocity P-wave (km/s) = 5.36487 6.08000 5.73359
#
# Compressibility (1/GPa) = 0.03379686
#
# Stress axis : x y z
#
# Youngs Moduli (GPa) = 94.37075 52.77767 66.78976
#
# Poissons Ratio (x) = -0.00909 0.09295
# Poissons Ratio (y) = -0.01625 0.27652
# Poissons Ratio (z) = 0.13133 0.21851
#
# Static dielectric constant tensor:
#      x y z
#    x 2.048690 0.059970 -0.009780 
#    y 0.059970 2.067460 0.036780 
#    z -0.009780 0.036780 2.046110 
# 
# From -- ./inp_files/186285.got.cif
#   From: 2010.05.17/outbox.cif.g08.bks.cpg/sg2_94_cif.got.tgz:186285.got - 2010.06.03 11:33:40.
