data_PCOD9029196
_publ_section_title
;
Structure prediction by ZEFSAII (Michael W. Deem and Ramdas Pophale) SiO2 
 PCOD9029196
Probable space group: P -1
;
_chemical_formula_sum "Si O2"
_cell_formula_units_Z 16
_cell_length_a 5.688566
_cell_length_b 14.094851
_cell_length_c 11.120242
_cell_angle_alpha 58.020141
_cell_angle_beta 85.607229
_cell_angle_gamma 116.866050
_cell_volume 613.047773
_symmetry_space_group_name_H-M "P -1"
_symmetry_group_IT_number 2
_symmetry_cell_setting 'triclinic'
loop_
_space_group_symop_operation_xyz
x,y,z
-x,-y,-z
loop_
_atom_site_type_symbol
_atom_site_label
_atom_site_fract_x
_atom_site_fract_y
_atom_site_fract_z
Si Si1 0.336933 0.073886 0.920462
Si Si2 0.933655 0.672886 0.564593
Si Si3 0.651654 0.662407 0.897835
Si Si4 0.698150 0.210818 0.188561
Si Si5 0.540359 0.365254 0.671322
Si Si6 0.627996 0.374159 0.373619
Si Si7 0.097249 0.323354 0.884930
Si Si8 0.623853 0.046194 0.747951
O O1 0.551109 0.241257 0.802941
O O2 0.357196 0.053245 0.788551
O O3 0.369365 0.005388 0.084478
O O4 0.000000 0.000000 0.000000
O O5 0.764631 0.519247 0.614178
O O6 0.680485 0.674591 0.635684
O O7 0.209095 0.696117 0.606676
O O8 0.090155 0.803746 0.384404
O O9 0.446164 0.708631 0.835298
O O10 0.687087 0.683511 0.027902
O O11 0.994702 0.741426 0.797211
O O12 0.500000 0.500000 0.000000
O O13 0.799861 0.231888 0.029273
O O14 0.445547 0.048722 0.300419
O O15 0.586665 0.374819 0.519750
O O16 0.217736 0.316164 0.757490
O O17 0.838508 0.528110 0.215274
#
# Coordination Sequence:
#
# PCOD9029196 Si02
#       8
#     2   2   2   2   2   2   2   2
#     4  11  23  36  56  79 125 172 219 249 297 346
#     4  11  24  38  54  81 118 171 210 250 284 340
#     4  10  22  42  66  96 122 147 196 262 329 379
#     4  10  23  38  64  92 126 153 197 256 320 368
#     4  11  21  39  57  84 127 169 216 250 284 346
#     4  11  23  36  57  80 124 161 211 245 289 338
#     4   9  22  34  62  89 122 153 199 251 310 344
#     4  11  24  36  55  85 123 168 209 250 302 359
#
# _framework density 26.099105999999999
#
# number of rings (size 3 to 8) (size 9 to 14) (size 15 to 20)
#    0.750    0.750    1.250    4.500    7.000    2.000 
#    0.000    0.000    0.000    0.000    0.000   12.250 
#    0.000    0.000    0.000    0.000    0.000    0.000 
#
# Total GULP energy -89112.820248 kJ/mol
# GULP energy per Si atom -5569.551266 kJ/mol
# Density = 2.603970 g / cm^3
# Si number density = 26.099106 Si / 1000 Ang^3
#
#
#
# Elastic Constant Matrix: (Units=GPa)
#
#
# Indices 1 2 3 4 5 6 
#
# 1 88.7975 25.7581 -4.1135 7.2893 -0.5659 -6.7447
# 2 25.7581 65.5654 18.1230 -7.8649 -4.9833 -9.1976
# 3 -4.1135 18.1230 105.3623 -25.0198 0.1022 7.3310
# 4 7.2893 -7.8649 -25.0198 29.5845 2.8306 4.9750
# 5 -0.5659 -4.9833 0.1022 2.8306 41.4256 13.8136
# 6 -6.7447 -9.1976 7.3310 4.9750 13.8136 43.6391
#
#
#
# Elastic Compliance Matrix: (Units=1/GPa)
#
#
# Indices 1 2 3 4 5 6 
#
# 1 0.013461 -0.005770 0.000260 -0.004830 -0.000713 0.001597
# 2 -0.005770 0.019230 -0.002911 0.003481 0.001027 0.002928
# 3 0.000260 -0.002911 0.012809 0.010647 0.000232 -0.004012
# 4 -0.004830 0.003481 0.010647 0.046131 -0.000527 -0.006894
# 5 -0.000713 0.001027 0.000232 -0.000527 0.027108 -0.008453
# 6 0.001597 0.002928 -0.004012 -0.006894 -0.008453 0.027915
#
#
# Mechanical properties :
#
#
# Convention : Reuss Voigt Hill
#
# Bulk Modulus (GPa) = 34.89296 37.69560 36.29428
# Shear Modulus (GPa) = 28.89382 37.59368 33.24375
#
# Velocity S-wave (km/s) = 3.33089 3.79940 3.57284
# Velocity P-wave (km/s) = 5.30957 5.80706 5.56388
#
# Compressibility (1/GPa) = 0.02865907
#
# Stress axis : x y z
#
# Youngs Moduli (GPa) = 74.29078 52.00283 78.06857
#
# Poissons Ratio (x) = 0.30004 -0.02033
# Poissons Ratio (y) = 0.42864 0.22725
# Poissons Ratio (z) = -0.01935 0.15138
#
# Static dielectric constant tensor:
#      x y z
#    x 2.005110 0.047780 0.014680 
#    y 0.047780 2.137540 0.000190 
#    z 0.014680 0.000190 2.016940 
# 
# From -- ./inp_files/550072.got.cif
#   From: 2010.05.17/outbox.cif.g08.bks.cpg/sg2_276_cif.got.tgz:550072.got - 2010.06.03 11:33:40.
