data_PCOD9029211
_publ_section_title
;
Structure prediction by ZEFSAII (Michael W. Deem and Ramdas Pophale) SiO2 
 PCOD9029211
Probable space group: P -1
;
_chemical_formula_sum "Si O2"
_cell_formula_units_Z 16
_cell_length_a 7.244059
_cell_length_b 16.833816
_cell_length_c 7.623565
_cell_angle_alpha 76.112586
_cell_angle_beta 121.096760
_cell_angle_gamma 70.329449
_cell_volume 643.329020
_symmetry_space_group_name_H-M "P -1"
_symmetry_group_IT_number 2
_symmetry_cell_setting 'triclinic'
loop_
_space_group_symop_operation_xyz
x,y,z
-x,-y,-z
loop_
_atom_site_type_symbol
_atom_site_label
_atom_site_fract_x
_atom_site_fract_y
_atom_site_fract_z
Si Si1 0.001486 0.918714 0.425120
Si Si2 0.333603 0.907021 0.062314
Si Si3 0.309096 0.613412 0.221801
Si Si4 0.170275 0.386486 0.082242
Si Si5 0.994269 0.825463 0.979471
Si Si6 0.407578 0.585656 0.684025
Si Si7 0.546682 0.830304 0.576402
Si Si8 0.099521 0.224092 0.655087
O O1 0.298537 0.852493 0.549078
O O2 0.929246 0.840214 0.474424
O O3 0.000000 0.000000 0.500000
O O4 0.779993 0.989145 0.137577
O O5 0.423791 0.896530 0.310807
O O6 0.598879 0.818625 0.151129
O O7 0.096566 0.893548 0.957613
O O8 0.447829 0.595013 0.487477
O O9 0.469731 0.530506 0.197756
O O10 0.042113 0.619116 0.130611
O O11 0.210139 0.721276 0.054276
O O12 0.425546 0.381511 0.149802
O O13 0.281615 0.288326 0.309895
O O14 0.000000 0.500000 0.000000
O O15 0.718270 0.858456 0.751599
O O16 0.994921 0.799576 0.198337
O O17 0.106951 0.660804 0.540353
#
# Coordination Sequence:
#
# PCOD9029211 Si02
#       8
#     2   2   2   2   2   2   2   2
#     4  12  26  45  68  95 129 176 227 272 328 385
#     4  12  26  43  66  95 134 174 218 275 324 381
#     4   8  16  29  58  93 121 161 206 254 313 386
#     4   9  16  31  61  94 124 162 206 257 317 382
#     4  10  22  42  66  96 134 166 217 265 328 394
#     4   9  15  32  58  88 124 161 207 257 314 377
#     4  11  22  42  68  97 132 169 220 270 328 387
#     4  11  23  44  65  93 133 173 217 272 328 391
#
# _framework density 24.870635
#
# number of rings (size 3 to 8) (size 9 to 14) (size 15 to 20)
#    0.000    1.750    2.500    2.250    1.750    0.500 
#    0.000    0.625    0.000    8.250    0.000    0.000 
#    0.000    0.000    0.000    0.000    0.000    0.000 
#
# Total GULP energy -89259.125366 kJ/mol
# GULP energy per Si atom -5578.695335 kJ/mol
# Density = 2.481403 g / cm^3
# Si number density = 24.870635 Si / 1000 Ang^3
#
#
#
# Elastic Constant Matrix: (Units=GPa)
#
#
# Indices 1 2 3 4 5 6 
#
# 1 72.8201 12.9609 14.0661 1.2898 34.3516 -7.0541
# 2 12.9609 97.4843 36.2995 -4.2903 18.0427 -11.4241
# 3 14.0661 36.2995 103.9495 -9.1104 27.4422 1.9138
# 4 1.2898 -4.2903 -9.1104 34.5272 -5.9593 23.8386
# 5 34.3516 18.0427 27.4422 -5.9593 36.6068 1.5512
# 6 -7.0541 -11.4241 1.9138 23.8386 1.5512 9.9330
#
#
#
# Elastic Compliance Matrix: (Units=1/GPa)
#
#
# Indices 1 2 3 4 5 6 
#
# 1 0.017952 -0.003531 0.004512 0.014528 -0.015077 -0.024694
# 2 -0.003531 0.010469 -0.002776 0.008618 0.002101 -0.010943
# 3 0.004512 -0.002776 0.013266 -0.001583 -0.013209 0.003316
# 4 0.014528 0.008618 -0.001583 -0.013583 -0.021298 0.056457
# 5 -0.015077 0.002101 -0.013209 -0.021298 0.045242 0.038303
# 6 -0.024694 -0.010943 0.003316 0.056457 0.038303 -0.071562
#
#
# Mechanical properties :
#
#
# Convention : Reuss Voigt Hill
#
# Bulk Modulus (GPa) = 26.24820 44.54519 35.39669
# Shear Modulus (GPa) = 276.63694 30.27524 153.45609
#
# Velocity S-wave (km/s) = 10.55802 3.49278 7.86357
# Velocity P-wave (km/s) = 12.61768 5.84942 9.83416
#
# Compressibility (1/GPa) = 0.03809785
#
# Stress axis : x y z
#
# Youngs Moduli (GPa) = 55.70354 95.51771 75.37937
#
# Poissons Ratio (x) = 0.33726 -0.34011
# Poissons Ratio (y) = 0.19668 0.20925
# Poissons Ratio (z) = -0.25133 0.26515
#
# Static dielectric constant tensor:
#      x y z
#    x 1.965680 -0.065860 -0.030930 
#    y -0.065860 2.095370 0.057290 
#    z -0.030930 0.057290 2.022390 
# 
# From -- ./inp_files/217552.got.cif
#   From: 2010.05.17/outbox.cif.g08.bks.cpg/sg2_109_cif.got.tgz:217552.got - 2010.06.03 11:33:40.
