data_PCOD9029738
_publ_section_title
;
Structure prediction by ZEFSAII (Michael W. Deem and Ramdas Pophale) SiO2 
 PCOD9029738
Probable space group: P -1
;
_chemical_formula_sum "Si O2"
_cell_formula_units_Z 15
_cell_length_a 8.508532
_cell_length_b 5.957894
_cell_length_c 16.873868
_cell_angle_alpha 127.330395
_cell_angle_beta 66.096585
_cell_angle_gamma 114.766643
_cell_volume 603.915375
_symmetry_space_group_name_H-M "P -1"
_symmetry_group_IT_number 2
_symmetry_cell_setting 'triclinic'
loop_
_space_group_symop_operation_xyz
x,y,z
-x,-y,-z
loop_
_atom_site_type_symbol
_atom_site_label
_atom_site_fract_x
_atom_site_fract_y
_atom_site_fract_z
Si Si1 0.885224 0.507888 0.103364
Si Si2 0.666548 0.448577 0.384047
Si Si3 0.969197 0.517179 0.768539
Si Si4 0.654473 0.019310 0.703650
Si Si5 0.500000 0.000000 0.500000
Si Si6 0.582717 0.611791 0.105852
Si Si7 0.271681 0.152919 0.033464
Si Si8 0.797629 0.501188 0.548462
O O1 0.730054 0.671511 0.156041
O O2 0.997995 0.613853 0.180426
O O3 0.000000 0.500000 0.000000
O O4 0.782375 0.168713 0.058292
O O5 0.508250 0.152613 0.355536
O O6 0.585988 0.700968 0.416665
O O7 0.730258 0.518676 0.475448
O O8 0.840039 0.408611 0.294581
O O9 0.885834 0.785374 0.867245
O O10 0.818444 0.284563 0.702543
O O11 0.749433 0.771334 0.660384
O O12 0.544864 0.168005 0.819350
O O13 0.313676 0.804842 0.464229
O O14 0.453735 0.291488 0.071955
O O15 0.690942 0.645785 0.009569
O O16 0.000000 0.500000 0.500000
#
# Coordination Sequence:
#
# PCOD9029738 Si02
#       8
#     2   2   2   2   1   2   2   2
#     4  12  24  39  66  96 134 179 229 280 342 408
#     4  11  25  45  72  99 142 183 228 284 349 420
#     4  11  24  43  67  99 136 179 227 284 341 409
#     4  10  23  43  67  99 132 176 225 279 340 408
#     4  10  22  44  70 100 138 182 222 276 344 408
#     4  10  22  42  68  91 134 176 230 285 339 407
#     4  10  22  44  63  93 133 180 223 281 343 403
#     4  11  25  46  73 104 139 177 230 290 349 414
#
# _framework density 24.837918999999999
#
# number of rings (size 3 to 8) (size 9 to 14) (size 15 to 20)
#    0.000    1.333    1.333    4.000    1.867    6.400 
#    2.400    4.000    0.000    0.000    0.000    0.000 
#    0.000    0.000    0.000    0.000    0.000    0.000 
#
# Total GULP energy -83559.201295 kJ/mol
# GULP energy per Si atom -5570.613420 kJ/mol
# Density = 2.478139 g / cm^3
# Si number density = 24.837919 Si / 1000 Ang^3
#
#
#
# Elastic Constant Matrix: (Units=GPa)
#
#
# Indices 1 2 3 4 5 6 
#
# 1 147.2508 40.9624 47.8382 0.2680 -8.5070 31.9886
# 2 40.9624 75.2170 47.1142 12.8469 -18.3297 33.0154
# 3 47.8382 47.1142 107.1825 7.5121 -27.6369 11.2502
# 4 0.2680 12.8469 7.5121 45.0841 2.3397 -0.5802
# 5 -8.5070 -18.3297 -27.6369 2.3397 46.6368 -4.4181
# 6 31.9886 33.0154 11.2502 -0.5802 -4.4181 34.7625
#
#
#
# Elastic Compliance Matrix: (Units=1/GPa)
#
#
# Indices 1 2 3 4 5 6 
#
# 1 0.009672 0.000469 -0.004009 0.000435 -0.001226 -0.008196
# 2 0.000469 0.036285 -0.010873 -0.009210 0.005444 -0.030835
# 3 -0.004009 -0.010873 0.016322 0.000236 0.005551 0.009443
# 4 0.000435 -0.009210 0.000236 0.025070 -0.003882 0.008195
# 5 -0.001226 0.005444 0.005551 -0.003882 0.026603 -0.002523
# 6 -0.008196 -0.030835 0.009443 0.008195 -0.002523 0.062354
#
#
# Mechanical properties :
#
#
# Convention : Reuss Voigt Hill
#
# Bulk Modulus (GPa) = 29.89368 66.83110 48.36239
# Shear Modulus (GPa) = 23.11769 38.21239 30.66504
#
# Velocity S-wave (km/s) = 3.05412 3.92659 3.51751
# Velocity P-wave (km/s) = 4.94959 6.89368 6.00088
#
# Compressibility (1/GPa) = 0.03345188
#
# Stress axis : x y z
#
# Youngs Moduli (GPa) = 103.38863 27.55997 61.26634
#
# Poissons Ratio (x) = -0.01291 0.24562
# Poissons Ratio (y) = -0.04844 0.66614
# Poissons Ratio (z) = 0.41450 0.29966
#
# Static dielectric constant tensor:
#      x y z
#    x 2.026990 -0.026450 -0.034760 
#    y -0.026450 2.018270 0.098910 
#    z -0.034760 0.098910 1.658360 
# 
# From -- ./inp_files/553921.got.cif
#   From: 2010.05.17/outbox.cif.g08.bks.cpg/sg2_277_cif.got.tgz:553921.got - 2010.06.03 11:33:40.
