data_PCOD9029984
_publ_section_title
;
Structure prediction by ZEFSAII (Michael W. Deem and Ramdas Pophale) SiO2 
 PCOD9029984
Probable space group: P -1
;
_chemical_formula_sum "Si O2"
_cell_formula_units_Z 14
_cell_length_a 5.406826
_cell_length_b 5.737234
_cell_length_c 20.236195
_cell_angle_alpha 60.746809
_cell_angle_beta 83.841414
_cell_angle_gamma 92.964229
_cell_volume 540.577075
_symmetry_space_group_name_H-M "P -1"
_symmetry_group_IT_number 2
_symmetry_cell_setting 'triclinic'
loop_
_space_group_symop_operation_xyz
x,y,z
-x,-y,-z
loop_
_atom_site_type_symbol
_atom_site_label
_atom_site_fract_x
_atom_site_fract_y
_atom_site_fract_z
Si Si1 0.514864 0.322503 0.454207
Si Si2 0.588198 0.964973 0.706146
Si Si3 0.456507 0.401024 0.738790
Si Si4 0.189039 0.276849 0.013373
Si Si5 0.043773 0.558377 0.413005
Si Si6 0.581286 0.581188 0.883002
Si Si7 0.923763 0.278695 0.841804
O O1 0.500000 0.500000 0.500000
O O2 0.266998 0.385364 0.415225
O O3 0.790217 0.428929 0.405433
O O4 0.500000 0.000000 0.500000
O O5 0.443650 0.208972 0.701244
O O6 0.851187 0.133385 0.651424
O O7 0.498755 0.729396 0.689891
O O8 0.554067 0.788037 0.797912
O O9 0.694506 0.309823 0.789562
O O10 0.186497 0.338574 0.789773
O O11 0.395932 0.284202 0.065454
O O12 0.060795 0.983872 0.076743
O O13 0.357337 0.343249 0.934043
O O14 0.000000 0.500000 0.000000
O O15 0.000000 0.500000 0.500000
O O16 0.846126 0.486331 0.869548
#
# Coordination Sequence:
#
# PCOD9029984 Si02
#       7
#     2   2   2   2   2   2   2
#     4  10  22  42  69 103 140 176 227 282 341 411
#     4  11  25  49  70 105 143 187 235 292 353 421
#     4  11  27  44  73  99 144 184 236 289 352 415
#     4  11  23  40  68  95 139 182 241 289 354 415
#     4  10  24  45  75 106 143 186 235 289 351 420
#     4  10  24  42  64  99 137 185 234 293 352 416
#     4  11  25  44  68  99 138 186 237 289 351 420
#
# _framework density 25.898251999999999
#
# number of rings (size 3 to 8) (size 9 to 14) (size 15 to 20)
#    0.000    1.429    1.429    1.714    8.000    8.571 
#    0.000    1.429    0.000    0.000    0.000    0.000 
#    0.000    0.000    0.000    0.000    0.000    0.000 
#
# Total GULP energy -77955.980093 kJ/mol
# GULP energy per Si atom -5568.284292 kJ/mol
# Density = 2.583931 g / cm^3
# Si number density = 25.898252 Si / 1000 Ang^3
#
#
#
# Elastic Constant Matrix: (Units=GPa)
#
#
# Indices 1 2 3 4 5 6 
#
# 1 181.7413 48.7540 58.4013 -17.2411 -26.2392 -14.1550
# 2 48.7540 155.0822 55.8861 -20.0367 -15.5806 -7.5925
# 3 58.4013 55.8861 151.7823 -21.5753 -35.2374 -3.7172
# 4 -17.2411 -20.0367 -21.5753 55.1217 -1.5984 -1.5471
# 5 -26.2392 -15.5806 -35.2374 -1.5984 60.5745 2.3311
# 6 -14.1550 -7.5925 -3.7172 -1.5471 2.3311 38.0774
#
#
#
# Elastic Compliance Matrix: (Units=1/GPa)
#
#
# Indices 1 2 3 4 5 6 
#
# 1 0.006846 -0.001148 -0.001595 0.001208 0.001693 0.002106
# 2 -0.001148 0.007872 -0.002120 0.001709 0.000302 0.000987
# 3 -0.001595 -0.002120 0.009320 0.002495 0.004262 -0.000265
# 4 0.001208 0.001709 0.002495 0.020248 0.002884 0.001680
# 5 0.001693 0.000302 0.004262 0.002884 0.019874 0.000006
# 6 0.002106 0.000987 -0.000265 0.001680 0.000006 0.027284
#
#
# Mechanical properties :
#
#
# Convention : Reuss Voigt Hill
#
# Bulk Modulus (GPa) = 69.86816 90.52094 80.19455
# Shear Modulus (GPa) = 47.19589 52.45900 49.82745
#
# Velocity S-wave (km/s) = 4.27354 4.50553 4.39107
# Velocity P-wave (km/s) = 7.16850 7.88002 7.53267
#
# Compressibility (1/GPa) = 0.01431267
#
# Stress axis : x y z
#
# Youngs Moduli (GPa) = 146.07267 127.02495 107.29562
#
# Poissons Ratio (x) = 0.14584 0.17114
# Poissons Ratio (y) = 0.16771 0.22743
# Poissons Ratio (z) = 0.23299 0.26925
#
# Static dielectric constant tensor:
#      x y z
#    x 2.141470 -0.025620 -0.194820 
#    y -0.025620 2.000220 -0.399870 
#    z -0.194820 -0.399870 2.208400 
# 
# From -- ./inp_files/125786.got.cif
#   From: 2010.05.17/outbox.cif.g08.bks.cpg/sg2_63_cif.got.tgz:125786.got - 2010.06.03 11:33:40.
