data_PCOD9029875
_publ_section_title
;
Structure prediction by ZEFSAII (Michael W. Deem and Ramdas Pophale) SiO2 
 PCOD9029875
Probable space group: P -1
;
_chemical_formula_sum "Si O2"
_cell_formula_units_Z 16
_cell_length_a 12.688930
_cell_length_b 12.685483
_cell_length_c 5.275467
_cell_angle_alpha 77.295958
_cell_angle_beta 71.456576
_cell_angle_gamma 116.006122
_cell_volume 656.067908
_symmetry_space_group_name_H-M "P -1"
_symmetry_group_IT_number 2
_symmetry_cell_setting 'triclinic'
loop_
_space_group_symop_operation_xyz
x,y,z
-x,-y,-z
loop_
_atom_site_type_symbol
_atom_site_label
_atom_site_fract_x
_atom_site_fract_y
_atom_site_fract_z
Si Si1 0.984477 0.811870 0.551929
Si Si2 0.488673 0.681198 0.976431
Si Si3 0.858243 0.286954 0.692996
Si Si4 0.082750 0.470778 0.766000
Si Si5 0.279773 0.285090 0.497921
Si Si6 0.356039 0.521647 0.655526
Si Si7 0.120404 0.076561 0.058484
Si Si8 0.444541 0.911242 0.839326
O O1 0.860198 0.741493 0.484111
O O2 0.908922 0.826243 0.834070
O O3 0.072008 0.751803 0.550430
O O4 0.097576 0.962250 0.314393
O O5 0.633071 0.705194 0.812534
O O6 0.407888 0.573633 0.871744
O O7 0.485589 0.806849 0.855805
O O8 0.431738 0.633995 0.326219
O O9 0.853424 0.409353 0.546404
O O10 0.972271 0.339683 0.787771
O O11 0.716136 0.174071 0.962222
O O12 0.202093 0.473955 0.805228
O O13 0.000000 0.500000 0.000000
O O14 0.353939 0.405923 0.569413
O O15 0.250500 0.161439 0.748140
O O16 0.000000 0.000000 0.000000
O O17 0.500000 0.000000 0.500000
O O18 0.500000 0.000000 0.000000
#
# Coordination Sequence:
#
# PCOD9029875 Si02
#       8
#     2   2   2   2   2   2   2   2
#     4  10  22  42  68  97 146 178 242 298 357 429
#     4  12  28  49  73 105 150 190 248 300 360 446
#     4  11  25  45  72 108 140 192 245 301 373 428
#     4  11  25  42  74 106 146 190 239 314 363 436
#     4  11  25  41  72 103 140 195 236 294 375 427
#     4  12  26  48  72 110 146 189 245 306 366 436
#     4   9  22  40  60  99 135 183 235 295 349 429
#     4  12  29  51  76 107 149 200 247 300 367 444
#
# _framework density 24.387716000000001
#
# number of rings (size 3 to 8) (size 9 to 14) (size 15 to 20)
#    0.000    1.000    2.500    2.250   10.500    3.000 
#    0.000    0.000    0.000    0.000    0.000    0.000 
#    0.000    0.000    0.000    0.000    0.000    0.000 
#
# Total GULP energy -89463.465341 kJ/mol
# GULP energy per Si atom -5591.466584 kJ/mol
# Density = 2.433221 g / cm^3
# Si number density = 24.387716 Si / 1000 Ang^3
#
#
#
# Elastic Constant Matrix: (Units=GPa)
#
#
# Indices 1 2 3 4 5 6 
#
# 1 98.6225 39.2586 25.8913 -4.1505 -23.8499 -0.9146
# 2 39.2586 103.8225 27.9154 -0.9224 -5.2855 5.4482
# 3 25.8913 27.9154 102.1740 -10.1880 -1.4865 21.5327
# 4 -4.1505 -0.9224 -10.1880 48.7982 0.8333 -2.2203
# 5 -23.8499 -5.2855 -1.4865 0.8333 40.6051 2.1028
# 6 -0.9146 5.4482 21.5327 -2.2203 2.1028 32.0885
#
#
#
# Elastic Compliance Matrix: (Units=1/GPa)
#
#
# Indices 1 2 3 4 5 6 
#
# 1 0.014596 -0.004490 -0.002859 0.000547 0.007737 0.002627
# 2 -0.004490 0.011849 -0.002016 -0.000594 -0.001117 -0.000755
# 3 -0.002859 -0.002016 0.012990 0.002074 -0.001082 -0.008242
# 4 0.000547 -0.000594 0.002074 0.020971 -0.000120 0.000183
# 5 0.007737 -0.001117 -0.001082 -0.000120 0.029029 -0.000775
# 6 0.002627 -0.000755 -0.008242 0.000183 -0.000775 0.036961
#
#
# Mechanical properties :
#
#
# Convention : Reuss Voigt Hill
#
# Bulk Modulus (GPa) = 48.29365 54.52773 51.41069
# Shear Modulus (GPa) = 32.88885 38.40196 35.64541
#
# Velocity S-wave (km/s) = 3.67629 3.97248 3.82725
# Velocity P-wave (km/s) = 6.15350 6.59151 6.37627
#
# Compressibility (1/GPa) = 0.02070666
#
# Stress axis : x y z
#
# Youngs Moduli (GPa) = 68.51356 84.39520 76.97967
#
# Poissons Ratio (x) = 0.37890 0.22005
# Poissons Ratio (y) = 0.30760 0.15519
# Poissons Ratio (z) = 0.19585 0.17014
#
# Static dielectric constant tensor:
#      x y z
#    x 1.960300 0.033150 0.085410 
#    y 0.033150 2.116350 0.048090 
#    z 0.085410 0.048090 2.081660 
# 
# From -- ./inp_files/84977.got.cif
#   From: 2010.05.17/outbox.cif.g08.bks.cpg/sg2_43_cif.got.tgz:84977.got - 2010.06.03 11:33:40.
