data_PCOD9029588
_publ_section_title
;
Structure prediction by ZEFSAII (Michael W. Deem and Ramdas Pophale) SiO2 
 PCOD9029588
Probable space group: P -1
;
_chemical_formula_sum "Si O2"
_cell_formula_units_Z 15
_cell_length_a 10.132411
_cell_length_b 8.433318
_cell_length_c 9.793668
_cell_angle_alpha 108.329606
_cell_angle_beta 122.295890
_cell_angle_gamma 70.567838
_cell_volume 657.221179
_symmetry_space_group_name_H-M "P -1"
_symmetry_group_IT_number 2
_symmetry_cell_setting 'triclinic'
loop_
_space_group_symop_operation_xyz
x,y,z
-x,-y,-z
loop_
_atom_site_type_symbol
_atom_site_label
_atom_site_fract_x
_atom_site_fract_y
_atom_site_fract_z
Si Si1 0.662485 0.695250 0.848045
Si Si2 0.000000 0.000000 0.500000
Si Si3 0.736636 0.430136 0.584947
Si Si4 0.186255 0.483117 0.632600
Si Si5 0.115006 0.279438 0.780862
Si Si6 0.603207 0.048398 0.764091
Si Si7 0.708911 0.060596 0.530423
Si Si8 0.592210 0.320792 0.068338
O O1 0.666169 0.537699 0.705639
O O2 0.513356 0.722914 0.876249
O O3 0.666843 0.859042 0.803606
O O4 0.813694 0.674008 0.026170
O O5 0.881449 0.969623 0.549821
O O6 0.112409 0.084148 0.693935
O O7 0.717222 0.538547 0.462958
O O8 0.680678 0.249899 0.497744
O O9 0.928363 0.369454 0.690646
O O10 0.212374 0.347528 0.731751
O O11 0.240029 0.648097 0.771219
O O12 0.000000 0.500000 0.500000
O O13 0.697273 0.086114 0.692626
O O14 0.424620 0.041436 0.614991
O O15 0.609672 0.180382 0.923332
O O16 0.500000 0.500000 0.000000
#
# Coordination Sequence:
#
# PCOD9029588 Si02
#       8
#     2   1   2   2   2   2   2   2
#     4  12  24  41  69 104 137 180 233 291 343 407
#     4  10  22  42  70  90 138 182 224 274 358 404
#     4  10  23  43  68  99 136 183 231 279 346 416
#     4  10  23  42  68  98 130 181 228 280 338 416
#     4  10  22  42  67  98 138 182 225 285 346 415
#     4  11  26  42  69 103 141 178 235 289 350 408
#     4  10  23  45  67 100 140 183 227 289 349 419
#     4  12  24  42  71 101 139 181 231 288 346 407
#
# _framework density 22.823367999999999
#
# number of rings (size 3 to 8) (size 9 to 14) (size 15 to 20)
#    0.000    1.333    1.333    3.200    1.867    6.400 
#    2.400    2.667    0.000    0.000    0.000    0.000 
#    0.000    0.000    0.000    0.000    0.000    0.000 
#
# Total GULP energy -83610.118462 kJ/mol
# GULP energy per Si atom -5574.007897 kJ/mol
# Density = 2.277142 g / cm^3
# Si number density = 22.823368 Si / 1000 Ang^3
#
#
#
# Elastic Constant Matrix: (Units=GPa)
#
#
# Indices 1 2 3 4 5 6 
#
# 1 132.0680 4.5337 46.3194 1.9661 -16.5639 21.3225
# 2 4.5337 40.6260 0.0103 -5.6997 -1.4325 7.0509
# 3 46.3194 0.0103 123.7147 18.5874 -9.3310 3.6932
# 4 1.9661 -5.6997 18.5874 41.3603 11.3133 -7.6553
# 5 -16.5639 -1.4325 -9.3310 11.3133 43.6441 -0.6227
# 6 21.3225 7.0509 3.6932 -7.6553 -0.6227 22.0831
#
#
#
# Elastic Compliance Matrix: (Units=1/GPa)
#
#
# Indices 1 2 3 4 5 6 
#
# 1 0.010923 0.000499 -0.003162 -0.002086 0.003873 -0.010791
# 2 0.000499 0.026271 -0.000240 0.002116 0.000336 -0.008086
# 3 -0.003162 -0.000240 0.010227 -0.005169 0.002314 -0.000307
# 4 -0.002086 0.002116 -0.005169 0.032021 -0.009942 0.013023
# 5 0.003873 0.000336 0.002314 -0.009942 0.027367 -0.006908
# 6 -0.010791 -0.008086 -0.000307 0.013023 -0.006908 0.062656
#
#
# Mechanical properties :
#
#
# Convention : Reuss Voigt Hill
#
# Bulk Modulus (GPa) = 24.03004 44.23729 34.13367
# Shear Modulus (GPa) = 26.43507 37.78720 32.11113
#
# Velocity S-wave (km/s) = 3.40699 4.07337 3.75499
# Velocity P-wave (km/s) = 5.10180 6.44574 5.81274
#
# Compressibility (1/GPa) = 0.04161457
#
# Stress axis : x y z
#
# Youngs Moduli (GPa) = 91.55326 38.06432 97.77800
#
# Poissons Ratio (x) = -0.01898 0.30916
# Poissons Ratio (y) = -0.04564 0.02346
# Poissons Ratio (z) = 0.28948 0.00913
#
# Static dielectric constant tensor:
#      x y z
#    x 1.841480 -0.031610 0.024890 
#    y -0.031610 1.905930 0.005980 
#    z 0.024890 0.005980 1.833160 
# 
# From -- ./inp_files/159962.got.cif
#   From: 2010.05.17/outbox.cif.g08.bks.cpg/sg2_80_cif.got.tgz:159962.got - 2010.06.03 11:33:40.
