data_PCOD9029325
_publ_section_title
;
Structure prediction by ZEFSAII (Michael W. Deem and Ramdas Pophale) SiO2 
 PCOD9029325
Probable space group: P -1
;
_chemical_formula_sum "Si O2"
_cell_formula_units_Z 14
_cell_length_a 11.498100
_cell_length_b 20.489093
_cell_length_c 6.084313
_cell_angle_alpha 129.534597
_cell_angle_beta 129.100547
_cell_angle_gamma 29.714355
_cell_volume 536.479766
_symmetry_space_group_name_H-M "P -1"
_symmetry_group_IT_number 2
_symmetry_cell_setting 'triclinic'
loop_
_space_group_symop_operation_xyz
x,y,z
-x,-y,-z
loop_
_atom_site_type_symbol
_atom_site_label
_atom_site_fract_x
_atom_site_fract_y
_atom_site_fract_z
Si Si1 0.808392 0.570779 0.728509
Si Si2 0.197684 0.784608 0.035957
Si Si3 0.949221 0.815271 0.179182
Si Si4 0.418453 0.806973 0.045359
Si Si5 0.584837 0.489237 0.826915
Si Si6 0.267176 0.046772 0.352355
Si Si7 0.178629 0.300112 0.371226
O O1 0.804940 0.651051 0.726820
O O2 0.915991 0.441411 0.458341
O O3 0.548537 0.683778 0.773123
O O4 0.000000 0.500000 0.000000
O O5 0.471191 0.632824 0.012368
O O6 0.995392 0.811915 0.747979
O O7 0.211779 0.860132 0.064851
O O8 0.101401 0.819421 0.241190
O O9 0.786305 0.933787 0.412544
O O10 0.145394 0.662922 0.182538
O O11 0.791495 0.813266 0.864299
O O12 0.624712 0.752548 0.336227
O O13 0.324040 0.930387 0.068059
O O14 0.500000 0.500000 0.500000
O O15 0.500000 0.500000 0.000000
O O16 0.500000 0.000000 0.500000
#
# Coordination Sequence:
#
# PCOD9029325 Si02
#       7
#     2   2   2   2   2   2   2
#     4   9  21  40  64  98 139 181 226 292 348 429
#     4  11  26  45  68 103 140 185 240 303 368 430
#     4  11  25  44  72 104 140 186 238 298 363 445
#     4  11  25  43  69 102 140 185 234 294 363 435
#     4  10  22  44  71 108 147 192 241 312 377 441
#     4  12  26  47  72  98 138 190 241 293 362 445
#     4  10  22  42  67 102 138 181 236 285 363 425
#
# _framework density 26.096045
#
# number of rings (size 3 to 8) (size 9 to 14) (size 15 to 20)
#    0.000    1.429    1.429    2.143    6.000    8.571 
#    0.000    0.000    0.000    0.000    0.000    0.000 
#    0.000    0.000    0.000    0.000    0.000    0.000 
#
# Total GULP energy -78073.371268 kJ/mol
# GULP energy per Si atom -5576.669376 kJ/mol
# Density = 2.603665 g / cm^3
# Si number density = 26.096045 Si / 1000 Ang^3
#
#
#
# Elastic Constant Matrix: (Units=GPa)
#
#
# Indices 1 2 3 4 5 6 
#
# 1 99.1565 18.1524 18.3378 9.1698 -11.3557 -19.6694
# 2 18.1524 96.8585 9.1290 -2.9834 -8.7180 -22.9585
# 3 18.3378 9.1290 64.2094 -2.6999 -22.4290 -17.8869
# 4 9.1698 -2.9834 -2.6999 49.3190 -12.5833 -4.0663
# 5 -11.3557 -8.7180 -22.4290 -12.5833 29.7481 0.6071
# 6 -19.6694 -22.9585 -17.8869 -4.0663 0.6071 42.9690
#
#
#
# Elastic Compliance Matrix: (Units=1/GPa)
#
#
# Indices 1 2 3 4 5 6 
#
# 1 0.011732 -0.000866 -0.001116 -0.001233 0.002774 0.004288
# 2 -0.000866 0.012881 0.003445 0.003700 0.007441 0.008165
# 3 -0.001116 0.003445 0.028838 0.009824 0.026199 0.013894
# 4 -0.001233 0.003700 0.009824 0.026807 0.019201 0.007768
# 5 0.002774 0.007441 0.026199 0.019201 0.064382 0.017059
# 6 0.004288 0.008165 0.013894 0.007768 0.017059 0.035876
#
#
# Mechanical properties :
#
#
# Convention : Reuss Voigt Hill
#
# Bulk Modulus (GPa) = 17.73736 39.05143 28.39439
# Shear Modulus (GPa) = 25.46069 38.71423 32.08746
#
# Velocity S-wave (km/s) = 3.12693 3.85584 3.51036
# Velocity P-wave (km/s) = 4.45518 5.90087 5.22824
#
# Compressibility (1/GPa) = 0.05637818
#
# Stress axis : x y z
#
# Youngs Moduli (GPa) = 85.23546 77.63386 34.67656
#
# Poissons Ratio (x) = 0.06720 0.03870
# Poissons Ratio (y) = 0.07378 -0.11947
# Poissons Ratio (z) = 0.09512 -0.26746
#
# Static dielectric constant tensor:
#      x y z
#    x 2.075140 0.064410 -0.056980 
#    y 0.064410 2.131220 -0.082810 
#    z -0.056980 -0.082810 2.154330 
# 
# From -- ./inp_files/83469.got.cif
#   From: 2010.05.17/outbox.cif.g08.bks.cpg/sg2_42_cif.got.tgz:83469.got - 2010.06.03 11:33:40.
