data_PCOD9029422
_publ_section_title
;
Structure prediction by ZEFSAII (Michael W. Deem and Ramdas Pophale) SiO2 
 PCOD9029422
Probable space group: P -1
;
_chemical_formula_sum "Si O2"
_cell_formula_units_Z 16
_cell_length_a 17.996298
_cell_length_b 8.929390
_cell_length_c 5.887071
_cell_angle_alpha 116.408408
_cell_angle_beta 54.870472
_cell_angle_gamma 108.603501
_cell_volume 690.398131
_symmetry_space_group_name_H-M "P -1"
_symmetry_group_IT_number 2
_symmetry_cell_setting 'triclinic'
loop_
_space_group_symop_operation_xyz
x,y,z
-x,-y,-z
loop_
_atom_site_type_symbol
_atom_site_label
_atom_site_fract_x
_atom_site_fract_y
_atom_site_fract_z
Si Si1 0.114220 0.488309 0.051517
Si Si2 0.244168 0.419542 0.148024
Si Si3 0.406358 0.571318 0.647070
Si Si4 0.921167 0.002215 0.953411
Si Si5 0.022026 0.273690 0.682099
Si Si6 0.485752 0.080498 0.324845
Si Si7 0.729686 0.324710 0.346351
Si Si8 0.719871 0.936577 0.212268
O O1 0.094858 0.360055 0.789172
O O2 0.196696 0.627969 0.944951
O O3 0.154586 0.397386 0.132029
O O4 0.023932 0.585745 0.286505
O O5 0.230841 0.577891 0.437320
O O6 0.331822 0.485908 0.889856
O O7 0.263852 0.232902 0.075139
O O8 0.500000 0.500000 0.500000
O O9 0.436949 0.767290 0.732247
O O10 0.357417 0.568642 0.485865
O O11 0.941458 0.182370 0.918117
O O12 0.940580 0.868172 0.634317
O O13 0.816699 0.970298 0.198329
O O14 0.000000 0.000000 0.000000
O O15 0.378084 0.111805 0.533315
O O16 0.500000 0.000000 0.500000
O O17 0.500000 0.000000 0.000000
O O18 0.710889 0.124648 0.258781
#
# Coordination Sequence:
#
# PCOD9029422 Si02
#       8
#     2   2   2   2   2   2   2   2
#     4  10  22  43  65 100 137 188 238 303 380 443
#     4  11  25  43  70 104 141 191 247 301 380 453
#     4  11  24  46  68 103 146 188 243 311 380 456
#     4  11  24  42  66 106 137 190 250 299 376 445
#     4  10  22  42  67  93 145 184 240 311 367 449
#     4  12  27  51  77 114 153 202 259 317 390 465
#     4  11  24  44  69 102 144 186 250 305 380 456
#     4  12  24  47  71 107 145 193 253 313 380 458
#
# _framework density 23.175035999999999
#
# number of rings (size 3 to 8) (size 9 to 14) (size 15 to 20)
#    0.000    1.000    3.750    2.250    1.750    1.500 
#    6.750    3.125    0.000    0.000    0.000    0.000 
#    0.000    0.000    0.000    0.000    0.000    0.000 
#
# Total GULP energy -89084.214301 kJ/mol
# GULP energy per Si atom -5567.763394 kJ/mol
# Density = 2.312229 g / cm^3
# Si number density = 23.175036 Si / 1000 Ang^3
#
#
#
# Elastic Constant Matrix: (Units=GPa)
#
#
# Indices 1 2 3 4 5 6 
#
# 1 146.6592 17.2487 32.1906 -3.7844 -14.2461 -0.6983
# 2 17.2487 140.5986 29.5991 10.6779 6.9964 -1.3622
# 3 32.1906 29.5991 59.6762 6.3699 -8.3144 -4.4810
# 4 -3.7844 10.6779 6.3699 26.0000 7.2663 -9.3611
# 5 -14.2461 6.9964 -8.3144 7.2663 32.8331 -4.1821
# 6 -0.6983 -1.3622 -4.4810 -9.3611 -4.1821 47.5888
#
#
#
# Elastic Compliance Matrix: (Units=1/GPa)
#
#
# Indices 1 2 3 4 5 6 
#
# 1 0.007999 -0.000383 -0.003991 0.001789 0.002181 0.000274
# 2 -0.000383 0.008303 -0.004125 -0.002000 -0.002637 -0.000781
# 3 -0.003991 -0.004125 0.022541 -0.005668 0.006286 0.001383
# 4 0.001789 -0.002000 -0.005668 0.046370 -0.009512 0.007721
# 5 0.002181 -0.002637 0.006286 -0.009512 0.035895 0.001832
# 6 0.000274 -0.000781 0.001383 0.007721 0.001832 0.022805
#
#
# Mechanical properties :
#
#
# Convention : Reuss Voigt Hill
#
# Bulk Modulus (GPa) = 45.77658 56.11231 50.94445
# Shear Modulus (GPa) = 29.72796 39.14407 34.43602
#
# Velocity S-wave (km/s) = 3.58545 4.11428 3.85893
# Velocity P-wave (km/s) = 6.07750 6.84359 6.47189
#
# Compressibility (1/GPa) = 0.02184523
#
# Stress axis : x y z
#
# Youngs Moduli (GPa) = 125.01707 120.43535 44.36450
#
# Poissons Ratio (x) = 0.04609 0.17708
# Poissons Ratio (y) = 0.04784 0.18298
# Poissons Ratio (z) = 0.49900 0.49674
#
# Static dielectric constant tensor:
#      x y z
#    x 1.985130 -0.062410 -0.088060 
#    y -0.062410 1.871130 -0.054280 
#    z -0.088060 -0.054280 1.805350 
# 
# From -- ./inp_files/106216.got.cif
#   From: 2010.05.17/outbox.cif.g08.bks.cpg/sg2_54_cif.got.tgz:106216.got - 2010.06.03 11:33:40.
