data_PCOD9029712
_publ_section_title
;
Structure prediction by ZEFSAII (Michael W. Deem and Ramdas Pophale) SiO2 
 PCOD9029712
Probable space group: P -1
;
_chemical_formula_sum "Si O2"
_cell_formula_units_Z 16
_cell_length_a 15.912057
_cell_length_b 9.949882
_cell_length_c 20.381520
_cell_angle_alpha 132.724976
_cell_angle_beta 158.859093
_cell_angle_gamma 36.858889
_cell_volume 662.955667
_symmetry_space_group_name_H-M "P -1"
_symmetry_group_IT_number 2
_symmetry_cell_setting 'triclinic'
loop_
_space_group_symop_operation_xyz
x,y,z
-x,-y,-z
loop_
_atom_site_type_symbol
_atom_site_label
_atom_site_fract_x
_atom_site_fract_y
_atom_site_fract_z
Si Si1 0.909374 0.017709 0.366438
Si Si2 0.691887 0.473692 0.569471
Si Si3 0.742735 0.484514 0.124144
Si Si4 0.691628 0.623888 0.988166
Si Si5 0.017280 0.149769 0.005375
Si Si6 0.673806 0.867493 0.421440
Si Si7 0.980052 0.395085 0.538918
Si Si8 0.169106 0.964373 0.294535
O O1 0.874161 0.245893 0.396701
O O2 0.575517 0.112385 0.142796
O O3 0.000000 0.000000 0.500000
O O4 0.178829 0.773084 0.450976
O O5 0.500000 0.500000 0.500000
O O6 0.489106 0.703457 0.450637
O O7 0.995351 0.425220 0.794440
O O8 0.627029 0.574829 0.997171
O O9 0.835673 0.633565 0.272549
O O10 0.500000 0.500000 0.000000
O O11 0.045710 0.209990 0.250478
O O12 0.758910 0.425180 0.921448
O O13 0.335529 0.087448 0.232947
O O14 0.002142 0.089181 0.898496
O O15 0.000000 0.000000 0.000000
O O16 0.713763 0.674614 0.434999
O O17 0.782958 0.712541 0.383574
O O18 0.853555 0.942306 0.614763
#
# Coordination Sequence:
#
# PCOD9029712 Si02
#       8
#     2   2   2   2   2   2   2   2
#     4  12  27  50  73 104 153 213 261 309 373 464
#     4  12  28  51  76 108 153 212 259 316 375 458
#     4  11  25  44  79 118 149 192 246 324 404 454
#     4  12  27  48  76 110 153 196 265 319 383 463
#     4  12  23  40  69 111 148 184 238 311 395 452
#     4  10  22  42  68 109 147 183 240 315 386 446
#     4  10  23  42  73 101 148 193 247 309 382 450
#     4  11  24  45  73 110 150 194 242 315 385 450
#
# _framework density 24.134343000000001
#
# number of rings (size 3 to 8) (size 9 to 14) (size 15 to 20)
#    0.000    0.750    2.500    4.125    7.000    3.000 
#    2.250    1.250    0.000    0.000    0.000    0.000 
#    0.000    0.000    0.000    0.000    0.000    0.000 
#
# Total GULP energy -89081.102264 kJ/mol
# GULP energy per Si atom -5567.568891 kJ/mol
# Density = 2.407941 g / cm^3
# Si number density = 24.134343 Si / 1000 Ang^3
#
#
#
# Elastic Constant Matrix: (Units=GPa)
#
#
# Indices 1 2 3 4 5 6 
#
# 1 70.6028 31.8799 47.4271 -7.0403 -10.8580 -14.9679
# 2 31.8799 152.6940 48.4143 -11.4862 -16.5296 -31.4081
# 3 47.4271 48.4143 131.3690 -13.0700 -31.2641 -8.3232
# 4 -7.0403 -11.4862 -13.0700 58.2538 -5.5006 -12.7018
# 5 -10.8580 -16.5296 -31.2641 -5.5006 39.9642 9.9414
# 6 -14.9679 -31.4081 -8.3232 -12.7018 9.9414 30.1850
#
#
#
# Elastic Compliance Matrix: (Units=1/GPa)
#
#
# Indices 1 2 3 4 5 6 
#
# 1 0.021193 0.000021 -0.007174 0.003055 -0.002040 0.010509
# 2 0.000021 0.009981 -0.002639 0.003833 -0.000228 0.011356
# 3 -0.007174 -0.002639 0.013020 0.001250 0.008562 -0.005008
# 4 0.003055 0.003833 0.001250 0.021924 0.002899 0.014118
# 5 -0.002040 -0.000228 0.008562 0.002899 0.033648 -0.008750
# 6 0.010509 0.011356 -0.005008 0.014118 -0.008750 0.057599
#
#
# Mechanical properties :
#
#
# Convention : Reuss Voigt Hill
#
# Bulk Modulus (GPa) = 40.63810 67.78984 54.21397
# Shear Modulus (GPa) = 27.00486 40.81024 33.90755
#
# Velocity S-wave (km/s) = 3.34868 4.11659 3.75233
# Velocity P-wave (km/s) = 5.64149 7.12353 6.42538
#
# Compressibility (1/GPa) = 0.02460745
#
# Stress axis : x y z
#
# Youngs Moduli (GPa) = 47.18642 100.18982 76.80630
#
# Poissons Ratio (x) = -0.00208 0.55103
# Poissons Ratio (y) = -0.00098 0.20272
# Poissons Ratio (z) = 0.33853 0.26444
#
# Static dielectric constant tensor:
#      x y z
#    x 2.025520 0.037010 0.043320 
#    y 0.037010 1.944880 -0.021420 
#    z 0.043320 -0.021420 1.996920 
# 
# From -- ./inp_files/600100.got.cif
#   From: 2010.05.17/outbox.cif.g08.bks.cpg/sg2_301_cif.got.tgz:600100.got - 2010.06.03 11:33:40.
