data_PCOD9029304
_publ_section_title
;
Structure prediction by ZEFSAII (Michael W. Deem and Ramdas Pophale) SiO2 
 PCOD9029304
Probable space group: P -1
;
_chemical_formula_sum "Si O2"
_cell_formula_units_Z 14
_cell_length_a 14.393590
_cell_length_b 23.061763
_cell_length_c 4.972610
_cell_angle_alpha 121.338056
_cell_angle_beta 111.123314
_cell_angle_gamma 23.107842
_cell_volume 517.895146
_symmetry_space_group_name_H-M "P -1"
_symmetry_group_IT_number 2
_symmetry_cell_setting 'triclinic'
loop_
_space_group_symop_operation_xyz
x,y,z
-x,-y,-z
loop_
_atom_site_type_symbol
_atom_site_label
_atom_site_fract_x
_atom_site_fract_y
_atom_site_fract_z
Si Si1 0.882018 0.018963 0.718768
Si Si2 0.737646 0.381352 0.792402
Si Si3 0.617509 0.289250 0.708868
Si Si4 0.933321 0.811465 0.811111
Si Si5 0.103826 0.319235 0.742140
Si Si6 0.635124 0.784539 0.739835
Si Si7 0.614699 0.673028 0.804742
O O1 0.745203 0.146853 0.651672
O O2 0.644825 0.132215 0.879859
O O3 0.132682 0.825223 0.403768
O O4 0.000000 0.000000 0.000000
O O5 0.581757 0.545800 0.924613
O O6 0.938891 0.274628 0.972232
O O7 0.500000 0.500000 0.000000
O O8 0.881486 0.265981 0.396370
O O9 0.467043 0.348689 0.453055
O O10 0.892095 0.762136 0.529341
O O11 0.663088 0.015916 0.057612
O O12 0.206045 0.265497 0.018247
O O13 0.832019 0.522392 0.881741
O O14 0.285485 0.246901 0.553857
O O15 0.698662 0.670486 0.649012
#
# Coordination Sequence:
#
# PCOD9029304 Si02
#       7
#     2   2   2   2   2   2   2
#     4   9  21  38  65  98 133 181 222 281 349 425
#     4  12  27  45  76 105 141 183 237 281 347 433
#     4  10  22  42  67 100 140 185 229 280 359 422
#     4  12  26  50  73 101 144 191 226 293 353 411
#     4  12  25  48  71 103 141 187 241 286 351 411
#     4  12  28  44  73 106 139 183 246 293 340 408
#     4  11  24  41  72  99 143 177 231 293 357 401
#
# _framework density 27.032499000000001
#
# number of rings (size 3 to 8) (size 9 to 14) (size 15 to 20)
#    0.000    0.857    1.429    4.714    8.000    3.429 
#    0.000    0.000    0.000    0.000    0.000    0.000 
#    0.000    0.000    0.000    0.000    0.000    0.000 
#
# Total GULP energy -78484.990882 kJ/mol
# GULP energy per Si atom -5606.070777 kJ/mol
# Density = 2.697097 g / cm^3
# Si number density = 27.032499 Si / 1000 Ang^3
#
#
#
# Elastic Constant Matrix: (Units=GPa)
#
#
# Indices 1 2 3 4 5 6 
#
# 1 89.2749 -1.6795 5.8190 0.4165 -27.1052 -6.0071
# 2 -1.6795 156.1556 47.0271 15.3605 -2.8045 -11.8590
# 3 5.8190 47.0271 107.2991 19.1668 -18.8302 -9.9766
# 4 0.4165 15.3605 19.1668 57.4226 -3.7509 -4.2783
# 5 -27.1052 -2.8045 -18.8302 -3.7509 39.0988 -2.0498
# 6 -6.0071 -11.8590 -9.9766 -4.2783 -2.0498 33.5605
#
#
#
# Elastic Compliance Matrix: (Units=1/GPa)
#
#
# Indices 1 2 3 4 5 6 
#
# 1 0.014754 0.000205 0.001350 0.000401 0.011133 0.003846
# 2 0.000205 0.007553 -0.003159 -0.000903 -0.000840 0.001600
# 3 0.001350 -0.003159 0.012552 -0.002703 0.006648 0.002918
# 4 0.000401 -0.000903 -0.002703 0.018709 0.000779 0.001382
# 5 0.011133 -0.000840 0.006648 0.000779 0.036826 0.006021
# 6 0.003846 0.001600 0.002918 0.001382 0.006021 0.032462
#
#
# Mechanical properties :
#
#
# Convention : Reuss Voigt Hill
#
# Bulk Modulus (GPa) = 31.59521 50.56253 41.07887
# Shear Modulus (GPa) = 36.59932 46.12057 41.35994
#
# Velocity S-wave (km/s) = 3.68353 4.13500 3.91578
# Velocity P-wave (km/s) = 5.45934 6.44535 5.97273
#
# Compressibility (1/GPa) = 0.03165037
#
# Stress axis : x y z
#
# Youngs Moduli (GPa) = 67.77663 132.40538 79.67065
#
# Poissons Ratio (x) = -0.02710 -0.10754
# Poissons Ratio (y) = -0.01387 0.25165
# Poissons Ratio (z) = -0.09149 0.41822
#
# Static dielectric constant tensor:
#      x y z
#    x 2.269080 -0.039300 -0.006670 
#    y -0.039300 2.048970 -0.008400 
#    z -0.006670 -0.008400 2.128010 
# 
# From -- ./inp_files/70161.got.cif
#   From: 2010.05.17/outbox.cif.g08.bks.cpg/sg2_36_cif.got.tgz:70161.got - 2010.06.03 11:33:40.
