data_PCOD9029438
_publ_section_title
;
Structure prediction by ZEFSAII (Michael W. Deem and Ramdas Pophale) SiO2 
 PCOD9029438
Probable space group: P -1
;
_chemical_formula_sum "Si O2"
_cell_formula_units_Z 16
_cell_length_a 21.264568
_cell_length_b 11.665459
_cell_length_c 5.754715
_cell_angle_alpha 108.801215
_cell_angle_beta 75.438099
_cell_angle_gamma 150.990322
_cell_volume 653.906799
_symmetry_space_group_name_H-M "P -1"
_symmetry_group_IT_number 2
_symmetry_cell_setting 'triclinic'
loop_
_space_group_symop_operation_xyz
x,y,z
-x,-y,-z
loop_
_atom_site_type_symbol
_atom_site_label
_atom_site_fract_x
_atom_site_fract_y
_atom_site_fract_z
Si Si1 0.868954 0.075087 0.619528
Si Si2 0.906154 0.575288 0.089583
Si Si3 0.582270 0.485854 0.169395
Si Si4 0.376818 0.719761 0.478605
Si Si5 0.741326 0.496321 0.044979
Si Si6 0.896365 0.250092 0.292993
Si Si7 0.718225 0.061008 0.975070
Si Si8 0.357182 0.408309 0.310453
O O1 0.844979 0.053515 0.357187
O O2 0.024192 0.309269 0.650338
O O3 0.797159 0.851772 0.674359
O O4 0.793504 0.075534 0.776749
O O5 0.884023 0.672534 0.073444
O O6 0.778212 0.286546 0.995423
O O7 0.016247 0.670859 0.931444
O O8 0.689526 0.550231 0.119818
O O9 0.591394 0.556112 0.465953
O O10 0.610413 0.598870 0.972168
O O11 0.434947 0.196718 0.088236
O O12 0.323860 0.654499 0.746871
O O13 0.406950 0.625206 0.386622
O O14 0.500000 0.000000 0.500000
O O15 0.291710 0.604101 0.249661
O O16 0.776020 0.131511 0.226293
O O17 0.000000 0.500000 0.500000
#
# Coordination Sequence:
#
# PCOD9029438 Si02
#       8
#     2   2   2   2   2   2   2   2
#     4  11  24  45  64  95 138 179 229 277 333 404
#     4  11  24  39  69 102 129 179 228 283 337 390
#     4  10  25  46  66 102 136 174 222 277 346 408
#     4  10  22  42  67  94 135 175 219 271 333 404
#     4  10  24  42  67 103 130 169 220 279 341 395
#     4  11  21  43  65  96 134 179 233 281 331 391
#     4  11  24  39  69  98 134 174 227 285 334 401
#     4  10  25  44  68  97 140 180 220 277 339 408
#
# _framework density 24.468322000000001
#
# number of rings (size 3 to 8) (size 9 to 14) (size 15 to 20)
#    0.000    1.500    2.500    1.125   14.000    1.000 
#    0.000    5.000    0.000    0.000    0.000    0.000 
#    0.000    0.000    0.000    0.000    0.000    0.000 
#
# Total GULP energy -89092.386299 kJ/mol
# GULP energy per Si atom -5568.274144 kJ/mol
# Density = 2.441263 g / cm^3
# Si number density = 24.468322 Si / 1000 Ang^3
#
#
#
# Elastic Constant Matrix: (Units=GPa)
#
#
# Indices 1 2 3 4 5 6 
#
# 1 103.9436 13.1167 15.3758 16.2905 -1.7337 15.0121
# 2 13.1167 66.7110 23.9192 10.2224 13.7855 -5.0109
# 3 15.3758 23.9192 130.5610 -6.5670 40.3491 4.8755
# 4 16.2905 10.2224 -6.5670 32.2018 -5.7708 9.5884
# 5 -1.7337 13.7855 40.3491 -5.7708 27.1686 1.8399
# 6 15.0121 -5.0109 4.8755 9.5884 1.8399 30.0591
#
#
#
# Elastic Compliance Matrix: (Units=1/GPa)
#
#
# Indices 1 2 3 4 5 6 
#
# 1 0.011630 -0.002393 -0.002594 -0.003145 0.005488 -0.005119
# 2 -0.002393 0.020448 -0.000363 -0.010232 -0.012752 0.008707
# 3 -0.002594 -0.000363 0.014819 0.000529 -0.021877 0.000002
# 4 -0.003145 -0.010232 0.000529 0.042980 0.014338 -0.014808
# 5 0.005488 -0.012752 -0.021877 0.014338 0.079894 -0.010782
# 6 -0.005119 0.008707 0.000002 -0.014808 -0.010782 0.042659
#
#
# Mechanical properties :
#
#
# Convention : Reuss Voigt Hill
#
# Bulk Modulus (GPa) = 27.62775 45.11544 36.37160
# Shear Modulus (GPa) = 21.25880 34.47282 27.86581
#
# Velocity S-wave (km/s) = 2.95079 3.75757 3.37835
# Velocity P-wave (km/s) = 4.78804 6.10771 5.48769
#
# Compressibility (1/GPa) = 0.03619549
#
# Stress axis : x y z
#
# Youngs Moduli (GPa) = 85.98342 48.90475 67.48187
#
# Poissons Ratio (x) = 0.11704 0.17506
# Poissons Ratio (y) = 0.20577 0.02451
# Poissons Ratio (z) = 0.22306 0.01777
#
# Static dielectric constant tensor:
#      x y z
#    x 2.042020 0.042590 0.066450 
#    y 0.042590 2.142960 0.159760 
#    z 0.066450 0.159760 2.259130 
# 
# From -- ./inp_files/77182.got.cif
#   From: 2010.05.17/outbox.cif.g08.bks.cpg/sg2_39_cif.got.tgz:77182.got - 2010.06.03 11:33:40.
