data_PCOD9029520
_publ_section_title
;
Structure prediction by ZEFSAII (Michael W. Deem and Ramdas Pophale) SiO2 
 PCOD9029520
Probable space group: P -1
;
_chemical_formula_sum "Si O2"
_cell_formula_units_Z 12
_cell_length_a 6.676692
_cell_length_b 18.284837
_cell_length_c 7.882626
_cell_angle_alpha 113.550228
_cell_angle_beta 101.057398
_cell_angle_gamma 132.615713
_cell_volume 472.784833
_symmetry_space_group_name_H-M "P -1"
_symmetry_group_IT_number 2
_symmetry_cell_setting 'triclinic'
loop_
_space_group_symop_operation_xyz
x,y,z
-x,-y,-z
loop_
_atom_site_type_symbol
_atom_site_label
_atom_site_fract_x
_atom_site_fract_y
_atom_site_fract_z
Si Si1 0.372173 0.537416 0.412518
Si Si2 0.708220 0.648547 0.216128
Si Si3 0.371206 0.208600 0.202654
Si Si4 0.492875 0.743539 0.104652
Si Si5 0.448765 0.889737 0.348501
Si Si6 0.396901 0.053057 0.973581
O O1 0.500000 0.500000 0.500000
O O2 0.660146 0.640862 0.400582
O O3 0.409234 0.636580 0.598452
O O4 0.944428 0.388161 0.139535
O O5 0.097500 0.763579 0.295940
O O6 0.500000 0.500000 0.000000
O O7 0.533073 0.670950 0.128155
O O8 0.256537 0.173289 0.950211
O O9 0.038565 0.089395 0.172353
O O10 0.573334 0.188666 0.220118
O O11 0.620990 0.855659 0.356367
O O12 0.472180 0.899736 0.155730
O O13 0.500000 0.000000 0.500000
O O14 0.500000 0.000000 0.000000
#
# Coordination Sequence:
#
# PCOD9029520 Si02
#       6
#     2   2   2   2   2   2
#     4  12  26  44  72 105 139 187 233 289 352 415
#     4  12  25  46  74 101 144 185 231 289 351 414
#     4  10  23  41  66 101 136 179 232 283 346 408
#     4  11  25  47  71 104 144 181 235 292 346 415
#     4  11  25  45  70 104 140 186 233 287 349 417
#     4  10  22  42  67  96 136 181 227 288 340 410
#
# _framework density 25.381526000000001
#
# number of rings (size 3 to 8) (size 9 to 14) (size 15 to 20)
#    0.000    1.000    1.667    4.000    4.667    2.000 
#    0.000    0.000    0.000    0.000    0.000    0.000 
#    0.000    0.000    0.000    0.000    0.000    0.000 
#
# Total GULP energy -66938.343980 kJ/mol
# GULP energy per Si atom -5578.195332 kJ/mol
# Density = 2.532376 g / cm^3
# Si number density = 25.381526 Si / 1000 Ang^3
#
#
#
# Elastic Constant Matrix: (Units=GPa)
#
#
# Indices 1 2 3 4 5 6 
#
# 1 140.9635 65.0967 64.0897 -6.4878 -43.9546 -9.8045
# 2 65.0967 200.2863 34.0727 -4.1518 -15.1914 7.0947
# 3 64.0897 34.0727 88.6138 24.9261 -49.6756 -3.7945
# 4 -6.4878 -4.1518 24.9261 50.7000 -18.1401 -12.1019
# 5 -43.9546 -15.1914 -49.6756 -18.1401 60.5399 13.7391
# 6 -9.8045 7.0947 -3.7945 -12.1019 13.7391 81.4275
#
#
#
# Elastic Compliance Matrix: (Units=1/GPa)
#
#
# Indices 1 2 3 4 5 6 
#
# 1 0.014318 -0.002679 -0.009193 0.008101 0.004146 0.002033
# 2 -0.002679 0.005983 -0.001045 0.000097 -0.001116 -0.000690
# 3 -0.009193 -0.001045 0.029763 -0.011475 0.014921 -0.003852
# 4 0.008101 0.000097 -0.011475 0.028882 0.004234 0.004010
# 5 0.004146 -0.001116 0.014921 0.004234 0.033611 -0.003750
# 6 0.002033 -0.000690 -0.003852 0.004010 -0.003750 0.013635
#
#
# Mechanical properties :
#
#
# Convention : Reuss Voigt Hill
#
# Bulk Modulus (GPa) = 41.27184 84.04241 62.65713
# Shear Modulus (GPa) = 31.22989 56.30713 43.76851
#
# Velocity S-wave (km/s) = 3.51154 4.71513 4.15712
# Velocity P-wave (km/s) = 5.72163 7.92634 6.91245
#
# Compressibility (1/GPa) = 0.02422960
#
# Stress axis : x y z
#
# Youngs Moduli (GPa) = 69.84277 167.13158 33.59925
#
# Poissons Ratio (x) = 0.44781 0.30886
# Poissons Ratio (y) = 0.18713 0.03512
# Poissons Ratio (z) = 0.64203 0.17468
#
# Static dielectric constant tensor:
#      x y z
#    x 2.057590 -0.109580 -0.088310 
#    y -0.109580 2.026820 0.098300 
#    z -0.088310 0.098300 2.289800 
# 
# From -- ./inp_files/135867.got.cif
#   From: 2010.05.17/outbox.cif.g08.bks.cpg/sg2_68_cif.got.tgz:135867.got - 2010.06.03 11:33:40.
