data_PCOD9029603
_publ_section_title
;
Structure prediction by ZEFSAII (Michael W. Deem and Ramdas Pophale) SiO2 
 PCOD9029603
Probable space group: P -1
;
_chemical_formula_sum "Si O2"
_cell_formula_units_Z 14
_cell_length_a 9.268881
_cell_length_b 9.458251
_cell_length_c 8.702724
_cell_angle_alpha 85.072648
_cell_angle_beta 67.923262
_cell_angle_gamma 64.854921
_cell_volume 637.525145
_symmetry_space_group_name_H-M "P -1"
_symmetry_group_IT_number 2
_symmetry_cell_setting 'triclinic'
loop_
_space_group_symop_operation_xyz
x,y,z
-x,-y,-z
loop_
_atom_site_type_symbol
_atom_site_label
_atom_site_fract_x
_atom_site_fract_y
_atom_site_fract_z
Si Si1 0.535101 0.165766 0.296864
Si Si2 0.582880 0.622939 0.967287
Si Si3 0.894483 0.923848 0.638305
Si Si4 0.945417 0.411212 0.899810
Si Si5 0.491374 0.905979 0.166292
Si Si6 0.102218 0.849405 0.865751
Si Si7 0.852336 0.662978 0.473678
O O1 0.513980 0.247452 0.131896
O O2 0.721060 0.152823 0.273291
O O3 0.356142 0.282348 0.440052
O O4 0.543691 0.992829 0.275364
O O5 0.783051 0.532746 0.859024
O O6 0.500000 0.500000 0.000000
O O7 0.579678 0.720869 0.113763
O O8 0.874792 0.794299 0.554001
O O9 0.983613 0.853499 0.769821
O O10 0.706199 0.055017 0.734215
O O11 0.000000 0.000000 0.500000
O O12 0.094421 0.329643 0.724496
O O13 0.877613 0.296721 0.022851
O O14 0.000000 0.500000 0.000000
O O15 0.500000 0.000000 0.000000
O O16 0.000000 0.000000 0.000000
O O17 0.000000 0.500000 0.500000
#
# Coordination Sequence:
#
# PCOD9029603 Si02
#       7
#     2   2   2   2   2   2   2
#     4  10  22  42  67  99 134 182 220 277 337 396
#     4  11  21  40  66  99 135 176 226 271 337 402
#     4  11  25  45  68  98 131 182 221 277 347 398
#     4  12  27  43  68 104 133 178 227 281 338 400
#     4   9  21  39  67  93 130 177 223 268 332 403
#     4  12  25  44  70 101 139 173 233 279 327 409
#     4  11  23  45  69  95 142 177 221 275 344 402
#
# _framework density 21.959917000000001
#
# number of rings (size 3 to 8) (size 9 to 14) (size 15 to 20)
#    0.000    1.143    2.857    3.429    8.000    0.000 
#    2.571    3.571    0.000    0.000    0.000    0.000 
#    0.000    0.000    0.000    0.000    0.000    0.000 
#
# Total GULP energy -78158.077757 kJ/mol
# GULP energy per Si atom -5582.719840 kJ/mol
# Density = 2.190994 g / cm^3
# Si number density = 21.959917 Si / 1000 Ang^3
#
#
#
# Elastic Constant Matrix: (Units=GPa)
#
#
# Indices 1 2 3 4 5 6 
#
# 1 101.8614 23.8980 37.5628 17.7598 -25.6848 11.7979
# 2 23.8980 86.1406 14.8629 18.6931 -15.8122 6.7495
# 3 37.5628 14.8629 104.4034 24.6187 -22.8025 5.5748
# 4 17.7598 18.6931 24.6187 32.3893 -4.9219 -1.8978
# 5 -25.6848 -15.8122 -22.8025 -4.9219 49.6316 -1.6023
# 6 11.7979 6.7495 5.5748 -1.8978 -1.6023 20.8182
#
#
#
# Elastic Compliance Matrix: (Units=1/GPa)
#
#
# Indices 1 2 3 4 5 6 
#
# 1 0.013811 -0.000863 -0.002149 -0.005071 0.005155 -0.007037
# 2 -0.000863 0.014606 0.001400 -0.008740 0.003818 -0.005124
# 3 -0.002149 0.001400 0.013542 -0.009435 0.004511 -0.003375
# 4 -0.005071 -0.008740 -0.009435 0.045846 -0.004808 0.012043
# 5 0.005155 0.003818 0.004511 -0.004808 0.025504 -0.003843
# 6 -0.007037 -0.005124 -0.003375 0.012043 -0.003843 0.055390
#
#
# Mechanical properties :
#
#
# Convention : Reuss Voigt Hill
#
# Bulk Modulus (GPa) = 25.81625 49.45029 37.63327
# Shear Modulus (GPa) = 27.05108 34.97327 31.01218
#
# Velocity S-wave (km/s) = 3.51356 3.99506 3.76203
# Velocity P-wave (km/s) = 5.31430 6.62178 6.00374
#
# Compressibility (1/GPa) = 0.03873529
#
# Stress axis : x y z
#
# Youngs Moduli (GPa) = 72.40516 68.46588 73.84191
#
# Poissons Ratio (x) = 0.05907 0.15867
# Poissons Ratio (y) = 0.06247 -0.10335
# Poissons Ratio (z) = 0.15559 -0.09582
#
# Static dielectric constant tensor:
#      x y z
#    x 1.935870 -0.100810 -0.053430 
#    y -0.100810 1.919290 0.019130 
#    z -0.053430 0.019130 1.885370 
# 
# From -- ./inp_files/158483.got.cif
#   From: 2010.05.17/outbox.cif.g08.bks.cpg/sg2_80_cif.got.tgz:158483.got - 2010.06.03 11:33:40.
