data_PCOD9029574
_publ_section_title
;
Structure prediction by ZEFSAII (Michael W. Deem and Ramdas Pophale) SiO2 
 PCOD9029574
Probable space group: P -1
;
_chemical_formula_sum "Si O2"
_cell_formula_units_Z 16
_cell_length_a 9.272118
_cell_length_b 9.525970
_cell_length_c 23.803831
_cell_angle_alpha 51.339473
_cell_angle_beta 29.328796
_cell_angle_gamma 63.843308
_cell_volume 773.983749
_symmetry_space_group_name_H-M "P -1"
_symmetry_group_IT_number 2
_symmetry_cell_setting 'triclinic'
loop_
_space_group_symop_operation_xyz
x,y,z
-x,-y,-z
loop_
_atom_site_type_symbol
_atom_site_label
_atom_site_fract_x
_atom_site_fract_y
_atom_site_fract_z
Si Si1 0.024859 0.999256 0.559326
Si Si2 0.656688 0.229084 0.263959
Si Si3 0.242153 0.506476 0.040325
Si Si4 0.910321 0.805740 0.112086
Si Si5 0.207698 0.705848 0.364089
Si Si6 0.061574 0.018293 0.117396
Si Si7 0.349383 0.406215 0.227447
Si Si8 0.269655 0.775076 0.198300
O O1 0.867113 0.782547 0.679166
O O2 0.385144 0.086511 0.425608
O O3 0.000000 0.000000 0.500000
O O4 0.854635 0.138265 0.611664
O O5 0.499194 0.359803 0.246717
O O6 0.930787 0.339045 0.183493
O O7 0.806997 0.120364 0.194395
O O8 0.133391 0.688339 0.045209
O O9 0.500000 0.500000 0.000000
O O10 0.388757 0.516878 0.926384
O O11 0.558640 0.702316 0.247711
O O12 0.948594 0.854337 0.152273
O O13 0.000000 0.000000 0.000000
O O14 0.164943 0.767634 0.299684
O O15 0.000000 0.500000 0.500000
O O16 0.152875 0.925361 0.165378
O O17 0.361976 0.156676 0.952716
O O18 0.178291 0.564697 0.257994
#
# Coordination Sequence:
#
# PCOD9029574 Si02
#       8
#     2   2   2   2   2   2   2   2
#     4  10  22  42  67  98 132 168 220 280 328 389
#     4  11  23  43  69  95 128 177 223 267 330 400
#     4  12  25  39  61  97 135 168 215 274 328 387
#     4  12  23  40  67  99 128 172 230 273 321 396
#     4  12  24  43  70 101 135 175 226 279 332 399
#     4  11  24  42  66  98 138 175 219 275 339 397
#     4  11  22  42  67  95 128 175 223 270 327 392
#     4  11  24  42  66  97 139 177 215 276 343 391
#
# _framework density 20.672270000000001
#
# number of rings (size 3 to 8) (size 9 to 14) (size 15 to 20)
#    0.000    0.750    2.500    7.125    1.750    0.000 
#    0.000    6.250    0.000    0.000    0.000    0.000 
#    0.000    0.000    0.000    0.000    0.000    0.000 
#
# Total GULP energy -89437.194339 kJ/mol
# GULP energy per Si atom -5589.824646 kJ/mol
# Density = 2.062522 g / cm^3
# Si number density = 20.672270 Si / 1000 Ang^3
#
#
#
# Elastic Constant Matrix: (Units=GPa)
#
#
# Indices 1 2 3 4 5 6 
#
# 1 75.5673 18.3035 39.5545 -5.0156 -1.5082 12.6794
# 2 18.3035 109.7147 21.8474 3.3226 7.4594 19.6779
# 3 39.5545 21.8474 102.3046 -12.4714 -12.7819 -14.7257
# 4 -5.0156 3.3226 -12.4714 30.0581 11.6714 -1.5498
# 5 -1.5082 7.4594 -12.7819 11.6714 35.9770 2.4539
# 6 12.6794 19.6779 -14.7257 -1.5498 2.4539 16.8944
#
#
#
# Elastic Compliance Matrix: (Units=1/GPa)
#
#
# Indices 1 2 3 4 5 6 
#
# 1 0.032885 0.010366 -0.024675 -0.007736 -0.003036 -0.058531
# 2 0.010366 0.018781 -0.015664 -0.007707 -0.003557 -0.043499
# 3 -0.024675 -0.015664 0.034685 0.013296 0.005626 0.067399
# 4 -0.007736 -0.007707 0.013296 0.044060 -0.010474 0.031935
# 5 -0.003036 -0.003557 0.005626 -0.010474 0.033427 0.005510
# 6 -0.058531 -0.043499 0.067399 0.031935 0.005510 0.214660
#
#
# Mechanical properties :
#
#
# Convention : Reuss Voigt Hill
#
# Bulk Modulus (GPa) = 37.87132 49.66640 43.76886
# Shear Modulus (GPa) = 11.17949 30.44467 20.81208
#
# Velocity S-wave (km/s) = 2.32803 3.84178 3.17640
# Velocity P-wave (km/s) = 5.05825 6.61489 5.88824
#
# Compressibility (1/GPa) = 0.02640520
#
# Stress axis : x y z
#
# Youngs Moduli (GPa) = 30.40873 53.24441 28.83073
#
# Poissons Ratio (x) = -0.55193 0.71141
# Poissons Ratio (y) = -0.31521 0.45160
# Poissons Ratio (z) = 0.75035 0.83401
#
# Static dielectric constant tensor:
#      x y z
#    x 1.829840 -0.057440 -0.059620 
#    y -0.057440 1.792930 -0.001990 
#    z -0.059620 -0.001990 1.773190 
# 
# From -- ./inp_files/357463.got.cif
#   From: 2010.05.17/outbox.cif.g08.bks.cpg/sg2_179_cif.got.tgz:357463.got - 2010.06.03 11:33:40.
