data_PCOD9029367
_publ_section_title
;
Structure prediction by ZEFSAII (Michael W. Deem and Ramdas Pophale) SiO2 
 PCOD9029367
Probable space group: P -1
;
_chemical_formula_sum "Si O2"
_cell_formula_units_Z 16
_cell_length_a 24.813552
_cell_length_b 6.375997
_cell_length_c 5.253936
_cell_angle_alpha 104.578429
_cell_angle_beta 78.608752
_cell_angle_gamma 123.461245
_cell_volume 669.357828
_symmetry_space_group_name_H-M "P -1"
_symmetry_group_IT_number 2
_symmetry_cell_setting 'triclinic'
loop_
_space_group_symop_operation_xyz
x,y,z
-x,-y,-z
loop_
_atom_site_type_symbol
_atom_site_label
_atom_site_fract_x
_atom_site_fract_y
_atom_site_fract_z
Si Si1 0.760275 0.894601 0.836945
Si Si2 0.361802 0.963473 0.530465
Si Si3 0.033039 0.704396 0.314500
Si Si4 0.613817 0.728969 0.903908
Si Si5 0.784162 0.208484 0.397163
Si Si6 0.537984 0.156434 0.762984
Si Si7 0.856415 0.731256 0.727356
Si Si8 0.057386 0.283307 0.936626
O O1 0.792609 0.106975 0.092085
O O2 0.777337 0.026074 0.582932
O O3 0.683227 0.759320 0.902583
O O4 0.788671 0.717359 0.805180
O O5 0.382217 0.175499 0.357490
O O6 0.284351 0.808947 0.566307
O O7 0.392431 0.808963 0.347780
O O8 0.389092 0.093192 0.820062
O O9 0.056586 0.541850 0.081344
O O10 0.000000 0.500000 0.500000
O O11 0.094861 0.991191 0.357531
O O12 0.973801 0.743527 0.317899
O O13 0.554831 0.440843 0.877676
O O14 0.840965 0.492730 0.494792
O O15 0.500000 0.000000 0.500000
O O16 0.500000 0.000000 0.000000
O O17 0.882835 0.702459 0.966552
O O18 0.000000 0.000000 0.000000
#
# Coordination Sequence:
#
# PCOD9029367 Si02
#       8
#     2   2   2   2   2   2   2   2
#     4  10  23  45  67 100 132 169 226 277 334 404
#     4  10  22  42  67  90 131 180 221 270 337 395
#     4  10  22  45  65  92 127 170 221 262 329 411
#     4  10  22  42  67  90 133 180 218 274 334 391
#     4  10  23  45  67  98 132 172 222 276 338 401
#     4  12  25  38  61 101 135 173 231 276 322 391
#     4  11  22  43  67 100 129 169 215 284 338 396
#     4   9  21  43  62  90 123 166 213 260 326 393
#
# _framework density 23.903507999999999
#
# number of rings (size 3 to 8) (size 9 to 14) (size 15 to 20)
#    0.000    1.750    0.000    3.000    0.000    6.000 
#   29.250    7.500    0.000    0.000    0.000    0.000 
#    0.000    0.000    0.000    0.000    0.000    0.000 
#
# Total GULP energy -89263.552088 kJ/mol
# GULP energy per Si atom -5578.972006 kJ/mol
# Density = 2.384910 g / cm^3
# Si number density = 23.903508 Si / 1000 Ang^3
#
#
#
# Elastic Constant Matrix: (Units=GPa)
#
#
# Indices 1 2 3 4 5 6 
#
# 1 87.8349 1.9167 6.8963 1.2200 1.8479 -19.5012
# 2 1.9167 121.5866 24.1540 14.5239 10.8532 10.3575
# 3 6.8963 24.1540 91.5276 -5.3109 16.1657 7.4561
# 4 1.2200 14.5239 -5.3109 39.1573 -6.1907 1.5345
# 5 1.8479 10.8532 16.1657 -6.1907 33.6393 -6.5429
# 6 -19.5012 10.3575 7.4561 1.5345 -6.5429 26.0003
#
#
#
# Elastic Compliance Matrix: (Units=1/GPa)
#
#
# Indices 1 2 3 4 5 6 
#
# 1 0.014352 -0.001060 -0.002406 -0.000386 0.003105 0.012681
# 2 -0.001060 0.009878 -0.001640 -0.004306 -0.004114 -0.005041
# 3 -0.002406 -0.001640 0.013390 0.001693 -0.006784 -0.006798
# 4 -0.000386 -0.004306 0.001693 0.028288 0.005952 0.000768
# 5 0.003105 -0.004114 -0.006784 0.005952 0.038190 0.015172
# 6 0.012681 -0.005041 -0.006798 0.000768 0.015172 0.055703
#
#
# Mechanical properties :
#
#
# Convention : Reuss Voigt Hill
#
# Bulk Modulus (GPa) = 36.48212 40.76478 38.62345
# Shear Modulus (GPa) = 27.90994 37.62486 32.76740
#
# Velocity S-wave (km/s) = 3.42074 3.97171 3.70647
# Velocity P-wave (km/s) = 5.55853 6.17443 5.87456
#
# Compressibility (1/GPa) = 0.02741069
#
# Stress axis : x y z
#
# Youngs Moduli (GPa) = 69.67434 101.23517 74.68337
#
# Poissons Ratio (x) = 0.10727 0.17966
# Poissons Ratio (y) = 0.07383 0.12245
# Poissons Ratio (z) = 0.16761 0.16599
#
# Static dielectric constant tensor:
#      x y z
#    x 2.723260 -0.521870 -1.433890 
#    y -0.521870 2.343150 0.868770 
#    z -1.433890 0.868770 4.780830 
# 
# From -- ./inp_files/14397.got.cif
#   From: 2010.05.17/outbox.cif.g08.bks.cpg/sg2_8_cif.got.tgz:14397.got - 2010.06.03 11:33:40.
