data_PCOD9029150
_publ_section_title
;
Structure prediction by ZEFSAII (Michael W. Deem and Ramdas Pophale) SiO2 
 PCOD9029150
Probable space group: P -1
;
_chemical_formula_sum "Si O2"
_cell_formula_units_Z 16
_cell_length_a 8.998486
_cell_length_b 25.042416
_cell_length_c 22.076808
_cell_angle_alpha 161.982149
_cell_angle_beta 27.866257
_cell_angle_gamma 153.286396
_cell_volume 670.000389
_symmetry_space_group_name_H-M "P -1"
_symmetry_group_IT_number 2
_symmetry_cell_setting 'triclinic'
loop_
_space_group_symop_operation_xyz
x,y,z
-x,-y,-z
loop_
_atom_site_type_symbol
_atom_site_label
_atom_site_fract_x
_atom_site_fract_y
_atom_site_fract_z
Si Si1 0.623842 0.704105 0.487706
Si Si2 0.931865 0.178317 0.237448
Si Si3 0.285752 0.968303 0.464334
Si Si4 0.736566 0.620122 0.825180
Si Si5 0.565665 0.665748 0.067617
Si Si6 0.578183 0.464371 0.502365
Si Si7 0.507940 0.070972 0.784391
Si Si8 0.099648 0.306266 0.911524
O O1 0.297300 0.766957 0.669435
O O2 0.488819 0.520951 0.296365
O O3 0.689259 0.667713 0.495020
O O4 0.938033 0.854231 0.502036
O O5 0.277922 0.341106 0.304341
O O6 0.704496 0.128586 0.327072
O O7 0.000000 0.000000 0.000000
O O8 0.536883 0.867521 0.289594
O O9 0.281673 0.930447 0.353101
O O10 0.343378 0.184597 0.682740
O O11 0.097644 0.600617 0.683521
O O12 0.554848 0.583491 0.916320
O O13 0.749409 0.824198 0.024437
O O14 0.900633 0.682017 0.003086
O O15 0.259650 0.510546 0.046297
O O16 0.500000 0.500000 0.500000
O O17 0.760623 0.187572 0.871080
#
# Coordination Sequence:
#
# PCOD9029150 Si02
#       8
#     2   2   2   2   2   2   2   2
#     4  11  22  43  68  92 129 175 222 272 329 401
#     4  11  23  42  69  97 130 175 224 277 328 396
#     4  11  23  41  65  98 137 176 225 273 331 406
#     4  10  22  42  66  94 129 170 223 269 331 403
#     4  10  24  39  62  98 141 179 211 279 335 399
#     4  11  26  46  68  96 129 176 221 283 341 399
#     4  11  22  40  68 100 129 176 223 275 325 401
#     4  11  22  39  62  98 137 179 221 268 339 391
#
# _framework density 23.880582
#
# number of rings (size 3 to 8) (size 9 to 14) (size 15 to 20)
#    0.000    1.250    1.250    5.250    3.500    6.000 
#    4.500    1.250    0.000    0.000    0.000    0.000 
#    0.000    0.000    0.000    0.000    0.000    0.000 
#
# Total GULP energy -89450.490481 kJ/mol
# GULP energy per Si atom -5590.655655 kJ/mol
# Density = 2.382623 g / cm^3
# Si number density = 23.880582 Si / 1000 Ang^3
#
#
#
# Elastic Constant Matrix: (Units=GPa)
#
#
# Indices 1 2 3 4 5 6 
#
# 1 143.0758 32.2523 24.3135 -8.7069 -3.8326 -35.2576
# 2 32.2523 85.5908 12.3491 4.7351 3.7143 -24.8461
# 3 24.3135 12.3491 102.9977 3.8321 -5.4910 -13.5405
# 4 -8.7069 4.7351 3.8321 26.3175 -6.8551 -0.5192
# 5 -3.8326 3.7143 -5.4910 -6.8551 29.0897 1.5425
# 6 -35.2576 -24.8461 -13.5405 -0.5192 1.5425 37.7977
#
#
#
# Elastic Compliance Matrix: (Units=1/GPa)
#
#
# Indices 1 2 3 4 5 6 
#
# 1 0.009734 -0.001620 -0.001167 0.004323 0.001886 0.007579
# 2 -0.001620 0.015169 -0.000373 -0.003984 -0.003606 0.008418
# 3 -0.001167 -0.000373 0.010465 -0.001430 0.001408 0.002337
# 4 0.004323 -0.003984 -0.001430 0.043223 0.010938 0.001048
# 5 0.001886 -0.003606 0.001408 0.010938 0.038009 -0.001508
# 6 0.007579 0.008418 0.002337 0.001048 -0.001508 0.039973
#
#
# Mechanical properties :
#
#
# Convention : Reuss Voigt Hill
#
# Bulk Modulus (GPa) = 34.42952 52.16601 43.29776
# Shear Modulus (GPa) = 28.97259 36.15759 32.56509
#
# Velocity S-wave (km/s) = 3.48692 3.89536 3.69679
# Velocity P-wave (km/s) = 5.53716 6.49028 6.03258
#
# Compressibility (1/GPa) = 0.02904485
#
# Stress axis : x y z
#
# Youngs Moduli (GPa) = 102.73006 65.92567 95.55780
#
# Poissons Ratio (x) = 0.10683 0.11156
# Poissons Ratio (y) = 0.16647 0.03569
# Poissons Ratio (z) = 0.11994 0.02462
#
# Static dielectric constant tensor:
#      x y z
#    x 1.942980 -0.024230 -0.005630 
#    y -0.024230 1.919290 -0.034760 
#    z -0.005630 -0.034760 1.957500 
# 
# From -- ./inp_files/315512.got.cif
#   From: 2010.05.17/outbox.cif.g08.bks.cpg/sg2_158_cif.got.tgz:315512.got - 2010.06.03 11:33:40.
