data_PCOD9029584
_publ_section_title
;
Structure prediction by ZEFSAII (Michael W. Deem and Ramdas Pophale) SiO2 
 PCOD9029584
Probable space group: P -1
;
_chemical_formula_sum "Si O2"
_cell_formula_units_Z 14
_cell_length_a 13.803127
_cell_length_b 6.961660
_cell_length_c 10.129416
_cell_angle_alpha 131.309827
_cell_angle_beta 57.166293
_cell_angle_gamma 122.233204
_cell_volume 590.129222
_symmetry_space_group_name_H-M "P -1"
_symmetry_group_IT_number 2
_symmetry_cell_setting 'triclinic'
loop_
_space_group_symop_operation_xyz
x,y,z
-x,-y,-z
loop_
_atom_site_type_symbol
_atom_site_label
_atom_site_fract_x
_atom_site_fract_y
_atom_site_fract_z
Si Si1 0.519472 0.279393 0.986765
Si Si2 0.269072 0.102617 0.197352
Si Si3 0.921111 0.333097 0.703563
Si Si4 0.888081 0.450906 0.160938
Si Si5 0.296581 0.014890 0.404542
Si Si6 0.317932 0.387907 0.778512
Si Si7 0.163540 0.177557 0.054076
O O1 0.618158 0.157032 0.792065
O O2 0.388581 0.084202 0.026025
O O3 0.500000 0.500000 0.000000
O O4 0.567493 0.403632 0.149781
O O5 0.224688 0.481622 0.794358
O O6 0.210712 0.250737 0.201245
O O7 0.301259 0.220828 0.372838
O O8 0.843956 0.163332 0.563101
O O9 0.053149 0.353047 0.670017
O O10 0.826163 0.175532 0.815077
O O11 0.925897 0.641196 0.820005
O O12 0.863076 0.139915 0.072461
O O13 0.000000 0.500000 0.000000
O O14 0.346066 0.157720 0.566579
O O15 0.252093 0.273786 0.910896
#
# Coordination Sequence:
#
# PCOD9029584 Si02
#       7
#     2   2   2   2   2   2   2
#     4  12  22  45  74 101 138 183 230 283 346 410
#     4  10  22  42  70  96 137 182 224 281 343 403
#     4  10  22  42  67  98 137 178 229 276 342 397
#     4  12  22  41  70 103 135 182 232 280 343 407
#     4  10  24  46  66 102 146 176 229 283 345 406
#     4  12  26  44  68 108 140 177 235 281 340 419
#     4  12  20  42  71  99 137 180 228 281 341 404
#
# _framework density 23.723618999999999
#
# number of rings (size 3 to 8) (size 9 to 14) (size 15 to 20)
#    0.857    0.000    5.714    1.714    0.000    1.714 
#    5.143    0.714    0.000    0.000    0.000    0.000 
#    0.000    0.000    0.000    0.000    0.000    0.000 
#
# Total GULP energy -77967.129175 kJ/mol
# GULP energy per Si atom -5569.080655 kJ/mol
# Density = 2.366962 g / cm^3
# Si number density = 23.723619 Si / 1000 Ang^3
#
#
#
# Elastic Constant Matrix: (Units=GPa)
#
#
# Indices 1 2 3 4 5 6 
#
# 1 125.7982 39.1592 19.8504 4.5538 22.7966 -15.8916
# 2 39.1592 121.2796 -7.3400 -0.7703 7.8152 -19.2541
# 3 19.8504 -7.3400 91.2660 -3.1701 15.1836 -18.6958
# 4 4.5538 -0.7703 -3.1701 23.1243 -3.4922 12.7145
# 5 22.7966 7.8152 15.1836 -3.4922 27.3116 -3.4668
# 6 -15.8916 -19.2541 -18.6958 12.7145 -3.4668 27.5492
#
#
#
# Elastic Compliance Matrix: (Units=1/GPa)
#
#
# Indices 1 2 3 4 5 6 
#
# 1 0.011469 -0.001865 0.000258 -0.008114 -0.009195 0.008075
# 2 -0.001865 0.011081 0.003977 -0.005522 -0.003068 0.011531
# 3 0.000258 0.003977 0.015772 -0.008034 -0.009093 0.016196
# 4 -0.008114 -0.005522 -0.008034 0.070452 0.016182 -0.044470
# 5 -0.009195 -0.003068 -0.009093 0.016182 0.050420 -0.014743
# 6 0.008075 0.011531 0.016196 -0.044470 -0.014743 0.078675
#
#
# Mechanical properties :
#
#
# Convention : Reuss Voigt Hill
#
# Bulk Modulus (GPa) = 23.22143 49.07590 36.14866
# Shear Modulus (GPa) = 20.20335 34.70864 27.45599
#
# Velocity S-wave (km/s) = 2.92141 3.82912 3.40564
# Velocity P-wave (km/s) = 4.60316 6.34673 5.54392
#
# Compressibility (1/GPa) = 0.04306366
#
# Stress axis : x y z
#
# Youngs Moduli (GPa) = 87.19024 90.24142 63.40280
#
# Poissons Ratio (x) = 0.16827 -0.01634
# Poissons Ratio (y) = 0.16258 -0.25218
# Poissons Ratio (z) = -0.02246 -0.35893
#
# Static dielectric constant tensor:
#      x y z
#    x 1.955230 0.002480 0.064040 
#    y 0.002480 1.931780 0.038760 
#    z 0.064040 0.038760 1.987060 
# 
# From -- ./inp_files/321460.got.cif
#   From: 2010.05.17/outbox.cif.g08.bks.cpg/sg2_161_cif.got.tgz:321460.got - 2010.06.03 11:33:40.
