data_PCOD9029083
_publ_section_title
;
Structure prediction by ZEFSAII (Michael W. Deem and Ramdas Pophale) SiO2 
 PCOD9029083
Probable space group: P -1
;
_chemical_formula_sum "Si O2"
_cell_formula_units_Z 16
_cell_length_a 8.874679
_cell_length_b 24.845257
_cell_length_c 9.089004
_cell_angle_alpha 49.252029
_cell_angle_beta 47.146449
_cell_angle_gamma 31.825013
_cell_volume 760.070760
_symmetry_space_group_name_H-M "P -1"
_symmetry_group_IT_number 2
_symmetry_cell_setting 'triclinic'
loop_
_space_group_symop_operation_xyz
x,y,z
-x,-y,-z
loop_
_atom_site_type_symbol
_atom_site_label
_atom_site_fract_x
_atom_site_fract_y
_atom_site_fract_z
Si Si1 0.474377 0.265464 0.525761
Si Si2 0.187107 0.080187 0.926369
Si Si3 0.240017 0.725017 0.924106
Si Si4 0.323407 0.936897 0.329911
Si Si5 0.720057 0.232880 0.726515
Si Si6 0.187553 0.586688 0.349854
Si Si7 0.812769 0.362136 0.399494
Si Si8 0.232069 0.379054 0.025216
O O1 0.697289 0.265147 0.299537
O O2 0.502790 0.181311 0.581109
O O3 0.585129 0.228132 0.685115
O O4 0.123316 0.374147 0.551446
O O5 0.477054 0.053883 0.735831
O O6 0.941425 0.135504 0.862573
O O7 0.031420 0.166639 0.005940
O O8 0.273939 0.984969 0.116613
O O9 0.218833 0.646957 0.113769
O O10 0.536486 0.679710 0.889718
O O11 0.000000 0.000000 0.500000
O O12 0.891898 0.260371 0.513703
O O13 0.440541 0.335230 0.823451
O O14 0.484644 0.463430 0.371005
O O15 0.179470 0.618773 0.465924
O O16 0.050270 0.352832 0.180743
O O17 0.000000 0.500000 0.000000
#
# Coordination Sequence:
#
# PCOD9029083 Si02
#       8
#     2   2   2   2   2   2   2   2
#     4  12  25  40  61  92 130 161 198 259 319 357
#     4  10  22  42  66  90 119 154 210 254 297 377
#     4  11  20  37  63  90 120 161 207 252 295 364
#     4  11  22  41  71  93 111 157 209 250 307 373
#     4  11  26  41  58  95 132 160 200 257 309 358
#     4  11  21  37  64  89 124 165 213 254 290 362
#     4  11  20  37  62  91 120 170 213 248 295 359
#     4  11  20  38  65  90 115 169 220 245 290 364
#
# _framework density 21.050673
#
# number of rings (size 3 to 8) (size 9 to 14) (size 15 to 20)
#    0.000    1.000    7.500    0.750    0.000    2.000 
#    0.000    1.875    0.000    0.000    0.000    0.000 
#    0.000    0.000    0.000    0.000    0.000    0.000 
#
# Total GULP energy -89367.852653 kJ/mol
# GULP energy per Si atom -5585.490791 kJ/mol
# Density = 2.100276 g / cm^3
# Si number density = 21.050673 Si / 1000 Ang^3
#
#
#
# Elastic Constant Matrix: (Units=GPa)
#
#
# Indices 1 2 3 4 5 6 
#
# 1 39.2845 1.6470 18.8571 14.4495 6.5315 -20.0687
# 2 1.6470 56.0151 15.7268 -0.3501 0.5310 -25.4682
# 3 18.8571 15.7268 101.3862 -2.6679 -10.0745 -12.6097
# 4 14.4495 -0.3501 -2.6679 28.1399 -4.7019 -11.3670
# 5 6.5315 0.5310 -10.0745 -4.7019 32.7650 -0.2815
# 6 -20.0687 -25.4682 -12.6097 -11.3670 -0.2815 24.5328
#
#
#
# Elastic Compliance Matrix: (Units=1/GPa)
#
#
# Indices 1 2 3 4 5 6 
#
# 1 0.133695 0.090569 -0.017454 0.004941 -0.031090 0.196351
# 2 0.090569 0.105093 -0.010436 0.027887 -0.017328 0.190547
# 3 -0.017454 -0.010436 0.013792 0.005318 0.008520 -0.015461
# 4 0.004941 0.027887 0.005318 0.061420 0.009565 0.064293
# 5 -0.031090 -0.017328 0.008520 0.009565 0.040698 -0.034144
# 6 0.196351 0.190547 -0.015461 0.064293 -0.034144 0.420646
#
#
# Mechanical properties :
#
#
# Convention : Reuss Voigt Hill
#
# Bulk Modulus (GPa) = 2.64594 29.90529 16.27561
# Shear Modulus (GPa) = 6.44359 27.78454 17.11407
#
# Velocity S-wave (km/s) = 1.75147 3.63697 2.85440
# Velocity P-wave (km/s) = 2.31297 5.64570 4.31415
#
# Compressibility (1/GPa) = 0.37793820
#
# Stress axis : x y z
#
# Youngs Moduli (GPa) = 7.47971 9.51537 72.50593
#
# Poissons Ratio (x) = -0.86180 1.26551
# Poissons Ratio (y) = -0.67743 0.75669
# Poissons Ratio (z) = 0.13055 0.09930
#
# Static dielectric constant tensor:
#      x y z
#    x 1.741230 -0.013020 0.010900 
#    y -0.013020 1.770270 0.037340 
#    z 0.010900 0.037340 1.908980 
# 
# From -- ./inp_files/215273.got.cif
#   From: 2010.05.17/outbox.cif.g08.bks.cpg/sg2_108_cif.got.tgz:215273.got - 2010.06.03 11:33:40.
