data_PCOD9029027
_publ_section_title
;
Structure prediction by ZEFSAII (Michael W. Deem and Ramdas Pophale) SiO2 
 PCOD9029027
Probable space group: P -1
;
_chemical_formula_sum "Si O2"
_cell_formula_units_Z 14
_cell_length_a 18.112367
_cell_length_b 8.552638
_cell_length_c 5.154046
_cell_angle_alpha 55.907678
_cell_angle_beta 75.862854
_cell_angle_gamma 102.548885
_cell_volume 575.436361
_symmetry_space_group_name_H-M "P -1"
_symmetry_group_IT_number 2
_symmetry_cell_setting 'triclinic'
loop_
_space_group_symop_operation_xyz
x,y,z
-x,-y,-z
loop_
_atom_site_type_symbol
_atom_site_label
_atom_site_fract_x
_atom_site_fract_y
_atom_site_fract_z
Si Si1 0.380857 0.350402 0.389649
Si Si2 0.942910 0.900519 0.387964
Si Si3 0.519756 0.218729 0.422968
Si Si4 0.184783 0.775349 0.408437
Si Si5 0.313153 0.583681 0.611741
Si Si6 0.237421 0.165093 0.323122
Si Si7 0.914704 0.433212 0.809423
O O1 0.438278 0.249167 0.564578
O O2 0.327114 0.428213 0.545585
O O3 0.315742 0.175184 0.414721
O O4 0.438332 0.573068 0.989498
O O5 0.857779 0.927922 0.402397
O O6 0.913960 0.654648 0.646486
O O7 0.000000 0.000000 0.500000
O O8 0.000000 0.000000 0.000000
O O9 0.592654 0.253709 0.536213
O O10 0.500000 0.000000 0.500000
O O11 0.254186 0.689527 0.481004
O O12 0.155202 0.716213 0.195244
O O13 0.225380 0.020153 0.217071
O O14 0.107308 0.666804 0.787925
O O15 0.264835 0.413126 0.033204
O O16 0.000000 0.500000 0.500000
#
# Coordination Sequence:
#
# PCOD9029027 Si02
#       7
#     2   2   2   2   2   2   2
#     4  10  23  41  68  96 141 178 228 286 342 423
#     4  12  25  43  70  99 136 184 231 288 347 405
#     4  10  22  42  66 101 137 177 230 282 351 413
#     4  12  26  43  70 100 139 183 230 289 346 410
#     4  11  24  42  68 100 139 183 229 291 343 423
#     4  11  25  43  66 100 136 182 232 283 351 412
#     4  12  25  46  67 101 139 177 238 293 344 413
#
# _framework density 24.329360000000001
#
# number of rings (size 3 to 8) (size 9 to 14) (size 15 to 20)
#    0.000    0.857    1.429    5.143    6.000    1.714 
#    0.000    0.000    0.000    0.000    0.000    0.000 
#    0.000    0.000    0.000    0.000    0.000    0.000 
#
# Total GULP energy -78221.044392 kJ/mol
# GULP energy per Si atom -5587.217457 kJ/mol
# Density = 2.427399 g / cm^3
# Si number density = 24.329360 Si / 1000 Ang^3
#
#
#
# Elastic Constant Matrix: (Units=GPa)
#
#
# Indices 1 2 3 4 5 6 
#
# 1 125.0280 29.7201 19.8569 -10.9761 -16.7767 -6.6729
# 2 29.7201 160.6325 27.3467 -22.8827 -1.8412 13.6777
# 3 19.8569 27.3467 68.7437 -0.5977 -5.2530 8.0219
# 4 -10.9761 -22.8827 -0.5977 41.1395 -3.2807 1.1751
# 5 -16.7767 -1.8412 -5.2530 -3.2807 29.0440 3.1388
# 6 -6.6729 13.6777 8.0219 1.1751 3.1388 44.1717
#
#
#
# Elastic Compliance Matrix: (Units=1/GPa)
#
#
# Indices 1 2 3 4 5 6 
#
# 1 0.009595 -0.001194 -0.002091 0.002225 0.005148 0.001774
# 2 -0.001194 0.007602 -0.002384 0.003942 0.000045 -0.002210
# 3 -0.002091 -0.002384 0.016532 -0.001427 0.001758 -0.002667
# 4 0.002225 0.003942 -0.001427 0.027485 0.004563 -0.001681
# 5 0.005148 0.000045 0.001758 0.004563 0.038501 -0.002413
# 6 0.001774 -0.002210 -0.002667 -0.001681 -0.002413 0.024292
#
#
# Mechanical properties :
#
#
# Convention : Reuss Voigt Hill
#
# Bulk Modulus (GPa) = 44.65896 56.47240 50.56568
# Shear Modulus (GPa) = 35.01176 41.36973 38.19075
#
# Velocity S-wave (km/s) = 3.79763 4.12807 3.96629
# Velocity P-wave (km/s) = 6.13394 6.78110 6.46562
#
# Compressibility (1/GPa) = 0.02239192
#
# Stress axis : x y z
#
# Youngs Moduli (GPa) = 104.22113 131.53718 60.48827
#
# Poissons Ratio (x) = 0.15711 0.12646
# Poissons Ratio (y) = 0.12448 0.14419
# Poissons Ratio (z) = 0.21789 0.31355
#
# Static dielectric constant tensor:
#      x y z
#    x 1.967530 0.002190 -0.057010 
#    y 0.002190 1.901560 0.062950 
#    z -0.057010 0.062950 2.098520 
# 
# From -- ./inp_files/48502.got.cif
#   From: 2010.05.17/outbox.cif.g08.bks.cpg/sg2_25_cif.got.tgz:48502.got - 2010.06.03 11:33:40.
