data_PCOD9029460
_publ_section_title
;
Structure prediction by ZEFSAII (Michael W. Deem and Ramdas Pophale) SiO2 
 PCOD9029460
Probable space group: P -1
;
_chemical_formula_sum "Si O2"
_cell_formula_units_Z 14
_cell_length_a 8.923174
_cell_length_b 14.770236
_cell_length_c 9.035741
_cell_angle_alpha 120.713189
_cell_angle_beta 98.229884
_cell_angle_gamma 43.379815
_cell_volume 648.641113
_symmetry_space_group_name_H-M "P -1"
_symmetry_group_IT_number 2
_symmetry_cell_setting 'triclinic'
loop_
_space_group_symop_operation_xyz
x,y,z
-x,-y,-z
loop_
_atom_site_type_symbol
_atom_site_label
_atom_site_fract_x
_atom_site_fract_y
_atom_site_fract_z
Si Si1 0.336650 0.187154 0.086250
Si Si2 0.301216 0.910584 0.758232
Si Si3 0.078227 0.808770 0.551403
Si Si4 0.404345 0.936266 0.475585
Si Si5 0.050609 0.753230 0.831005
Si Si6 0.450649 0.482256 0.141572
Si Si7 0.281004 0.342721 0.921207
O O1 0.452795 0.218305 0.224682
O O2 0.074193 0.288483 0.171437
O O3 0.347713 0.215934 0.942287
O O4 0.500000 0.000000 0.000000
O O5 0.214083 0.843168 0.640729
O O6 0.340520 0.958089 0.655944
O O7 0.102008 0.071769 0.967214
O O8 0.035989 0.771478 0.668277
O O9 0.234276 0.657620 0.334706
O O10 0.829120 0.964672 0.569117
O O11 0.603559 0.747733 0.294615
O O12 0.500000 0.000000 0.500000
O O13 0.316485 0.623193 0.815874
O O14 0.500000 0.500000 0.000000
O O15 0.386766 0.394383 0.040447
O O16 0.000000 0.500000 0.000000
#
# Coordination Sequence:
#
# PCOD9029460 Si02
#       7
#     2   2   2   2   2   2   2
#     4  10  22  42  67  95 129 171 216 266 324 388
#     4  11  22  40  65  94 125 169 219 270 322 388
#     4  12  24  41  64  94 128 174 221 266 323 394
#     4  12  23  41  66  96 128 170 220 270 325 393
#     4  11  22  41  64  92 127 168 216 274 326 383
#     4  12  25  43  63  94 135 176 217 272 329 388
#     4  12  25  44  68  99 134 174 217 272 332 388
#
# _framework density 21.583586
#
# number of rings (size 3 to 8) (size 9 to 14) (size 15 to 20)
#    0.000    0.571    0.000   10.714    0.000    0.000 
#    0.000    2.143    0.000    0.000    0.000    0.000 
#    0.000    0.000    0.000    0.000    0.000    0.000 
#
# Total GULP energy -78389.262881 kJ/mol
# GULP energy per Si atom -5599.233063 kJ/mol
# Density = 2.153446 g / cm^3
# Si number density = 21.583586 Si / 1000 Ang^3
#
#
#
# Elastic Constant Matrix: (Units=GPa)
#
#
# Indices 1 2 3 4 5 6 
#
# 1 107.0046 -0.5627 14.7575 5.9900 5.4204 -7.3318
# 2 -0.5627 68.4291 15.6610 -8.1945 -12.9151 -11.8015
# 3 14.7575 15.6610 129.4051 3.3581 -19.9253 6.2433
# 4 5.9900 -8.1945 3.3581 42.0138 4.5131 -9.4583
# 5 5.4204 -12.9151 -19.9253 4.5131 39.5837 -9.7816
# 6 -7.3318 -11.8015 6.2433 -9.4583 -9.7816 46.9756
#
#
#
# Elastic Compliance Matrix: (Units=1/GPa)
#
#
# Indices 1 2 3 4 5 6 
#
# 1 0.009754 0.000241 -0.001425 -0.000771 -0.001568 0.001291
# 2 0.000241 0.017903 -0.001698 0.004496 0.006158 0.006949
# 3 -0.001425 -0.001698 0.008804 -0.001549 0.003925 -0.001314
# 4 -0.000771 0.004496 -0.001549 0.026422 -0.000638 0.006402
# 5 -0.001568 0.006158 0.003925 -0.000638 0.031307 0.007171
# 6 0.001291 0.006949 -0.001314 0.006402 0.007171 0.026192
#
#
# Mechanical properties :
#
#
# Convention : Reuss Voigt Hill
#
# Bulk Modulus (GPa) = 32.57699 40.50559 36.54129
# Shear Modulus (GPa) = 36.66261 44.04684 40.35472
#
# Velocity S-wave (km/s) = 4.12592 4.52237 4.32869
# Velocity P-wave (km/s) = 6.15011 6.78799 6.47690
#
# Compressibility (1/GPa) = 0.03069652
#
# Stress axis : x y z
#
# Youngs Moduli (GPa) = 102.51987 55.85569 113.59048
#
# Poissons Ratio (x) = -0.01345 0.16189
# Poissons Ratio (y) = -0.02468 0.19286
# Poissons Ratio (z) = 0.14611 0.09484
#
# Static dielectric constant tensor:
#      x y z
#    x 1.794660 0.005160 0.011120 
#    y 0.005160 1.772220 0.011690 
#    z 0.011120 0.011690 1.779600 
# 
# From -- ./inp_files/153891.got.cif
#   From: 2010.05.17/outbox.cif.g08.bks.cpg/sg2_77_cif.got.tgz:153891.got - 2010.06.03 11:33:40.
