data_PCOD9029290
_publ_section_title
;
Structure prediction by ZEFSAII (Michael W. Deem and Ramdas Pophale) SiO2 
 PCOD9029290
Probable space group: P -1
;
_chemical_formula_sum "Si O2"
_cell_formula_units_Z 16
_cell_length_a 5.155387
_cell_length_b 16.725428
_cell_length_c 8.875120
_cell_angle_alpha 92.594148
_cell_angle_beta 77.503035
_cell_angle_gamma 122.141357
_cell_volume 630.365140
_symmetry_space_group_name_H-M "P -1"
_symmetry_group_IT_number 2
_symmetry_cell_setting 'triclinic'
loop_
_space_group_symop_operation_xyz
x,y,z
-x,-y,-z
loop_
_atom_site_type_symbol
_atom_site_label
_atom_site_fract_x
_atom_site_fract_y
_atom_site_fract_z
Si Si1 0.830147 0.749787 0.432252
Si Si2 0.466467 0.124784 0.537994
Si Si3 0.777450 0.599743 0.897782
Si Si4 0.513484 0.013033 0.252216
Si Si5 0.317407 0.290952 0.891689
Si Si6 0.794203 0.434077 0.382069
Si Si7 0.003842 0.570526 0.132075
Si Si8 0.976336 0.086690 0.956639
O O1 0.732378 0.827285 0.451784
O O2 0.850056 0.726647 0.253771
O O3 0.538887 0.655543 0.536641
O O4 0.165732 0.793393 0.474854
O O5 0.422687 0.063053 0.391545
O O6 0.382609 0.050915 0.679169
O O7 0.985044 0.593615 0.742587
O O8 0.500000 0.500000 0.000000
O O9 0.677092 0.675278 0.926962
O O10 0.969095 0.641415 0.036423
O O11 0.235445 0.945332 0.168200
O O12 0.777399 0.093361 0.118678
O O13 0.675574 0.373739 0.813478
O O14 0.280642 0.189349 0.908510
O O15 0.000000 0.500000 0.500000
O O16 0.741760 0.500039 0.277231
O O17 0.000000 0.500000 0.000000
O O18 0.000000 0.000000 0.000000
#
# Coordination Sequence:
#
# PCOD9029290 Si02
#       8
#     2   2   2   2   2   2   2   2
#     4  12  27  46  74 112 147 194 258 302 385 443
#     4  11  27  49  75 106 150 196 245 319 381 451
#     4  11  23  43  72  99 144 195 248 303 370 441
#     4  10  25  46  72 105 146 190 250 313 387 442
#     4  12  24  44  73 103 146 195 249 308 381 446
#     4  11  23  45  69 108 146 191 244 304 369 444
#     4  10  22  42  66  99 140 190 240 296 368 435
#     4  11  25  45  74 106 145 194 257 311 379 452
#
# _framework density 25.382114999999999
#
# number of rings (size 3 to 8) (size 9 to 14) (size 15 to 20)
#    0.000    1.000    5.000    0.750    5.250    6.000 
#    0.000    1.875    0.000    0.000    0.000    0.000 
#    0.000    0.000    0.000    0.000    0.000    0.000 
#
# Total GULP energy -89274.536278 kJ/mol
# GULP energy per Si atom -5579.658517 kJ/mol
# Density = 2.532434 g / cm^3
# Si number density = 25.382115 Si / 1000 Ang^3
#
#
#
# Elastic Constant Matrix: (Units=GPa)
#
#
# Indices 1 2 3 4 5 6 
#
# 1 -77.8061 -63.5621 21.7333 -7.9753 -21.4609 65.5198
# 2 -63.5621 87.6498 48.6559 -9.8045 -23.0023 36.2080
# 3 21.7333 48.6559 149.1494 6.1196 -12.5083 -14.5288
# 4 -7.9753 -9.8045 6.1196 35.7432 -6.1563 -7.1144
# 5 -21.4609 -23.0023 -12.5083 -6.1563 35.2742 8.8515
# 6 65.5198 36.2080 -14.5288 -7.1144 8.8515 -10.6719
#
#
#
# Elastic Compliance Matrix: (Units=1/GPa)
#
#
# Indices 1 2 3 4 5 6 
#
# 1 0.006172 -0.004078 0.001847 0.003094 -0.002149 0.017695
# 2 -0.004078 0.008219 -0.001620 0.002813 0.001653 0.004552
# 3 0.001847 -0.001620 0.007132 -0.000990 0.002672 -0.000989
# 4 0.003094 0.002813 -0.000990 0.033168 0.005962 0.012722
# 5 -0.002149 0.001653 0.002672 0.005962 0.028078 0.008087
# 6 0.017695 0.004552 -0.000989 0.012722 0.008087 0.029956
#
#
# Mechanical properties :
#
#
# Convention : Reuss Voigt Hill
#
# Bulk Modulus (GPa) = 72.34933 19.18304 45.76619
# Shear Modulus (GPa) = 39.98914 22.21349 31.10131
#
# Velocity S-wave (km/s) = 3.97354 2.96153 3.50426
# Velocity P-wave (km/s) = 7.04401 4.38957 5.86883
#
# Compressibility (1/GPa) = 0.01382183
#
# Stress axis : x y z
#
# Youngs Moduli (GPa) = 162.02771 121.66607 140.20441
#
# Poissons Ratio (x) = 0.49613 -0.25902
# Poissons Ratio (y) = 0.66072 0.22719
# Poissons Ratio (z) = -0.29934 0.19715
#
# Static dielectric constant tensor:
#      x y z
#    x 1.868400 0.069810 0.046950 
#    y 0.069810 1.958140 -0.047980 
#    z 0.046950 -0.047980 2.038990 
# 
# From -- ./inp_files/139127.got.cif
#   From: 2010.05.17/outbox.cif.g08.bks.cpg/sg2_70_cif.got.tgz:139127.got - 2010.06.03 11:33:40.
