data_PCOD9029536
_publ_section_title
;
Structure prediction by ZEFSAII (Michael W. Deem and Ramdas Pophale) SiO2 
 PCOD9029536
Probable space group: P -1
;
_chemical_formula_sum "Si O2"
_cell_formula_units_Z 12
_cell_length_a 5.214213
_cell_length_b 21.768994
_cell_length_c 21.487753
_cell_angle_alpha 12.789075
_cell_angle_beta 59.575724
_cell_angle_gamma 58.757248
_cell_volume 461.609542
_symmetry_space_group_name_H-M "P -1"
_symmetry_group_IT_number 2
_symmetry_cell_setting 'triclinic'
loop_
_space_group_symop_operation_xyz
x,y,z
-x,-y,-z
loop_
_atom_site_type_symbol
_atom_site_label
_atom_site_fract_x
_atom_site_fract_y
_atom_site_fract_z
Si Si1 0.286389 0.263800 0.007106
Si Si2 0.057691 0.940034 0.150995
Si Si3 0.808788 0.263748 0.542554
Si Si4 0.406899 0.701880 0.234685
Si Si5 0.331530 0.744067 0.604333
Si Si6 0.634808 0.724218 0.720650
O O1 0.280222 0.009195 0.210323
O O2 0.272765 0.055659 0.274263
O O3 0.108135 0.510354 0.740603
O O4 0.476858 0.491992 0.790123
O O5 0.955924 0.835529 0.333399
O O6 0.209138 0.696346 0.326920
O O7 0.314266 0.134933 0.943006
O O8 0.806352 0.121476 0.963102
O O9 0.533507 0.419577 0.463058
O O10 0.512923 0.740462 0.649311
O O11 0.994510 0.670722 0.729861
O O12 0.500000 0.000000 0.500000
O O13 0.500000 0.500000 0.000000
#
# Coordination Sequence:
#
# PCOD9029536 Si02
#       6
#     2   2   2   2   2   2
#     4  10  24  45  69  95 144 192 224 282 328 416
#     4  10  22  42  67  97 132 171 229 305 360 406
#     4  11  21  46  67 101 130 190 241 276 353 416
#     4  10  22  42  67  97 132 171 229 305 360 406
#     4  11  24  47  65 108 143 178 227 274 335 392
#     4  12  24  44  78 106 138 178 223 276 333 396
#
# _framework density 25.995996000000002
#
# number of rings (size 3 to 8) (size 9 to 14) (size 15 to 20)
#    0.000    1.333    1.667    3.500    0.000    1.333 
#   12.000    5.000    0.000    0.000    0.000    0.000 
#    0.000    0.000    0.000    0.000    0.000    0.000 
#
# Total GULP energy -66974.659317 kJ/mol
# GULP energy per Si atom -5581.221610 kJ/mol
# Density = 2.593683 g / cm^3
# Si number density = 25.995996 Si / 1000 Ang^3
#
#
#
# Elastic Constant Matrix: (Units=GPa)
#
#
# Indices 1 2 3 4 5 6 
#
# 1 164.7064 61.8804 46.3023 -4.3338 0.0323 25.1665
# 2 61.8804 118.8870 70.2673 -13.2933 2.1295 43.5288
# 3 46.3023 70.2673 206.2998 -3.6304 -3.2131 16.1235
# 4 -4.3338 -13.2933 -3.6304 68.9571 11.1353 -2.9774
# 5 0.0323 2.1295 -3.2131 11.1353 21.1329 10.6122
# 6 25.1665 43.5288 16.1235 -2.9774 10.6122 45.9069
#
#
#
# Elastic Compliance Matrix: (Units=1/GPa)
#
#
# Indices 1 2 3 4 5 6 
#
# 1 0.007619 -0.003345 -0.000476 -0.000403 0.001017 -0.001099
# 2 -0.003345 0.018135 -0.004184 0.001788 0.003979 -0.014696
# 3 -0.000476 -0.004184 0.006238 -0.000549 0.000741 0.001830
# 4 -0.000403 0.001788 -0.000549 0.016500 -0.010013 0.002103
# 5 0.001017 0.003979 0.000741 -0.010013 0.062152 -0.019607
# 6 -0.001099 -0.014696 0.001830 0.002103 -0.019607 0.040346
#
#
# Mechanical properties :
#
#
# Convention : Reuss Voigt Hill
#
# Bulk Modulus (GPa) = 62.57257 94.08812 78.33035
# Shear Modulus (GPa) = 29.01439 47.96226 38.48833
#
# Velocity S-wave (km/s) = 3.34445 4.29999 3.85196
# Velocity P-wave (km/s) = 6.24789 7.80545 7.06970
#
# Compressibility (1/GPa) = 0.01598144
#
# Stress axis : x y z
#
# Youngs Moduli (GPa) = 131.24769 55.14229 160.30574
#
# Poissons Ratio (x) = 0.18447 0.07630
# Poissons Ratio (y) = 0.43907 0.67073
# Poissons Ratio (z) = 0.06247 0.23072
#
# Static dielectric constant tensor:
#      x y z
#    x 2.087900 -0.094320 0.071250 
#    y -0.094320 2.209740 -0.073020 
#    z 0.071250 -0.073020 2.049880 
# 
# From -- ./inp_files/605187.got.cif
#   From: 2010.05.17/outbox.cif.g08.bks.cpg/sg2_303_cif.got.tgz:605187.got - 2010.06.03 11:33:40.
