data_PCOD9029784
_publ_section_title
;
Structure prediction by ZEFSAII (Michael W. Deem and Ramdas Pophale) SiO2 
 PCOD9029784
Probable space group: P -1
;
_chemical_formula_sum "Si O2"
_cell_formula_units_Z 16
_cell_length_a 5.418754
_cell_length_b 12.125256
_cell_length_c 27.391298
_cell_angle_alpha 24.390545
_cell_angle_beta 116.028013
_cell_angle_gamma 107.297521
_cell_volume 641.935827
_symmetry_space_group_name_H-M "P -1"
_symmetry_group_IT_number 2
_symmetry_cell_setting 'triclinic'
loop_
_space_group_symop_operation_xyz
x,y,z
-x,-y,-z
loop_
_atom_site_type_symbol
_atom_site_label
_atom_site_fract_x
_atom_site_fract_y
_atom_site_fract_z
Si Si1 0.218878 0.710074 0.489089
Si Si2 0.127050 0.703739 0.377275
Si Si3 0.940868 0.348897 0.978159
Si Si4 0.271210 0.782093 0.251108
Si Si5 0.836422 0.470127 0.302792
Si Si6 0.290837 0.816119 0.073768
Si Si7 0.770426 0.254987 0.108365
Si Si8 0.820363 0.943183 0.570978
O O1 0.291505 0.715711 0.436321
O O2 0.463283 0.479816 0.631898
O O3 0.179604 0.002169 0.393739
O O4 0.945947 0.588011 0.515823
O O5 0.260396 0.789287 0.305956
O O6 0.822252 0.942306 0.257539
O O7 0.799603 0.259086 0.050737
O O8 0.782808 0.340936 0.916982
O O9 0.231449 0.089783 0.103079
O O10 0.989637 0.635630 0.885513
O O11 0.993182 0.692642 0.244853
O O12 0.498597 0.599288 0.215822
O O13 0.923335 0.200254 0.453842
O O14 0.972982 0.343201 0.314204
O O15 0.500000 0.000000 0.000000
O O16 0.000000 0.000000 0.000000
O O17 0.500000 0.500000 0.000000
O O18 0.500000 0.000000 0.500000
#
# Coordination Sequence:
#
# PCOD9029784 Si02
#       8
#     2   2   2   2   2   2   2   2
#     4  11  22  38  66  94 129 176 224 282 345 418
#     4  10  23  39  60  97 128 171 225 286 342 415
#     4  10  24  42  66 102 130 182 232 292 354 425
#     4  11  20  41  67  90 134 170 230 275 354 419
#     4  11  25  43  66 100 137 184 232 288 353 427
#     4  12  29  47  75 110 146 189 243 300 362 433
#     4  10  22  42  68  94 136 180 230 288 357 418
#     4  11  24  42  66  97 133 180 230 285 347 423
#
# _framework density 24.924610000000001
#
# number of rings (size 3 to 8) (size 9 to 14) (size 15 to 20)
#    0.000    1.250    3.750    1.125    5.250    2.000 
#    0.000    1.250    0.000    0.000    0.000    0.000 
#    0.000    0.000    0.000    0.000    0.000    0.000 
#
# Total GULP energy -89480.469321 kJ/mol
# GULP energy per Si atom -5592.529333 kJ/mol
# Density = 2.486788 g / cm^3
# Si number density = 24.924610 Si / 1000 Ang^3
#
#
#
# Elastic Constant Matrix: (Units=GPa)
#
#
# Indices 1 2 3 4 5 6 
#
# 1 79.8309 33.0242 11.9417 -3.3241 18.6238 -3.1616
# 2 33.0242 192.2336 21.0601 6.6824 -0.5654 -15.2889
# 3 11.9417 21.0601 77.5034 1.5904 15.5781 -0.5447
# 4 -3.3241 6.6824 1.5904 42.8752 1.9317 0.4937
# 5 18.6238 -0.5654 15.5781 1.9317 44.2589 -7.4172
# 6 -3.1616 -15.2889 -0.5447 0.4937 -7.4172 24.8245
#
#
#
# Elastic Compliance Matrix: (Units=1/GPa)
#
#
# Indices 1 2 3 4 5 6 
#
# 1 0.015336 -0.002841 -0.000280 0.001970 -0.006791 -0.001871
# 2 -0.002841 0.006276 -0.001746 -0.001303 0.002666 0.004287
# 3 -0.000280 -0.001746 0.014491 -0.000016 -0.005408 -0.002409
# 4 0.001970 -0.001303 -0.000016 0.023796 -0.002158 -0.001670
# 5 -0.006791 0.002666 -0.005408 -0.002158 0.029056 0.009383
# 6 -0.001871 0.004287 -0.002409 -0.001670 0.009383 0.045469
#
#
# Mechanical properties :
#
#
# Convention : Reuss Voigt Hill
#
# Bulk Modulus (GPa) = 37.92529 53.51331 45.71930
# Shear Modulus (GPa) = 32.69116 41.29452 36.99284
#
# Velocity S-wave (km/s) = 3.62553 4.07477 3.85670
# Velocity P-wave (km/s) = 5.72495 6.60719 6.18183
#
# Compressibility (1/GPa) = 0.02636763
#
# Stress axis : x y z
#
# Youngs Moduli (GPa) = 65.20729 159.34887 69.00977
#
# Poissons Ratio (x) = 0.45274 0.01929
# Poissons Ratio (y) = 0.18526 0.12052
# Poissons Ratio (z) = 0.01823 0.27829
#
# Static dielectric constant tensor:
#      x y z
#    x 2.095080 -0.001300 0.048480 
#    y -0.001300 1.976640 -0.005160 
#    z 0.048480 -0.005160 2.021420 
# 
# From -- ./inp_files/109712.got.cif
#   From: 2010.05.17/outbox.cif.g08.bks.cpg/sg2_55_cif.got.tgz:109712.got - 2010.06.03 11:33:40.
