data_PCOD9029007
_publ_section_title
;
Structure prediction by ZEFSAII (Michael W. Deem and Ramdas Pophale) SiO2 
 PCOD9029007
Probable space group: P -1
;
_chemical_formula_sum "Si O2"
_cell_formula_units_Z 12
_cell_length_a 9.081863
_cell_length_b 22.443729
_cell_length_c 8.026854
_cell_angle_alpha 137.277018
_cell_angle_beta 51.431285
_cell_angle_gamma 150.847613
_cell_volume 539.920776
_symmetry_space_group_name_H-M "P -1"
_symmetry_group_IT_number 2
_symmetry_cell_setting 'triclinic'
loop_
_space_group_symop_operation_xyz
x,y,z
-x,-y,-z
loop_
_atom_site_type_symbol
_atom_site_label
_atom_site_fract_x
_atom_site_fract_y
_atom_site_fract_z
Si Si1 0.294562 0.964989 0.431468
Si Si2 0.800002 0.495127 0.790369
Si Si3 0.742195 0.286984 0.351830
Si Si4 0.115432 0.821871 0.753160
Si Si5 0.045717 0.992164 0.258665
Si Si6 0.219190 0.332397 0.677599
O O1 0.185914 0.021832 0.683552
O O2 0.001050 0.795288 0.292336
O O3 0.500000 0.000000 0.500000
O O4 0.523090 0.046831 0.281799
O O5 0.781043 0.388646 0.645792
O O6 0.544552 0.411857 0.655685
O O7 0.109242 0.631962 0.760550
O O8 0.752104 0.553388 0.077453
O O9 0.904778 0.264295 0.277872
O O10 0.389605 0.139517 0.272128
O O11 0.924328 0.736132 0.542749
O O12 0.006894 0.875869 0.009809
O O13 0.000000 0.000000 0.500000
#
# Coordination Sequence:
#
# PCOD9029007 Si02
#       6
#     2   2   2   2   2   2
#     4  10  22  42  66 100 126 165 210 273 324 375
#     4  10  23  42  67  90 129 177 217 257 315 386
#     4  11  23  42  64  97 128 174 217 261 319 388
#     4  11  25  42  66 101 131 164 216 272 324 376
#     4  12  24  41  68  98 129 169 211 271 327 378
#     4  10  22  43  65  93 129 172 214 265 318 384
#
# _framework density 22.225482
#
# number of rings (size 3 to 8) (size 9 to 14) (size 15 to 20)
#    0.000    1.333    3.333    1.500    2.333    4.000 
#   12.000    0.000    0.000    0.000    0.000    0.000 
#    0.000    0.000    0.000    0.000    0.000    0.000 
#
# Total GULP energy -67042.540249 kJ/mol
# GULP energy per Si atom -5586.878354 kJ/mol
# Density = 2.217490 g / cm^3
# Si number density = 22.225482 Si / 1000 Ang^3
#
#
#
# Elastic Constant Matrix: (Units=GPa)
#
#
# Indices 1 2 3 4 5 6 
#
# 1 123.3722 25.6516 86.2144 3.7218 -39.3951 10.8150
# 2 25.6516 53.6758 10.6515 2.1531 -5.0268 16.7777
# 3 86.2144 10.6515 157.4431 8.3777 -46.8417 8.0961
# 4 3.7218 2.1531 8.3777 17.8078 -4.0539 -11.1343
# 5 -39.3951 -5.0268 -46.8417 -4.0539 52.2425 2.9669
# 6 10.8150 16.7777 8.0961 -11.1343 2.9669 30.2920
#
#
#
# Elastic Compliance Matrix: (Units=1/GPa)
#
#
# Indices 1 2 3 4 5 6 
#
# 1 0.015624 -0.005390 -0.006557 0.001123 0.005526 -0.000969
# 2 -0.005390 0.027742 0.003484 -0.016337 0.001627 -0.020536
# 3 -0.006557 0.003484 0.012235 -0.007234 0.006147 -0.006120
# 4 0.001123 -0.016337 -0.007234 0.087562 -0.002861 0.043045
# 5 0.005526 0.001627 0.006147 -0.002861 0.029234 -0.008432
# 6 -0.000969 -0.020536 -0.006120 0.043045 -0.008432 0.063016
#
#
# Mechanical properties :
#
#
# Convention : Reuss Voigt Hill
#
# Bulk Modulus (GPa) = 25.85650 64.39180 45.12415
# Shear Modulus (GPa) = 18.85171 34.20001 26.52586
#
# Velocity S-wave (km/s) = 2.91555 3.92698 3.45844
# Velocity P-wave (km/s) = 4.79509 7.04248 6.02451
#
# Compressibility (1/GPa) = 0.03867499
#
# Stress axis : x y z
#
# Youngs Moduli (GPa) = 64.00464 36.04677 81.73570
#
# Poissons Ratio (x) = 0.19430 0.53591
# Poissons Ratio (y) = 0.34500 -0.28479
# Poissons Ratio (z) = 0.41965 -0.12560
#
# Static dielectric constant tensor:
#      x y z
#    x 1.874780 -0.039030 -0.029100 
#    y -0.039030 1.895750 -0.015070 
#    z -0.029100 -0.015070 1.869530 
# 
# From -- ./inp_files/224653.got.cif
#   From: 2010.05.17/outbox.cif.g08.bks.cpg/sg2_113_cif.got.tgz:224653.got - 2010.06.03 11:33:40.
