data_PCOD9029718
_publ_section_title
;
Structure prediction by ZEFSAII (Michael W. Deem and Ramdas Pophale) SiO2 
 PCOD9029718
Probable space group: P -1
;
_chemical_formula_sum "Si O2"
_cell_formula_units_Z 16
_cell_length_a 11.909805
_cell_length_b 15.015452
_cell_length_c 14.907016
_cell_angle_alpha 28.262199
_cell_angle_beta 134.799140
_cell_angle_gamma 141.386600
_cell_volume 786.536246
_symmetry_space_group_name_H-M "P -1"
_symmetry_group_IT_number 2
_symmetry_cell_setting 'triclinic'
loop_
_space_group_symop_operation_xyz
x,y,z
-x,-y,-z
loop_
_atom_site_type_symbol
_atom_site_label
_atom_site_fract_x
_atom_site_fract_y
_atom_site_fract_z
Si Si1 0.852722 0.407116 0.579006
Si Si2 0.542871 0.529389 0.254460
Si Si3 0.483048 0.297019 0.723031
Si Si4 0.014399 0.700736 0.771610
Si Si5 0.143110 0.594815 0.214194
Si Si6 0.084839 0.974491 0.814158
Si Si7 0.818663 0.956096 0.985577
Si Si8 0.192699 0.095192 0.417602
O O1 0.695814 0.466976 0.422777
O O2 0.916516 0.483060 0.649467
O O3 0.000000 0.500000 0.500000
O O4 0.782791 0.153472 0.771016
O O5 0.489224 0.628726 0.222447
O O6 0.645775 0.730125 0.067832
O O7 0.381074 0.309405 0.322941
O O8 0.500000 0.500000 0.500000
O O9 0.640397 0.255263 0.808133
O O10 0.279450 0.113255 0.754370
O O11 0.901635 0.591513 0.715852
O O12 0.925061 0.814314 0.677479
O O13 0.191605 0.904359 0.647263
O O14 0.000000 0.500000 0.000000
O O15 0.045829 0.729834 0.009301
O O16 0.920663 0.990797 0.661923
O O17 0.130041 0.045294 0.879826
O O18 0.000000 0.000000 0.000000
#
# Coordination Sequence:
#
# PCOD9029718 Si02
#       8
#     2   2   2   2   2   2   2   2
#     4  11  23  40  67  93 119 159 217 265 307 365
#     4  11  23  39  62  93 125 161 207 261 310 374
#     4  11  20  34  59  91 123 157 202 250 316 365
#     4  11  23  38  59  89 135 173 200 246 309 388
#     4  11  21  38  63  92 123 165 209 258 307 372
#     4  10  23  38  60  93 126 165 205 255 309 382
#     4  10  22  42  68  90 117 161 215 264 313 359
#     4  11  24  39  59  90 132 170 204 243 321 376
#
# _framework density 20.342355000000001
#
# number of rings (size 3 to 8) (size 9 to 14) (size 15 to 20)
#    0.000    1.250    5.000    1.125    3.500    1.000 
#    2.250    0.625    0.000    1.500    0.000    0.000 
#    0.000    0.000    0.000    0.000    0.000    0.000 
#
# Total GULP energy -89189.475240 kJ/mol
# GULP energy per Si atom -5574.342203 kJ/mol
# Density = 2.029606 g / cm^3
# Si number density = 20.342355 Si / 1000 Ang^3
#
#
#
# Elastic Constant Matrix: (Units=GPa)
#
#
# Indices 1 2 3 4 5 6 
#
# 1 77.5550 9.5466 19.7470 2.3586 -18.9941 1.6935
# 2 9.5466 70.9264 33.6322 -15.6797 -23.2092 6.5093
# 3 19.7470 33.6322 131.0643 -8.2299 -12.7470 10.9421
# 4 2.3586 -15.6797 -8.2299 25.4444 4.8357 -7.4250
# 5 -18.9941 -23.2092 -12.7470 4.8357 34.4975 -4.9756
# 6 1.6935 6.5093 10.9421 -7.4250 -4.9756 17.6536
#
#
#
# Elastic Compliance Matrix: (Units=1/GPa)
#
#
# Indices 1 2 3 4 5 6 
#
# 1 0.015564 0.001112 -0.001985 -0.002936 0.009090 0.000654
# 2 0.001112 0.022251 -0.004156 0.010486 0.012910 0.002314
# 3 -0.001985 -0.004156 0.009238 -0.000506 -0.001056 -0.004513
# 4 -0.002936 0.010486 -0.000506 0.051110 0.000746 0.018435
# 5 0.009090 0.012910 -0.001056 0.000746 0.043269 0.007531
# 6 0.000654 0.002314 -0.004513 0.018435 0.007531 0.068403
#
#
# Mechanical properties :
#
#
# Convention : Reuss Voigt Hill
#
# Bulk Modulus (GPa) = 27.03244 45.04415 36.03830
# Shear Modulus (GPa) = 21.53082 29.96044 25.74563
#
# Velocity S-wave (km/s) = 3.25687 3.84188 3.56141
# Velocity P-wave (km/s) = 5.24028 6.47080 5.88777
#
# Compressibility (1/GPa) = 0.03699259
#
# Stress axis : x y z
#
# Youngs Moduli (GPa) = 64.25133 44.94263 108.25042
#
# Poissons Ratio (x) = -0.04996 0.21490
# Poissons Ratio (y) = -0.07143 0.44993
# Poissons Ratio (z) = 0.12755 0.18680
#
# Static dielectric constant tensor:
#      x y z
#    x 1.766980 -0.012460 0.029330 
#    y -0.012460 1.782550 -0.018850 
#    z 0.029330 -0.018850 1.916800 
# 
# From -- ./inp_files/434289.got.cif
#   From: 2010.05.17/outbox.cif.g08.bks.cpg/sg2_218_cif.got.tgz:434289.got - 2010.06.03 11:33:40.
