data_PCOD9029522
_publ_section_title
;
Structure prediction by ZEFSAII (Michael W. Deem and Ramdas Pophale) SiO2 
 PCOD9029522
Probable space group: P -1
;
_chemical_formula_sum "Si O2"
_cell_formula_units_Z 14
_cell_length_a 8.562673
_cell_length_b 11.523375
_cell_length_c 17.904760
_cell_angle_alpha 32.499529
_cell_angle_beta 59.925727
_cell_angle_gamma 45.025908
_cell_volume 650.203117
_symmetry_space_group_name_H-M "P -1"
_symmetry_group_IT_number 2
_symmetry_cell_setting 'triclinic'
loop_
_space_group_symop_operation_xyz
x,y,z
-x,-y,-z
loop_
_atom_site_type_symbol
_atom_site_label
_atom_site_fract_x
_atom_site_fract_y
_atom_site_fract_z
Si Si1 0.241478 0.922483 0.001988
Si Si2 0.591438 0.377886 0.126368
Si Si3 0.932825 0.798180 0.840875
Si Si4 0.437025 0.831877 0.151669
Si Si5 0.851726 0.512586 0.307065
Si Si6 0.604484 0.916684 0.603961
Si Si7 0.805170 0.103905 0.553207
O O1 0.231485 0.178534 0.836142
O O2 0.453525 0.646591 0.064861
O O3 0.270618 0.849996 0.122227
O O4 0.000000 0.000000 0.000000
O O5 0.517141 0.191207 0.266812
O O6 0.857109 0.220685 0.164532
O O7 0.500000 0.500000 0.000000
O O8 0.703022 0.021535 0.819813
O O9 0.888358 0.883881 0.718357
O O10 0.000000 0.500000 0.000000
O O11 0.683963 0.552497 0.258679
O O12 0.500000 0.000000 0.000000
O O13 0.791412 0.352149 0.461436
O O14 0.123016 0.330233 0.332842
O O15 0.500000 0.000000 0.500000
O O16 0.602901 0.132884 0.539589
O O17 0.000000 0.000000 0.500000
#
# Coordination Sequence:
#
# PCOD9029522 Si02
#       7
#     2   2   2   2   2   2   2
#     4  11  22  40  69 100 141 185 226 291 353 409
#     4  12  25  41  69 103 141 174 237 292 350 417
#     4  12  25  43  69 103 140 182 243 288 344 426
#     4  10  24  40  68  97 134 186 232 288 350 405
#     4  10  22  42  67  96 137 178 244 268 351 416
#     4  11  24  42  67 100 137 183 227 285 357 417
#     4  10  24  41  71  99 139 185 229 287 353 414
#
# _framework density 21.531734
#
# number of rings (size 3 to 8) (size 9 to 14) (size 15 to 20)
#    0.000    1.143    1.429    5.143   16.000    0.571 
#    0.000    0.000    0.000    4.286    0.000    0.000 
#    0.000    0.000    0.000    0.000    0.000    0.000 
#
# Total GULP energy -77960.624308 kJ/mol
# GULP energy per Si atom -5568.616022 kJ/mol
# Density = 2.148273 g / cm^3
# Si number density = 21.531734 Si / 1000 Ang^3
#
#
#
# Elastic Constant Matrix: (Units=GPa)
#
#
# Indices 1 2 3 4 5 6 
#
# 1 177.1299 27.8496 55.2169 15.1277 4.7380 -21.7283
# 2 27.8496 84.8148 26.0508 8.4495 7.4610 -8.3049
# 3 55.2169 26.0508 131.1454 18.8044 -14.5029 2.1178
# 4 15.1277 8.4495 18.8044 38.5423 9.6233 7.5466
# 5 4.7380 7.4610 -14.5029 9.6233 58.4145 -2.0080
# 6 -21.7283 -8.3049 2.1178 7.5466 -2.0080 36.7032
#
#
#
# Elastic Compliance Matrix: (Units=1/GPa)
#
#
# Indices 1 2 3 4 5 6 
#
# 1 0.007441 -0.000839 -0.002813 -0.002130 -0.000680 0.004778
# 2 -0.000839 0.013385 -0.002334 -0.001566 -0.001864 0.002887
# 3 -0.002813 -0.002334 0.010276 -0.003968 0.003671 -0.001770
# 4 -0.002130 -0.001566 -0.003968 0.032248 -0.006212 -0.008357
# 5 -0.000680 -0.001864 0.003671 -0.006212 0.019392 0.001302
# 6 0.004778 0.002887 -0.001770 -0.008357 0.001302 0.032619
#
#
# Mechanical properties :
#
#
# Convention : Reuss Voigt Hill
#
# Bulk Modulus (GPa) = 52.27216 67.92495 60.09855
# Shear Modulus (GPa) = 37.39439 45.66353 41.52896
#
# Velocity S-wave (km/s) = 4.17191 4.61016 4.39650
# Velocity P-wave (km/s) = 6.89463 7.74294 7.33106
#
# Compressibility (1/GPa) = 0.01913064
#
# Stress axis : x y z
#
# Youngs Moduli (GPa) = 134.39756 74.70825 97.30965
#
# Poissons Ratio (x) = 0.06271 0.27373
# Poissons Ratio (y) = 0.11281 0.22708
# Poissons Ratio (z) = 0.37805 0.17434
#
# Static dielectric constant tensor:
#      x y z
#    x 2.049170 0.145540 -0.151760 
#    y 0.145540 1.986230 -0.079080 
#    z -0.151760 -0.079080 2.101200 
# 
# From -- ./inp_files/559529.got.cif
#   From: 2010.05.17/outbox.cif.g08.bks.cpg/sg2_280_cif.got.tgz:559529.got - 2010.06.03 11:33:40.
