data_PCOD9029535
_publ_section_title
;
Structure prediction by ZEFSAII (Michael W. Deem and Ramdas Pophale) SiO2 
 PCOD9029535
Probable space group: P -1
;
_chemical_formula_sum "Si O2"
_cell_formula_units_Z 16
_cell_length_a 11.597868
_cell_length_b 5.336979
_cell_length_c 19.158341
_cell_angle_alpha 121.001193
_cell_angle_beta 40.409404
_cell_angle_gamma 112.838351
_cell_volume 658.899673
_symmetry_space_group_name_H-M "P -1"
_symmetry_group_IT_number 2
_symmetry_cell_setting 'triclinic'
loop_
_space_group_symop_operation_xyz
x,y,z
-x,-y,-z
loop_
_atom_site_type_symbol
_atom_site_label
_atom_site_fract_x
_atom_site_fract_y
_atom_site_fract_z
Si Si1 0.468601 0.047625 0.897307
Si Si2 0.744183 0.856608 0.856676
Si Si3 0.000927 0.755356 0.137507
Si Si4 0.159212 0.782223 0.919796
Si Si5 0.901031 0.199095 0.501315
Si Si6 0.661359 0.867215 0.485506
Si Si7 0.170869 0.746259 0.299016
Si Si8 0.265120 0.792347 0.641102
O O1 0.587336 0.856058 0.870909
O O2 0.351785 0.922017 0.868649
O O3 0.629197 0.226800 0.815905
O O4 0.334641 0.194844 0.036277
O O5 0.872721 0.591060 0.738551
O O6 0.854897 0.159724 0.857222
O O7 0.860533 0.490780 0.163135
O O8 0.891795 0.057121 0.221684
O O9 0.114933 0.685394 0.005993
O O10 0.000000 0.000000 0.000000
O O11 0.846027 0.144700 0.598361
O O12 0.000000 0.500000 0.500000
O O13 0.716887 0.158499 0.542332
O O14 0.028101 0.974695 0.367736
O O15 0.457649 0.808652 0.589787
O O16 0.753260 0.553200 0.415515
O O17 0.707671 0.976736 0.402122
#
# Coordination Sequence:
#
# PCOD9029535 Si02
#       8
#     2   2   2   2   2   2   2   2
#     4  10  23  42  67  97 132 170 221 276 342 406
#     4  10  22  42  67  97 132 168 223 278 337 406
#     4  10  23  40  67  94 130 176 221 274 346 399
#     4  10  24  43  62  97 133 169 222 274 339 416
#     4  11  26  42  63  94 136 175 222 282 340 413
#     4  10  24  44  66  97 139 169 238 276 343 405
#     4  11  24  40  65  98 126 176 219 274 344 403
#     4  10  23  43  70  99 128 184 222 289 334 410
#
# _framework density 24.282910000000001
#
# number of rings (size 3 to 8) (size 9 to 14) (size 15 to 20)
#    0.000    1.750    0.000    1.875    8.750    9.000 
#    2.250    0.000    0.000    0.000    0.000    0.000 
#    0.000    0.000    0.000    0.000    0.000    0.000 
#
# Total GULP energy -89074.752614 kJ/mol
# GULP energy per Si atom -5567.172038 kJ/mol
# Density = 2.422764 g / cm^3
# Si number density = 24.282910 Si / 1000 Ang^3
#
#
#
# Elastic Constant Matrix: (Units=GPa)
#
#
# Indices 1 2 3 4 5 6 
#
# 1 92.3231 43.8032 28.9561 7.0623 -10.7301 33.0406
# 2 43.8032 98.7971 16.5633 10.3907 -6.9428 28.2067
# 3 28.9561 16.5633 67.0712 17.3894 1.5547 5.8489
# 4 7.0623 10.3907 17.3894 39.2588 -4.4418 2.2927
# 5 -10.7301 -6.9428 1.5547 -4.4418 28.8556 -0.2614
# 6 33.0406 28.2067 5.8489 2.2927 -0.2614 46.0221
#
#
#
# Elastic Compliance Matrix: (Units=1/GPa)
#
#
# Indices 1 2 3 4 5 6 
#
# 1 0.019479 -0.004153 -0.007182 0.002172 0.006869 -0.010595
# 2 -0.004153 0.013933 -0.000651 -0.002174 0.001460 -0.005359
# 3 -0.007182 -0.000651 0.020130 -0.008232 -0.005149 0.003378
# 4 0.002172 -0.002174 -0.008232 0.029944 0.005332 -0.000642
# 5 0.006869 0.001460 -0.005149 0.005332 0.038612 -0.005219
# 6 -0.010595 -0.005359 0.003378 -0.000642 -0.005219 0.032193
#
#
# Mechanical properties :
#
#
# Convention : Reuss Voigt Hill
#
# Bulk Modulus (GPa) = 33.81781 48.53742 41.17761
# Shear Modulus (GPa) = 26.57890 34.08522 30.33206
#
# Velocity S-wave (km/s) = 3.31199 3.75062 3.53811
# Velocity P-wave (km/s) = 5.34626 6.22800 5.80390
#
# Compressibility (1/GPa) = 0.02957022
#
# Stress axis : x y z
#
# Youngs Moduli (GPa) = 51.33840 71.77052 49.67691
#
# Poissons Ratio (x) = 0.29804 0.35680
# Poissons Ratio (y) = 0.21319 0.03233
# Poissons Ratio (z) = 0.36873 0.04671
#
# Static dielectric constant tensor:
#      x y z
#    x 2.167520 -0.065350 -0.038400 
#    y -0.065350 2.002610 0.001230 
#    z -0.038400 0.001230 1.936940 
# 
# From -- ./inp_files/101237.got.cif
#   From: 2010.05.17/outbox.cif.g08.bks.cpg/sg2_51_cif.got.tgz:101237.got - 2010.06.03 11:33:40.
