data_PCOD9029962
_publ_section_title
;
Structure prediction by ZEFSAII (Michael W. Deem and Ramdas Pophale) SiO2 
 PCOD9029962
Probable space group: P -1
;
_chemical_formula_sum "Si O2"
_cell_formula_units_Z 16
_cell_length_a 7.267352
_cell_length_b 12.179649
_cell_length_c 9.142556
_cell_angle_alpha 84.449043
_cell_angle_beta 77.387247
_cell_angle_gamma 61.948781
_cell_volume 696.927578
_symmetry_space_group_name_H-M "P -1"
_symmetry_group_IT_number 2
_symmetry_cell_setting 'triclinic'
loop_
_space_group_symop_operation_xyz
x,y,z
-x,-y,-z
loop_
_atom_site_type_symbol
_atom_site_label
_atom_site_fract_x
_atom_site_fract_y
_atom_site_fract_z
Si Si1 0.392069 0.556229 0.361959
Si Si2 0.879227 0.527658 0.766686
Si Si3 0.185450 0.993424 0.862196
Si Si4 0.199141 0.237983 0.740420
Si Si5 0.044325 0.277687 0.454965
Si Si6 0.438252 0.401136 0.948355
Si Si7 0.401447 0.862098 0.098848
Si Si8 0.023088 0.056830 0.336966
O O1 0.500000 0.500000 0.500000
O O2 0.306473 0.471443 0.304981
O O3 0.176919 0.680723 0.423104
O O4 0.560487 0.570124 0.226350
O O5 0.036179 0.381855 0.780426
O O6 0.969894 0.606119 0.650881
O O7 0.768753 0.585705 0.932508
O O8 0.180977 0.913589 0.733923
O O9 0.132529 0.129969 0.798791
O O10 0.390831 0.934949 0.940221
O O11 0.000000 0.000000 0.000000
O O12 0.393851 0.197597 0.824358
O O13 0.220997 0.236741 0.558826
O O14 0.068149 0.170784 0.353600
O O15 0.615881 0.258298 0.944392
O O16 0.500000 0.500000 0.000000
O O17 0.217651 0.953400 0.225770
O O18 0.000000 0.000000 0.500000
#
# Coordination Sequence:
#
# PCOD9029962 Si02
#       8
#     2   2   2   2   2   2   2   2
#     4  10  22  42  69 101 141 183 232 289 354 417
#     4  10  25  45  70 104 142 184 233 292 363 416
#     4  10  24  43  70  97 135 184 235 286 346 411
#     4  11  23  46  71  98 149 181 229 299 355 421
#     4  11  24  45  74 107 143 186 237 289 363 421
#     4  10  24  43  69 100 141 180 235 293 347 417
#     4  11  26  44  68  99 140 183 236 283 361 410
#     4  11  23  47  73 100 136 190 235 291 346 418
#
# _framework density 22.957910999999999
#
# number of rings (size 3 to 8) (size 9 to 14) (size 15 to 20)
#    0.000    1.500    1.250    2.625   12.250    6.000 
#    4.500    0.000    0.000    0.000    0.000    0.000 
#    0.000    0.000    0.000    0.000    0.000    0.000 
#
# Total GULP energy -89302.155716 kJ/mol
# GULP energy per Si atom -5581.384732 kJ/mol
# Density = 2.290566 g / cm^3
# Si number density = 22.957911 Si / 1000 Ang^3
#
#
#
# Elastic Constant Matrix: (Units=GPa)
#
#
# Indices 1 2 3 4 5 6 
#
# 1 68.3405 29.9962 48.9660 -5.7712 25.7907 -1.9587
# 2 29.9962 139.9024 71.2896 -2.5117 6.7843 18.9590
# 3 48.9660 71.2896 181.8860 -14.1536 14.4032 -6.0789
# 4 -5.7712 -2.5117 -14.1536 51.1419 -1.7094 5.3275
# 5 25.7907 6.7843 14.4032 -1.7094 41.3441 -11.2590
# 6 -1.9587 18.9590 -6.0789 5.3275 -11.2590 30.6956
#
#
#
# Elastic Compliance Matrix: (Units=1/GPa)
#
#
# Indices 1 2 3 4 5 6 
#
# 1 0.024034 -0.001467 -0.004813 0.001243 -0.014084 -0.003895
# 2 -0.001467 0.010622 -0.003901 0.000059 -0.001657 -0.008045
# 3 -0.004813 -0.003901 0.008407 0.001212 0.001925 0.004263
# 4 0.001243 0.000059 0.001212 0.020378 -0.001390 -0.003764
# 5 -0.014084 -0.001657 0.001925 -0.001390 0.036351 0.014081
# 6 -0.003895 -0.008045 0.004263 -0.003764 0.014081 0.043961
#
#
# Mechanical properties :
#
#
# Convention : Reuss Voigt Hill
#
# Bulk Modulus (GPa) = 44.05393 76.73696 60.39544
# Shear Modulus (GPa) = 29.12344 40.62813 34.87578
#
# Velocity S-wave (km/s) = 3.56555 4.21132 3.90182
# Velocity P-wave (km/s) = 6.01510 7.55940 6.83103
#
# Compressibility (1/GPa) = 0.02269945
#
# Stress axis : x y z
#
# Youngs Moduli (GPa) = 41.60795 94.14384 118.94499
#
# Poissons Ratio (x) = 0.13813 0.57252
# Poissons Ratio (y) = 0.06105 0.46405
# Poissons Ratio (z) = 0.20027 0.36729
#
# Static dielectric constant tensor:
#      x y z
#    x 2.003280 -0.014020 0.035900 
#    y -0.014020 1.887970 -0.006960 
#    z 0.035900 -0.006960 1.867980 
# 
# From -- ./inp_files/186622.got.cif
#   From: 2010.05.17/outbox.cif.g08.bks.cpg/sg2_94_cif.got.tgz:186622.got - 2010.06.03 11:33:40.
