data_PCOD9029861
_publ_section_title
;
Structure prediction by ZEFSAII (Michael W. Deem and Ramdas Pophale) SiO2 
 PCOD9029861
Probable space group: P -1
;
_chemical_formula_sum "Si O2"
_cell_formula_units_Z 12
_cell_length_a 12.949805
_cell_length_b 20.229089
_cell_length_c 5.378446
_cell_angle_alpha 74.388338
_cell_angle_beta 89.665268
_cell_angle_gamma 26.042302
_cell_volume 494.377921
_symmetry_space_group_name_H-M "P -1"
_symmetry_group_IT_number 2
_symmetry_cell_setting 'triclinic'
loop_
_space_group_symop_operation_xyz
x,y,z
-x,-y,-z
loop_
_atom_site_type_symbol
_atom_site_label
_atom_site_fract_x
_atom_site_fract_y
_atom_site_fract_z
Si Si1 0.606265 0.606795 0.337525
Si Si2 0.240572 0.299505 0.112648
Si Si3 0.217063 0.195578 0.550776
Si Si4 0.061842 0.886016 0.995625
Si Si5 0.636132 0.027897 0.996121
Si Si6 0.604575 0.186889 0.369714
O O1 0.537193 0.687130 0.518469
O O2 0.935919 0.386747 0.522002
O O3 0.500878 0.714581 0.984838
O O4 0.394999 0.671997 0.252628
O O5 0.166819 0.268253 0.223261
O O6 0.343556 0.241661 0.888238
O O7 0.499469 0.173755 0.385699
O O8 0.000000 0.500000 0.000000
O O9 0.250567 0.093486 0.664708
O O10 0.511367 0.048422 0.787624
O O11 0.869621 0.942114 0.038656
O O12 0.940628 0.971543 0.632149
O O13 0.000000 0.000000 0.000000
#
# Coordination Sequence:
#
# PCOD9029861 Si02
#       6
#     2   2   2   2   2   2
#     4  11  24  42  67 103 135 181 223 282 336 401
#     4  12  22  38  71  99 131 175 233 285 331 399
#     4  11  25  42  66  97 140 181 223 277 343 411
#     4  10  22  42  68  97 134 175 228 281 336 397
#     4  11  25  45  64  97 141 181 222 279 347 402
#     4  11  22  40  68 103 134 171 231 282 333 387
#
# _framework density 24.272928
#
# number of rings (size 3 to 8) (size 9 to 14) (size 15 to 20)
#    0.000    1.000    3.333    4.000    0.000    3.333 
#    0.000    0.000    0.000    6.000    0.000    0.000 
#    0.000    0.000    0.000    0.000    0.000    0.000 
#
# Total GULP energy -66873.479009 kJ/mol
# GULP energy per Si atom -5572.789917 kJ/mol
# Density = 2.421768 g / cm^3
# Si number density = 24.272928 Si / 1000 Ang^3
#
#
#
# Elastic Constant Matrix: (Units=GPa)
#
#
# Indices 1 2 3 4 5 6 
#
# 1 212.0169 35.9084 44.2211 -7.4899 -3.1267 -18.6189
# 2 35.9084 95.9567 19.9482 6.8903 1.6105 -9.7566
# 3 44.2211 19.9482 78.0554 3.5175 10.3209 1.1171
# 4 -7.4899 6.8903 3.5175 28.9330 -10.5731 0.4175
# 5 -3.1267 1.6105 10.3209 -10.5731 46.6726 -2.7878
# 6 -18.6189 -9.7566 1.1171 0.4175 -2.7878 33.4298
#
#
#
# Elastic Compliance Matrix: (Units=1/GPa)
#
#
# Indices 1 2 3 4 5 6 
#
# 1 0.006140 -0.001485 -0.003570 0.003117 0.002152 0.003246
# 2 -0.001485 0.011914 -0.002011 -0.003251 -0.000641 0.002704
# 3 -0.003570 -0.002011 0.016235 -0.004163 -0.004911 -0.003475
# 4 0.003117 -0.003251 -0.004163 0.040463 0.010485 0.001295
# 5 0.002152 -0.000641 -0.004911 0.010485 0.025241 0.003150
# 6 0.003246 0.002704 -0.003475 0.001295 0.003150 0.032873
#
#
# Mechanical properties :
#
#
# Convention : Reuss Voigt Hill
#
# Bulk Modulus (GPa) = 49.61333 65.13160 57.37246
# Shear Modulus (GPa) = 32.52722 40.87050 36.69886
#
# Velocity S-wave (km/s) = 3.66466 4.10785 3.89257
# Velocity P-wave (km/s) = 6.19600 7.02784 6.62499
#
# Compressibility (1/GPa) = 0.02015587
#
# Stress axis : x y z
#
# Youngs Moduli (GPa) = 162.87452 83.93238 61.59664
#
# Poissons Ratio (x) = 0.12466 0.21991
# Poissons Ratio (y) = 0.24191 0.12387
# Poissons Ratio (z) = 0.58150 0.16878
#
# Static dielectric constant tensor:
#      x y z
#    x 2.025740 -0.074660 -0.020680 
#    y -0.074660 2.060090 0.029950 
#    z -0.020680 0.029950 2.127490 
# 
# From -- ./inp_files/100232.got.cif
#   From: 2010.05.17/outbox.cif.g08.bks.cpg/sg2_51_cif.got.tgz:100232.got - 2010.06.03 11:33:40.
