data_PCOD9029187
_publ_section_title
;
Structure prediction by ZEFSAII (Michael W. Deem and Ramdas Pophale) SiO2 
 PCOD9029187
Probable space group: P -1
;
_chemical_formula_sum "Si O2"
_cell_formula_units_Z 14
_cell_length_a 11.065617
_cell_length_b 17.494428
_cell_length_c 13.184390
_cell_angle_alpha 25.264714
_cell_angle_beta 35.030897
_cell_angle_gamma 48.289143
_cell_volume 595.156769
_symmetry_space_group_name_H-M "P -1"
_symmetry_group_IT_number 2
_symmetry_cell_setting 'triclinic'
loop_
_space_group_symop_operation_xyz
x,y,z
-x,-y,-z
loop_
_atom_site_type_symbol
_atom_site_label
_atom_site_fract_x
_atom_site_fract_y
_atom_site_fract_z
Si Si1 0.686330 0.703103 0.136141
Si Si2 0.502270 0.286092 0.329929
Si Si3 0.087276 0.047953 0.133200
Si Si4 0.277502 0.940835 0.787245
Si Si5 0.454098 0.953077 0.247327
Si Si6 0.263070 0.563622 0.224363
Si Si7 0.045339 0.722487 0.701928
O O1 0.500000 0.500000 0.500000
O O2 0.787951 0.781742 0.081330
O O3 0.905947 0.736725 0.878640
O O4 0.581530 0.849793 0.980519
O O5 0.625239 0.165383 0.454233
O O6 0.408631 0.419565 0.307817
O O7 0.290745 0.125989 0.620356
O O8 0.661318 0.384601 0.008827
O O9 0.921070 0.096468 0.111196
O O10 0.288684 0.016306 0.971236
O O11 0.982671 0.851278 0.503252
O O12 0.500000 0.000000 0.500000
O O13 0.310262 0.749895 0.039209
O O14 0.306943 0.823039 0.416677
O O15 0.000000 0.500000 0.500000
O O16 0.000000 0.500000 0.000000
#
# Coordination Sequence:
#
# PCOD9029187 Si02
#       7
#     2   2   2   2   2   2   2
#     4  11  24  45  69 101 133 180 231 285 354 417
#     4  10  24  45  66  99 143 182 231 288 352 403
#     4  11  23  43  69  99 137 181 228 288 348 412
#     4  10  24  43  70  96 143 185 231 281 346 416
#     4  11  23  43  70  98 140 176 228 294 344 421
#     4  10  22  42  66  95 134 183 238 279 335 420
#     4  11  24  41  70 100 137 177 230 285 350 419
#
# _framework density 23.523215
#
# number of rings (size 3 to 8) (size 9 to 14) (size 15 to 20)
#    0.000    1.429    0.000    6.000    8.000    5.714 
#    7.714    0.000    0.000    0.000    0.000    0.000 
#    0.000    0.000    0.000    0.000    0.000    0.000 
#
# Total GULP energy -77975.609090 kJ/mol
# GULP energy per Si atom -5569.686364 kJ/mol
# Density = 2.346968 g / cm^3
# Si number density = 23.523215 Si / 1000 Ang^3
#
#
#
# Elastic Constant Matrix: (Units=GPa)
#
#
# Indices 1 2 3 4 5 6 
#
# 1 88.3988 36.9227 18.6109 -6.0346 8.0427 -21.9139
# 2 36.9227 117.6209 41.3423 -2.2967 -10.0783 -18.0974
# 3 18.6109 41.3423 114.0564 -20.3301 -2.2003 -7.3978
# 4 -6.0346 -2.2967 -20.3301 58.7813 -1.7080 2.0296
# 5 8.0427 -10.0783 -2.2003 -1.7080 30.9643 7.9881
# 6 -21.9139 -18.0974 -7.3978 2.0296 7.9881 25.0785
#
#
#
# Elastic Compliance Matrix: (Units=1/GPa)
#
#
# Indices 1 2 3 4 5 6 
#
# 1 0.017916 -0.003822 -0.000587 0.000649 -0.009994 0.015855
# 2 -0.003822 0.011706 -0.003562 -0.001161 0.003721 0.002966
# 3 -0.000587 -0.003562 0.010772 0.003533 0.000003 -0.000193
# 4 0.000649 -0.001161 0.003533 0.018319 0.000979 -0.001023
# 5 -0.009994 0.003721 0.000003 0.000979 0.041115 -0.019222
# 6 0.015855 0.002966 -0.000193 -0.001023 -0.019222 0.062018
#
#
# Mechanical properties :
#
#
# Convention : Reuss Voigt Hill
#
# Bulk Modulus (GPa) = 40.89645 57.09198 48.99421
# Shear Modulus (GPa) = 26.89042 37.84483 32.36763
#
# Velocity S-wave (km/s) = 3.38471 4.01537 3.71345
# Velocity P-wave (km/s) = 5.71824 6.76911 6.26574
#
# Compressibility (1/GPa) = 0.02445200
#
# Stress axis : x y z
#
# Youngs Moduli (GPa) = 55.81503 85.42428 92.83427
#
# Poissons Ratio (x) = 0.32650 0.05447
# Poissons Ratio (y) = 0.21333 0.33071
# Poissons Ratio (z) = 0.03275 0.30432
#
# Static dielectric constant tensor:
#      x y z
#    x 1.977810 0.046560 0.005490 
#    y 0.046560 1.870070 -0.118730 
#    z 0.005490 -0.118730 2.014430 
# 
# From -- ./inp_files/523999.got.cif
#   From: 2010.05.17/outbox.cif.g08.bks.cpg/sg2_262_cif.got.tgz:523999.got - 2010.06.03 11:33:40.
