data_PCOD9029283
_publ_section_title
;
Structure prediction by ZEFSAII (Michael W. Deem and Ramdas Pophale) SiO2 
 PCOD9029283
Probable space group: P -1
;
_chemical_formula_sum "Si O2"
_cell_formula_units_Z 13
_cell_length_a 14.622128
_cell_length_b 6.543452
_cell_length_c 7.271619
_cell_angle_alpha 88.629956
_cell_angle_beta 53.914292
_cell_angle_gamma 63.812024
_cell_volume 477.069495
_symmetry_space_group_name_H-M "P -1"
_symmetry_group_IT_number 2
_symmetry_cell_setting 'triclinic'
loop_
_space_group_symop_operation_xyz
x,y,z
-x,-y,-z
loop_
_atom_site_type_symbol
_atom_site_label
_atom_site_fract_x
_atom_site_fract_y
_atom_site_fract_z
Si Si1 0.253830 0.385879 0.299596
Si Si2 0.410108 0.465112 0.376901
Si Si3 0.816335 0.212224 0.859621
Si Si4 0.016904 0.361920 0.698252
Si Si5 0.500000 0.000000 0.500000
Si Si6 0.193923 0.142921 0.853748
Si Si7 0.637640 0.144179 0.814548
O O1 0.273502 0.498446 0.457297
O O2 0.279748 0.506627 0.092415
O O3 0.109226 0.423577 0.464578
O O4 0.353705 0.104583 0.202414
O O5 0.456748 0.287735 0.495264
O O6 0.388828 0.723730 0.351843
O O7 0.522535 0.304583 0.093059
O O8 0.953393 0.207313 0.710361
O O9 0.773194 0.097616 0.750762
O O10 0.802205 0.088581 0.058360
O O11 0.122726 0.207082 0.739351
O O12 0.901534 0.615341 0.918531
O O13 0.342155 0.089881 0.688629
#
# Coordination Sequence:
#
# PCOD9029283 Si02
#       7
#     2   2   2   2   1   2   2
#     4  11  23  42  70 101 132 175 222 273 333 394
#     4  10  22  42  67  97 134 175 224 271 335 384
#     4  11  23  41  68  99 131 176 220 268 332 397
#     4  11  25  45  67  98 137 178 218 273 334 396
#     4  12  22  48  72  94 130 180 224 276 328 390
#     4  11  25  47  68  95 139 173 224 279 325 394
#     4  10  22  42  66  99 137 171 219 283 325 392
#
# _framework density 27.249694999999999
#
# number of rings (size 3 to 8) (size 9 to 14) (size 15 to 20)
#    0.000    1.231    3.077    2.308    0.000    3.692 
#    2.769    1.538    0.000    0.000    0.000    0.000 
#    0.000    0.000    0.000    0.000    0.000    0.000 
#
# Total GULP energy -72450.143084 kJ/mol
# GULP energy per Si atom -5573.087930 kJ/mol
# Density = 2.718767 g / cm^3
# Si number density = 27.249695 Si / 1000 Ang^3
#
#
#
# Elastic Constant Matrix: (Units=GPa)
#
#
# Indices 1 2 3 4 5 6 
#
# 1 141.1067 17.5363 59.1166 -13.1104 -38.5550 4.2670
# 2 17.5363 222.5887 45.7438 -44.9835 -15.1955 -10.0516
# 3 59.1166 45.7438 104.6095 -14.9920 -40.5360 10.7469
# 4 -13.1104 -44.9835 -14.9920 49.2314 -3.2099 -0.9405
# 5 -38.5550 -15.1955 -40.5360 -3.2099 58.5017 -0.6721
# 6 4.2670 -10.0516 10.7469 -0.9405 -0.6721 35.6818
#
#
#
# Elastic Compliance Matrix: (Units=1/GPa)
#
#
# Indices 1 2 3 4 5 6 
#
# 1 0.010064 0.000864 -0.004160 0.002479 0.004116 0.000435
# 2 0.000864 0.006132 -0.002347 0.005222 0.000851 0.002485
# 3 -0.004160 -0.002347 0.017142 0.002431 0.008601 -0.005100
# 4 0.002479 0.005222 0.002431 0.026910 0.006166 0.001268
# 5 0.004116 0.000851 0.008601 0.006166 0.026300 -0.002185
# 6 0.000435 0.002485 -0.005100 0.001268 -0.002185 0.030202
#
#
# Mechanical properties :
#
#
# Convention : Reuss Voigt Hill
#
# Bulk Modulus (GPa) = 45.34655 79.23312 62.28983
# Shear Modulus (GPa) = 36.93141 51.74353 44.33747
#
# Velocity S-wave (km/s) = 3.68543 4.36233 4.03809
# Velocity P-wave (km/s) = 5.89806 7.38329 6.68207
#
# Compressibility (1/GPa) = 0.02205240
#
# Stress axis : x y z
#
# Youngs Moduli (GPa) = 99.36568 163.06916 58.33734
#
# Poissons Ratio (x) = -0.14082 0.24265
# Poissons Ratio (y) = -0.08581 0.13691
# Poissons Ratio (z) = 0.41331 0.38269
#
# Static dielectric constant tensor:
#      x y z
#    x 2.194800 -0.035520 0.020050 
#    y -0.035520 2.148830 0.041260 
#    z 0.020050 0.041260 2.210350 
# 
# From -- ./inp_files/130970.got.cif
#   From: 2010.05.17/outbox.cif.g08.bks.cpg/sg2_66_cif.got.tgz:130970.got - 2010.06.03 11:33:40.
