data_PCOD9029625
_publ_section_title
;
Structure prediction by ZEFSAII (Michael W. Deem and Ramdas Pophale) SiO2 
 PCOD9029625
Probable space group: P -1
;
_chemical_formula_sum "Si O2"
_cell_formula_units_Z 15
_cell_length_a 14.375563
_cell_length_b 6.661123
_cell_length_c 12.160760
_cell_angle_alpha 57.242839
_cell_angle_beta 42.316650
_cell_angle_gamma 74.353594
_cell_volume 641.565827
_symmetry_space_group_name_H-M "P -1"
_symmetry_group_IT_number 2
_symmetry_cell_setting 'triclinic'
loop_
_space_group_symop_operation_xyz
x,y,z
-x,-y,-z
loop_
_atom_site_type_symbol
_atom_site_label
_atom_site_fract_x
_atom_site_fract_y
_atom_site_fract_z
Si Si1 0.226928 0.502086 0.977068
Si Si2 0.049175 0.157487 0.069424
Si Si3 0.222885 0.138881 0.286670
Si Si4 0.774360 0.971727 0.236066
Si Si5 0.527247 0.525954 0.597891
Si Si6 0.692259 0.348193 0.681512
Si Si7 0.954425 0.726482 0.416290
Si Si8 0.500000 0.500000 0.000000
O O1 0.244440 0.791556 0.885583
O O2 0.375642 0.476197 0.803459
O O3 0.205020 0.347146 0.153542
O O4 0.102206 0.383489 0.036743
O O5 0.883979 0.088862 0.201364
O O6 0.067543 0.914297 0.190457
O O7 0.142723 0.181317 0.870242
O O8 0.098277 0.111652 0.492064
O O9 0.368517 0.261201 0.184339
O O10 0.242333 0.888229 0.291733
O O11 0.625451 0.798360 0.451759
O O12 0.500000 0.500000 0.500000
O O13 0.613493 0.347262 0.633756
O O14 0.821791 0.587574 0.499989
O O15 0.583719 0.376111 0.864637
O O16 0.000000 0.500000 0.500000
#
# Coordination Sequence:
#
# PCOD9029625 Si02
#       8
#     2   2   2   2   2   2   2   1
#     4  12  25  43  70 102 134 180 235 283 351 418
#     4  11  24  45  68  98 136 184 231 286 344 410
#     4  11  25  42  70 104 139 179 229 296 353 415
#     4  11  25  46  67  96 140 183 231 286 341 416
#     4  12  25  47  70 102 141 187 233 289 348 422
#     4  11  24  46  70 102 143 181 236 289 354 420
#     4  11  24  44  70 102 141 182 232 287 358 415
#     4  10  22  42  68 100 136 186 222 288 356 410
#
# _framework density 23.380296999999999
#
# number of rings (size 3 to 8) (size 9 to 14) (size 15 to 20)
#    0.000    0.800    4.000    2.800    0.000    6.400 
#    0.000    0.000    0.000    0.000    0.000    0.000 
#    0.000    0.000    0.000    0.000    0.000    0.000 
#
# Total GULP energy -83646.466581 kJ/mol
# GULP energy per Si atom -5576.431105 kJ/mol
# Density = 2.332708 g / cm^3
# Si number density = 23.380297 Si / 1000 Ang^3
#
#
#
# Elastic Constant Matrix: (Units=GPa)
#
#
# Indices 1 2 3 4 5 6 
#
# 1 74.4998 16.7920 17.2549 -2.8272 0.7654 -4.5482
# 2 16.7920 69.5629 -4.0012 -9.0800 7.2546 -3.4179
# 3 17.2549 -4.0012 70.6033 -7.3164 -3.5004 13.1789
# 4 -2.8272 -9.0800 -7.3164 33.9929 0.7681 4.1850
# 5 0.7654 7.2546 -3.5004 0.7681 27.3844 -11.6235
# 6 -4.5482 -3.4179 13.1789 4.1850 -11.6235 22.3034
#
#
#
# Elastic Compliance Matrix: (Units=1/GPa)
#
#
# Indices 1 2 3 4 5 6 
#
# 1 0.016169 -0.004492 -0.005813 -0.002213 0.003593 0.008332
# 2 -0.004492 0.016751 0.003116 0.005431 -0.005880 -0.004274
# 3 -0.005813 0.003116 0.019162 0.006554 -0.005169 -0.015954
# 4 -0.002213 0.005431 0.006554 0.033941 -0.007289 -0.013659
# 5 0.003593 -0.005880 -0.005169 -0.007289 0.050493 0.030569
# 6 0.008332 -0.004274 -0.015954 -0.013659 0.030569 0.073802
#
#
# Mechanical properties :
#
#
# Convention : Reuss Voigt Hill
#
# Bulk Modulus (GPa) = 26.52134 30.52860 28.52497
# Shear Modulus (GPa) = 21.07362 29.04414 25.05888
#
# Velocity S-wave (km/s) = 3.00549 3.52838 3.27738
# Velocity P-wave (km/s) = 4.83860 5.44840 5.15253
#
# Compressibility (1/GPa) = 0.03770548
#
# Stress axis : x y z
#
# Youngs Moduli (GPa) = 61.84571 59.69755 52.18754
#
# Poissons Ratio (x) = 0.26815 0.30334
# Poissons Ratio (y) = 0.27780 -0.16262
# Poissons Ratio (z) = 0.35948 -0.18602
#
# Static dielectric constant tensor:
#      x y z
#    x 1.986060 -0.010650 0.022910 
#    y -0.010650 1.831860 -0.008110 
#    z 0.022910 -0.008110 1.816310 
# 
# From -- ./inp_files/124171.got.cif
#   From: 2010.05.17/outbox.cif.g08.bks.cpg/sg2_63_cif.got.tgz:124171.got - 2010.06.03 11:33:40.
