data_PCOD9029572
_publ_section_title
;
Structure prediction by ZEFSAII (Michael W. Deem and Ramdas Pophale) SiO2 
 PCOD9029572
Probable space group: P -1
;
_chemical_formula_sum "Si O2"
_cell_formula_units_Z 16
_cell_length_a 9.929232
_cell_length_b 11.799708
_cell_length_c 11.548788
_cell_angle_alpha 48.783743
_cell_angle_beta 143.620389
_cell_angle_gamma 126.351634
_cell_volume 597.799243
_symmetry_space_group_name_H-M "P -1"
_symmetry_group_IT_number 2
_symmetry_cell_setting 'triclinic'
loop_
_space_group_symop_operation_xyz
x,y,z
-x,-y,-z
loop_
_atom_site_type_symbol
_atom_site_label
_atom_site_fract_x
_atom_site_fract_y
_atom_site_fract_z
Si Si1 0.892841 0.656353 0.947455
Si Si2 0.279251 0.508521 0.423356
Si Si3 0.399281 0.527346 0.761169
Si Si4 0.191584 0.736614 0.584425
Si Si5 0.660655 0.047826 0.238943
Si Si6 0.349195 0.118803 0.263814
Si Si7 0.239191 0.168497 0.899599
Si Si8 0.114992 0.231265 0.375465
O O1 0.685504 0.546793 0.935802
O O2 0.842407 0.827409 0.824883
O O3 0.875618 0.650111 0.801863
O O4 0.129018 0.624620 0.184345
O O5 0.500000 0.500000 0.500000
O O6 0.337355 0.549522 0.566945
O O7 0.130975 0.337348 0.429833
O O8 0.177314 0.558422 0.674318
O O9 0.359377 0.341258 0.877242
O O10 0.279770 0.847123 0.675738
O O11 0.445683 0.735922 0.693518
O O12 0.008878 0.817211 0.333038
O O13 0.880842 0.117369 0.270588
O O14 0.687004 0.875328 0.405271
O O15 0.412768 0.080096 0.004759
O O16 0.500000 0.000000 0.500000
O O17 0.244647 0.093581 0.081281
#
# Coordination Sequence:
#
# PCOD9029572 Si02
#       8
#     2   2   2   2   2   2   2   2
#     4  11  23  42  67  93 133 177 214 273 337 384
#     4  12  25  42  65  98 132 171 224 276 322 392
#     4  11  24  41  68 101 129 168 222 275 335 393
#     4  10  22  42  67  98 131 167 219 277 328 393
#     4  10  24  43  65  96 132 179 221 270 326 400
#     4  10  23  43  65  97 132 171 216 267 333 401
#     4  11  22  40  67  96 132 171 215 274 334 388
#     4  11  23  46  65  91 138 177 223 271 326 396
#
# _framework density 26.764835000000001
#
# number of rings (size 3 to 8) (size 9 to 14) (size 15 to 20)
#    0.000    1.250    1.250    4.500    1.750    7.000 
#    4.500    1.875    0.000    0.000    0.000    0.000 
#    0.000    0.000    0.000    0.000    0.000    0.000 
#
# Total GULP energy -89349.103324 kJ/mol
# GULP energy per Si atom -5584.318958 kJ/mol
# Density = 2.670392 g / cm^3
# Si number density = 26.764835 Si / 1000 Ang^3
#
#
#
# Elastic Constant Matrix: (Units=GPa)
#
#
# Indices 1 2 3 4 5 6 
#
# 1 46.4377 2.7627 47.7268 6.0247 8.8498 -14.4228
# 2 2.7627 59.5099 19.3214 1.1602 -1.8374 -5.6823
# 3 47.7268 19.3214 220.4820 -0.1487 19.3260 -6.6132
# 4 6.0247 1.1602 -0.1487 44.1162 -2.5463 11.9028
# 5 8.8498 -1.8374 19.3260 -2.5463 42.8236 0.2521
# 6 -14.4228 -5.6823 -6.6132 11.9028 0.2521 38.5838
#
#
#
# Elastic Compliance Matrix: (Units=1/GPa)
#
#
# Indices 1 2 3 4 5 6 
#
# 1 0.035444 0.002118 -0.006993 -0.009311 -0.004722 0.015266
# 2 0.002118 0.017765 -0.002007 -0.001662 0.001110 0.003570
# 3 -0.006993 -0.002007 0.006277 0.001573 -0.001366 -0.002310
# 4 -0.009311 -0.001662 0.001573 0.027367 0.002840 -0.011917
# 5 -0.004722 0.001110 -0.001366 0.002840 0.025177 -0.002876
# 6 0.015266 0.003570 -0.002310 -0.011917 -0.002876 0.035449
#
#
# Mechanical properties :
#
#
# Convention : Reuss Voigt Hill
#
# Bulk Modulus (GPa) = 21.87071 51.78349 36.82710
# Shear Modulus (GPa) = 28.33159 42.21264 35.27212
#
# Velocity S-wave (km/s) = 3.25705 3.97567 3.63416
# Velocity P-wave (km/s) = 4.72585 6.36114 5.60347
#
# Compressibility (1/GPa) = 0.04572326
#
# Stress axis : x y z
#
# Youngs Moduli (GPa) = 28.21358 56.29157 159.32273
#
# Poissons Ratio (x) = -0.11924 1.11407
# Poissons Ratio (y) = -0.05976 0.31971
# Poissons Ratio (z) = 0.19729 0.11296
#
# Static dielectric constant tensor:
#      x y z
#    x 4.386250 -1.185620 -1.242880 
#    y -1.185620 3.307700 0.939620 
#    z -1.242880 0.939620 2.881680 
# 
# From -- ./inp_files/522311.got.cif
#   From: 2010.05.17/outbox.cif.g08.bks.cpg/sg2_262_cif.got.tgz:522311.got - 2010.06.03 11:33:40.
