data_PCOD9029040
_publ_section_title
;
Structure prediction by ZEFSAII (Michael W. Deem and Ramdas Pophale) SiO2 
 PCOD9029040
Probable space group: P -1
;
_chemical_formula_sum "Si O2"
_cell_formula_units_Z 12
_cell_length_a 8.882375
_cell_length_b 8.589635
_cell_length_c 15.485028
_cell_angle_alpha 34.256402
_cell_angle_beta 120.847137
_cell_angle_gamma 131.170231
_cell_volume 499.238076
_symmetry_space_group_name_H-M "P -1"
_symmetry_group_IT_number 2
_symmetry_cell_setting 'triclinic'
loop_
_space_group_symop_operation_xyz
x,y,z
-x,-y,-z
loop_
_atom_site_type_symbol
_atom_site_label
_atom_site_fract_x
_atom_site_fract_y
_atom_site_fract_z
Si Si1 0.114886 0.814092 0.092175
Si Si2 0.380147 0.315233 0.346437
Si Si3 0.201764 0.805919 0.653217
Si Si4 0.503951 0.171962 0.135997
Si Si5 0.225754 0.703161 0.008754
Si Si6 0.785732 0.362825 0.452409
O O1 0.208512 0.929470 0.971742
O O2 0.969060 0.436878 0.222206
O O3 0.284933 0.900599 0.173109
O O4 0.000000 0.000000 0.000000
O O5 0.317901 0.533677 0.174879
O O6 0.612655 0.455978 0.379356
O O7 0.236214 0.131664 0.470399
O O8 0.328632 0.021058 0.400987
O O9 0.403426 0.895544 0.722323
O O10 0.173518 0.591303 0.659201
O O11 0.500000 0.500000 0.000000
O O12 0.636349 0.188562 0.084350
O O13 0.000000 0.500000 0.000000
O O14 0.000000 0.500000 0.500000
#
# Coordination Sequence:
#
# PCOD9029040 Si02
#       6
#     2   2   2   2   2   2
#     4  12  26  44  72 104 141 192 245 291 363 422
#     4   9  23  42  67 101 146 180 242 287 362 417
#     4  10  22  42  66 102 134 184 232 290 353 417
#     4  12  24  45  72 100 147 184 239 298 354 429
#     4  12  25  49  71 106 147 193 235 303 357 427
#     4   9  20  39  70 104 140 187 233 289 359 423
#
# _framework density 24.036628
#
# number of rings (size 3 to 8) (size 9 to 14) (size 15 to 20)
#    1.000    0.333    3.333    1.500    2.333    2.000 
#    3.000    0.833    0.000    0.000    0.000    0.000 
#    0.000    0.000    0.000    0.000    0.000    0.000 
#
# Total GULP energy -66954.428118 kJ/mol
# GULP energy per Si atom -5579.535676 kJ/mol
# Density = 2.398192 g / cm^3
# Si number density = 24.036628 Si / 1000 Ang^3
#
#
#
# Elastic Constant Matrix: (Units=GPa)
#
#
# Indices 1 2 3 4 5 6 
#
# 1 132.5128 31.1012 48.9873 8.7486 2.4909 2.8463
# 2 31.1012 118.7673 37.0942 48.4139 15.2139 26.9488
# 3 48.9873 37.0942 128.0868 25.0399 3.7262 0.7123
# 4 8.7486 48.4139 25.0399 44.8060 3.7170 8.8446
# 5 2.4909 15.2139 3.7262 3.7170 42.7289 7.2779
# 6 2.8463 26.9488 0.7123 8.8446 7.2779 54.3960
#
#
#
# Elastic Compliance Matrix: (Units=1/GPa)
#
#
# Indices 1 2 3 4 5 6 
#
# 1 0.009193 -0.002656 -0.003311 0.002821 0.000391 0.000367
# 2 -0.002656 0.018102 -0.000715 -0.017239 -0.003790 -0.005510
# 3 -0.003311 -0.000715 0.010154 -0.004462 -0.000246 0.001153
# 4 0.002821 -0.017239 -0.004462 0.042443 0.002463 0.001221
# 5 0.000391 -0.003790 -0.000246 0.002463 0.024855 -0.001866
# 6 0.000367 -0.005510 0.001153 0.001221 -0.001866 0.021130
#
#
# Mechanical properties :
#
#
# Convention : Reuss Voigt Hill
#
# Bulk Modulus (GPa) = 41.52492 68.19247 54.85869
# Shear Modulus (GPa) = 33.95135 45.86512 39.90824
#
# Velocity S-wave (km/s) = 3.76238 4.37296 4.07911
# Velocity P-wave (km/s) = 6.01558 7.34363 6.71253
#
# Compressibility (1/GPa) = 0.02408193
#
# Stress axis : x y z
#
# Youngs Moduli (GPa) = 108.78376 55.24352 98.48457
#
# Poissons Ratio (x) = 0.14675 0.32611
# Poissons Ratio (y) = 0.28897 0.07046
# Poissons Ratio (z) = 0.36022 0.03952
#
# Static dielectric constant tensor:
#      x y z
#    x 2.049950 0.013870 -0.010060 
#    y 0.013870 1.921570 -0.063750 
#    z -0.010060 -0.063750 1.920100 
# 
# From -- ./inp_files/491892.got.cif
#   From: 2010.05.17/outbox.cif.g08.bks.cpg/sg2_246_cif.got.tgz:491892.got - 2010.06.03 11:33:40.
