data_PCOD9029821
_publ_section_title
;
Structure prediction by ZEFSAII (Michael W. Deem and Ramdas Pophale) SiO2 
 PCOD9029821
Probable space group: P -1
;
_chemical_formula_sum "Si O2"
_cell_formula_units_Z 16
_cell_length_a 19.528142
_cell_length_b 15.768301
_cell_length_c 10.923139
_cell_angle_alpha 24.269003
_cell_angle_beta 146.847025
_cell_angle_gamma 150.259790
_cell_volume 668.382069
_symmetry_space_group_name_H-M "P -1"
_symmetry_group_IT_number 2
_symmetry_cell_setting 'triclinic'
loop_
_space_group_symop_operation_xyz
x,y,z
-x,-y,-z
loop_
_atom_site_type_symbol
_atom_site_label
_atom_site_fract_x
_atom_site_fract_y
_atom_site_fract_z
Si Si1 0.504788 0.667510 0.961569
Si Si2 0.426280 0.992429 0.588080
Si Si3 0.025693 0.281540 0.854638
Si Si4 0.882092 0.194043 0.521822
Si Si5 0.328295 0.949831 0.954000
Si Si6 0.718760 0.759104 0.689736
Si Si7 0.119713 0.501558 0.088250
Si Si8 0.188787 0.085136 0.788920
O O1 0.512064 0.761036 0.713483
O O2 0.446415 0.813842 0.762833
O O3 0.399601 0.399835 0.182817
O O4 0.662673 0.750722 0.137293
O O5 0.263193 0.896334 0.501029
O O6 0.523335 0.015366 0.818653
O O7 0.000051 0.199165 0.782502
O O8 0.000000 0.500000 0.500000
O O9 0.182950 0.359373 0.035417
O O10 0.915663 0.095090 0.029785
O O11 0.837694 0.003819 0.598554
O O12 0.912594 0.428045 0.186096
O O13 0.349395 0.174470 0.611995
O O14 0.228708 0.952403 0.915087
O O15 0.258907 0.719287 0.068802
O O16 0.129871 0.260933 0.422124
O O17 0.000000 0.500000 0.000000
#
# Coordination Sequence:
#
# PCOD9029821 Si02
#       8
#     2   2   2   2   2   2   2   2
#     4  10  23  42  67 105 134 181 232 285 341 410
#     4  10  22  42  68  95 142 173 236 280 345 404
#     4  12  27  46  70  99 137 186 233 281 348 417
#     4  11  25  45  68 102 137 183 228 291 342 415
#     4  10  26  44  69 105 138 182 229 289 346 412
#     4  11  26  42  69 102 140 178 232 284 351 410
#     4  11  27  45  70 101 144 181 233 288 343 415
#     4  11  25  46  73 100 141 184 234 286 347 414
#
# _framework density 23.938403999999998
#
# number of rings (size 3 to 8) (size 9 to 14) (size 15 to 20)
#    0.000    1.250    1.250    2.625   12.250    4.500 
#    0.000    0.000    0.000    0.000    0.000    0.000 
#    0.000    0.000    0.000    0.000    0.000    0.000 
#
# Total GULP energy -89498.634075 kJ/mol
# GULP energy per Si atom -5593.664630 kJ/mol
# Density = 2.388392 g / cm^3
# Si number density = 23.938404 Si / 1000 Ang^3
#
#
#
# Elastic Constant Matrix: (Units=GPa)
#
#
# Indices 1 2 3 4 5 6 
#
# 1 48.9768 -5.5305 28.2428 -3.0296 -18.5902 3.5210
# 2 -5.5305 36.4919 21.6536 -8.6047 -11.7608 5.0580
# 3 28.2428 21.6536 157.7218 -4.8795 -34.4145 8.3092
# 4 -3.0296 -8.6047 -4.8795 37.8274 -1.0459 1.4432
# 5 -18.5902 -11.7608 -34.4145 -1.0459 48.2552 -7.4168
# 6 3.5210 5.0580 8.3092 1.4432 -7.4168 38.8621
#
#
#
# Elastic Compliance Matrix: (Units=1/GPa)
#
#
# Indices 1 2 3 4 5 6 
#
# 1 0.028590 0.011563 -0.004139 0.004735 0.010779 -0.001329
# 2 0.011563 0.037803 -0.004595 0.009341 0.010069 -0.003411
# 3 -0.004139 -0.004595 0.008429 -0.000192 0.003262 -0.000199
# 4 0.004735 0.009341 -0.000192 0.029105 0.004309 -0.001862
# 5 0.010779 0.010069 0.003262 0.004309 0.030151 0.002610
# 6 -0.001329 -0.003411 -0.000199 -0.001862 0.002610 0.026906
#
#
# Mechanical properties :
#
#
# Convention : Reuss Voigt Hill
#
# Bulk Modulus (GPa) = 12.42523 36.88026 24.65274
# Shear Modulus (GPa) = 27.44978 38.24390 32.84684
#
# Velocity S-wave (km/s) = 3.38995 4.00133 3.70826
# Velocity P-wave (km/s) = 4.53035 6.06525 5.35310
#
# Compressibility (1/GPa) = 0.08048140
#
# Stress axis : x y z
#
# Youngs Moduli (GPa) = 34.97727 26.45305 118.64486
#
# Poissons Ratio (x) = -0.30589 0.49102
# Poissons Ratio (y) = -0.40445 0.54515
# Poissons Ratio (z) = 0.14476 0.12155
#
# Static dielectric constant tensor:
#      x y z
#    x 2.006970 -0.149370 0.094610 
#    y -0.149370 2.004940 -0.083760 
#    z 0.094610 -0.083760 1.950320 
# 
# From -- ./inp_files/419460.got.cif
#   From: 2010.05.17/outbox.cif.g08.bks.cpg/sg2_210_cif.got.tgz:419460.got - 2010.06.03 11:33:40.
