data_PCOD9029248
_publ_section_title
;
Structure prediction by ZEFSAII (Michael W. Deem and Ramdas Pophale) SiO2 
 PCOD9029248
Probable space group: P -1
;
_chemical_formula_sum "Si O2"
_cell_formula_units_Z 16
_cell_length_a 9.804769
_cell_length_b 7.688766
_cell_length_c 16.522089
_cell_angle_alpha 40.666086
_cell_angle_beta 114.059171
_cell_angle_gamma 119.963851
_cell_volume 702.254574
_symmetry_space_group_name_H-M "P -1"
_symmetry_group_IT_number 2
_symmetry_cell_setting 'triclinic'
loop_
_space_group_symop_operation_xyz
x,y,z
-x,-y,-z
loop_
_atom_site_type_symbol
_atom_site_label
_atom_site_fract_x
_atom_site_fract_y
_atom_site_fract_z
Si Si1 0.568341 0.419663 0.295644
Si Si2 0.698136 0.643446 0.418179
Si Si3 0.011645 0.816364 0.368643
Si Si4 0.753111 0.632523 0.787429
Si Si5 0.010085 0.363188 0.901651
Si Si6 0.880810 0.788061 0.167804
Si Si7 0.561721 0.102917 0.675569
Si Si8 0.664176 0.649899 0.941796
O O1 0.656279 0.465821 0.386607
O O2 0.411443 0.500085 0.250623
O O3 0.697071 0.628358 0.194278
O O4 0.509648 0.124297 0.335246
O O5 0.874177 0.855961 0.377767
O O6 0.672301 0.402517 0.564061
O O7 0.582790 0.824145 0.343667
O O8 0.961829 0.850696 0.252264
O O9 0.000000 0.500000 0.500000
O O10 0.183840 0.038662 0.338291
O O11 0.693416 0.557602 0.890997
O O12 0.910296 0.554747 0.839572
O O13 0.027959 0.379642 0.803721
O O14 0.188344 0.395784 0.960408
O O15 0.909826 0.065495 0.022757
O O16 0.654088 0.960505 0.809623
O O17 0.500000 0.500000 0.000000
#
# Coordination Sequence:
#
# PCOD9029248 Si02
#       8
#     2   2   2   2   2   2   2   2
#     4  10  22  43  64  97 133 176 215 278 337 391
#     4  10  23  40  71  95 128 175 222 279 325 410
#     4  11  23  43  67  97 133 173 220 278 340 390
#     4  11  24  41  68  97 133 173 225 271 335 395
#     4  11  23  42  64  96 135 173 223 272 326 401
#     4  10  24  41  65  92 135 176 215 276 334 392
#     4  10  22  42  66  98 130 171 228 267 338 394
#     4  11  23  38  66  94 133 177 215 274 328 396
#
# _framework density 22.783760000000001
#
# number of rings (size 3 to 8) (size 9 to 14) (size 15 to 20)
#    0.000    1.500    1.250    3.750    3.500    4.500 
#    2.250    0.625    0.000    0.000    0.000    0.000 
#    0.000    0.000    0.000    0.000    0.000    0.000 
#
# Total GULP energy -89220.354757 kJ/mol
# GULP energy per Si atom -5576.272172 kJ/mol
# Density = 2.273190 g / cm^3
# Si number density = 22.783760 Si / 1000 Ang^3
#
#
#
# Elastic Constant Matrix: (Units=GPa)
#
#
# Indices 1 2 3 4 5 6 
#
# 1 206.2929 36.2706 51.5545 -13.1939 -9.0127 17.8260
# 2 36.2706 36.9083 4.5840 -10.1173 0.9723 9.0314
# 3 51.5545 4.5840 54.5108 -9.7134 -0.1407 7.2990
# 4 -13.1939 -10.1173 -9.7134 11.2445 -0.9742 -1.2121
# 5 -9.0127 0.9723 -0.1407 -0.9742 42.6972 -11.2920
# 6 17.8260 9.0314 7.2990 -1.2121 -11.2920 40.5947
#
#
#
# Elastic Compliance Matrix: (Units=1/GPa)
#
#
# Indices 1 2 3 4 5 6 
#
# 1 0.007988 -0.008173 -0.007660 -0.004441 0.001757 0.000044
# 2 -0.008173 0.047646 0.012562 0.042778 -0.004217 -0.009166
# 3 -0.007660 0.012562 0.030068 0.027574 -0.002414 -0.004685
# 4 -0.004441 0.042778 0.027574 0.145062 -0.000731 -0.008397
# 5 0.001757 -0.004217 -0.002414 -0.000731 0.025923 0.007789
# 6 0.000044 -0.009166 -0.004685 -0.008397 0.007789 0.029412
#
#
# Mechanical properties :
#
#
# Convention : Reuss Voigt Hill
#
# Bulk Modulus (GPa) = 12.63271 53.61445 33.12358
# Shear Modulus (GPa) = 15.67272 32.59415 24.13344
#
# Velocity S-wave (km/s) = 2.62561 3.78641 3.25813
# Velocity P-wave (km/s) = 3.84037 6.53444 5.35944
#
# Compressibility (1/GPa) = 0.07915958
#
# Stress axis : x y z
#
# Youngs Moduli (GPa) = 125.19409 20.98825 33.25832
#
# Poissons Ratio (x) = 0.17153 0.25475
# Poissons Ratio (y) = 1.02317 -0.41779
# Poissons Ratio (z) = 0.95897 -0.26365
#
# Static dielectric constant tensor:
#      x y z
#    x 1.870810 0.047270 0.012450 
#    y 0.047270 1.599870 0.137910 
#    z 0.012450 0.137910 1.796510 
# 
# From -- ./inp_files/556805.got.cif
#   From: 2010.05.17/outbox.cif.g08.bks.cpg/sg2_279_cif.got.tgz:556805.got - 2010.06.03 11:33:40.
