data_PCOD9029702
_publ_section_title
;
Structure prediction by ZEFSAII (Michael W. Deem and Ramdas Pophale) SiO2 
 PCOD9029702
Probable space group: P -1
;
_chemical_formula_sum "Si O2"
_cell_formula_units_Z 14
_cell_length_a 6.817572
_cell_length_b 5.580139
_cell_length_c 18.318088
_cell_angle_alpha 73.690543
_cell_angle_beta 129.055901
_cell_angle_gamma 110.909557
_cell_volume 504.002174
_symmetry_space_group_name_H-M "P -1"
_symmetry_group_IT_number 2
_symmetry_cell_setting 'triclinic'
loop_
_space_group_symop_operation_xyz
x,y,z
-x,-y,-z
loop_
_atom_site_type_symbol
_atom_site_label
_atom_site_fract_x
_atom_site_fract_y
_atom_site_fract_z
Si Si1 0.842736 0.659587 0.557176
Si Si2 0.043257 0.469304 0.768942
Si Si3 0.326712 0.821601 0.544273
Si Si4 0.092542 0.010051 0.893093
Si Si5 0.558801 0.283204 0.780564
Si Si6 0.527742 0.814972 0.732320
Si Si7 0.504305 0.860722 0.918581
O O1 0.686073 0.416515 0.492885
O O2 0.913533 0.556167 0.660293
O O3 0.098155 0.741343 0.558660
O O4 0.727596 0.911868 0.519633
O O5 0.316002 0.665811 0.836601
O O6 0.825224 0.417709 0.787977
O O7 0.099709 0.188130 0.808256
O O8 0.574022 0.872827 0.652051
O O9 0.294611 0.842161 0.936511
O O10 0.794509 0.860500 0.839119
O O11 0.231571 0.178893 0.979525
O O12 0.415139 0.509759 0.735455
O O13 0.412568 0.049733 0.714014
O O14 0.591304 0.137464 0.875000
#
# Coordination Sequence:
#
# PCOD9029702 Si02
#       7
#     2   2   2   2   2   2   2
#     4  10  23  40  71 102 142 178 238 284 351 420
#     4  11  24  45  70 106 140 186 233 302 339 431
#     4  10  22  42  68 106 135 188 229 289 353 414
#     4  10  25  45  70 104 140 187 241 283 362 410
#     4  11  26  42  72 104 140 188 237 280 359 410
#     4  11  23  47  68 107 143 180 239 291 342 428
#     4  11  24  46  72 100 145 190 231 300 340 427
#
# _framework density 27.777659
#
# number of rings (size 3 to 8) (size 9 to 14) (size 15 to 20)
#    0.000    1.429    1.429    2.143    6.000    4.000 
#    0.000   10.000    0.000    0.000    0.000    0.000 
#    0.000    0.000    0.000    0.000    0.000    0.000 
#
# Total GULP energy -78202.875497 kJ/mol
# GULP energy per Si atom -5585.919678 kJ/mol
# Density = 2.771444 g / cm^3
# Si number density = 27.777659 Si / 1000 Ang^3
#
#
#
# Elastic Constant Matrix: (Units=GPa)
#
#
# Indices 1 2 3 4 5 6 
#
# 1 69.5825 32.9096 14.1223 3.5243 0.7675 4.8020
# 2 32.9096 189.2293 81.2250 -3.2764 -6.2075 -15.3216
# 3 14.1223 81.2250 193.8396 0.3509 -8.8989 -10.0360
# 4 3.5243 -3.2764 0.3509 52.6619 5.4077 -10.9609
# 5 0.7675 -6.2075 -8.8989 5.4077 42.7791 2.8980
# 6 4.8020 -15.3216 -10.0360 -10.9609 2.8980 71.0950
#
#
#
# Elastic Compliance Matrix: (Units=1/GPa)
#
#
# Indices 1 2 3 4 5 6 
#
# 1 0.016004 -0.002966 -0.000040 -0.001623 -0.000388 -0.001960
# 2 -0.002966 0.007091 -0.002666 0.000935 0.000309 0.001484
# 3 -0.000040 -0.002666 0.006336 -0.000252 0.000947 0.000245
# 4 -0.001623 0.000935 -0.000252 0.020159 -0.002672 0.003492
# 5 -0.000388 0.000309 0.000947 -0.002672 0.024041 -0.001166
# 6 -0.001960 0.001484 0.000245 0.003492 -0.001166 0.015138
#
#
# Mechanical properties :
#
#
# Convention : Reuss Voigt Hill
#
# Bulk Modulus (GPa) = 55.28584 78.79614 67.04099
# Shear Modulus (GPa) = 47.10684 54.93350 51.02017
#
# Velocity S-wave (km/s) = 4.12254 4.45186 4.29036
# Velocity P-wave (km/s) = 6.52738 7.40633 6.98070
#
# Compressibility (1/GPa) = 0.01808781
#
# Stress axis : x y z
#
# Youngs Moduli (GPa) = 62.48447 141.01911 157.83902
#
# Poissons Ratio (x) = 0.41825 0.00624
# Poissons Ratio (y) = 0.18532 0.42081
# Poissons Ratio (z) = 0.00247 0.37597
#
# Static dielectric constant tensor:
#      x y z
#    x 2.425080 -0.035070 0.000760 
#    y -0.035070 2.196790 0.010300 
#    z 0.000760 0.010300 2.273960 
# 
# From -- ./inp_files/585618.got.cif
#   From: 2010.05.17/outbox.cif.g08.bks.cpg/sg2_293_cif.got.tgz:585618.got - 2010.06.03 11:33:40.
