data_PCOD9029405
_publ_section_title
;
Structure prediction by ZEFSAII (Michael W. Deem and Ramdas Pophale) SiO2 
 PCOD9029405
Probable space group: P -1
;
_chemical_formula_sum "Si O2"
_cell_formula_units_Z 16
_cell_length_a 12.067863
_cell_length_b 11.894155
_cell_length_c 22.997979
_cell_angle_alpha 156.831924
_cell_angle_beta 40.304106
_cell_angle_gamma 141.327753
_cell_volume 797.913876
_symmetry_space_group_name_H-M "P -1"
_symmetry_group_IT_number 2
_symmetry_cell_setting 'triclinic'
loop_
_space_group_symop_operation_xyz
x,y,z
-x,-y,-z
loop_
_atom_site_type_symbol
_atom_site_label
_atom_site_fract_x
_atom_site_fract_y
_atom_site_fract_z
Si Si1 0.484491 0.327542 0.174147
Si Si2 0.875379 0.891402 0.618605
Si Si3 0.798526 0.490521 0.566177
Si Si4 0.747408 0.347841 0.827770
Si Si5 0.276760 0.231841 0.614753
Si Si6 0.346468 0.077797 0.816499
Si Si7 0.129061 0.449564 0.661918
Si Si8 0.563048 0.895068 0.336199
O O1 0.281250 0.314701 0.266197
O O2 0.608777 0.504364 0.262454
O O3 0.533969 0.561083 0.211802
O O4 0.500000 0.000000 0.000000
O O5 0.782932 0.624429 0.572410
O O6 0.883140 0.766770 0.491259
O O7 0.774254 0.138311 0.769920
O O8 0.079240 0.058758 0.636596
O O9 0.000000 0.500000 0.500000
O O10 0.676569 0.144681 0.454733
O O11 0.560805 0.169142 0.786312
O O12 0.927615 0.419128 0.750346
O O13 0.722787 0.654071 0.006010
O O14 0.236179 0.364838 0.632682
O O15 0.382705 0.991012 0.447379
O O16 0.329193 0.049747 0.740894
O O17 0.237640 0.778545 0.751558
#
# Coordination Sequence:
#
# PCOD9029405 Si02
#       8
#     2   2   2   2   2   2   2   2
#     4  11  26  44  66  93 129 175 219 275 334 385
#     4  11  21  40  66  95 128 163 221 263 330 384
#     4  11  23  42  66  95 124 169 221 271 320 396
#     4  10  24  38  59  95 139 169 210 269 322 398
#     4  10  22  42  67  93 130 169 214 276 317 399
#     4  11  23  39  63  94 133 177 212 264 330 389
#     4  11  22  41  66  99 130 171 220 263 334 384
#     4  11  22  42  64  88 128 165 223 259 329 387
#
# _framework density 20.052288999999998
#
# number of rings (size 3 to 8) (size 9 to 14) (size 15 to 20)
#    0.000    1.250    1.250    6.375    5.250    2.000 
#    4.500    1.250    0.000    0.000    0.000    0.000 
#    0.000    0.000    0.000    0.000    0.000    0.000 
#
# Total GULP energy -89414.486333 kJ/mol
# GULP energy per Si atom -5588.405396 kJ/mol
# Density = 2.000665 g / cm^3
# Si number density = 20.052289 Si / 1000 Ang^3
#
#
#
# Elastic Constant Matrix: (Units=GPa)
#
#
# Indices 1 2 3 4 5 6 
#
# 1 69.1808 41.6141 42.2638 8.3160 -19.0410 -0.7635
# 2 41.6141 107.5562 69.9904 12.7775 -17.1265 -17.1672
# 3 42.2638 69.9904 126.8679 26.0491 -20.3861 8.1199
# 4 8.3160 12.7775 26.0491 27.3757 -1.5607 -6.0296
# 5 -19.0410 -17.1265 -20.3861 -1.5607 27.8334 0.9792
# 6 -0.7635 -17.1672 8.1199 -6.0296 0.9792 37.8200
#
#
#
# Elastic Compliance Matrix: (Units=1/GPa)
#
#
# Indices 1 2 3 4 5 6 
#
# 1 0.022162 -0.005809 -0.001975 -0.002085 0.010106 -0.002359
# 2 -0.005809 0.020030 -0.011023 0.005608 0.000161 0.012231
# 3 -0.001975 -0.011023 0.019334 -0.014913 0.005603 -0.011717
# 4 -0.002085 0.005608 -0.014913 0.051465 -0.006508 0.014079
# 5 0.010106 0.000161 0.005603 -0.006508 0.046791 -0.003175
# 6 -0.002359 0.012231 -0.011717 0.014079 -0.003175 0.036788
#
#
# Mechanical properties :
#
#
# Convention : Reuss Voigt Hill
#
# Bulk Modulus (GPa) = 41.82213 67.92685 54.87449
# Shear Modulus (GPa) = 20.64792 28.58826 24.61809
#
# Velocity S-wave (km/s) = 3.21238 3.77992 3.50765
# Velocity P-wave (km/s) = 5.88736 7.28003 6.62042
#
# Compressibility (1/GPa) = 0.02391078
#
# Stress axis : x y z
#
# Youngs Moduli (GPa) = 45.12243 49.92528 51.72274
#
# Poissons Ratio (x) = 0.29001 0.10216
# Poissons Ratio (y) = 0.26211 0.57016
# Poissons Ratio (z) = 0.08912 0.55035
#
# Static dielectric constant tensor:
#      x y z
#    x 1.732280 -0.003430 0.001350 
#    y -0.003430 1.723130 0.005900 
#    z 0.001350 0.005900 1.695410 
# 
# From -- ./inp_files/269750.got.cif
#   From: 2010.05.17/outbox.cif.g08.bks.cpg/sg2_135_cif.got.tgz:269750.got - 2010.06.03 11:33:40.
