data_PCOD9029624
_publ_section_title
;
Structure prediction by ZEFSAII (Michael W. Deem and Ramdas Pophale) SiO2 
 PCOD9029624
Probable space group: P -1
;
_chemical_formula_sum "Si O2"
_cell_formula_units_Z 15
_cell_length_a 21.779608
_cell_length_b 10.012846
_cell_length_c 12.085365
_cell_angle_alpha 57.958453
_cell_angle_beta 34.150044
_cell_angle_gamma 34.191213
_cell_volume 725.599522
_symmetry_space_group_name_H-M "P -1"
_symmetry_group_IT_number 2
_symmetry_cell_setting 'triclinic'
loop_
_space_group_symop_operation_xyz
x,y,z
-x,-y,-z
loop_
_atom_site_type_symbol
_atom_site_label
_atom_site_fract_x
_atom_site_fract_y
_atom_site_fract_z
Si Si1 0.007632 0.586050 0.066107
Si Si2 0.773130 0.103036 0.078737
Si Si3 0.894440 0.205629 0.668919
Si Si4 0.146305 0.183381 0.407128
Si Si5 0.500000 0.500000 0.500000
Si Si6 0.600299 0.998213 0.264414
Si Si7 0.313139 0.030657 0.456060
Si Si8 0.524978 0.826293 0.866951
O O1 0.217624 0.312032 0.915498
O O2 0.856071 0.706330 0.328682
O O3 0.000000 0.500000 0.000000
O O4 0.944940 0.834732 0.016149
O O5 0.851007 0.123025 0.859321
O O6 0.626678 0.366347 0.257606
O O7 0.670762 0.072485 0.188631
O O8 0.698126 0.519723 0.789154
O O9 0.031429 0.175573 0.529381
O O10 0.000000 0.000000 0.500000
O O11 0.000000 0.500000 0.500000
O O12 0.223087 0.055590 0.471682
O O13 0.327049 0.011755 0.136809
O O14 0.422137 0.774640 0.478536
O O15 0.500000 0.000000 0.500000
O O16 0.482405 0.182007 0.251605
O O17 0.433673 0.037746 0.233724
#
# Coordination Sequence:
#
# PCOD9029624 Si02
#       8
#     2   2   2   2   1   2   2   2
#     4   9  20  41  68  98 136 181 231 286 351 420
#     4  10  23  44  67  99 145 177 233 296 352 423
#     4  12  29  47  73 105 146 191 242 307 358 425
#     4  12  26  47  74 105 141 198 244 284 365 440
#     4  10  22  42  68 100 136 180 228 290 358 414
#     4  11  23  41  72 104 134 186 235 290 362 431
#     4  11  23  44  72 100 143 184 235 298 352 431
#     4  12  26  45  73 102 144 187 241 297 360 432
#
# _framework density 20.672561999999999
#
# number of rings (size 3 to 8) (size 9 to 14) (size 15 to 20)
#    0.000    1.067    1.333    5.200    7.467    3.200 
#    4.800    1.333    0.000    0.000    0.000    0.000 
#    0.000    0.000    0.000    0.000    0.000    0.000 
#
# Total GULP energy -83617.048324 kJ/mol
# GULP energy per Si atom -5574.469888 kJ/mol
# Density = 2.062551 g / cm^3
# Si number density = 20.672562 Si / 1000 Ang^3
#
#
#
# Elastic Constant Matrix: (Units=GPa)
#
#
# Indices 1 2 3 4 5 6 
#
# 1 81.9132 9.7022 50.0024 -2.2644 2.5562 8.9830
# 2 9.7022 67.4370 52.3099 -3.1234 -13.6316 7.6248
# 3 50.0024 52.3099 183.7004 -9.9880 9.7454 14.7900
# 4 -2.2644 -3.1234 -9.9880 35.3376 1.6696 7.9462
# 5 2.5562 -13.6316 9.7454 1.6696 37.2152 2.1996
# 6 8.9830 7.6248 14.7900 7.9462 2.1996 35.3891
#
#
#
# Elastic Compliance Matrix: (Units=1/GPa)
#
#
# Indices 1 2 3 4 5 6 
#
# 1 0.014934 0.001728 -0.004384 0.000385 0.000884 -0.002472
# 2 0.001728 0.022559 -0.007179 0.000267 0.010190 -0.002992
# 3 -0.004384 -0.007179 0.009163 0.002207 -0.004746 -0.001371
# 4 0.000385 0.000267 0.002207 0.030816 -0.001422 -0.007908
# 5 0.000884 0.010190 -0.004746 -0.001422 0.031973 -0.002104
# 6 -0.002472 -0.002992 -0.001371 -0.007908 -0.002104 0.032009
#
#
# Mechanical properties :
#
#
# Convention : Reuss Voigt Hill
#
# Bulk Modulus (GPa) = 37.05645 61.89772 49.47709
# Shear Modulus (GPa) = 29.39092 36.32411 32.85752
#
# Velocity S-wave (km/s) = 3.77468 4.19635 3.99109
# Velocity P-wave (km/s) = 6.07964 7.31342 6.72488
#
# Compressibility (1/GPa) = 0.02698585
#
# Stress axis : x y z
#
# Youngs Moduli (GPa) = 66.96325 44.32737 109.12920
#
# Poissons Ratio (x) = -0.07660 0.47841
# Poissons Ratio (y) = -0.11572 0.78349
# Poissons Ratio (z) = 0.29356 0.31825
#
# Static dielectric constant tensor:
#      x y z
#    x 1.840900 0.048320 0.094090 
#    y 0.048320 1.802630 0.113640 
#    z 0.094090 0.113640 1.872870 
# 
# From -- ./inp_files/469888.got.cif
#   From: 2010.05.17/outbox.cif.g08.bks.cpg/sg2_235_cif.got.tgz:469888.got - 2010.06.03 11:33:40.
