data_PCOD9029461
_publ_section_title
;
Structure prediction by ZEFSAII (Michael W. Deem and Ramdas Pophale) SiO2 
 PCOD9029461
Probable space group: P -1
;
_chemical_formula_sum "Si O2"
_cell_formula_units_Z 12
_cell_length_a 4.868988
_cell_length_b 19.029522
_cell_length_c 5.316824
_cell_angle_alpha 71.046760
_cell_angle_beta 87.063994
_cell_angle_gamma 90.361837
_cell_volume 465.170450
_symmetry_space_group_name_H-M "P -1"
_symmetry_group_IT_number 2
_symmetry_cell_setting 'triclinic'
loop_
_space_group_symop_operation_xyz
x,y,z
-x,-y,-z
loop_
_atom_site_type_symbol
_atom_site_label
_atom_site_fract_x
_atom_site_fract_y
_atom_site_fract_z
Si Si1 0.679327 0.915602 0.343824
Si Si2 0.307382 0.916122 0.849769
Si Si3 0.325526 0.410587 0.001198
Si Si4 0.805825 0.438791 0.302507
Si Si5 0.024881 0.796257 0.258083
Si Si6 0.530331 0.693484 0.277790
O O1 0.488525 0.904677 0.608195
O O2 0.912412 0.854463 0.396371
O O3 0.798244 0.999927 0.250300
O O4 0.494370 0.910533 0.102320
O O5 0.068446 0.853665 0.957204
O O6 0.626638 0.432499 0.061306
O O7 0.107433 0.415048 0.234027
O O8 0.215127 0.473461 0.739802
O O9 0.359479 0.329690 0.975786
O O10 0.637479 0.382150 0.551123
O O11 0.311549 0.755148 0.284740
O O12 0.803196 0.729530 0.340592
#
# Coordination Sequence:
#
# PCOD9029461 Si02
#       6
#     2   2   2   2   2   2
#     4  10  23  47  75 103 139 187 243 294 347 419
#     4  10  23  47  75 103 139 187 243 294 347 419
#     4  10  22  42  67  95 129 175 230 281 334 409
#     4  10  22  42  67  95 129 175 230 281 334 409
#     4  12  25  44  63 104 140 182 230 288 359 426
#     4  12  25  42  65  98 136 182 216 286 351 424
#
# _framework density 25.796997999999999
#
# number of rings (size 3 to 8) (size 9 to 14) (size 15 to 20)
#    0.000    1.333    1.667    3.000    0.000    5.333 
#    6.000   11.667    0.000    0.000    0.000    0.000 
#    0.000    0.000    0.000    0.000    0.000    0.000 
#
# Total GULP energy -67036.800190 kJ/mol
# GULP energy per Si atom -5586.400016 kJ/mol
# Density = 2.573828 g / cm^3
# Si number density = 25.796998 Si / 1000 Ang^3
#
#
#
# Elastic Constant Matrix: (Units=GPa)
#
#
# Indices 1 2 3 4 5 6 
#
# 1 1262.8262 4242.2507-1887.5436 3763.9683-1295.2485 2517.2425
# 2 4242.250715444.3863-6927.612313693.2936-4646.0545 9177.6258
# 3 -1887.5436-6927.6123 3289.2949-6207.1699 2081.8125-4177.4611
# 4 3763.968313693.2936-6207.169912259.9954-4132.2525 8201.3919
# 5 -1295.2485-4646.0545 2081.8125-4132.2525 1443.1336-2785.4199
# 6 2517.2425 9177.6258-4177.4611 8201.3919-2785.4199 5558.2553
#
#
#
# Elastic Compliance Matrix: (Units=1/GPa)
#
#
# Indices 1 2 3 4 5 6 
#
# 1 0.011546 -0.002009 -0.000614 -0.001082 0.005599 0.002027
# 2 -0.002009 0.007973 0.000045 -0.006491 0.003420 -0.000930
# 3 -0.000614 0.000045 0.007682 0.002626 0.002736 0.003474
# 4 -0.001082 -0.006491 0.002626 0.013532 -0.000183 -0.006878
# 5 0.005599 0.003420 0.002736 -0.000183 0.029134 0.008743
# 6 0.002027 -0.000930 0.003474 -0.006878 0.008743 0.017939
#
#
# Mechanical properties :
#
#
# Convention : Reuss Voigt Hill
#
# Bulk Modulus (GPa) = 45.35884 1205.63302 625.49593
# Shear Modulus (GPa) = 49.84533 5490.23769 2770.04151
#
# Velocity S-wave (km/s) = 4.40046 46.18297 32.80420
# Velocity P-wave (km/s) = 6.59090 57.55164 40.96115
#
# Compressibility (1/GPa) = 0.02204642
#
# Stress axis : x y z
#
# Youngs Moduli (GPa) = 86.60773 125.42023 130.17356
#
# Poissons Ratio (x) = 0.25191 0.07998
# Poissons Ratio (y) = 0.17396 -0.00591
# Poissons Ratio (z) = 0.05322 -0.00570
#
# Static dielectric constant tensor:
#      x y z
#    x 2.035940 -0.006490 0.048130 
#    y -0.006490 2.083080 -0.041810 
#    z 0.048130 -0.041810 2.070590 
# 
# From -- ./inp_files/6098.got.cif
#   From: 2010.05.17/outbox.cif.g08.bks.cpg/sg2_4_cif.got.tgz:6098.got - 2010.06.03 11:33:40.
