data_PCOD9029724
_publ_section_title
;
Structure prediction by ZEFSAII (Michael W. Deem and Ramdas Pophale) SiO2 
 PCOD9029724
Probable space group: P -1
;
_chemical_formula_sum "Si O2"
_cell_formula_units_Z 16
_cell_length_a 12.676350
_cell_length_b 5.817998
_cell_length_c 10.469241
_cell_angle_alpha 114.096890
_cell_angle_beta 83.422731
_cell_angle_gamma 99.531589
_cell_volume 694.155780
_symmetry_space_group_name_H-M "P -1"
_symmetry_group_IT_number 2
_symmetry_cell_setting 'triclinic'
loop_
_space_group_symop_operation_xyz
x,y,z
-x,-y,-z
loop_
_atom_site_type_symbol
_atom_site_label
_atom_site_fract_x
_atom_site_fract_y
_atom_site_fract_z
Si Si1 0.055493 0.748032 0.472875
Si Si2 0.759100 0.414205 0.727485
Si Si3 0.690896 0.561804 0.496901
Si Si4 0.992581 0.776718 0.114108
Si Si5 0.446575 0.010776 0.366385
Si Si6 0.657886 0.044077 0.220531
Si Si7 0.181828 0.075045 0.023335
Si Si8 0.183399 0.157016 0.676066
O O1 0.124951 0.677983 0.326482
O O2 0.000000 0.500000 0.500000
O O3 0.140063 0.864223 0.595155
O O4 0.000000 0.000000 0.500000
O O5 0.740136 0.537257 0.621883
O O6 0.660061 0.188069 0.691901
O O7 0.768679 0.639512 0.880357
O O8 0.668258 0.304101 0.360185
O O9 0.773897 0.737513 0.439154
O O10 0.590160 0.712071 0.567283
O O11 0.919112 0.722426 0.236988
O O12 0.109644 0.939965 0.118797
O O13 0.000000 0.500000 0.000000
O O14 0.908471 0.913253 0.070866
O O15 0.500000 0.000000 0.500000
O O16 0.531557 0.963402 0.234286
O O17 0.717063 0.835616 0.240955
O O18 0.723339 0.066120 0.083105
#
# Coordination Sequence:
#
# PCOD9029724 Si02
#       8
#     2   2   2   2   2   2   2   2
#     4  12  25  40  65  99 142 185 230 294 362 424
#     4  12  26  43  65 103 146 176 227 295 351 425
#     4  12  21  41  71  97 136 174 234 295 347 422
#     4  10  22  42  68  90 130 187 227 273 341 422
#     4  12  23  43  70 102 129 177 235 289 362 412
#     4  11  23  43  70  94 130 179 234 287 347 423
#     4  10  25  45  63  97 139 177 227 283 347 423
#     4  11  22  39  65  99 128 173 235 278 345 413
#
# _framework density 23.049582000000001
#
# number of rings (size 3 to 8) (size 9 to 14) (size 15 to 20)
#    0.000    0.750    5.000    2.625    1.750    1.500 
#    0.000    0.625    0.000    0.000    0.000    0.000 
#    0.000    0.000    0.000    0.000    0.000    0.000 
#
# Total GULP energy -89249.570530 kJ/mol
# GULP energy per Si atom -5578.098158 kJ/mol
# Density = 2.299712 g / cm^3
# Si number density = 23.049582 Si / 1000 Ang^3
#
#
#
# Elastic Constant Matrix: (Units=GPa)
#
#
# Indices 1 2 3 4 5 6 
#
# 1 144.8669 54.8127 47.8603 -2.8103 -43.1372 14.9050
# 2 54.8127 83.0115 6.2289 0.3510 -13.4721 17.9064
# 3 47.8603 6.2289 95.9558 13.0966 -35.4243 8.4823
# 4 -2.8103 0.3510 13.0966 26.9571 7.7278 -2.2309
# 5 -43.1372 -13.4721 -35.4243 7.7278 49.1958 2.4811
# 6 14.9050 17.9064 8.4823 -2.2309 2.4811 51.2951
#
#
#
# Elastic Compliance Matrix: (Units=1/GPa)
#
#
# Indices 1 2 3 4 5 6 
#
# 1 0.012782 -0.006888 -0.003551 0.001164 0.006631 -0.000992
# 2 -0.006888 0.017926 0.004483 -0.004450 0.003066 -0.005340
# 3 -0.003551 0.004483 0.019966 -0.014886 0.015092 -0.005212
# 4 0.001164 -0.004450 -0.014886 0.050576 -0.019205 0.006805
# 5 0.006631 0.003066 0.015092 -0.019205 0.041285 -0.008325
# 6 -0.000992 -0.005340 -0.005212 0.006805 -0.008325 0.023208
#
#
# Mechanical properties :
#
#
# Convention : Reuss Voigt Hill
#
# Bulk Modulus (GPa) = 25.79845 60.18202 42.99023
# Shear Modulus (GPa) = 26.23647 39.81842 33.02745
#
# Velocity S-wave (km/s) = 3.37747 4.16084 3.78946
# Velocity P-wave (km/s) = 5.14069 7.01783 6.15129
#
# Compressibility (1/GPa) = 0.03876202
#
# Stress axis : x y z
#
# Youngs Moduli (GPa) = 78.23803 55.78371 50.08631
#
# Poissons Ratio (x) = 0.38423 0.17786
# Poissons Ratio (y) = 0.53889 -0.22454
# Poissons Ratio (z) = 0.27782 -0.25008
#
# Static dielectric constant tensor:
#      x y z
#    x 2.028920 0.024500 -0.018910 
#    y 0.024500 1.922540 -0.062480 
#    z -0.018910 -0.062480 2.011870 
# 
# From -- ./inp_files/72364.got.cif
#   From: 2010.05.17/outbox.cif.g08.bks.cpg/sg2_37_cif.got.tgz:72364.got - 2010.06.03 11:33:40.
