data_PCOD9029476
_publ_section_title
;
Structure prediction by ZEFSAII (Michael W. Deem and Ramdas Pophale) SiO2 
 PCOD9029476
Probable space group: P -1
;
_chemical_formula_sum "Si O2"
_cell_formula_units_Z 14
_cell_length_a 12.183828
_cell_length_b 9.358071
_cell_length_c 9.340863
_cell_angle_alpha 74.341773
_cell_angle_beta 49.063018
_cell_angle_gamma 60.008587
_cell_volume 694.110492
_symmetry_space_group_name_H-M "P -1"
_symmetry_group_IT_number 2
_symmetry_cell_setting 'triclinic'
loop_
_space_group_symop_operation_xyz
x,y,z
-x,-y,-z
loop_
_atom_site_type_symbol
_atom_site_label
_atom_site_fract_x
_atom_site_fract_y
_atom_site_fract_z
Si Si1 0.278711 0.400974 0.567353
Si Si2 0.623109 0.882781 0.812287
Si Si3 0.054130 0.410559 0.322658
Si Si4 0.155039 0.516305 0.926789
Si Si5 0.825546 0.155860 0.113764
Si Si6 0.472280 0.650940 0.875565
Si Si7 0.336977 0.043886 0.543798
O O1 0.294477 0.404209 0.724918
O O2 0.425235 0.399851 0.348042
O O3 0.243911 0.243091 0.597020
O O4 0.114640 0.558488 0.615333
O O5 0.809936 0.776229 0.724867
O O6 0.551065 0.757909 0.855643
O O7 0.626422 0.985823 0.644903
O O8 0.500000 0.000000 0.000000
O O9 0.000000 0.500000 0.500000
O O10 0.147093 0.477177 0.112163
O O11 0.150101 0.695044 0.877200
O O12 0.000000 0.500000 0.000000
O O13 0.713663 0.235228 0.046113
O O14 0.731890 0.075968 0.306483
O O15 0.000000 0.000000 0.000000
O O16 0.500000 0.500000 0.000000
O O17 0.500000 0.000000 0.500000
#
# Coordination Sequence:
#
# PCOD9029476 Si02
#       7
#     2   2   2   2   2   2   2
#     4  10  22  42  67  95 133 179 224 278 334 402
#     4  11  25  40  68 101 134 179 222 282 339 397
#     4  11  20  40  69  95 128 180 223 265 341 406
#     4  10  24  41  67  99 129 171 229 282 324 408
#     4  12  25  40  69  98 132 180 225 276 343 403
#     4  11  24  42  64  96 139 179 224 280 339 406
#     4  11  22  44  66  93 138 177 217 274 345 402
#
# _framework density 20.169701
#
# number of rings (size 3 to 8) (size 9 to 14) (size 15 to 20)
#    0.000    1.143    5.714    2.571    2.000    4.000 
#    0.000    0.000    0.000    6.000    0.000    0.000 
#    0.000    0.000    0.000    0.000    0.000    0.000 
#
# Total GULP energy -78001.430037 kJ/mol
# GULP energy per Si atom -5571.530717 kJ/mol
# Density = 2.012379 g / cm^3
# Si number density = 20.169701 Si / 1000 Ang^3
#
#
#
# Elastic Constant Matrix: (Units=GPa)
#
#
# Indices 1 2 3 4 5 6 
#
# 1 72.5225 41.0825 28.9091 -5.7836 -8.4129 -20.4735
# 2 41.0825 81.6390 61.8892 -10.4913 5.2114 -14.2150
# 3 28.9091 61.8892 167.7157 -9.5732 25.6730 -4.4752
# 4 -5.7836 -10.4913 -9.5732 48.5620 4.1086 -8.4485
# 5 -8.4129 5.2114 25.6730 4.1086 33.5694 0.4124
# 6 -20.4735 -14.2150 -4.4752 -8.4485 0.4124 45.6171
#
#
#
# Elastic Compliance Matrix: (Units=1/GPa)
#
#
# Indices 1 2 3 4 5 6 
#
# 1 0.022807 -0.009556 -0.001391 0.000953 0.008058 0.007225
# 2 -0.009556 0.022811 -0.006276 0.003173 -0.001560 0.002805
# 3 -0.001391 -0.006276 0.009550 0.000678 -0.006743 -0.001457
# 4 0.000953 0.003173 0.000678 0.022832 -0.003637 0.005744
# 5 0.008058 -0.001560 -0.006743 -0.003637 0.037635 0.001455
# 6 0.007225 0.002805 -0.001457 0.005744 0.001455 0.026947
#
#
# Mechanical properties :
#
#
# Convention : Reuss Voigt Hill
#
# Bulk Modulus (GPa) = 48.25722 65.07099 56.66411
# Shear Modulus (GPa) = 27.18331 38.21612 32.69971
#
# Velocity S-wave (km/s) = 3.67513 4.35757 4.03082
# Velocity P-wave (km/s) = 6.47968 7.59274 7.05819
#
# Compressibility (1/GPa) = 0.02072229
#
# Stress axis : x y z
#
# Youngs Moduli (GPa) = 43.84543 43.83777 104.71024
#
# Poissons Ratio (x) = 0.41893 0.14567
# Poissons Ratio (y) = 0.41901 0.65714
# Poissons Ratio (z) = 0.06100 0.27512
#
# Static dielectric constant tensor:
#      x y z
#    x 1.728180 -0.035830 0.041260 
#    y -0.035830 1.830440 0.009630 
#    z 0.041260 0.009630 1.753790 
# 
# From -- ./inp_files/242825.got.cif
#   From: 2010.05.17/outbox.cif.g08.bks.cpg/sg2_122_cif.got.tgz:242825.got - 2010.06.03 11:33:40.
