data_PCOD9029103
_publ_section_title
;
Structure prediction by ZEFSAII (Michael W. Deem and Ramdas Pophale) SiO2 
 PCOD9029103
Probable space group: P -1
;
_chemical_formula_sum "Si O2"
_cell_formula_units_Z 12
_cell_length_a 17.345746
_cell_length_b 10.001404
_cell_length_c 5.172303
_cell_angle_alpha 86.095106
_cell_angle_beta 83.698674
_cell_angle_gamma 146.482875
_cell_volume 471.199749
_symmetry_space_group_name_H-M "P -1"
_symmetry_group_IT_number 2
_symmetry_cell_setting 'triclinic'
loop_
_space_group_symop_operation_xyz
x,y,z
-x,-y,-z
loop_
_atom_site_type_symbol
_atom_site_label
_atom_site_fract_x
_atom_site_fract_y
_atom_site_fract_z
Si Si1 0.721410 0.864289 0.029117
Si Si2 0.834206 0.283468 0.178977
Si Si3 0.370504 0.587933 0.355718
Si Si4 0.174343 0.558890 0.322719
Si Si5 0.519011 0.705829 0.766843
Si Si6 0.900191 0.984528 0.561129
O O1 0.673042 0.876711 0.789766
O O2 0.852058 0.960030 0.871059
O O3 0.580678 0.572622 0.195117
O O4 0.759372 0.030296 0.201473
O O5 0.829869 0.342580 0.453516
O O6 0.774715 0.300093 0.981902
O O7 0.000000 0.500000 0.000000
O O8 0.279214 0.590897 0.367738
O O9 0.485709 0.747830 0.525708
O O10 0.251443 0.291631 0.469571
O O11 0.450116 0.679792 0.043495
O O12 0.009490 0.259216 0.384543
O O13 0.000000 0.000000 0.500000
#
# Coordination Sequence:
#
# PCOD9029103 Si02
#       6
#     2   2   2   2   2   2
#     4  10  23  41  65  96 128 165 215 258 317 376
#     4  12  25  40  64  95 134 168 203 257 321 385
#     4  10  22  42  66  92 127 166 217 260 311 366
#     4  11  24  42  62  97 129 168 210 257 317 380
#     4  10  23  42  67  93 124 168 214 266 305 367
#     4   9  20  38  65  93 126 163 207 265 313 364
#
# _framework density 25.466904
#
# number of rings (size 3 to 8) (size 9 to 14) (size 15 to 20)
#    0.000    1.667    1.667    1.500    2.333    8.667 
#    0.000   11.667    0.000    0.000    0.000    0.000 
#    0.000    0.000    0.000    0.000    0.000    0.000 
#
# Total GULP energy -67206.195308 kJ/mol
# GULP energy per Si atom -5600.516276 kJ/mol
# Density = 2.540894 g / cm^3
# Si number density = 25.466904 Si / 1000 Ang^3
#
#
#
# Elastic Constant Matrix: (Units=GPa)
#
#
# Indices 1 2 3 4 5 6 
#
# 1 133.3849 35.9629 50.9818 22.4154 -10.3179 -1.5078
# 2 35.9629 83.6871 32.6791 14.4613 -3.7773 -21.7087
# 3 50.9818 32.6791 135.7274 25.4459 2.9206 -1.2751
# 4 22.4154 14.4613 25.4459 37.2221 5.8585 6.1801
# 5 -10.3179 -3.7773 2.9206 5.8585 42.7702 4.3642
# 6 -1.5078 -21.7087 -1.2751 6.1801 4.3642 39.2902
#
#
#
# Elastic Compliance Matrix: (Units=1/GPa)
#
#
# Indices 1 2 3 4 5 6 
#
# 1 0.010027 -0.002873 -0.002490 -0.003504 0.002923 -0.001057
# 2 -0.002873 0.017673 -0.002049 -0.005571 0.000711 0.010385
# 3 -0.002490 -0.002049 0.009580 -0.004089 -0.000858 -0.000179
# 4 -0.003504 -0.005571 -0.004089 0.036150 -0.005147 -0.008460
# 5 0.002923 0.000711 -0.000858 -0.005147 0.025065 -0.001497
# 6 -0.001057 0.010385 -0.000179 -0.008460 -0.001497 0.032640
#
#
# Mechanical properties :
#
#
# Convention : Reuss Voigt Hill
#
# Bulk Modulus (GPa) = 44.53517 65.78301 55.15909
# Shear Modulus (GPa) = 32.58506 39.40152 35.99329
#
# Velocity S-wave (km/s) = 3.58090 3.93767 3.76351
# Velocity P-wave (km/s) = 5.88409 6.82353 6.37115
#
# Compressibility (1/GPa) = 0.02245416
#
# Stress axis : x y z
#
# Youngs Moduli (GPa) = 99.73501 56.58388 104.38644
#
# Poissons Ratio (x) = 0.16257 0.25996
# Poissons Ratio (y) = 0.28654 0.21391
# Poissons Ratio (z) = 0.24837 0.11595
#
# Static dielectric constant tensor:
#      x y z
#    x 1.996540 0.019080 0.045260 
#    y 0.019080 2.042250 -0.056830 
#    z 0.045260 -0.056830 2.024050 
# 
# From -- ./inp_files/62348.got.cif
#   From: 2010.05.17/outbox.cif.g08.bks.cpg/sg2_32_cif.got.tgz:62348.got - 2010.06.03 11:33:40.
