data_PCOD9029938
_publ_section_title
;
Structure prediction by ZEFSAII (Michael W. Deem and Ramdas Pophale) SiO2 
 PCOD9029938
Probable space group: P -1
;
_chemical_formula_sum "Si O2"
_cell_formula_units_Z 16
_cell_length_a 8.768013
_cell_length_b 12.488289
_cell_length_c 12.116768
_cell_angle_alpha 101.755718
_cell_angle_beta 144.900840
_cell_angle_gamma 82.883478
_cell_volume 744.712123
_symmetry_space_group_name_H-M "P -1"
_symmetry_group_IT_number 2
_symmetry_cell_setting 'triclinic'
loop_
_space_group_symop_operation_xyz
x,y,z
-x,-y,-z
loop_
_atom_site_type_symbol
_atom_site_label
_atom_site_fract_x
_atom_site_fract_y
_atom_site_fract_z
Si Si1 0.221222 0.919369 0.578176
Si Si2 0.741426 0.064392 0.836595
Si Si3 0.080939 0.450927 0.363625
Si Si4 0.577641 0.529742 0.217050
Si Si5 0.292254 0.731331 0.986146
Si Si6 0.985560 0.572318 0.116737
Si Si7 0.091612 0.823062 0.247444
Si Si8 0.493597 0.127008 0.059432
O O1 0.141102 0.845299 0.410359
O O2 0.289738 0.850967 0.712058
O O3 0.483041 0.994319 0.713154
O O4 0.000000 0.000000 0.500000
O O5 0.724980 0.098036 0.705918
O O6 0.771865 0.178301 0.944520
O O7 0.000000 0.000000 0.000000
O O8 0.826684 0.497119 0.285457
O O9 0.973910 0.330307 0.234863
O O10 0.128308 0.520524 0.294813
O O11 0.317302 0.454737 0.592435
O O12 0.460090 0.638829 0.121922
O O13 0.331523 0.437419 0.046064
O O14 0.450383 0.795334 0.995232
O O15 0.100062 0.696232 0.195921
O O16 0.000000 0.500000 0.000000
O O17 0.792231 0.854842 0.056792
O O18 0.500000 0.000000 0.000000
#
# Coordination Sequence:
#
# PCOD9029938 Si02
#       8
#     2   2   2   2   2   2   2   2
#     4  12  26  44  71 101 135 182 232 280 333 404
#     4  12  25  48  65  97 146 182 224 280 339 403
#     4  10  22  42  69 100 132 171 228 283 335 407
#     4  10  22  43  68 100 132 171 227 285 336 402
#     4  11  22  41  69  97 132 185 223 277 340 400
#     4  11  24  44  65  97 138 175 222 279 341 401
#     4  12  24  43  70  97 137 183 224 280 344 404
#     4  12  22  43  66  99 140 178 228 283 333 401
#
# _framework density 21.484812000000002
#
# number of rings (size 3 to 8) (size 9 to 14) (size 15 to 20)
#    0.000    0.750    3.750    4.875    0.000    5.500 
#    4.500    0.000    0.000    0.000    0.000    0.000 
#    0.000    0.000    0.000    0.000    0.000    0.000 
#
# Total GULP energy -89552.729887 kJ/mol
# GULP energy per Si atom -5597.045618 kJ/mol
# Density = 2.143591 g / cm^3
# Si number density = 21.484812 Si / 1000 Ang^3
#
#
#
# Elastic Constant Matrix: (Units=GPa)
#
#
# Indices 1 2 3 4 5 6 
#
# 1 88.4633 26.2719 22.6883 -12.6968 -15.7200 7.5877
# 2 26.2719 90.5712 25.3191 8.3793 -6.2018 1.9182
# 3 22.6883 25.3191 124.0668 -6.4250 -27.2022 0.6373
# 4 -12.6968 8.3793 -6.4250 20.8590 2.1776 -11.3008
# 5 -15.7200 -6.2018 -27.2022 2.1776 45.6651 3.7119
# 6 7.5877 1.9182 0.6373 -11.3008 3.7119 40.6660
#
#
#
# Elastic Compliance Matrix: (Units=1/GPa)
#
#
# Indices 1 2 3 4 5 6 
#
# 1 0.015091 -0.005014 -0.000350 0.010730 0.003789 0.000062
# 2 -0.005014 0.014281 -0.002696 -0.011013 -0.000648 -0.002697
# 3 -0.000350 -0.002696 0.010016 0.003727 0.005254 0.000592
# 4 0.010730 -0.011013 0.003727 0.069769 -0.000362 0.017880
# 5 0.003789 -0.000648 0.005254 -0.000362 0.026528 -0.003281
# 6 0.000062 -0.002697 0.000592 0.017880 -0.003281 0.029965
#
#
# Mechanical properties :
#
#
# Convention : Reuss Voigt Hill
#
# Bulk Modulus (GPa) = 42.97913 50.18440 46.58177
# Shear Modulus (GPa) = 26.38138 36.69284 31.53711
#
# Velocity S-wave (km/s) = 3.50795 4.13710 3.83545
# Velocity P-wave (km/s) = 6.03784 6.79923 6.42982
#
# Compressibility (1/GPa) = 0.02326711
#
# Stress axis : x y z
#
# Youngs Moduli (GPa) = 66.26431 70.02447 99.83628
#
# Poissons Ratio (x) = 0.35111 0.03499
# Poissons Ratio (y) = 0.33226 0.26916
# Poissons Ratio (z) = 0.02322 0.18879
#
# Static dielectric constant tensor:
#      x y z
#    x 1.800300 0.019850 -0.010700 
#    y 0.019850 1.756890 0.000720 
#    z -0.010700 0.000720 1.776520 
# 
# From -- ./inp_files/390547.got.cif
#   From: 2010.05.17/outbox.cif.g08.bks.cpg/sg2_196_cif.got.tgz:390547.got - 2010.06.03 11:33:40.
