data_PCOD9029281
_publ_section_title
;
Structure prediction by ZEFSAII (Michael W. Deem and Ramdas Pophale) SiO2 
 PCOD9029281
Probable space group: P -1
;
_chemical_formula_sum "Si O2"
_cell_formula_units_Z 16
_cell_length_a 5.122207
_cell_length_b 17.228921
_cell_length_c 12.551293
_cell_angle_alpha 136.194567
_cell_angle_beta 91.334396
_cell_angle_gamma 113.862062
_cell_volume 608.067607
_symmetry_space_group_name_H-M "P -1"
_symmetry_group_IT_number 2
_symmetry_cell_setting 'triclinic'
loop_
_space_group_symop_operation_xyz
x,y,z
-x,-y,-z
loop_
_atom_site_type_symbol
_atom_site_label
_atom_site_fract_x
_atom_site_fract_y
_atom_site_fract_z
Si Si1 0.640497 0.232853 0.375856
Si Si2 0.668400 0.501461 0.610681
Si Si3 0.010469 0.085300 0.686449
Si Si4 0.942555 0.648860 0.112946
Si Si5 0.110867 0.044993 0.880295
Si Si6 0.562699 0.585804 0.255482
Si Si7 0.818149 0.189512 0.116497
Si Si8 0.556157 0.197153 0.565349
O O1 0.702354 0.376963 0.487569
O O2 0.802579 0.201567 0.254923
O O3 0.776902 0.245844 0.509004
O O4 0.244425 0.107046 0.254234
O O5 0.500000 0.500000 0.500000
O O6 0.451317 0.467713 0.680434
O O7 0.014657 0.655296 0.775351
O O8 0.108621 0.237594 0.815018
O O9 0.174755 0.081359 0.791235
O O10 0.626263 0.969335 0.600208
O O11 0.000000 0.000000 0.500000
O O12 0.754697 0.578420 0.153439
O O13 0.308136 0.744575 0.257770
O O14 0.816351 0.530112 0.906633
O O15 0.442988 0.080587 0.966149
O O16 0.043535 0.146613 0.037631
O O17 0.636368 0.737819 0.399466
#
# Coordination Sequence:
#
# PCOD9029281 Si02
#       8
#     2   2   2   2   2   2   2   2
#     4  10  24  45  70 106 141 188 243 294 363 427
#     4  11  25  45  73 103 145 187 242 299 362 428
#     4  11  23  43  67 103 136 178 235 290 355 420
#     4  11  22  40  68  95 135 183 226 290 350 419
#     4  11  27  48  74 108 146 189 242 297 360 433
#     4  10  23  43  62 101 133 180 234 284 354 421
#     4  12  25  49  73 107 143 195 239 299 358 429
#     4  10  22  42  66  99 134 180 230 291 348 425
#
# _framework density 26.312861999999999
#
# number of rings (size 3 to 8) (size 9 to 14) (size 15 to 20)
#    0.000    1.250    1.250    3.375    1.750    5.000 
#   11.250    0.000    0.000    0.000    0.000    0.000 
#    0.000    0.000    0.000    0.000    0.000    0.000 
#
# Total GULP energy -89526.492060 kJ/mol
# GULP energy per Si atom -5595.405754 kJ/mol
# Density = 2.625297 g / cm^3
# Si number density = 26.312862 Si / 1000 Ang^3
#
#
#
# Elastic Constant Matrix: (Units=GPa)
#
#
# Indices 1 2 3 4 5 6 
#
# 1 61.0150 23.3630 2.3655 -1.3157 -9.0695 -0.1639
# 2 23.3630 146.2266 49.0505 2.2759 -19.1986 -1.0782
# 3 2.3655 49.0505 83.3746 4.9808 -17.8363 -11.6483
# 4 -1.3157 2.2759 4.9808 66.9457 4.3657 -1.0719
# 5 -9.0695 -19.1986 -17.8363 4.3657 30.6906 0.4260
# 6 -0.1639 -1.0782 -11.6483 -1.0719 0.4260 29.7590
#
#
#
# Elastic Compliance Matrix: (Units=1/GPa)
#
#
# Indices 1 2 3 4 5 6 
#
# 1 0.018203 -0.003090 0.002469 -0.000024 0.004872 0.000884
# 2 -0.003090 0.009327 -0.005224 -0.000143 0.001931 -0.001756
# 3 0.002469 -0.005224 0.017688 -0.001497 0.007863 0.006581
# 4 -0.000024 -0.000143 -0.001497 0.015258 -0.003137 0.000003
# 5 0.004872 0.001931 0.007863 -0.003137 0.040212 0.002486
# 6 0.000884 -0.001756 0.006581 0.000003 0.002486 0.036085
#
#
# Mechanical properties :
#
#
# Convention : Reuss Voigt Hill
#
# Bulk Modulus (GPa) = 29.82497 48.90823 39.36660
# Shear Modulus (GPa) = 31.32051 39.86821 35.59436
#
# Velocity S-wave (km/s) = 3.45383 3.89673 3.68195
# Velocity P-wave (km/s) = 5.22155 6.23487 5.75057
#
# Compressibility (1/GPa) = 0.03352895
#
# Stress axis : x y z
#
# Youngs Moduli (GPa) = 54.93637 107.21194 56.53467
#
# Poissons Ratio (x) = 0.33126 -0.13956
# Poissons Ratio (y) = 0.16974 0.29531
# Poissons Ratio (z) = -0.13562 0.56003
#
# Static dielectric constant tensor:
#      x y z
#    x 2.138910 0.132290 0.153520 
#    y 0.132290 2.108170 0.057560 
#    z 0.153520 0.057560 2.170080 
# 
# From -- ./inp_files/369508.got.cif
#   From: 2010.05.17/outbox.cif.g08.bks.cpg/sg2_185_cif.got.tgz:369508.got - 2010.06.03 11:33:40.
