data_PCOD9029708
_publ_section_title
;
Structure prediction by ZEFSAII (Michael W. Deem and Ramdas Pophale) SiO2 
 PCOD9029708
Probable space group: P -1
;
_chemical_formula_sum "Si O2"
_cell_formula_units_Z 12
_cell_length_a 5.346599
_cell_length_b 12.324514
_cell_length_c 9.576659
_cell_angle_alpha 48.123571
_cell_angle_beta 72.598911
_cell_angle_gamma 66.820517
_cell_volume 431.330858
_symmetry_space_group_name_H-M "P -1"
_symmetry_group_IT_number 2
_symmetry_cell_setting 'triclinic'
loop_
_space_group_symop_operation_xyz
x,y,z
-x,-y,-z
loop_
_atom_site_type_symbol
_atom_site_label
_atom_site_fract_x
_atom_site_fract_y
_atom_site_fract_z
Si Si1 0.682422 0.145986 0.082865
Si Si2 0.064828 0.656203 0.818987
Si Si3 0.236828 0.889737 0.194349
Si Si4 0.241591 0.035362 0.338527
Si Si5 0.047356 0.617730 0.549589
Si Si6 0.441763 0.511201 0.251947
O O1 0.638526 0.324358 0.944630
O O2 0.575625 0.122489 0.962119
O O3 0.527307 0.075257 0.286943
O O4 0.986296 0.040072 0.108405
O O5 0.388448 0.611619 0.781994
O O6 0.925350 0.791721 0.826155
O O7 0.947937 0.700464 0.644341
O O8 0.000000 0.500000 0.000000
O O9 0.117302 0.743644 0.333296
O O10 0.342337 0.900441 0.324269
O O11 0.000000 0.000000 0.500000
O O12 0.817456 0.539603 0.610753
O O13 0.328843 0.500817 0.656397
#
# Coordination Sequence:
#
# PCOD9029708 Si02
#       6
#     2   2   2   2   2   2
#     4  11  27  46  71 106 147 197 242 305 368 443
#     4  10  22  42  68 108 137 191 240 303 364 427
#     4  11  27  46  70 106 150 194 245 299 373 441
#     4  12  23  46  71 106 141 194 243 306 367 440
#     4  10  24  46  71 109 142 191 244 304 362 436
#     4  10  24  46  72 107 144 191 245 304 365 432
#
# _framework density 27.820871
#
# number of rings (size 3 to 8) (size 9 to 14) (size 15 to 20)
#    1.000    0.333    3.333    0.500    9.333    4.000 
#    0.000    0.000    0.000    0.000    0.000    0.000 
#    0.000    0.000    0.000    0.000    0.000    0.000 
#
# Total GULP energy -67028.256619 kJ/mol
# GULP energy per Si atom -5585.688052 kJ/mol
# Density = 2.775755 g / cm^3
# Si number density = 27.820871 Si / 1000 Ang^3
#
#
#
# Elastic Constant Matrix: (Units=GPa)
#
#
# Indices 1 2 3 4 5 6 
#
# 1 116.2964 14.3231 32.4639 -12.6891 -25.4701 -20.5810
# 2 14.3231 106.4791 28.5308 -2.5411 -14.2748 -12.4415
# 3 32.4639 28.5308 152.6524 2.8288 -41.7793 -7.2873
# 4 -12.6891 -2.5411 2.8288 61.4352 -6.6752 -3.7008
# 5 -25.4701 -14.2748 -41.7793 -6.6752 50.7347 0.6053
# 6 -20.5810 -12.4415 -7.2873 -3.7008 0.6053 36.8462
#
#
#
# Elastic Compliance Matrix: (Units=1/GPa)
#
#
# Indices 1 2 3 4 5 6 
#
# 1 0.011559 0.000253 -0.000699 0.003448 0.005673 0.006657
# 2 0.000253 0.010409 -0.001280 0.000978 0.002089 0.003467
# 3 -0.000699 -0.001280 0.008757 0.000156 0.006511 0.000818
# 4 0.003448 0.000978 0.000156 0.017744 0.004421 0.003996
# 5 0.005673 0.002089 0.006511 0.004421 0.029028 0.005129
# 6 0.006657 0.003467 0.000818 0.003996 0.005129 0.032508
#
#
# Mechanical properties :
#
#
# Convention : Reuss Voigt Hill
#
# Bulk Modulus (GPa) = 36.66698 58.45153 47.55925
# Shear Modulus (GPa) = 40.80043 49.81057 45.30550
#
# Velocity S-wave (km/s) = 3.83370 4.23591 4.03981
# Velocity P-wave (km/s) = 5.72753 6.70667 6.23635
#
# Compressibility (1/GPa) = 0.02727250
#
# Stress axis : x y z
#
# Youngs Moduli (GPa) = 86.51025 96.07149 114.19632
#
# Poissons Ratio (x) = -0.02431 0.07983
# Poissons Ratio (y) = -0.02189 0.14619
# Poissons Ratio (z) = 0.06048 0.12299
#
# Static dielectric constant tensor:
#      x y z
#    x 2.596070 0.307300 0.175400 
#    y 0.307300 2.324890 0.178830 
#    z 0.175400 0.178830 2.273300 
# 
# From -- ./inp_files/53244.got.cif
#   From: 2010.05.17/outbox.cif.g08.bks.cpg/sg2_27_cif.got.tgz:53244.got - 2010.06.03 11:33:40.
