data_PCOD9029540
_publ_section_title
;
Structure prediction by ZEFSAII (Michael W. Deem and Ramdas Pophale) SiO2 
 PCOD9029540
Probable space group: P -1
;
_chemical_formula_sum "Si O2"
_cell_formula_units_Z 14
_cell_length_a 11.324810
_cell_length_b 7.890391
_cell_length_c 10.515794
_cell_angle_alpha 102.337145
_cell_angle_beta 132.162241
_cell_angle_gamma 94.767797
_cell_volume 646.283263
_symmetry_space_group_name_H-M "P -1"
_symmetry_group_IT_number 2
_symmetry_cell_setting 'triclinic'
loop_
_space_group_symop_operation_xyz
x,y,z
-x,-y,-z
loop_
_atom_site_type_symbol
_atom_site_label
_atom_site_fract_x
_atom_site_fract_y
_atom_site_fract_z
Si Si1 0.165277 0.262003 0.505110
Si Si2 0.345794 0.561991 0.849406
Si Si3 0.169788 0.666034 0.143397
Si Si4 0.173144 0.820381 0.906087
Si Si5 0.317840 0.975127 0.498324
Si Si6 0.479936 0.105039 0.131005
Si Si7 0.520143 0.640323 0.421256
O O1 0.195009 0.381983 0.672652
O O2 0.194780 0.065414 0.499935
O O3 0.325267 0.372769 0.553108
O O4 0.993587 0.239239 0.306694
O O5 0.280706 0.688312 0.918167
O O6 0.422473 0.691480 0.805533
O O7 0.500000 0.500000 0.000000
O O8 0.219128 0.790461 0.325189
O O9 0.333083 0.600908 0.225215
O O10 0.144380 0.789376 0.028991
O O11 0.000000 0.500000 0.000000
O O12 0.280861 0.030999 0.995335
O O13 0.413830 0.134349 0.490598
O O14 0.441239 0.947410 0.692384
O O15 0.500000 0.000000 0.000000
O O16 0.500000 0.500000 0.500000
#
# Coordination Sequence:
#
# PCOD9029540 Si02
#       7
#     2   2   2   2   2   2   2
#     4  10  23  42  65  99 139 171 231 280 337 404
#     4  11  23  44  71  97 132 180 231 283 343 409
#     4  12  25  43  68  99 140 178 232 282 337 408
#     4  11  23  44  64 102 134 179 228 279 340 408
#     4  10  24  44  67  96 139 178 226 276 347 403
#     4  10  22  42  70  93 132 178 223 279 340 401
#     4  10  22  42  67  97 132 184 225 278 343 401
#
# _framework density 21.662329
#
# number of rings (size 3 to 8) (size 9 to 14) (size 15 to 20)
#    0.857    0.571    1.429    4.286    4.000    0.571 
#    5.143    3.571    0.000    0.000    0.000    0.000 
#    0.000    0.000    0.000    0.000    0.000    0.000 
#
# Total GULP energy -77990.834234 kJ/mol
# GULP energy per Si atom -5570.773874 kJ/mol
# Density = 2.161302 g / cm^3
# Si number density = 21.662329 Si / 1000 Ang^3
#
#
#
# Elastic Constant Matrix: (Units=GPa)
#
#
# Indices 1 2 3 4 5 6 
#
# 1 33.5954 25.4253 19.1490 14.4175 -1.4051 -1.0669
# 2 25.4253 84.2330 47.0720 8.6334 -6.9870 -0.6653
# 3 19.1490 47.0720 159.9081 16.7468 -2.0295 -10.1248
# 4 14.4175 8.6334 16.7468 39.5177 -0.9104 0.3559
# 5 -1.4051 -6.9870 -2.0295 -0.9104 36.8601 -2.4623
# 6 -1.0669 -0.6653 -10.1248 0.3559 -2.4623 23.6754
#
#
#
# Elastic Compliance Matrix: (Units=1/GPa)
#
#
# Indices 1 2 3 4 5 6 
#
# 1 0.044944 -0.012047 -0.000309 -0.013669 -0.000813 0.001676
# 2 -0.012047 0.017765 -0.004095 0.002324 0.002636 -0.001556
# 3 -0.000309 -0.004095 0.007953 -0.002397 -0.000190 0.003288
# 4 -0.013669 0.002324 -0.002397 0.030827 0.000416 -0.001996
# 5 -0.000813 0.002636 -0.000190 0.000416 0.027788 0.002840
# 6 0.001676 -0.001556 0.003288 -0.001996 0.002840 0.044001
#
#
# Mechanical properties :
#
#
# Convention : Reuss Voigt Hill
#
# Bulk Modulus (GPa) = 26.48281 51.22545 38.85413
# Shear Modulus (GPa) = 22.85535 32.41665 27.63600
#
# Velocity S-wave (km/s) = 3.25171 3.87260 3.57566
# Velocity P-wave (km/s) = 5.13323 6.61019 5.91796
#
# Compressibility (1/GPa) = 0.03776034
#
# Stress axis : x y z
#
# Youngs Moduli (GPa) = 22.24978 56.29087 125.74042
#
# Poissons Ratio (x) = 0.67814 0.03880
# Poissons Ratio (y) = 0.26804 0.51494
# Poissons Ratio (z) = 0.00686 0.23053
#
# Static dielectric constant tensor:
#      x y z
#    x 1.634590 -0.006540 0.113490 
#    y -0.006540 1.852320 0.021260 
#    z 0.113490 0.021260 1.688590 
# 
# From -- ./inp_files/415050.got.cif
#   From: 2010.05.17/outbox.cif.g08.bks.cpg/sg2_208_cif.got.tgz:415050.got - 2010.06.03 11:33:40.
