data_PCOD9029716
_publ_section_title
;
Structure prediction by ZEFSAII (Michael W. Deem and Ramdas Pophale) SiO2 
 PCOD9029716
Probable space group: P -1
;
_chemical_formula_sum "Si O2"
_cell_formula_units_Z 16
_cell_length_a 15.155908
_cell_length_b 11.495250
_cell_length_c 7.973659
_cell_angle_alpha 35.468862
_cell_angle_beta 117.909532
_cell_angle_gamma 125.878554
_cell_volume 653.013490
_symmetry_space_group_name_H-M "P -1"
_symmetry_group_IT_number 2
_symmetry_cell_setting 'triclinic'
loop_
_space_group_symop_operation_xyz
x,y,z
-x,-y,-z
loop_
_atom_site_type_symbol
_atom_site_label
_atom_site_fract_x
_atom_site_fract_y
_atom_site_fract_z
Si Si1 0.738108 0.068494 0.517283
Si Si2 0.760691 0.700693 0.558502
Si Si3 0.929529 0.088938 0.471923
Si Si4 0.992673 0.254254 0.978447
Si Si5 0.653563 0.213185 0.966822
Si Si6 0.581898 0.799123 0.196512
Si Si7 0.814296 0.395785 0.481267
Si Si8 0.704165 0.696939 0.159436
O O1 0.656545 0.074265 0.295957
O O2 0.736316 0.206946 0.513668
O O3 0.860738 0.175317 0.427629
O O4 0.723653 0.834356 0.848132
O O5 0.840682 0.874223 0.551402
O O6 0.639412 0.686763 0.503858
O O7 0.777308 0.800111 0.268285
O O8 0.747238 0.452253 0.811928
O O9 0.000011 0.983377 0.759874
O O10 0.987694 0.254409 0.178688
O O11 0.098245 0.418917 0.778965
O O12 0.891407 0.308176 0.761212
O O13 0.652909 0.058707 0.991355
O O14 0.539933 0.238716 0.824886
O O15 0.594496 0.701337 0.141207
O O16 0.737544 0.495955 0.388010
#
# Coordination Sequence:
#
# PCOD9029716 Si02
#       8
#     2   2   2   2   2   2   2   2
#     4  12  24  39  67  94 135 166 212 267 319 377
#     4  10  22  42  68  89 129 171 210 259 322 377
#     4  11  22  44  64  97 127 167 217 277 314 360
#     4  10  24  44  64  92 129 168 226 263 317 383
#     4  11  22  41  73  99 121 170 218 260 310 387
#     4   9  23  43  68  97 131 162 216 262 315 380
#     4  11  24  45  63  94 128 179 212 255 333 383
#     4  10  24  41  63  91 135 170 201 264 328 374
#
# _framework density 24.501791000000001
#
# number of rings (size 3 to 8) (size 9 to 14) (size 15 to 20)
#    0.750    0.750    2.500    1.875    3.500    1.500 
#    9.000    0.625    0.000    0.000    0.000    0.000 
#    0.000    0.000    0.000    0.000    0.000    0.000 
#
# Total GULP energy -89135.875200 kJ/mol
# GULP energy per Si atom -5570.992200 kJ/mol
# Density = 2.444602 g / cm^3
# Si number density = 24.501791 Si / 1000 Ang^3
#
#
#
# Elastic Constant Matrix: (Units=GPa)
#
#
# Indices 1 2 3 4 5 6 
#
# 1 76.2917 27.9261 18.3798 -12.4452 27.1382 -26.0276
# 2 27.9261 69.4123 37.6770 -10.0458 12.0512 -16.8312
# 3 18.3798 37.6770 143.6098 3.6201 5.9039 -4.6386
# 4 -12.4452 -10.0458 3.6201 35.1255 -4.9004 6.6989
# 5 27.1382 12.0512 5.9039 -4.9004 42.3244 -7.7906
# 6 -26.0276 -16.8312 -4.6386 6.6989 -7.7906 41.2247
#
#
#
# Elastic Compliance Matrix: (Units=1/GPa)
#
#
# Indices 1 2 3 4 5 6 
#
# 1 0.022681 -0.003532 -0.001290 0.003698 -0.011081 0.010037
# 2 -0.003532 0.020391 -0.004784 0.003975 -0.001564 0.004615
# 3 -0.001290 -0.004784 0.008379 -0.002362 0.000499 -0.001347
# 4 0.003698 0.003975 -0.002362 0.031453 0.000214 -0.001378
# 5 -0.011081 -0.001564 0.000499 0.000214 0.030803 -0.001793
# 6 0.010037 0.004615 -0.001347 -0.001378 -0.001793 0.032213
#
#
# Mechanical properties :
#
#
# Convention : Reuss Voigt Hill
#
# Bulk Modulus (GPa) = 31.01879 50.80884 40.91382
# Shear Modulus (GPa) = 28.42908 37.42366 32.92637
#
# Velocity S-wave (km/s) = 3.40999 3.91242 3.66981
# Velocity P-wave (km/s) = 5.30955 6.41803 5.88993
#
# Compressibility (1/GPa) = 0.03223852
#
# Stress axis : x y z
#
# Youngs Moduli (GPa) = 44.09068 49.04236 119.34430
#
# Poissons Ratio (x) = 0.17321 0.15391
# Poissons Ratio (y) = 0.15572 0.57099
# Poissons Ratio (z) = 0.05686 0.23464
#
# Static dielectric constant tensor:
#      x y z
#    x 2.086650 0.028780 -0.008820 
#    y 0.028780 1.929140 -0.032260 
#    z -0.008820 -0.032260 1.988350 
# 
# From -- ./inp_files/331495.got.cif
#   From: 2010.05.17/outbox.cif.g08.bks.cpg/sg2_166_cif.got.tgz:331495.got - 2010.06.03 11:33:40.
