data_PCOD9029561
_publ_section_title
;
Structure prediction by ZEFSAII (Michael W. Deem and Ramdas Pophale) SiO2 
 PCOD9029561
Probable space group: P -1
;
_chemical_formula_sum "Si O2"
_cell_formula_units_Z 16
_cell_length_a 8.724209
_cell_length_b 8.274695
_cell_length_c 15.560548
_cell_angle_alpha 122.354162
_cell_angle_beta 113.814929
_cell_angle_gamma 49.800371
_cell_volume 721.821524
_symmetry_space_group_name_H-M "P -1"
_symmetry_group_IT_number 2
_symmetry_cell_setting 'triclinic'
loop_
_space_group_symop_operation_xyz
x,y,z
-x,-y,-z
loop_
_atom_site_type_symbol
_atom_site_label
_atom_site_fract_x
_atom_site_fract_y
_atom_site_fract_z
Si Si1 0.212906 0.040810 0.774343
Si Si2 0.520207 0.768186 0.409319
Si Si3 0.894461 0.164619 0.602296
Si Si4 0.306333 0.761644 0.032364
Si Si5 0.468886 0.795895 0.910532
Si Si6 0.348590 0.412958 0.438678
Si Si7 0.506285 0.903403 0.254911
Si Si8 0.103112 0.637111 0.068681
O O1 0.307240 0.170152 0.787985
O O2 0.081460 0.030074 0.669673
O O3 0.044009 0.169011 0.844458
O O4 0.394317 0.825715 0.804617
O O5 0.306011 0.802828 0.392949
O O6 0.684585 0.590616 0.466544
O O7 0.554863 0.750623 0.309014
O O8 0.500000 0.000000 0.500000
O O9 0.825452 0.412345 0.617059
O O10 0.000000 0.000000 0.500000
O O11 0.348484 0.893813 0.153899
O O12 0.127256 0.740407 0.016611
O O13 0.500000 0.500000 0.000000
O O14 0.308351 0.834343 0.956784
O O15 0.673728 0.547846 0.897709
O O16 0.500000 0.000000 0.000000
O O17 0.500000 0.500000 0.500000
O O18 0.438712 0.156918 0.347515
O O19 0.000000 0.500000 0.000000
#
# Coordination Sequence:
#
# PCOD9029561 Si02
#       8
#     2   2   2   2   2   2   2   2
#     4  12  24  39  68  98 133 180 225 283 341 403
#     4   9  19  40  67  94 133 180 222 288 350 407
#     4  11  23  42  64 100 137 172 235 287 343 420
#     4  10  22  42  67  97 139 181 224 285 348 410
#     4  11  22  44  67  94 141 181 224 286 350 406
#     4   9  20  40  69  96 129 181 220 278 349 408
#     4  11  21  41  68  97 138 182 225 279 353 418
#     4  11  23  43  69  98 134 177 235 287 344 411
#
# _framework density 22.166143000000002
#
# number of rings (size 3 to 8) (size 9 to 14) (size 15 to 20)
#    0.000    1.500    2.500    3.750    1.750    0.500 
#    6.750    5.625    5.500    1.500    0.000    0.000 
#    0.000    0.000    0.000    0.000    0.000    0.000 
#
# Total GULP energy -89128.739519 kJ/mol
# GULP energy per Si atom -5570.546220 kJ/mol
# Density = 2.211569 g / cm^3
# Si number density = 22.166143 Si / 1000 Ang^3
#
#
#
# Elastic Constant Matrix: (Units=GPa)
#
#
# Indices 1 2 3 4 5 6 
#
# 1 134.9847 23.2396 29.5326 -24.4187 -30.3413 16.5010
# 2 23.2396 83.3732 16.2095 -19.8870 -7.8266 3.0698
# 3 29.5326 16.2095 90.4084 -40.7214 -6.6323 17.2555
# 4 -24.4187 -19.8870 -40.7214 39.9024 9.6669 -2.9108
# 5 -30.3413 -7.8266 -6.6323 9.6669 45.7570 -6.0402
# 6 16.5010 3.0698 17.2555 -2.9108 -6.0402 33.6865
#
#
#
# Elastic Compliance Matrix: (Units=1/GPa)
#
#
# Indices 1 2 3 4 5 6 
#
# 1 0.009905 -0.001233 -0.000410 0.003549 0.005112 -0.003307
# 2 -0.001233 0.013901 0.001497 0.007630 0.000065 -0.000758
# 3 -0.000410 0.001497 0.023955 0.024945 -0.003217 -0.010627
# 4 0.003549 0.007630 0.024945 0.057191 -0.006313 -0.011402
# 5 0.005112 0.000065 -0.003217 -0.006313 0.026566 0.003356
# 6 -0.003307 -0.000758 -0.010627 -0.011402 0.003356 0.036435
#
#
# Mechanical properties :
#
#
# Convention : Reuss Voigt Hill
#
# Bulk Modulus (GPa) = 21.06678 49.63664 35.35171
# Shear Modulus (GPa) = 27.16389 39.85481 33.50935
#
# Velocity S-wave (km/s) = 3.50447 4.24489 3.89232
# Velocity P-wave (km/s) = 5.08918 6.81667 6.01526
#
# Compressibility (1/GPa) = 0.04746811
#
# Stress axis : x y z
#
# Youngs Moduli (GPa) = 100.95443 71.93753 41.74550
#
# Poissons Ratio (x) = 0.08871 0.01711
# Poissons Ratio (y) = 0.12449 -0.06247
# Poissons Ratio (z) = 0.04137 -0.10765
#
# Static dielectric constant tensor:
#      x y z
#    x 1.801050 0.035930 0.021000 
#    y 0.035930 1.871710 -0.008290 
#    z 0.021000 -0.008290 1.810320 
# 
# From -- ./inp_files/495489.got.cif
#   From: 2010.05.17/outbox.cif.g08.bks.cpg/sg2_248_cif.got.tgz:495489.got - 2010.06.03 11:33:40.
