data_PCOD9029114
_publ_section_title
;
Structure prediction by ZEFSAII (Michael W. Deem and Ramdas Pophale) SiO2 
 PCOD9029114
Probable space group: P -1
;
_chemical_formula_sum "Si O2"
_cell_formula_units_Z 13
_cell_length_a 9.104032
_cell_length_b 9.504611
_cell_length_c 13.806123
_cell_angle_alpha 127.813331
_cell_angle_beta 40.515155
_cell_angle_gamma 137.142240
_cell_volume 523.662778
_symmetry_space_group_name_H-M "P -1"
_symmetry_group_IT_number 2
_symmetry_cell_setting 'triclinic'
loop_
_space_group_symop_operation_xyz
x,y,z
-x,-y,-z
loop_
_atom_site_type_symbol
_atom_site_label
_atom_site_fract_x
_atom_site_fract_y
_atom_site_fract_z
Si Si1 0.878002 0.633751 0.654073
Si Si2 0.968746 0.172349 0.533140
Si Si3 0.500000 0.500000 0.500000
Si Si4 0.310864 0.428840 0.777693
Si Si5 0.756397 0.181200 0.047770
Si Si6 0.904090 0.695092 0.890358
Si Si7 0.463370 0.790579 0.128111
O O1 0.561484 0.481176 0.739635
O O2 0.954790 0.707394 0.755919
O O3 0.000000 0.500000 0.500000
O O4 0.983284 0.820499 0.602574
O O5 0.696563 0.154358 0.692477
O O6 0.213631 0.389790 0.540669
O O7 0.000000 0.000000 0.500000
O O8 0.351355 0.387132 0.629585
O O9 0.321905 0.649477 0.862059
O O10 0.027553 0.253309 0.886190
O O11 0.839176 0.211157 0.132967
O O12 0.534385 0.937975 0.059985
O O13 0.732113 0.451456 0.902506
O O14 0.722562 0.794592 0.038800
#
# Coordination Sequence:
#
# PCOD9029114 Si02
#       7
#     2   2   1   2   2   2   2
#     4  11  23  44  68 100 140 183 233 292 347 414
#     4  11  24  44  70 102 138 185 234 287 349 416
#     4  10  22  42  66  92 136 180 222 278 340 404
#     4  10  23  42  69  98 138 182 233 288 350 412
#     4  11  24  44  67 103 139 179 234 291 343 424
#     4  11  24  43  69 100 137 191 228 282 362 407
#     4  11  22  41  68  99 138 179 232 287 340 419
#
# _framework density 24.825135
#
# number of rings (size 3 to 8) (size 9 to 14) (size 15 to 20)
#    0.000    1.231    1.538    5.077    2.154    2.462 
#    0.000   13.846    0.000    0.000    0.000    0.000 
#    0.000    0.000    0.000    0.000    0.000    0.000 
#
# Total GULP energy -72589.214088 kJ/mol
# GULP energy per Si atom -5583.785699 kJ/mol
# Density = 2.476863 g / cm^3
# Si number density = 24.825135 Si / 1000 Ang^3
#
#
#
# Elastic Constant Matrix: (Units=GPa)
#
#
# Indices 1 2 3 4 5 6 
#
# 1 94.2750 4.7219 56.2648 0.3038 18.6898 -9.2143
# 2 4.7219 114.8018 38.5628 -25.7411 0.8237 -32.2999
# 3 56.2648 38.5628 141.4712 -25.8895 0.8452 -13.7470
# 4 0.3038 -25.7411 -25.8895 41.1012 -13.6285 4.9352
# 5 18.6898 0.8237 0.8452 -13.6285 55.2437 -9.1126
# 6 -9.2143 -32.2999 -13.7470 4.9352 -9.1126 34.7744
#
#
#
# Elastic Compliance Matrix: (Units=1/GPa)
#
#
# Indices 1 2 3 4 5 6 
#
# 1 0.017017 0.000770 -0.008166 -0.007333 -0.007266 0.001132
# 2 0.000770 0.014575 -0.001628 0.007734 0.003590 0.012942
# 3 -0.008166 -0.001628 0.012376 0.008290 0.004860 0.001314
# 4 -0.007333 0.007734 0.008290 0.037867 0.012646 0.006457
# 5 -0.007266 0.003590 0.004860 0.012646 0.024880 0.008055
# 6 0.001132 0.012942 0.001314 0.006457 0.008055 0.042792
#
#
# Mechanical properties :
#
#
# Convention : Reuss Voigt Hill
#
# Bulk Modulus (GPa) = 38.58048 61.07187 49.82618
# Shear Modulus (GPa) = 28.37747 42.95709 35.66728
#
# Velocity S-wave (km/s) = 3.38464 4.16430 3.79455
# Velocity P-wave (km/s) = 5.55419 6.91203 6.26997
#
# Compressibility (1/GPa) = 0.02591984
#
# Stress axis : x y z
#
# Youngs Moduli (GPa) = 58.76394 68.60924 80.80297
#
# Poissons Ratio (x) = -0.05281 0.65986
# Poissons Ratio (y) = -0.04523 0.13152
# Poissons Ratio (z) = 0.47988 0.11168
#
# Static dielectric constant tensor:
#      x y z
#    x 1.985960 0.012420 0.018930 
#    y 0.012420 2.038740 0.017100 
#    z 0.018930 0.017100 1.959830 
# 
# From -- ./inp_files/380130.got.cif
#   From: 2010.05.17/outbox.cif.g08.bks.cpg/sg2_191_cif.got.tgz:380130.got - 2010.06.03 11:33:40.
