data_PCOD9029922
_publ_section_title
;
Structure prediction by ZEFSAII (Michael W. Deem and Ramdas Pophale) SiO2 
 PCOD9029922
Probable space group: P -1
;
_chemical_formula_sum "Si O2"
_cell_formula_units_Z 16
_cell_length_a 6.700691
_cell_length_b 19.737799
_cell_length_c 18.736499
_cell_angle_alpha 20.985719
_cell_angle_beta 114.766668
_cell_angle_gamma 103.746338
_cell_volume 710.401258
_symmetry_space_group_name_H-M "P -1"
_symmetry_group_IT_number 2
_symmetry_cell_setting 'triclinic'
loop_
_space_group_symop_operation_xyz
x,y,z
-x,-y,-z
loop_
_atom_site_type_symbol
_atom_site_label
_atom_site_fract_x
_atom_site_fract_y
_atom_site_fract_z
Si Si1 0.452594 0.988883 0.761259
Si Si2 0.399234 0.581733 0.790750
Si Si3 0.136268 0.402944 0.220996
Si Si4 0.865268 0.656187 0.054626
Si Si5 0.180898 0.779552 0.705294
Si Si6 0.640395 0.338015 0.837058
Si Si7 0.261635 0.811198 0.305938
Si Si8 0.311913 0.902124 0.061889
O O1 0.231125 0.208033 0.483754
O O2 0.618372 0.047562 0.782108
O O3 0.629672 0.866204 0.841556
O O4 0.357940 0.837391 0.934786
O O5 0.609710 0.608274 0.755191
O O6 0.216366 0.530626 0.765337
O O7 0.261852 0.767801 0.645999
O O8 0.562404 0.359325 0.077806
O O9 0.957516 0.622387 0.019400
O O10 0.975323 0.352100 0.190445
O O11 0.106646 0.641225 0.145244
O O12 0.000000 0.000000 0.500000
O O13 0.417264 0.570180 0.593881
O O14 0.603624 0.266387 0.823726
O O15 0.294653 0.808490 0.228084
O O16 0.970176 0.917741 0.175026
O O17 0.500000 0.000000 0.000000
#
# Coordination Sequence:
#
# PCOD9029922 Si02
#       8
#     2   2   2   2   2   2   2   2
#     4  12  25  42  66 100 134 179 229 270 340 403
#     4  10  23  43  67 100 137 173 230 278 328 402
#     4  11  24  43  66 100 139 179 226 282 330 400
#     4  11  24  41  66  98 134 180 222 274 338 391
#     4  10  22  42  68  99 134 181 224 275 338 391
#     4  12  25  44  70  97 136 182 223 281 337 403
#     4  11  25  45  67 100 132 171 230 275 335 407
#     4  11  24  47  70  98 133 174 225 282 339 400
#
# _framework density 22.522483999999999
#
# number of rings (size 3 to 8) (size 9 to 14) (size 15 to 20)
#    0.000    1.000    3.750    2.250    0.000    6.000 
#    0.000    0.000    0.000    0.000    0.000    0.000 
#    0.000    0.000    0.000    0.000    0.000    0.000 
#
# Total GULP energy -89427.497092 kJ/mol
# GULP energy per Si atom -5589.218568 kJ/mol
# Density = 2.247122 g / cm^3
# Si number density = 22.522484 Si / 1000 Ang^3
#
#
#
# Elastic Constant Matrix: (Units=GPa)
#
#
# Indices 1 2 3 4 5 6 
#
# 1 144.1393 41.9474 32.9610 -10.8296 8.5247 10.2363
# 2 41.9474 112.5130 28.0021 -34.0072 3.0451 14.8492
# 3 32.9610 28.0021 66.2914 -11.0768 13.7000 -3.8924
# 4 -10.8296 -34.0072 -11.0768 38.6288 -6.4932 11.6583
# 5 8.5247 3.0451 13.7000 -6.4932 32.7556 -4.1850
# 6 10.2363 14.8492 -3.8924 11.6583 -4.1850 46.5943
#
#
#
# Elastic Compliance Matrix: (Units=1/GPa)
#
#
# Indices 1 2 3 4 5 6 
#
# 1 0.008451 -0.002193 -0.003212 -0.000189 -0.000876 -0.001458
# 2 -0.002193 0.016785 -0.004440 0.016095 0.002907 -0.009004
# 3 -0.003212 -0.004440 0.019975 -0.001298 -0.006917 0.003493
# 4 -0.000189 0.016095 -0.001298 0.045490 0.006065 -0.016033
# 5 -0.000876 0.002907 -0.006917 0.006065 0.034618 0.000280
# 6 -0.001458 -0.009004 0.003493 -0.016033 0.000280 0.028980
#
#
# Mechanical properties :
#
#
# Convention : Reuss Voigt Hill
#
# Bulk Modulus (GPa) = 39.18228 58.75162 48.96695
# Shear Modulus (GPa) = 27.39779 38.26462 32.83120
#
# Velocity S-wave (km/s) = 3.49157 4.12631 3.82214
# Velocity P-wave (km/s) = 5.80426 6.98887 6.42393
#
# Compressibility (1/GPa) = 0.02552174
#
# Stress axis : x y z
#
# Youngs Moduli (GPa) = 118.32264 59.57779 50.06207
#
# Poissons Ratio (x) = 0.13063 0.16081
# Poissons Ratio (y) = 0.25944 0.22228
# Poissons Ratio (z) = 0.38008 0.26453
#
# Static dielectric constant tensor:
#      x y z
#    x 1.828900 -0.021410 -0.016610 
#    y -0.021410 1.864030 0.015270 
#    z -0.016610 0.015270 1.817950 
# 
# From -- ./inp_files/584292.got.cif
#   From: 2010.05.17/outbox.cif.g08.bks.cpg/sg2_293_cif.got.tgz:584292.got - 2010.06.03 11:33:40.
