data_PCOD9029882
_publ_section_title
;
Structure prediction by ZEFSAII (Michael W. Deem and Ramdas Pophale) SiO2 
 PCOD9029882
Probable space group: P -1
;
_chemical_formula_sum "Si O2"
_cell_formula_units_Z 12
_cell_length_a 7.165304
_cell_length_b 8.299987
_cell_length_c 21.154604
_cell_angle_alpha 47.592393
_cell_angle_beta 133.168735
_cell_angle_gamma 142.435016
_cell_volume 534.160212
_symmetry_space_group_name_H-M "P -1"
_symmetry_group_IT_number 2
_symmetry_cell_setting 'triclinic'
loop_
_space_group_symop_operation_xyz
x,y,z
-x,-y,-z
loop_
_atom_site_type_symbol
_atom_site_label
_atom_site_fract_x
_atom_site_fract_y
_atom_site_fract_z
Si Si1 0.204280 0.299912 0.436130
Si Si2 0.443749 0.522459 0.908442
Si Si3 0.454951 0.739908 0.590474
Si Si4 0.680054 0.105548 0.274153
Si Si5 0.010598 0.949543 0.166377
Si Si6 0.071056 0.143695 0.690917
O O1 0.500000 0.500000 0.500000
O O2 0.385872 0.327072 0.407710
O O3 0.902316 0.274577 0.342080
O O4 0.000000 0.000000 0.500000
O O5 0.274619 0.671735 0.823037
O O6 0.219607 0.237629 0.894592
O O7 0.778017 0.732519 0.891108
O O8 0.500000 0.500000 0.000000
O O9 0.133796 0.434826 0.614484
O O10 0.500000 0.000000 0.500000
O O11 0.693404 0.882583 0.667232
O O12 0.297946 0.918739 0.250655
O O13 0.765319 0.924022 0.306850
O O14 0.824477 0.861656 0.212826
#
# Coordination Sequence:
#
# PCOD9029882 Si02
#       6
#     2   2   2   2   2   2
#     4  11  24  39  62  90 123 166 216 253 312 375
#     4  10  22  42  68  98 131 161 210 266 324 382
#     4  11  25  41  57  89 125 165 211 275 310 359
#     4   9  25  40  68  92 128 171 212 264 319 367
#     4  10  23  40  69  92 125 170 211 254 330 372
#     4  11  23  43  62  89 127 164 219 254 319 382
#
# _framework density 22.465170000000001
#
# number of rings (size 3 to 8) (size 9 to 14) (size 15 to 20)
#    1.000    0.667    0.000    4.000    9.333    0.000 
#    0.000    1.667    0.000    0.000    0.000    0.000 
#    0.000    0.000    0.000    0.000    0.000    0.000 
#
# Total GULP energy -66818.373716 kJ/mol
# GULP energy per Si atom -5568.197810 kJ/mol
# Density = 2.241404 g / cm^3
# Si number density = 22.465170 Si / 1000 Ang^3
#
#
#
# Elastic Constant Matrix: (Units=GPa)
#
#
# Indices 1 2 3 4 5 6 
#
# 1 43.8461 20.3993 -1.6615 9.3229 -17.3340 0.7707
# 2 20.3993 163.8849 49.9096 28.8332 -9.4702 16.3337
# 3 -1.6615 49.9096 133.3486 21.9395 -18.1122 -1.2555
# 4 9.3229 28.8332 21.9395 46.1281 -7.4460 -9.6072
# 5 -17.3340 -9.4702 -18.1122 -7.4460 26.2090 -1.2017
# 6 0.7707 16.3337 -1.2555 -9.6072 -1.2017 20.9901
#
#
#
# Elastic Compliance Matrix: (Units=1/GPa)
#
#
# Indices 1 2 3 4 5 6 
#
# 1 0.035861 -0.004731 0.006135 -0.002414 0.025704 0.003098
# 2 -0.004731 0.009645 -0.003288 -0.006422 -0.004232 -0.010710
# 3 0.006135 -0.003288 0.010482 -0.002081 0.009639 0.002559
# 4 -0.002414 -0.006422 -0.002081 0.032071 0.004668 0.019908
# 5 0.025704 -0.004232 0.009639 0.004668 0.062009 0.008612
# 6 0.003098 -0.010710 0.002559 0.019908 0.008612 0.065620
#
#
# Mechanical properties :
#
#
# Convention : Reuss Voigt Hill
#
# Bulk Modulus (GPa) = 19.14927 53.15270 36.15099
# Shear Modulus (GPa) = 21.10941 36.82759 28.96850
#
# Velocity S-wave (km/s) = 3.06870 4.05324 3.59484
# Velocity P-wave (km/s) = 4.59329 6.75400 5.77559
#
# Compressibility (1/GPa) = 0.05222131
#
# Stress axis : x y z
#
# Youngs Moduli (GPa) = 27.88522 103.68320 95.40236
#
# Poissons Ratio (x) = 0.49051 -0.58531
# Poissons Ratio (y) = 0.13192 0.31365
# Poissons Ratio (z) = -0.17108 0.34088
#
# Static dielectric constant tensor:
#      x y z
#    x 1.835660 -0.038670 0.113900 
#    y -0.038670 1.753070 0.115460 
#    z 0.113900 0.115460 1.752180 
# 
# From -- ./inp_files/503449.got.cif
#   From: 2010.05.17/outbox.cif.g08.bks.cpg/sg2_252_cif.got.tgz:503449.got - 2010.06.03 11:33:40.
