data_PCOD9029910
_publ_section_title
;
Structure prediction by ZEFSAII (Michael W. Deem and Ramdas Pophale) SiO2 
 PCOD9029910
Probable space group: P -1
;
_chemical_formula_sum "Si O2"
_cell_formula_units_Z 12
_cell_length_a 7.377842
_cell_length_b 15.335704
_cell_length_c 5.348808
_cell_angle_alpha 123.636106
_cell_angle_beta 112.815710
_cell_angle_gamma 87.212440
_cell_volume 453.422145
_symmetry_space_group_name_H-M "P -1"
_symmetry_group_IT_number 2
_symmetry_cell_setting 'triclinic'
loop_
_space_group_symop_operation_xyz
x,y,z
-x,-y,-z
loop_
_atom_site_type_symbol
_atom_site_label
_atom_site_fract_x
_atom_site_fract_y
_atom_site_fract_z
Si Si1 0.273137 0.431928 0.552371
Si Si2 0.529759 0.884601 0.236656
Si Si3 0.969357 0.627045 0.158816
Si Si4 0.168515 0.055540 0.875062
Si Si5 0.046731 0.148223 0.360649
Si Si6 0.377011 0.644505 0.671249
O O1 0.190918 0.405194 0.746492
O O2 0.368991 0.558502 0.755093
O O3 0.434108 0.366945 0.421418
O O4 0.095120 0.408182 0.211804
O O5 0.606392 0.907963 0.031823
O O6 0.735892 0.864756 0.443425
O O7 0.500000 0.000000 0.500000
O O8 0.386657 0.765853 0.969447
O O9 0.007898 0.754867 0.378020
O O10 0.178068 0.604863 0.334311
O O11 0.091120 0.155961 0.102870
O O12 0.000000 0.000000 0.500000
O O13 0.135957 0.954866 0.884176
#
# Coordination Sequence:
#
# PCOD9029910 Si02
#       6
#     2   2   2   2   2   2
#     4  11  27  52  74 111 151 190 253 309 366 445
#     4  11  24  44  64 106 143 186 242 296 363 440
#     4  12  26  48  79 110 148 195 247 309 376 436
#     4   9  21  40  64  90 139 188 232 288 357 424
#     4  10  22  42  68  98 142 190 236 304 362 430
#     4  11  26  47  77 109 146 201 244 308 374 438
#
# _framework density 26.465405000000001
#
# number of rings (size 3 to 8) (size 9 to 14) (size 15 to 20)
#    0.000    1.333    1.667    2.000    9.333    4.667 
#    9.000    0.000    0.000    0.000    0.000    0.000 
#    0.000    0.000    0.000    0.000    0.000    0.000 
#
# Total GULP energy -66997.688682 kJ/mol
# GULP energy per Si atom -5583.140724 kJ/mol
# Density = 2.640517 g / cm^3
# Si number density = 26.465405 Si / 1000 Ang^3
#
#
#
# Elastic Constant Matrix: (Units=GPa)
#
#
# Indices 1 2 3 4 5 6 
#
# 1 58.1601 5.0442 -2.3266 -2.3369 12.8170 -0.4524
# 2 5.0442 57.7594 8.3766 13.3975 -5.7871 2.3358
# 3 -2.3266 8.3766 97.8567 10.0470 2.0208 0.5413
# 4 -2.3369 13.3975 10.0470 47.1348 -20.3577 -0.8841
# 5 12.8170 -5.7871 2.0208 -20.3577 42.8176 -1.9732
# 6 -0.4524 2.3358 0.5413 -0.8841 -1.9732 53.2973
#
#
#
# Elastic Compliance Matrix: (Units=1/GPa)
#
#
# Indices 1 2 3 4 5 6 
#
# 1 0.018827 -0.002085 0.000926 -0.001569 -0.006709 -0.000033
# 2 -0.002085 0.018919 -0.001183 -0.004864 0.000884 -0.000883
# 3 0.000926 -0.001183 0.010690 -0.002907 -0.002332 -0.000183
# 4 -0.001569 -0.004864 -0.002907 0.029152 0.013867 0.001226
# 5 -0.006709 0.000884 -0.002332 0.013867 0.032248 0.001352
# 6 -0.000033 -0.000883 -0.000183 0.001226 0.001352 0.018873
#
#
# Mechanical properties :
#
#
# Convention : Reuss Voigt Hill
#
# Bulk Modulus (GPa) = 22.85647 26.21831 24.53739
# Shear Modulus (GPa) = 33.78876 42.16205 37.97541
#
# Velocity S-wave (km/s) = 3.57699 3.99570 3.79213
# Velocity P-wave (km/s) = 5.07099 5.58709 5.33528
#
# Compressibility (1/GPa) = 0.04375130
#
# Stress axis : x y z
#
# Youngs Moduli (GPa) = 53.11531 52.85612 93.54554
#
# Poissons Ratio (x) = 0.11022 -0.08662
# Poissons Ratio (y) = 0.11076 0.11068
# Poissons Ratio (z) = -0.04918 0.06253
#
# Static dielectric constant tensor:
#      x y z
#    x 2.139680 0.065510 -0.112060 
#    y 0.065510 2.555110 -0.085770 
#    z -0.112060 -0.085770 2.171250 
# 
# From -- ./inp_files/42952.got.cif
#   From: 2010.05.17/outbox.cif.g08.bks.cpg/sg2_22_cif.got.tgz:42952.got - 2010.06.03 11:33:40.
