data_PCOD9029384
_publ_section_title
;
Structure prediction by ZEFSAII (Michael W. Deem and Ramdas Pophale) SiO2 
 PCOD9029384
Probable space group: P -1
;
_chemical_formula_sum "Si O2"
_cell_formula_units_Z 14
_cell_length_a 21.928010
_cell_length_b 12.043562
_cell_length_c 21.733356
_cell_angle_alpha 162.486084
_cell_angle_beta 20.546393
_cell_angle_gamma 151.556123
_cell_volume 601.089167
_symmetry_space_group_name_H-M "P -1"
_symmetry_group_IT_number 2
_symmetry_cell_setting 'triclinic'
loop_
_space_group_symop_operation_xyz
x,y,z
-x,-y,-z
loop_
_atom_site_type_symbol
_atom_site_label
_atom_site_fract_x
_atom_site_fract_y
_atom_site_fract_z
Si Si1 0.002711 0.634582 0.998804
Si Si2 0.975277 0.391281 0.766206
Si Si3 0.555916 0.508980 0.028600
Si Si4 0.193710 0.635347 0.392935
Si Si5 0.376295 0.521951 0.908559
Si Si6 0.592898 0.320372 0.377705
Si Si7 0.352291 0.406714 0.401728
O O1 0.854912 0.988520 0.323660
O O2 0.969430 0.359070 0.828977
O O3 0.000000 0.500000 0.000000
O O4 0.197909 0.739728 0.861334
O O5 0.149756 0.576479 0.686412
O O6 0.797558 0.609956 0.024230
O O7 0.000000 0.000000 0.500000
O O8 0.360722 0.392786 0.140524
O O9 0.602216 0.520512 0.061847
O O10 0.536657 0.928325 0.242607
O O11 0.718445 0.306742 0.727019
O O12 0.000000 0.500000 0.500000
O O13 0.543894 0.389248 0.638665
O O14 0.353284 0.971224 0.156590
O O15 0.500000 0.500000 0.500000
O O16 0.562715 0.574382 0.601174
#
# Coordination Sequence:
#
# PCOD9029384 Si02
#       7
#     2   2   2   2   2   2   2
#     4  11  24  42  71 102 134 183 231 282 346 412
#     4   9  21  42  64  99 134 172 225 279 335 407
#     4  11  26  43  68 100 135 184 228 288 347 405
#     4  11  25  46  63 101 140 176 231 284 352 403
#     4  10  22  42  67  91 134 178 223 278 340 409
#     4  11  24  43  68  99 137 172 231 292 338 415
#     4   9  22  41  63  98 127 175 226 272 340 402
#
# _framework density 23.291053999999999
#
# number of rings (size 3 to 8) (size 9 to 14) (size 15 to 20)
#    0.000    1.714    1.429    0.857   14.000    1.714 
#    2.571    1.429    0.000    0.000    0.000    0.000 
#    0.000    0.000    0.000    0.000    0.000    0.000 
#
# Total GULP energy -78144.644149 kJ/mol
# GULP energy per Si atom -5581.760296 kJ/mol
# Density = 2.323804 g / cm^3
# Si number density = 23.291054 Si / 1000 Ang^3
#
#
#
# Elastic Constant Matrix: (Units=GPa)
#
#
# Indices 1 2 3 4 5 6 
#
# 1 192.9082 55.4874 51.0576 -50.0606 5.5504 2.2855
# 2 55.4874 78.6852 37.0632 -34.8834 -6.8047 0.4953
# 3 51.0576 37.0632 98.8579 -34.9059 6.9377 4.0607
# 4 -50.0606 -34.8834 -34.9059 42.3983 0.9551 2.6507
# 5 5.5504 -6.8047 6.9377 0.9551 40.6747 -2.0240
# 6 2.2855 0.4953 4.0607 2.6507 -2.0240 34.3854
#
#
#
# Elastic Compliance Matrix: (Units=1/GPa)
#
#
# Indices 1 2 3 4 5 6 
#
# 1 0.007882 -0.002294 -0.000565 0.007056 -0.001582 -0.001061
# 2 -0.002294 0.021624 -0.002644 0.012851 0.004050 -0.000599
# 3 -0.000565 -0.002644 0.015262 0.009966 -0.003336 -0.002691
# 4 0.007056 0.012851 0.009966 0.051109 -0.002006 -0.005889
# 5 -0.001582 0.004050 -0.003336 -0.002006 0.026201 0.002138
# 6 -0.001061 -0.000599 -0.002691 -0.005889 0.002138 0.030059
#
#
# Mechanical properties :
#
#
# Convention : Reuss Voigt Hill
#
# Bulk Modulus (GPa) = 29.61901 73.07419 51.34660
# Shear Modulus (GPa) = 28.67003 38.61455 33.64229
#
# Velocity S-wave (km/s) = 3.51229 4.07617 3.80469
# Velocity P-wave (km/s) = 5.40303 7.32093 6.43384
#
# Compressibility (1/GPa) = 0.03376210
#
# Stress axis : x y z
#
# Youngs Moduli (GPa) = 126.86387 46.24572 65.52123
#
# Poissons Ratio (x) = 0.10611 0.03701
# Poissons Ratio (y) = 0.29108 0.17323
# Poissons Ratio (z) = 0.07165 0.12227
#
# Static dielectric constant tensor:
#      x y z
#    x 1.841820 0.021080 0.041950 
#    y 0.021080 1.945860 0.011990 
#    z 0.041950 0.011990 1.983160 
# 
# From -- ./inp_files/601465.got.cif
#   From: 2010.05.17/outbox.cif.g08.bks.cpg/sg2_301_cif.got.tgz:601465.got - 2010.06.03 11:33:40.
