data_PCOD9029868
_publ_section_title
;
Structure prediction by ZEFSAII (Michael W. Deem and Ramdas Pophale) SiO2 
 PCOD9029868
Probable space group: P -1
;
_chemical_formula_sum "Si O2"
_cell_formula_units_Z 16
_cell_length_a 10.894259
_cell_length_b 16.717173
_cell_length_c 8.384669
_cell_angle_alpha 79.539559
_cell_angle_beta 111.051214
_cell_angle_gamma 146.036105
_cell_volume 776.086457
_symmetry_space_group_name_H-M "P -1"
_symmetry_group_IT_number 2
_symmetry_cell_setting 'triclinic'
loop_
_space_group_symop_operation_xyz
x,y,z
-x,-y,-z
loop_
_atom_site_type_symbol
_atom_site_label
_atom_site_fract_x
_atom_site_fract_y
_atom_site_fract_z
Si Si1 0.755003 0.348033 0.855327
Si Si2 0.565140 0.876648 0.927326
Si Si3 0.624249 0.759680 0.464724
Si Si4 0.996151 0.345768 0.742727
Si Si5 0.519942 0.679537 0.810192
Si Si6 0.023095 0.175659 0.914501
Si Si7 0.917760 0.076451 0.535442
Si Si8 0.690255 0.123760 0.408665
O O1 0.611401 0.348820 0.710692
O O2 0.825108 0.320055 0.762180
O O3 0.574332 0.214658 0.944217
O O4 0.000000 0.500000 0.000000
O O5 0.555601 0.789471 0.850170
O O6 0.434568 0.882654 0.773118
O O7 0.840223 0.043948 0.004958
O O8 0.557193 0.696362 0.632150
O O9 0.822374 0.806127 0.457210
O O10 0.751397 0.913461 0.484663
O O11 0.257698 0.516752 0.792898
O O12 0.005079 0.263591 0.865832
O O13 0.893992 0.276569 0.544111
O O14 0.716244 0.722975 0.965733
O O15 0.943241 0.103353 0.727953
O O16 0.800095 0.097257 0.403389
O O17 0.500000 0.000000 0.500000
#
# Coordination Sequence:
#
# PCOD9029868 Si02
#       8
#     2   2   2   2   2   2   2   2
#     4  12  27  44  63 100 140 173 220 281 333 392
#     4  12  24  41  73  94 132 181 223 273 331 400
#     4  11  25  41  68  98 131 178 224 273 330 393
#     4  11  25  44  69  96 138 176 218 280 338 396
#     4  12  24  43  69 100 134 180 224 269 338 404
#     4  11  24  44  68 102 131 176 220 278 335 395
#     4  10  22  42  68  97 138 166 221 285 320 389
#     4  11  21  45  68 100 131 174 223 275 332 392
#
# _framework density 20.616261000000002
#
# number of rings (size 3 to 8) (size 9 to 14) (size 15 to 20)
#    0.000    0.750    5.000    3.000    5.250    2.500 
#    0.000    2.500    0.000    0.000    0.000    0.000 
#    0.000    0.000    0.000    0.000    0.000    0.000 
#
# Total GULP energy -89562.184762 kJ/mol
# GULP energy per Si atom -5597.636548 kJ/mol
# Density = 2.056934 g / cm^3
# Si number density = 20.616261 Si / 1000 Ang^3
#
#
#
# Elastic Constant Matrix: (Units=GPa)
#
#
# Indices 1 2 3 4 5 6 
#
# 1 113.7733 17.0915 -0.5463 -0.6107 12.9528 14.1611
# 2 17.0915 67.2394 -8.6770 -5.5570 -7.1997 21.7998
# 3 -0.5463 -8.6770 41.6827 1.6559 15.9558 10.9278
# 4 -0.6107 -5.5570 1.6559 24.9220 11.3882 0.1745
# 5 12.9528 -7.1997 15.9558 11.3882 28.4663 0.3579
# 6 14.1611 21.7998 10.9278 0.1745 0.3579 34.1539
#
#
#
# Elastic Compliance Matrix: (Units=1/GPa)
#
#
# Indices 1 2 3 4 5 6 
#
# 1 0.010697 -0.001121 0.004647 0.003982 -0.009284 -0.005130
# 2 -0.001121 0.021946 0.008891 0.004655 -0.000579 -0.016406
# 3 0.004647 0.008891 0.041425 0.012138 -0.027681 -0.020628
# 4 0.003982 0.004655 0.012138 0.053676 -0.028805 -0.008478
# 5 -0.009284 -0.000579 -0.027681 -0.028805 0.066089 0.012530
# 6 -0.005130 -0.016406 -0.020628 -0.008478 0.012530 0.048390
#
#
# Mechanical properties :
#
#
# Convention : Reuss Voigt Hill
#
# Bulk Modulus (GPa) = 10.11091 26.49241 18.30166
# Shear Modulus (GPa) = 19.97157 31.83025 25.90091
#
# Velocity S-wave (km/s) = 3.11582 3.93356 3.54833
# Velocity P-wave (km/s) = 4.22604 5.78867 5.06794
#
# Compressibility (1/GPa) = 0.09890307
#
# Stress axis : x y z
#
# Youngs Moduli (GPa) = 93.48399 45.56578 24.14019
#
# Poissons Ratio (x) = 0.05109 -0.11219
# Poissons Ratio (y) = 0.10483 -0.21464
# Poissons Ratio (z) = -0.43445 -0.40515
#
# Static dielectric constant tensor:
#      x y z
#    x 1.713140 -0.001210 -0.007330 
#    y -0.001210 1.720930 0.014540 
#    z -0.007330 0.014540 1.729150 
# 
# From -- ./inp_files/207082.got.cif
#   From: 2010.05.17/outbox.cif.g08.bks.cpg/sg2_104_cif.got.tgz:207082.got - 2010.06.03 11:33:40.
