data_PCOD9029342
_publ_section_title
;
Structure prediction by ZEFSAII (Michael W. Deem and Ramdas Pophale) SiO2 
 PCOD9029342
Probable space group: P -1
;
_chemical_formula_sum "Si O2"
_cell_formula_units_Z 16
_cell_length_a 15.438295
_cell_length_b 8.850487
_cell_length_c 18.103683
_cell_angle_alpha 141.810131
_cell_angle_beta 149.483443
_cell_angle_gamma 32.831262
_cell_volume 663.457692
_symmetry_space_group_name_H-M "P -1"
_symmetry_group_IT_number 2
_symmetry_cell_setting 'triclinic'
loop_
_space_group_symop_operation_xyz
x,y,z
-x,-y,-z
loop_
_atom_site_type_symbol
_atom_site_label
_atom_site_fract_x
_atom_site_fract_y
_atom_site_fract_z
Si Si1 0.534100 0.735512 0.375038
Si Si2 0.619487 0.228532 0.353934
Si Si3 0.785597 0.130541 0.931501
Si Si4 0.223171 0.242934 0.084876
Si Si5 0.076095 0.347806 0.406601
Si Si6 0.951337 0.935774 0.597681
Si Si7 0.715011 0.940393 0.105094
Si Si8 0.166885 0.396813 0.808947
O O1 0.589129 0.470990 0.367443
O O2 0.358716 0.799634 0.216397
O O3 0.712056 0.695026 0.439065
O O4 0.500000 0.000000 0.500000
O O5 0.400900 0.308965 0.252273
O O6 0.773662 0.188350 0.517201
O O7 0.723707 0.921246 0.268594
O O8 0.781680 0.926558 0.912699
O O9 0.719311 0.431177 0.039472
O O10 0.000000 0.000000 0.000000
O O11 0.288718 0.070047 0.989241
O O12 0.000000 0.500000 0.000000
O O13 0.932248 0.666199 0.454992
O O14 0.026857 0.398103 0.303121
O O15 0.063199 0.092102 0.335477
O O16 0.166406 0.897767 0.726150
O O17 0.863710 0.643995 0.143354
O O18 0.500000 0.000000 0.000000
#
# Coordination Sequence:
#
# PCOD9029342 Si02
#       8
#     2   2   2   2   2   2   2   2
#     4  12  26  44  71 100 145 193 250 305 374 448
#     4  11  24  46  73 110 141 200 251 311 374 449
#     4  12  27  47  72 106 151 197 243 309 377 453
#     4  12  27  48  72 106 150 199 252 309 381 448
#     4  10  22  42  67 104 141 189 238 303 374 432
#     4  10  23  42  70 103 146 184 247 310 364 446
#     4  12  24  43  70 108 143 194 248 306 369 443
#     4  11  23  43  73 104 147 186 247 300 375 436
#
# _framework density 24.116081999999999
#
# number of rings (size 3 to 8) (size 9 to 14) (size 15 to 20)
#    0.000    0.750    1.250    6.000    1.750    4.500 
#    0.000    1.875    0.000    0.000    0.000    0.000 
#    0.000    0.000    0.000    0.000    0.000    0.000 
#
# Total GULP energy -89277.086365 kJ/mol
# GULP energy per Si atom -5579.817898 kJ/mol
# Density = 2.406119 g / cm^3
# Si number density = 24.116082 Si / 1000 Ang^3
#
#
#
# Elastic Constant Matrix: (Units=GPa)
#
#
# Indices 1 2 3 4 5 6 
#
# 1 146.4660 64.6497 46.3450 -14.7640 33.2158 29.7100
# 2 64.6497 119.0499 60.4795 -7.1269 7.0953 22.5994
# 3 46.3450 60.4795 146.7700 -27.8180 18.6542 11.5666
# 4 -14.7640 -7.1269 -27.8180 48.0810 6.1785 -6.1886
# 5 33.2158 7.0953 18.6542 6.1785 41.8884 -2.8217
# 6 29.7100 22.5994 11.5666 -6.1886 -2.8217 43.3585
#
#
#
# Elastic Compliance Matrix: (Units=1/GPa)
#
#
# Indices 1 2 3 4 5 6 
#
# 1 0.013227 -0.005427 0.000784 0.004280 -0.010991 -0.006548
# 2 -0.005427 0.013884 -0.005046 -0.003416 0.004543 -0.002364
# 3 0.000784 -0.005046 0.010530 0.006255 -0.005390 -0.000174
# 4 0.004280 -0.003416 0.006255 0.026488 -0.009485 0.000342
# 5 -0.010991 0.004543 -0.005390 -0.009485 0.036130 0.007598
# 6 -0.006548 -0.002364 -0.000174 0.000342 0.007598 0.029372
#
#
# Mechanical properties :
#
#
# Convention : Reuss Voigt Hill
#
# Bulk Modulus (GPa) = 54.75783 83.91493 69.33638
# Shear Modulus (GPa) = 32.23800 42.71970 37.47885
#
# Velocity S-wave (km/s) = 3.66017 4.21339 3.94649
# Velocity P-wave (km/s) = 6.37320 7.65127 7.04130
#
# Compressibility (1/GPa) = 0.01826223
#
# Stress axis : x y z
#
# Youngs Moduli (GPa) = 75.60200 72.02645 94.97062
#
# Poissons Ratio (x) = 0.39087 -0.07443
# Poissons Ratio (y) = 0.41027 0.47923
# Poissons Ratio (z) = -0.05925 0.36345
#
# Static dielectric constant tensor:
#      x y z
#    x 2.044440 -0.106770 -0.077290 
#    y -0.106770 2.200580 0.057630 
#    z -0.077290 0.057630 2.042690 
# 
# From -- ./inp_files/572944.got.cif
#   From: 2010.05.17/outbox.cif.g08.bks.cpg/sg2_287_cif.got.tgz:572944.got - 2010.06.03 11:33:40.
