data_PCOD9029645
_publ_section_title
;
Structure prediction by ZEFSAII (Michael W. Deem and Ramdas Pophale) SiO2 
 PCOD9029645
Probable space group: P -1
;
_chemical_formula_sum "Si O2"
_cell_formula_units_Z 14
_cell_length_a 8.903989
_cell_length_b 9.118226
_cell_length_c 10.908816
_cell_angle_alpha 113.166903
_cell_angle_beta 111.305436
_cell_angle_gamma 44.889722
_cell_volume 569.746494
_symmetry_space_group_name_H-M "P -1"
_symmetry_group_IT_number 2
_symmetry_cell_setting 'triclinic'
loop_
_space_group_symop_operation_xyz
x,y,z
-x,-y,-z
loop_
_atom_site_type_symbol
_atom_site_label
_atom_site_fract_x
_atom_site_fract_y
_atom_site_fract_z
Si Si1 0.717606 0.358690 0.597935
Si Si2 0.090424 0.291544 0.754243
Si Si3 0.866223 0.330072 0.391722
Si Si4 0.416878 0.313896 0.957997
Si Si5 0.800757 0.065289 0.159228
Si Si6 0.710038 0.260374 0.830758
Si Si7 0.270343 0.226544 0.514306
O O1 0.500000 0.500000 0.500000
O O2 0.882335 0.224985 0.490612
O O3 0.698152 0.262244 0.679713
O O4 0.830849 0.444184 0.718293
O O5 0.204578 0.347653 0.891080
O O6 0.181086 0.268409 0.639321
O O7 0.168554 0.071894 0.761304
O O8 0.752455 0.279857 0.253050
O O9 0.747581 0.575670 0.458894
O O10 0.100039 0.235105 0.386806
O O11 0.541691 0.255574 0.846373
O O12 0.607225 0.127831 0.040960
O O13 0.347058 0.529258 0.062315
O O14 0.037754 0.924253 0.124920
O O15 0.500000 0.000000 0.500000
#
# Coordination Sequence:
#
# PCOD9029645 Si02
#       7
#     2   2   2   2   2   2   2
#     4  10  22  42  68 101 136 183 227 285 353 405
#     4  10  25  43  67 105 141 178 238 287 338 422
#     4  10  24  43  68 103 136 174 237 276 343 421
#     4  11  24  45  67 102 144 180 238 287 337 409
#     4  11  24  45  71 100 139 188 229 287 344 410
#     4  10  25  42  71 103 134 193 230 284 346 414
#     4  10  24  43  67 101 140 177 219 294 344 402
#
# _framework density 24.572333
#
# number of rings (size 3 to 8) (size 9 to 14) (size 15 to 20)
#    0.000    1.714    0.000    1.714    8.000   10.857 
#    0.000    1.429    0.000    0.000    0.000    0.000 
#    0.000    0.000    0.000    0.000    0.000    0.000 
#
# Total GULP energy -78174.327982 kJ/mol
# GULP energy per Si atom -5583.880570 kJ/mol
# Density = 2.451641 g / cm^3
# Si number density = 24.572333 Si / 1000 Ang^3
#
#
#
# Elastic Constant Matrix: (Units=GPa)
#
#
# Indices 1 2 3 4 5 6 
#
# 1 122.8586 39.7053 57.5347 -13.8691 28.8723 6.4449
# 2 39.7053 106.2720 38.3012 -11.0411 7.6138 3.3050
# 3 57.5347 38.3012 101.5220 -31.8476 22.9610 3.1300
# 4 -13.8691 -11.0411 -31.8476 34.9918 -6.6650 3.0544
# 5 28.8723 7.6138 22.9610 -6.6650 68.3735 -12.0818
# 6 6.4449 3.3050 3.1300 3.0544 -12.0818 40.5407
#
#
#
# Elastic Compliance Matrix: (Units=1/GPa)
#
#
# Indices 1 2 3 4 5 6 
#
# 1 0.012380 -0.002399 -0.005706 -0.001529 -0.003598 -0.002289
# 2 -0.002399 0.011372 -0.003119 -0.000048 0.000777 -0.000070
# 3 -0.005706 -0.003119 0.019360 0.014040 -0.002767 -0.002216
# 4 -0.001529 -0.000048 0.014040 0.040945 -0.000808 -0.004163
# 5 -0.003598 0.000777 -0.002767 -0.000808 0.017995 0.006146
# 6 -0.002289 -0.000070 -0.002216 -0.004163 0.006146 0.027352
#
#
# Mechanical properties :
#
#
# Convention : Reuss Voigt Hill
#
# Bulk Modulus (GPa) = 48.39765 66.85945 57.62855
# Shear Modulus (GPa) = 31.49806 41.78862 36.64334
#
# Velocity S-wave (km/s) = 3.58418 4.12835 3.86585
# Velocity P-wave (km/s) = 6.07184 7.07055 6.59014
#
# Compressibility (1/GPa) = 0.02066216
#
# Stress axis : x y z
#
# Youngs Moduli (GPa) = 80.77593 87.93679 51.65419
#
# Poissons Ratio (x) = 0.21093 0.29476
# Poissons Ratio (y) = 0.19375 0.16113
# Poissons Ratio (z) = 0.46095 0.27431
#
# Static dielectric constant tensor:
#      x y z
#    x 2.011190 -0.033090 0.032780 
#    y -0.033090 1.973220 -0.027580 
#    z 0.032780 -0.027580 2.020740 
# 
# From -- ./inp_files/380051.got.cif
#   From: 2010.05.17/outbox.cif.g08.bks.cpg/sg2_191_cif.got.tgz:380051.got - 2010.06.03 11:33:40.
