data_PCOD9029539
_publ_section_title
;
Structure prediction by ZEFSAII (Michael W. Deem and Ramdas Pophale) SiO2 
 PCOD9029539
Probable space group: P -1
;
_chemical_formula_sum "Si O2"
_cell_formula_units_Z 16
_cell_length_a 18.298314
_cell_length_b 7.628641
_cell_length_c 9.617860
_cell_angle_alpha 72.351154
_cell_angle_beta 134.628384
_cell_angle_gamma 73.661419
_cell_volume 623.387454
_symmetry_space_group_name_H-M "P -1"
_symmetry_group_IT_number 2
_symmetry_cell_setting 'triclinic'
loop_
_space_group_symop_operation_xyz
x,y,z
-x,-y,-z
loop_
_atom_site_type_symbol
_atom_site_label
_atom_site_fract_x
_atom_site_fract_y
_atom_site_fract_z
Si Si1 0.324546 0.701399 0.765413
Si Si2 0.600378 0.312887 0.549914
Si Si3 0.106766 0.885826 0.966266
Si Si4 0.965902 0.345673 0.877934
Si Si5 0.791282 0.722298 0.052284
Si Si6 0.890611 0.885226 0.366416
Si Si7 0.435289 0.263718 0.153018
Si Si8 0.757320 0.846846 0.599747
O O1 0.218299 0.908679 0.703460
O O2 0.257970 0.916042 0.504904
O O3 0.500000 0.500000 0.000000
O O4 0.326153 0.479144 0.833740
O O5 0.500000 0.500000 0.500000
O O6 0.480405 0.396157 0.258369
O O7 0.722631 0.313702 0.700513
O O8 0.707860 0.995833 0.791237
O O9 0.102013 0.961010 0.780564
O O10 0.055017 0.757652 0.988492
O O11 0.005001 0.165342 0.845725
O O12 0.813511 0.659285 0.588087
O O13 0.095281 0.332685 0.065117
O O14 0.821802 0.796634 0.217173
O O15 0.942686 0.406799 0.301822
O O16 0.659044 0.747068 0.878056
O O17 0.596326 0.977719 0.392580
#
# Coordination Sequence:
#
# PCOD9029539 Si02
#       8
#     2   2   2   2   2   2   2   2
#     4  10  24  45  67  95 139 184 218 279 344 403
#     4  11  23  42  64  96 143 172 222 284 340 411
#     4  10  22  42  69  98 130 179 227 282 341 405
#     4  10  22  42  67  97 132 183 228 278 342 397
#     4  10  24  39  69 103 133 179 222 287 346 400
#     4  10  23  46  68 101 141 172 234 284 338 409
#     4  11  22  43  63  98 132 181 228 272 349 404
#     4  10  23  41  65  92 138 177 229 281 329 412
#
# _framework density 25.666219999999999
#
# number of rings (size 3 to 8) (size 9 to 14) (size 15 to 20)
#    0.000    1.750    1.250    1.875    8.750    0.500 
#    4.500    2.500    0.000    0.000    0.000    0.000 
#    0.000    0.000    0.000    0.000    0.000    0.000 
#
# Total GULP energy -89084.828326 kJ/mol
# GULP energy per Si atom -5567.801770 kJ/mol
# Density = 2.560780 g / cm^3
# Si number density = 25.666220 Si / 1000 Ang^3
#
#
#
# Elastic Constant Matrix: (Units=GPa)
#
#
# Indices 1 2 3 4 5 6 
#
# 1 130.0554 45.0143 57.7580 1.0836 15.5237 -9.5369
# 2 45.0143 70.5259 34.0580 -15.0383 24.9527 -5.6915
# 3 57.7580 34.0580 131.8299 -18.2263 42.5051 -2.7053
# 4 1.0836 -15.0383 -18.2263 31.1526 -7.5511 10.0003
# 5 15.5237 24.9527 42.5051 -7.5511 54.0590 -13.3577
# 6 -9.5369 -5.6915 -2.7053 10.0003 -13.3577 43.0570
#
#
#
# Elastic Compliance Matrix: (Units=1/GPa)
#
#
# Indices 1 2 3 4 5 6 
#
# 1 0.013397 -0.008790 -0.006416 -0.008816 0.005281 0.005088
# 2 -0.008790 0.024495 0.002410 0.012579 -0.010057 -0.004599
# 3 -0.006416 0.002410 0.014344 0.008989 -0.010677 -0.005601
# 4 -0.008816 0.012579 0.008989 0.046083 -0.007020 -0.012606
# 5 0.005281 -0.010057 -0.010677 -0.007020 0.031663 0.010623
# 6 0.005088 -0.004599 -0.005601 -0.012606 0.010623 0.029616
#
#
# Mechanical properties :
#
#
# Convention : Reuss Voigt Hill
#
# Bulk Modulus (GPa) = 37.53087 67.34131 52.43609
# Shear Modulus (GPa) = 25.76382 38.69246 32.22814
#
# Velocity S-wave (km/s) = 3.17172 3.88690 3.54738
# Velocity P-wave (km/s) = 5.29788 6.81456 6.10351
#
# Compressibility (1/GPa) = 0.02664474
#
# Stress axis : x y z
#
# Youngs Moduli (GPa) = 74.64390 40.82471 69.71540
#
# Poissons Ratio (x) = 0.35886 0.44727
# Poissons Ratio (y) = 0.65613 -0.16803
# Poissons Ratio (z) = 0.47889 -0.09840
#
# Static dielectric constant tensor:
#      x y z
#    x 2.338240 -0.110000 -0.224530 
#    y -0.110000 2.133400 0.090780 
#    z -0.224530 0.090780 2.291090 
# 
# From -- ./inp_files/461103.got.cif
#   From: 2010.05.17/outbox.cif.g08.bks.cpg/sg2_231_cif.got.tgz:461103.got - 2010.06.03 11:33:40.
