data_PCOD9029148
_publ_section_title
;
Structure prediction by ZEFSAII (Michael W. Deem and Ramdas Pophale) SiO2 
 PCOD9029148
Probable space group: P -1
;
_chemical_formula_sum "Si O2"
_cell_formula_units_Z 12
_cell_length_a 4.931373
_cell_length_b 6.150313
_cell_length_c 23.809536
_cell_angle_alpha 132.924070
_cell_angle_beta 98.524596
_cell_angle_gamma 83.266779
_cell_volume 522.811139
_symmetry_space_group_name_H-M "P -1"
_symmetry_group_IT_number 2
_symmetry_cell_setting 'triclinic'
loop_
_space_group_symop_operation_xyz
x,y,z
-x,-y,-z
loop_
_atom_site_type_symbol
_atom_site_label
_atom_site_fract_x
_atom_site_fract_y
_atom_site_fract_z
Si Si1 0.871615 0.674869 0.943968
Si Si2 0.308198 0.216614 0.452391
Si Si3 0.398151 0.564553 0.338458
Si Si4 0.726285 0.824024 0.086325
Si Si5 0.234718 0.230930 0.164484
Si Si6 0.926111 0.467201 0.396053
O O1 0.731392 0.626788 0.871236
O O2 0.107385 0.428177 0.918957
O O3 0.693498 0.704227 0.000475
O O4 0.000000 0.000000 0.000000
O O5 0.500000 0.500000 0.500000
O O6 0.165756 0.272137 0.517793
O O7 0.075246 0.229283 0.399576
O O8 0.473878 0.909817 0.398962
O O9 0.309575 0.445095 0.254794
O O10 0.651647 0.378820 0.339960
O O11 0.146044 0.552779 0.371626
O O12 0.441634 0.946707 0.122921
O O13 0.930312 0.104221 0.139315
#
# Coordination Sequence:
#
# PCOD9029148 Si02
#       6
#     2   2   2   2   2   2
#     4   9  21  41  69  95 125 170 218 262 310 377
#     4  11  25  44  71  97 122 172 229 271 318 387
#     4  12  26  41  66  95 137 172 211 271 335 384
#     4  10  22  42  66  94 128 169 218 263 309 376
#     4  11  24  41  61  96 133 171 209 260 327 381
#     4  11  25  44  66  95 126 169 221 271 324 384
#
# _framework density 22.952839000000001
#
# number of rings (size 3 to 8) (size 9 to 14) (size 15 to 20)
#    0.000    1.333    1.667    2.500    4.667   11.333 
#    0.000    0.000    0.000    0.000    0.000    0.000 
#    0.000    0.000    0.000    0.000    0.000    0.000 
#
# Total GULP energy -67169.376388 kJ/mol
# GULP energy per Si atom -5597.448032 kJ/mol
# Density = 2.290060 g / cm^3
# Si number density = 22.952839 Si / 1000 Ang^3
#
#
#
# Elastic Constant Matrix: (Units=GPa)
#
#
# Indices 1 2 3 4 5 6 
#
# 1 100.5548 11.0732 32.5628 -12.3597 2.4805 -2.4924
# 2 11.0732 87.8569 65.4091 -18.8133 3.6108 -13.7341
# 3 32.5628 65.4091 113.4458 -38.5895 9.8045 -1.4774
# 4 -12.3597 -18.8133 -38.5895 30.5347 -11.8786 7.9220
# 5 2.4805 3.6108 9.8045 -11.8786 21.9999 -9.5611
# 6 -2.4924 -13.7341 -1.4774 7.9220 -9.5611 29.6992
#
#
#
# Elastic Compliance Matrix: (Units=1/GPa)
#
#
# Indices 1 2 3 4 5 6 
#
# 1 0.011220 0.002346 -0.004627 0.000124 0.001448 0.002229
# 2 0.002346 0.024924 -0.018159 -0.008270 0.005735 0.014872
# 3 -0.004627 -0.018159 0.030293 0.028757 -0.001126 -0.015312
# 4 0.000124 -0.008270 0.028757 0.077190 0.023511 -0.015405
# 5 0.001448 0.005735 -0.001126 0.023511 0.065112 0.017408
# 6 0.002229 0.014872 -0.015312 -0.015405 0.017408 0.049687
#
#
# Mechanical properties :
#
#
# Convention : Reuss Voigt Hill
#
# Bulk Modulus (GPa) = 39.12868 57.77198 48.45033
# Shear Modulus (GPa) = 16.24309 29.30091 22.77200
#
# Velocity S-wave (km/s) = 2.66310 3.57679 3.15321
# Velocity P-wave (km/s) = 5.15175 6.50249 5.86613
#
# Compressibility (1/GPa) = 0.02555670
#
# Stress axis : x y z
#
# Youngs Moduli (GPa) = 89.12923 40.12221 33.01125
#
# Poissons Ratio (x) = -0.09414 0.15275
# Poissons Ratio (y) = -0.20913 0.59945
# Poissons Ratio (z) = 0.41241 0.72858
#
# Static dielectric constant tensor:
#      x y z
#    x 1.865100 0.026690 0.017860 
#    y 0.026690 1.875420 -0.013460 
#    z 0.017860 -0.013460 1.821190 
# 
# From -- ./inp_files/8170.got.cif
#   From: 2010.05.17/outbox.cif.g08.bks.cpg/sg2_5_cif.got.tgz:8170.got - 2010.06.03 11:33:40.
