data_PCOD9029895
_publ_section_title
;
Structure prediction by ZEFSAII (Michael W. Deem and Ramdas Pophale) SiO2 
 PCOD9029895
Probable space group: P -1
;
_chemical_formula_sum "Si O2"
_cell_formula_units_Z 16
_cell_length_a 11.786235
_cell_length_b 9.308100
_cell_length_c 8.134074
_cell_angle_alpha 134.144299
_cell_angle_beta 96.384399
_cell_angle_gamma 79.549172
_cell_volume 629.585284
_symmetry_space_group_name_H-M "P -1"
_symmetry_group_IT_number 2
_symmetry_cell_setting 'triclinic'
loop_
_space_group_symop_operation_xyz
x,y,z
-x,-y,-z
loop_
_atom_site_type_symbol
_atom_site_label
_atom_site_fract_x
_atom_site_fract_y
_atom_site_fract_z
Si Si1 0.892892 0.116244 0.279586
Si Si2 0.379138 0.130029 0.623978
Si Si3 0.291398 0.576053 0.309744
Si Si4 0.118315 0.599693 0.797728
Si Si5 0.547054 0.808126 0.968290
Si Si6 0.891189 0.705508 0.030667
Si Si7 0.137139 0.155679 0.489294
Si Si8 0.358502 0.614063 0.993249
O O1 0.783892 0.243813 0.458999
O O2 0.914021 0.254250 0.241136
O O3 0.021338 0.071662 0.347858
O O4 0.859472 0.898331 0.059868
O O5 0.373061 0.122684 0.816482
O O6 0.272397 0.061758 0.450599
O O7 0.500000 0.000000 0.500000
O O8 0.381021 0.368610 0.778318
O O9 0.357961 0.642990 0.213942
O O10 0.379876 0.394145 0.264147
O O11 0.191249 0.459962 0.130632
O O12 0.140240 0.366182 0.561306
O O13 0.229395 0.669698 0.952254
O O14 0.017440 0.610508 0.921359
O O15 0.443480 0.724710 0.984917
O O16 0.500000 0.000000 0.000000
O O17 0.884524 0.793331 0.281422
#
# Coordination Sequence:
#
# PCOD9029895 Si02
#       8
#     2   2   2   2   2   2   2   2
#     4  12  27  40  69 108 136 180 229 281 351 400
#     4  10  22  42  68  98 134 181 231 281 328 415
#     4  11  23  48  70  96 144 182 228 287 332 417
#     4  11  23  43  67 102 142 176 222 293 340 403
#     4  11  25  46  70 101 133 181 228 286 352 397
#     4  12  23  43  69  97 142 183 229 271 345 411
#     4  11  22  43  65  95 139 185 225 273 347 408
#     4  10  23  46  72  94 137 187 226 276 354 403
#
# _framework density 25.413554000000001
#
# number of rings (size 3 to 8) (size 9 to 14) (size 15 to 20)
#    0.000    1.000    5.000    3.750    1.750    5.000 
#    0.000    1.250    0.000    0.000    0.000    0.000 
#    0.000    0.000    0.000    0.000    0.000    0.000 
#
# Total GULP energy -89509.419599 kJ/mol
# GULP energy per Si atom -5594.338725 kJ/mol
# Density = 2.535571 g / cm^3
# Si number density = 25.413554 Si / 1000 Ang^3
#
#
#
# Elastic Constant Matrix: (Units=GPa)
#
#
# Indices 1 2 3 4 5 6 
#
# 1 183.7645 52.9300 29.4426 5.3005 -22.4461 -2.8466
# 2 52.9300 153.0847 16.4194 25.0089 5.1715 -1.9164
# 3 29.4426 16.4194 51.9085 15.5833 -17.2177 -5.6382
# 4 5.3005 25.0089 15.5833 24.4564 -3.9359 -5.5899
# 5 -22.4461 5.1715 -17.2177 -3.9359 43.7426 13.2323
# 6 -2.8466 -1.9164 -5.6382 -5.5899 13.2323 47.1849
#
#
#
# Elastic Compliance Matrix: (Units=1/GPa)
#
#
# Indices 1 2 3 4 5 6 
#
# 1 0.007046 -0.002826 -0.003258 0.003831 0.003167 -0.000513
# 2 -0.002826 0.009123 0.000534 -0.009564 -0.003186 0.000024
# 3 -0.003258 0.000534 0.028716 -0.017044 0.008370 -0.001110
# 4 0.003831 -0.009564 -0.017044 0.061917 0.000441 0.005017
# 5 0.003167 -0.003186 0.008370 0.000441 0.030443 -0.007423
# 6 -0.000513 0.000024 -0.001110 0.005017 -0.007423 0.023707
#
#
# Mechanical properties :
#
#
# Convention : Reuss Voigt Hill
#
# Bulk Modulus (GPa) = 29.59865 65.14910 47.37387
# Shear Modulus (GPa) = 27.27578 42.40784 34.84181
#
# Velocity S-wave (km/s) = 3.27964 4.08942 3.70671
# Velocity P-wave (km/s) = 5.10034 6.92741 6.08287
#
# Compressibility (1/GPa) = 0.03378532
#
# Stress axis : x y z
#
# Youngs Moduli (GPa) = 141.92068 109.61871 34.82347
#
# Poissons Ratio (x) = 0.30980 0.11345
# Poissons Ratio (y) = 0.40109 -0.01860
# Poissons Ratio (z) = 0.46237 -0.05857
#
# Static dielectric constant tensor:
#      x y z
#    x 2.037410 -0.040320 -0.023500 
#    y -0.040320 2.033330 0.038400 
#    z -0.023500 0.038400 2.091770 
# 
# From -- ./inp_files/245953.got.cif
#   From: 2010.05.17/outbox.cif.g08.bks.cpg/sg2_123_cif.got.tgz:245953.got - 2010.06.03 11:33:40.
