data_PCOD9029333
_publ_section_title
;
Structure prediction by ZEFSAII (Michael W. Deem and Ramdas Pophale) SiO2 
 PCOD9029333
Probable space group: P -1
;
_chemical_formula_sum "Si O2"
_cell_formula_units_Z 14
_cell_length_a 16.374123
_cell_length_b 5.913585
_cell_length_c 12.243522
_cell_angle_alpha 66.128803
_cell_angle_beta 37.302808
_cell_angle_gamma 62.547546
_cell_volume 635.972773
_symmetry_space_group_name_H-M "P -1"
_symmetry_group_IT_number 2
_symmetry_cell_setting 'triclinic'
loop_
_space_group_symop_operation_xyz
x,y,z
-x,-y,-z
loop_
_atom_site_type_symbol
_atom_site_label
_atom_site_fract_x
_atom_site_fract_y
_atom_site_fract_z
Si Si1 0.681671 0.867794 0.438836
Si Si2 0.544304 0.366878 0.364274
Si Si3 0.602079 0.899851 0.758176
Si Si4 0.990920 0.696355 0.076378
Si Si5 0.229313 0.465567 0.038738
Si Si6 0.678178 0.095066 0.853133
Si Si7 0.149167 0.564313 0.335478
O O1 0.589095 0.675025 0.546532
O O2 0.631609 0.977440 0.589915
O O3 0.842180 0.728905 0.285554
O O4 0.644079 0.090195 0.344347
O O5 0.500000 0.500000 0.500000
O O6 0.629333 0.511199 0.170778
O O7 0.734929 0.676638 0.695518
O O8 0.606398 0.102247 0.809314
O O9 0.458561 0.810064 0.941730
O O10 0.112500 0.550715 0.055400
O O11 0.000000 0.500000 0.000000
O O12 0.000000 0.000000 0.000000
O O13 0.186339 0.635046 0.159253
O O14 0.254056 0.183323 0.115249
O O15 0.809254 0.217552 0.680612
O O16 0.000000 0.500000 0.500000
#
# Coordination Sequence:
#
# PCOD9029333 Si02
#       7
#     2   2   2   2   2   2   2
#     4  11  24  42  68  99 141 182 238 297 351 435
#     4  11  23  41  67 101 136 181 236 291 363 424
#     4  10  22  42  67 103 133 184 236 287 362 415
#     4  12  27  48  70 103 146 193 242 293 360 433
#     4  11  24  43  68  99 138 184 232 295 359 424
#     4  10  23  43  70  98 141 182 234 300 356 432
#     4  11  24  43  66  99 137 183 235 290 363 425
#
# _framework density 22.013521999999998
#
# number of rings (size 3 to 8) (size 9 to 14) (size 15 to 20)
#    0.000    1.143    1.429    3.857    2.000    8.000 
#    2.571    0.000    0.000    0.000    0.000    0.000 
#    0.000    0.000    0.000    0.000    0.000    0.000 
#
# Total GULP energy -78112.704081 kJ/mol
# GULP energy per Si atom -5579.478863 kJ/mol
# Density = 2.196342 g / cm^3
# Si number density = 22.013522 Si / 1000 Ang^3
#
#
#
# Elastic Constant Matrix: (Units=GPa)
#
#
# Indices 1 2 3 4 5 6 
#
# 1 121.1697 27.6523 47.0645 -9.8717 -16.0681 0.8755
# 2 27.6523 57.5677 30.0472 -5.5043 -14.4489 -2.8597
# 3 47.0645 30.0472 124.5802 -0.6171 -14.8265 16.8815
# 4 -9.8717 -5.5043 -0.6171 25.8486 1.1350 0.7821
# 5 -16.0681 -14.4489 -14.8265 1.1350 50.7606 4.7807
# 6 0.8755 -2.8597 16.8815 0.7821 4.7807 33.9331
#
#
#
# Elastic Compliance Matrix: (Units=1/GPa)
#
#
# Indices 1 2 3 4 5 6 
#
# 1 0.010593 -0.002640 -0.003288 0.003314 0.001487 0.000854
# 2 -0.002640 0.022405 -0.004410 0.003382 0.003845 0.003531
# 3 -0.003288 -0.004410 0.011348 -0.001810 0.001635 -0.006121
# 4 0.003314 0.003382 -0.001810 0.040602 0.000567 0.000085
# 5 0.001487 0.003845 0.001635 0.000567 0.022074 -0.003651
# 6 0.000854 0.003531 -0.006121 0.000085 -0.003651 0.033303
#
#
# Mechanical properties :
#
#
# Convention : Reuss Voigt Hill
#
# Bulk Modulus (GPa) = 42.24774 56.98285 49.61529
# Shear Modulus (GPa) = 29.60487 35.34538 32.47512
#
# Velocity S-wave (km/s) = 3.67120 4.01137 3.84505
# Velocity P-wave (km/s) = 6.09948 6.88450 6.50384
#
# Compressibility (1/GPa) = 0.02366991
#
# Stress axis : x y z
#
# Youngs Moduli (GPa) = 94.39913 44.63318 88.12280
#
# Poissons Ratio (x) = 0.11783 0.28971
# Poissons Ratio (y) = 0.24921 0.38866
# Poissons Ratio (z) = 0.31034 0.19685
#
# Static dielectric constant tensor:
#      x y z
#    x 1.818680 0.060500 -0.012550 
#    y 0.060500 1.910580 -0.008260 
#    z -0.012550 -0.008260 1.697710 
# 
# From -- ./inp_files/40431.got.cif
#   From: 2010.05.17/outbox.cif.g08.bks.cpg/sg2_21_cif.got.tgz:40431.got - 2010.06.03 11:33:40.
