data_PCOD9029760
_publ_section_title
;
Structure prediction by ZEFSAII (Michael W. Deem and Ramdas Pophale) SiO2 
 PCOD9029760
Probable space group: P -1
;
_chemical_formula_sum "Si O2"
_cell_formula_units_Z 14
_cell_length_a 14.121757
_cell_length_b 9.538052
_cell_length_c 15.445489
_cell_angle_alpha 147.560396
_cell_angle_beta 146.729818
_cell_angle_gamma 35.902329
_cell_volume 572.383700
_symmetry_space_group_name_H-M "P -1"
_symmetry_group_IT_number 2
_symmetry_cell_setting 'triclinic'
loop_
_space_group_symop_operation_xyz
x,y,z
-x,-y,-z
loop_
_atom_site_type_symbol
_atom_site_label
_atom_site_fract_x
_atom_site_fract_y
_atom_site_fract_z
Si Si1 0.076967 0.257868 0.100539
Si Si2 0.682193 0.567704 0.930871
Si Si3 0.056699 0.487184 0.399444
Si Si4 0.717949 0.349525 0.592969
Si Si5 0.289069 0.837625 0.697606
Si Si6 0.603164 0.284126 0.893214
Si Si7 0.742437 0.864238 0.474911
O O1 0.043296 0.386113 0.239296
O O2 0.187890 0.420144 0.218038
O O3 0.880653 0.333260 0.944905
O O4 0.796662 0.063684 0.958971
O O5 0.723193 0.854883 0.123947
O O6 0.505039 0.643391 0.772733
O O7 0.619257 0.464537 0.917817
O O8 0.164765 0.706629 0.590070
O O9 0.180843 0.235247 0.423442
O O10 0.865542 0.628392 0.378163
O O11 0.500000 0.500000 0.500000
O O12 0.771010 0.168850 0.450811
O O13 0.763189 0.141688 0.598896
O O14 0.470013 0.111569 0.678767
O O15 0.500000 0.500000 0.000000
#
# Coordination Sequence:
#
# PCOD9029760 Si02
#       7
#     2   2   2   2   2   2   2
#     4  11  24  42  69  94 126 174 221 260 324 379
#     4  11  23  41  66  95 129 174 211 256 322 397
#     4  10  22  42  69  97 125 168 217 272 311 382
#     4  11  22  40  65  95 126 166 213 269 311 375
#     4  10  22  42  68  93 132 172 212 257 323 381
#     4  12  24  40  64  93 133 169 212 270 325 382
#     4  11  22  40  66  99 130 163 215 268 322 368
#
# _framework density 24.459116999999999
#
# number of rings (size 3 to 8) (size 9 to 14) (size 15 to 20)
#    0.000    1.143    2.857    3.857    0.000    4.000 
#    0.000    2.143    0.000    0.000    0.000    0.000 
#    0.000    0.000    0.000    0.000    0.000    0.000 
#
# Total GULP energy -78502.431598 kJ/mol
# GULP energy per Si atom -5607.316543 kJ/mol
# Density = 2.440345 g / cm^3
# Si number density = 24.459117 Si / 1000 Ang^3
#
#
#
# Elastic Constant Matrix: (Units=GPa)
#
#
# Indices 1 2 3 4 5 6 
#
# 1 70.0814 45.1640 53.1318 1.4714 19.3696 19.5593
# 2 45.1640 162.7227 53.4770 -14.6318 0.5215 23.1505
# 3 53.1318 53.4770 97.5776 2.9344 15.8951 15.3302
# 4 1.4714 -14.6318 2.9344 42.8994 0.2585 15.2372
# 5 19.3696 0.5215 15.8951 0.2585 35.7795 5.5330
# 6 19.5593 23.1505 15.3302 15.2372 5.5330 56.8484
#
#
#
# Elastic Compliance Matrix: (Units=1/GPa)
#
#
# Indices 1 2 3 4 5 6 
#
# 1 0.029586 -0.003632 -0.011768 0.000252 -0.010023 -0.004619
# 2 -0.003632 0.009060 -0.003237 0.004530 0.003726 -0.003144
# 3 -0.011768 -0.003237 0.018648 -0.002381 -0.002031 0.001174
# 4 0.000252 0.004530 -0.002381 0.028212 0.002051 -0.009051
# 5 -0.010023 0.003726 -0.002031 0.002051 0.034428 -0.001422
# 6 -0.004619 -0.003144 0.001174 -0.009051 -0.001422 0.022708
#
#
# Mechanical properties :
#
#
# Convention : Reuss Voigt Hill
#
# Bulk Modulus (GPa) = 49.95158 70.43635 60.19397
# Shear Modulus (GPa) = 26.79676 39.01273 32.90474
#
# Velocity S-wave (km/s) = 3.31354 3.99810 3.67181
# Velocity P-wave (km/s) = 5.92505 7.08330 6.52991
#
# Compressibility (1/GPa) = 0.02001939
#
# Stress axis : x y z
#
# Youngs Moduli (GPa) = 33.79966 110.37605 53.62491
#
# Poissons Ratio (x) = 0.40091 0.63108
# Poissons Ratio (y) = 0.12277 0.17357
# Poissons Ratio (z) = 0.39777 0.35726
#
# Static dielectric constant tensor:
#      x y z
#    x 1.928500 -0.050670 -0.017810 
#    y -0.050670 2.098740 0.114750 
#    z -0.017810 0.114750 1.987910 
# 
# From -- ./inp_files/572942.got.cif
#   From: 2010.05.17/outbox.cif.g08.bks.cpg/sg2_287_cif.got.tgz:572942.got - 2010.06.03 11:33:40.
