data_PCOD9029181
_publ_section_title
;
Structure prediction by ZEFSAII (Michael W. Deem and Ramdas Pophale) SiO2 
 PCOD9029181
Probable space group: P -1
;
_chemical_formula_sum "Si O2"
_cell_formula_units_Z 12
_cell_length_a 11.121904
_cell_length_b 12.370281
_cell_length_c 10.356105
_cell_angle_alpha 143.106206
_cell_angle_beta 59.915917
_cell_angle_gamma 137.080021
_cell_volume 569.932720
_symmetry_space_group_name_H-M "P -1"
_symmetry_group_IT_number 2
_symmetry_cell_setting 'triclinic'
loop_
_space_group_symop_operation_xyz
x,y,z
-x,-y,-z
loop_
_atom_site_type_symbol
_atom_site_label
_atom_site_fract_x
_atom_site_fract_y
_atom_site_fract_z
Si Si1 0.806758 0.299732 0.853593
Si Si2 0.628639 0.279032 0.696238
Si Si3 0.155308 0.093858 0.162022
Si Si4 0.090864 0.380135 0.314678
Si Si5 0.466708 0.628535 0.916155
Si Si6 0.201774 0.110000 0.456599
O O1 0.801337 0.354907 0.759822
O O2 0.763269 0.057468 0.665836
O O3 0.647875 0.290699 0.990382
O O4 0.000000 0.500000 0.000000
O O5 0.706648 0.413771 0.649410
O O6 0.500000 0.000000 0.500000
O O7 0.537098 0.350062 0.906479
O O8 0.091520 0.245064 0.307511
O O9 0.334501 0.210223 0.092359
O O10 0.202568 0.111233 0.302458
O O11 0.010334 0.827029 0.936267
O O12 0.000000 0.500000 0.500000
O O13 0.348107 0.365125 0.680188
O O14 0.000000 0.000000 0.500000
#
# Coordination Sequence:
#
# PCOD9029181 Si02
#       6
#     2   2   2   2   2   2
#     4  10  22  42  66  95 131 172 223 268 335 388
#     4  10  23  45  69  98 130 179 226 272 343 393
#     4  11  26  42  64 103 130 176 227 273 341 393
#     4  11  25  44  67  93 140 175 219 279 335 407
#     4  10  24  42  64  99 130 170 227 276 334 393
#     4  12  23  41  68  94 133 176 223 278 329 400
#
# _framework density 21.055116999999999
#
# number of rings (size 3 to 8) (size 9 to 14) (size 15 to 20)
#    1.000    0.333    1.667    3.500    4.667    2.667 
#    0.000    0.000    0.000    0.000    0.000    0.000 
#    0.000    0.000    0.000    0.000    0.000    0.000 
#
# Total GULP energy -67009.037256 kJ/mol
# GULP energy per Si atom -5584.086438 kJ/mol
# Density = 2.100719 g / cm^3
# Si number density = 21.055117 Si / 1000 Ang^3
#
#
#
# Elastic Constant Matrix: (Units=GPa)
#
#
# Indices 1 2 3 4 5 6 
#
# 1 61.4307 1.8862 12.8634 7.3376 -29.4822 0.2113
# 2 1.8862 90.9395 22.5269 5.1259 -14.3449 4.2313
# 3 12.8634 22.5269 93.6273 19.0778 -22.1417 -2.3244
# 4 7.3376 5.1259 19.0778 38.6423 0.4313 2.1494
# 5 -29.4822 -14.3449 -22.1417 0.4313 47.4995 5.3798
# 6 0.2113 4.2313 -2.3244 2.1494 5.3798 40.4594
#
#
#
# Elastic Compliance Matrix: (Units=1/GPa)
#
#
# Indices 1 2 3 4 5 6 
#
# 1 0.024759 0.002293 0.001133 -0.005628 0.016894 -0.002251
# 2 0.002293 0.012305 -0.002085 -0.000979 0.004397 -0.001951
# 3 0.001133 -0.002085 0.014023 -0.006964 0.006616 0.000508
# 4 -0.005628 -0.000979 -0.006964 0.030648 -0.007207 -0.000938
# 5 0.016894 0.004397 0.006616 -0.007207 0.036542 -0.004644
# 6 -0.002251 -0.001951 0.000508 -0.000938 -0.004644 0.025628
#
#
# Mechanical properties :
#
#
# Convention : Reuss Voigt Hill
#
# Bulk Modulus (GPa) = 18.59841 35.61674 27.10757
# Shear Modulus (GPa) = 31.41790 39.23499 35.32644
#
# Velocity S-wave (km/s) = 3.86706 4.32144 4.10055
# Velocity P-wave (km/s) = 5.36575 6.46935 5.94322
#
# Compressibility (1/GPa) = 0.05376804
#
# Stress axis : x y z
#
# Youngs Moduli (GPa) = 40.38985 81.26944 71.31296
#
# Poissons Ratio (x) = -0.18633 -0.08079
# Poissons Ratio (y) = -0.09260 0.14866
# Poissons Ratio (z) = -0.04576 0.16942
#
# Static dielectric constant tensor:
#      x y z
#    x 1.785970 -0.005970 -0.000350 
#    y -0.005970 1.796980 -0.040910 
#    z -0.000350 -0.040910 1.754970 
# 
# From -- ./inp_files/426863.got.cif
#   From: 2010.05.17/outbox.cif.g08.bks.cpg/sg2_214_cif.got.tgz:426863.got - 2010.06.03 11:33:40.
