data_PCOD9029983
_publ_section_title
;
Structure prediction by ZEFSAII (Michael W. Deem and Ramdas Pophale) SiO2 
 PCOD9029983
Probable space group: P -1
;
_chemical_formula_sum "Si O2"
_cell_formula_units_Z 12
_cell_length_a 16.729942
_cell_length_b 4.967755
_cell_length_c 8.029461
_cell_angle_alpha 95.748456
_cell_angle_beta 59.885577
_cell_angle_gamma 122.252291
_cell_volume 475.208390
_symmetry_space_group_name_H-M "P -1"
_symmetry_group_IT_number 2
_symmetry_cell_setting 'triclinic'
loop_
_space_group_symop_operation_xyz
x,y,z
-x,-y,-z
loop_
_atom_site_type_symbol
_atom_site_label
_atom_site_fract_x
_atom_site_fract_y
_atom_site_fract_z
Si Si1 0.321067 0.425932 0.557438
Si Si2 0.929503 0.364065 0.814728
Si Si3 0.512124 0.791878 0.111057
Si Si4 0.820269 0.337519 0.388501
Si Si5 0.842997 0.714926 0.724731
Si Si6 0.302262 0.189075 0.906571
O O1 0.418655 0.659846 0.343138
O O2 0.238590 0.545816 0.665526
O O3 0.361513 0.406882 0.697384
O O4 0.253756 0.052909 0.538088
O O5 0.902684 0.614616 0.787552
O O6 0.051546 0.529216 0.769793
O O7 0.914423 0.111393 0.667251
O O8 0.824850 0.107543 0.024323
O O9 0.629274 0.940314 0.092868
O O10 0.500000 0.500000 0.000000
O O11 0.500000 0.000000 0.000000
O O12 0.823669 0.516553 0.567073
O O13 0.726026 0.634000 0.913632
#
# Coordination Sequence:
#
# PCOD9029983 Si02
#       6
#     2   2   2   2   2   2
#     4  12  28  44  73 108 148 184 232 300 357 424
#     4  10  23  41  75 100 149 188 239 283 348 418
#     4  12  28  50  77 102 134 188 245 299 350 426
#     4  12  24  44  70 111 146 189 241 282 351 424
#     4  10  22  42  69 103 138 197 234 285 341 415
#     4  10  28  46  74 104 148 185 236 291 368 411
#
# _framework density 25.252079999999999
#
# number of rings (size 3 to 8) (size 9 to 14) (size 15 to 20)
#    1.000    0.000    0.000    5.500    9.333    1.333 
#    0.000    3.333    0.000    0.000    0.000    0.000 
#    0.000    0.000    0.000    0.000    0.000    0.000 
#
# Total GULP energy -67224.311585 kJ/mol
# GULP energy per Si atom -5602.025965 kJ/mol
# Density = 2.519460 g / cm^3
# Si number density = 25.252080 Si / 1000 Ang^3
#
#
#
# Elastic Constant Matrix: (Units=GPa)
#
#
# Indices 1 2 3 4 5 6 
#
# 1 180.7065 44.4813 65.0923 -18.1158 -15.0809 -37.7827
# 2 44.4813 113.1771 24.3925 -0.7853 -16.3269 -25.4725
# 3 65.0923 24.3925 146.9455 -9.9426 0.5215 -8.8762
# 4 -18.1158 -0.7853 -9.9426 35.2073 -3.3907 4.4647
# 5 -15.0809 -16.3269 0.5215 -3.3907 33.9990 -3.7047
# 6 -37.7827 -25.4725 -8.8762 4.4647 -3.7047 48.8335
#
#
#
# Elastic Compliance Matrix: (Units=1/GPa)
#
#
# Indices 1 2 3 4 5 6 
#
# 1 0.008826 -0.000768 -0.003219 0.003309 0.004567 0.005887
# 2 -0.000768 0.011522 -0.001295 -0.000669 0.005764 0.005679
# 3 -0.003219 -0.001295 0.008388 0.000699 -0.002313 -0.001881
# 4 0.003309 -0.000669 0.000699 0.030710 0.004182 -0.000153
# 5 0.004567 0.005764 -0.002313 0.004182 0.035578 0.008436
# 6 0.005887 0.005679 -0.001881 -0.000153 0.008436 0.028307
#
#
# Mechanical properties :
#
#
# Convention : Reuss Voigt Hill
#
# Bulk Modulus (GPa) = 55.03156 78.75125 66.89140
# Shear Modulus (GPa) = 35.72650 44.06550 39.89600
#
# Velocity S-wave (km/s) = 3.76546 4.18188 3.97912
# Velocity P-wave (km/s) = 6.38319 7.38724 6.90349
#
# Compressibility (1/GPa) = 0.01817139
#
# Stress axis : x y z
#
# Youngs Moduli (GPa) = 113.30023 86.79268 119.21814
#
# Poissons Ratio (x) = 0.06669 0.38375
# Poissons Ratio (y) = 0.08706 0.15438
# Poissons Ratio (z) = 0.36470 0.11239
#
# Static dielectric constant tensor:
#      x y z
#    x 1.973370 0.062330 -0.000230 
#    y 0.062330 2.016240 0.019740 
#    z -0.000230 0.019740 2.006470 
# 
# From -- ./inp_files/286289.got.cif
#   From: 2010.05.17/outbox.cif.g08.bks.cpg/sg2_144_cif.got.tgz:286289.got - 2010.06.03 11:33:40.
