data_PCOD9029426
_publ_section_title
;
Structure prediction by ZEFSAII (Michael W. Deem and Ramdas Pophale) SiO2 
 PCOD9029426
Probable space group: P -1
;
_chemical_formula_sum "Si O2"
_cell_formula_units_Z 16
_cell_length_a 21.674460
_cell_length_b 18.034529
_cell_length_c 9.302656
_cell_angle_alpha 28.811409
_cell_angle_beta 39.268981
_cell_angle_gamma 27.036851
_cell_volume 796.267351
_symmetry_space_group_name_H-M "P -1"
_symmetry_group_IT_number 2
_symmetry_cell_setting 'triclinic'
loop_
_space_group_symop_operation_xyz
x,y,z
-x,-y,-z
loop_
_atom_site_type_symbol
_atom_site_label
_atom_site_fract_x
_atom_site_fract_y
_atom_site_fract_z
Si Si1 0.146090 0.409703 0.732261
Si Si2 0.172074 0.232913 0.274571
Si Si3 0.621355 0.265318 0.615077
Si Si4 0.481510 0.460783 0.259091
Si Si5 0.138878 0.874176 0.387356
Si Si6 0.258591 0.960626 0.834513
Si Si7 0.259950 0.462877 0.689665
Si Si8 0.363913 0.069749 0.689541
O O1 0.183008 0.514941 0.588892
O O2 0.984647 0.585197 0.697196
O O3 0.251853 0.284420 0.622882
O O4 0.167847 0.243391 0.090099
O O5 0.241735 0.020690 0.597121
O O6 0.254091 0.300363 0.045615
O O7 0.500000 0.500000 0.500000
O O8 0.607777 0.306838 0.398952
O O9 0.757798 0.175580 0.594327
O O10 0.597240 0.116354 0.960699
O O11 0.404440 0.381669 0.535855
O O12 0.500000 0.500000 0.000000
O O13 0.377805 0.707365 0.082503
O O14 0.187512 0.664008 0.581553
O O15 0.000000 0.000000 0.500000
O O16 0.130465 0.013225 0.042586
O O17 0.288687 0.077680 0.674743
O O18 0.500000 0.000000 0.500000
#
# Coordination Sequence:
#
# PCOD9029426 Si02
#       8
#     2   2   2   2   2   2   2   2
#     4   9  22  41  64  91 130 170 211 267 339 374
#     4   9  21  42  64  90 129 163 219 270 327 384
#     4  11  22  45  64  88 130 172 205 270 326 370
#     4  11  24  42  63  91 131 168 216 262 320 390
#     4  10  22  42  67  94 129 167 218 265 326 390
#     4  10  23  41  59  98 124 161 223 272 314 382
#     4   9  20  40  66  88 125 166 215 257 325 381
#     4  11  25  39  64  95 127 163 221 264 326 399
#
# _framework density 20.093753
#
# number of rings (size 3 to 8) (size 9 to 14) (size 15 to 20)
#    0.750    1.250    3.750    0.000    8.750    0.500 
#    4.500    3.125    0.000    0.000    0.000    0.000 
#    0.000    0.000    0.000    0.000    0.000    0.000 
#
# Total GULP energy -89079.716142 kJ/mol
# GULP energy per Si atom -5567.482259 kJ/mol
# Density = 2.004802 g / cm^3
# Si number density = 20.093753 Si / 1000 Ang^3
#
#
#
# Elastic Constant Matrix: (Units=GPa)
#
#
# Indices 1 2 3 4 5 6 
#
# 1 72.9200 23.0229 43.1621 11.6417 5.6894 -0.2292
# 2 23.0229 78.7366 32.2546 31.3608 -3.2781 0.6098
# 3 43.1621 32.2546 86.3460 7.3311 8.3104 -9.8972
# 4 11.6417 31.3608 7.3311 29.0162 -3.6783 4.6631
# 5 5.6894 -3.2781 8.3104 -3.6783 35.3633 3.2524
# 6 -0.2292 0.6098 -9.8972 4.6631 3.2524 22.6261
#
#
#
# Elastic Compliance Matrix: (Units=1/GPa)
#
#
# Indices 1 2 3 4 5 6 
#
# 1 0.020631 0.000465 -0.010196 -0.005898 -0.001229 -0.002871
# 2 0.000465 0.026553 -0.007852 -0.026929 0.001319 0.001214
# 3 -0.010196 -0.007852 0.020521 0.005497 -0.004124 0.008545
# 4 -0.005898 -0.026929 0.005497 0.067051 0.005192 -0.011494
# 5 -0.001229 0.001319 -0.004124 0.005192 0.030783 -0.007347
# 6 -0.002871 0.001214 0.008545 -0.011494 -0.007347 0.051298
#
#
# Mechanical properties :
#
#
# Convention : Reuss Voigt Hill
#
# Bulk Modulus (GPa) = 30.73522 48.32021 39.52772
# Shear Modulus (GPa) = 19.02228 26.70532 22.86380
#
# Velocity S-wave (km/s) = 3.08015 3.64955 3.37687
# Velocity P-wave (km/s) = 5.28951 6.46982 5.90920
#
# Compressibility (1/GPa) = 0.03253596
#
# Stress axis : x y z
#
# Youngs Moduli (GPa) = 48.47127 37.66096 48.73032
#
# Poissons Ratio (x) = -0.01749 0.49687
# Poissons Ratio (y) = -0.02252 0.38265
# Poissons Ratio (z) = 0.49423 0.29573
#
# Static dielectric constant tensor:
#      x y z
#    x 1.744490 0.037850 0.009090 
#    y 0.037850 1.734990 -0.001980 
#    z 0.009090 -0.001980 1.718010 
# 
# From -- ./inp_files/348777.got.cif
#   From: 2010.05.17/outbox.cif.g08.bks.cpg/sg2_175_cif.got.tgz:348777.got - 2010.06.03 11:33:40.
