data_PCOD9029929
_publ_section_title
;
Structure prediction by ZEFSAII (Michael W. Deem and Ramdas Pophale) SiO2 
 PCOD9029929
Probable space group: P -1
;
_chemical_formula_sum "Si O2"
_cell_formula_units_Z 14
_cell_length_a 16.814752
_cell_length_b 22.727969
_cell_length_c 13.467748
_cell_angle_alpha 162.508779
_cell_angle_beta 154.060299
_cell_angle_gamma 22.771491
_cell_volume 589.993519
_symmetry_space_group_name_H-M "P -1"
_symmetry_group_IT_number 2
_symmetry_cell_setting 'triclinic'
loop_
_space_group_symop_operation_xyz
x,y,z
-x,-y,-z
loop_
_atom_site_type_symbol
_atom_site_label
_atom_site_fract_x
_atom_site_fract_y
_atom_site_fract_z
Si Si1 0.552568 0.523169 0.355941
Si Si2 0.324717 0.175474 0.234187
Si Si3 0.922031 0.338351 0.323752
Si Si4 0.658722 0.751871 0.242906
Si Si5 0.273545 0.971030 0.649595
Si Si6 0.132476 0.935360 0.762741
Si Si7 0.235478 0.453870 0.175995
O O1 0.742725 0.370969 0.251820
O O2 0.379204 0.732947 0.439393
O O3 0.646379 0.603912 0.680013
O O4 0.439210 0.396568 0.067916
O O5 0.189569 0.445136 0.526916
O O6 0.573171 0.077431 0.350210
O O7 0.258707 0.039194 0.014937
O O8 0.277884 0.137249 0.005276
O O9 0.114381 0.332223 0.589846
O O10 0.016092 0.106047 0.996569
O O11 0.500000 0.000000 0.500000
O O12 0.673335 0.725073 0.097806
O O13 0.041956 0.049760 0.484587
O O14 0.240331 0.679932 0.510215
O O15 0.000000 0.500000 0.000000
#
# Coordination Sequence:
#
# PCOD9029929 Si02
#       7
#     2   2   2   2   2   2   2
#     4  11  25  47  71 102 143 181 238 283 356 408
#     4  10  22  42  68  99 137 177 236 282 351 407
#     4  11  25  44  69 106 143 181 225 302 343 414
#     4  12  26  44  72 103 140 186 234 288 348 419
#     4  10  23  42  73  99 134 184 234 287 339 422
#     4  12  25  43  71 100 143 185 230 283 354 409
#     4  12  27  48  73 100 144 186 234 289 350 412
#
# _framework density 23.729075999999999
#
# number of rings (size 3 to 8) (size 9 to 14) (size 15 to 20)
#    0.000    0.857    1.429    4.714    6.000    5.714 
#    0.000    0.000    0.000    0.000    0.000    0.000 
#    0.000    0.000    0.000    0.000    0.000    0.000 
#
# Total GULP energy -78498.009901 kJ/mol
# GULP energy per Si atom -5607.000707 kJ/mol
# Density = 2.367507 g / cm^3
# Si number density = 23.729076 Si / 1000 Ang^3
#
#
#
# Elastic Constant Matrix: (Units=GPa)
#
#
# Indices 1 2 3 4 5 6 
#
# 1 109.1894 14.0054 5.7509 16.9532 -7.3551 -5.1769
# 2 14.0054 71.2942 -7.9296 13.0295 0.6834 0.3327
# 3 5.7509 -7.9296 47.5974 14.5442 -15.5650 -1.4890
# 4 16.9532 13.0295 14.5442 31.5019 -18.5737 -5.5130
# 5 -7.3551 0.6834 -15.5650 -18.5737 40.8495 7.8130
# 6 -5.1769 0.3327 -1.4890 -5.5130 7.8130 30.9668
#
#
#
# Elastic Compliance Matrix: (Units=1/GPa)
#
#
# Indices 1 2 3 4 5 6 
#
# 1 0.010105 -0.001011 0.000016 -0.005304 -0.000750 0.000946
# 2 -0.001011 0.016833 0.005171 -0.010922 -0.003224 -0.001232
# 3 0.000016 0.005171 0.027178 -0.011990 0.005242 -0.002203
# 4 -0.005304 -0.010922 -0.011990 0.057027 0.019862 0.003795
# 5 -0.000750 -0.003224 0.005242 0.019862 0.036481 -0.005507
# 6 0.000946 -0.001232 -0.002203 0.003795 -0.005507 0.034423
#
#
# Mechanical properties :
#
#
# Convention : Reuss Voigt Hill
#
# Bulk Modulus (GPa) = 16.00847 27.97047 21.98947
# Shear Modulus (GPa) = 25.70454 35.08061 30.39257
#
# Velocity S-wave (km/s) = 3.29485 3.84914 3.58273
# Velocity P-wave (km/s) = 4.60822 5.61850 5.13825
#
# Compressibility (1/GPa) = 0.06246694
#
# Stress axis : x y z
#
# Youngs Moduli (GPa) = 98.95976 59.40748 36.79429
#
# Poissons Ratio (x) = 0.06008 -0.00057
# Poissons Ratio (y) = 0.10007 -0.19027
# Poissons Ratio (z) = -0.00154 -0.30720
#
# Static dielectric constant tensor:
#      x y z
#    x 1.898910 -0.005390 0.008340 
#    y -0.005390 1.930010 0.018750 
#    z 0.008340 0.018750 1.958030 
# 
# From -- ./inp_files/242294.got.cif
#   From: 2010.05.17/outbox.cif.g08.bks.cpg/sg2_122_cif.got.tgz:242294.got - 2010.06.03 11:33:40.
