data_PCOD9029609
_publ_section_title
;
Structure prediction by ZEFSAII (Michael W. Deem and Ramdas Pophale) SiO2 
 PCOD9029609
Probable space group: P -1
;
_chemical_formula_sum "Si O2"
_cell_formula_units_Z 16
_cell_length_a 19.014640
_cell_length_b 10.931244
_cell_length_c 14.755697
_cell_angle_alpha 30.253365
_cell_angle_beta 28.540313
_cell_angle_gamma 46.119754
_cell_volume 710.264811
_symmetry_space_group_name_H-M "P -1"
_symmetry_group_IT_number 2
_symmetry_cell_setting 'triclinic'
loop_
_space_group_symop_operation_xyz
x,y,z
-x,-y,-z
loop_
_atom_site_type_symbol
_atom_site_label
_atom_site_fract_x
_atom_site_fract_y
_atom_site_fract_z
Si Si1 0.294760 0.093726 0.334604
Si Si2 0.406287 0.790496 0.171958
Si Si3 0.661919 0.286994 0.331693
Si Si4 0.188596 0.826816 0.239801
Si Si5 0.892181 0.801456 0.682229
Si Si6 0.680031 0.070422 0.266116
Si Si7 0.174668 0.490193 0.310349
Si Si8 0.689037 0.735447 0.309726
O O1 0.194288 0.063496 0.377018
O O2 0.211127 0.228935 0.415768
O O3 0.321052 0.842562 0.509578
O O4 0.461643 0.269347 0.002940
O O5 0.296334 0.882260 0.169581
O O6 0.312890 0.550336 0.488127
O O7 0.500000 0.000000 0.000000
O O8 0.485154 0.275993 0.517303
O O9 0.709644 0.114988 0.309674
O O10 0.770175 0.569655 0.016378
O O11 0.239558 0.633452 0.238271
O O12 0.015933 0.706495 0.544208
O O13 0.204916 0.082642 0.000105
O O14 0.000000 0.000000 0.500000
O O15 0.731874 0.870584 0.272794
O O16 0.500000 0.000000 0.500000
O O17 0.746131 0.336621 0.972886
O O18 0.000000 0.500000 0.500000
#
# Coordination Sequence:
#
# PCOD9029609 Si02
#       8
#     2   2   2   2   2   2   2   2
#     4  12  24  43  73 100 132 185 223 276 350 399
#     4  12  26  44  69 101 136 182 234 274 336 409
#     4  11  22  42  69  99 133 181 222 274 343 402
#     4  11  25  43  68 106 130 177 232 280 340 398
#     4  12  26  47  68  94 143 182 223 280 334 408
#     4   9  18  37  63  96 131 169 214 271 338 392
#     4  11  21  43  69  96 143 171 219 285 345 402
#     4  10  22  42  67  99 138 171 221 287 333 398
#
# _framework density 22.526807999999999
#
# number of rings (size 3 to 8) (size 9 to 14) (size 15 to 20)
#    0.000    1.000    5.000    1.500    1.750    3.500 
#    0.000    1.250    0.000    0.000    0.000    0.000 
#    0.000    0.000    0.000    0.000    0.000    0.000 
#
# Total GULP energy -89421.300032 kJ/mol
# GULP energy per Si atom -5588.831252 kJ/mol
# Density = 2.247554 g / cm^3
# Si number density = 22.526808 Si / 1000 Ang^3
#
#
#
# Elastic Constant Matrix: (Units=GPa)
#
#
# Indices 1 2 3 4 5 6 
#
# 1 120.3780 8.3284 24.2397 -18.2221 2.6265 3.3602
# 2 8.3284 46.3126 5.0229 -2.6277 5.0642 2.7248
# 3 24.2397 5.0229 96.0113 -3.8988 3.3571 -7.1640
# 4 -18.2221 -2.6277 -3.8988 42.7869 -1.7008 -6.2620
# 5 2.6265 5.0642 3.3571 -1.7008 31.2540 -5.1332
# 6 3.3602 2.7248 -7.1640 -6.2620 -5.1332 19.1989
#
#
#
# Elastic Compliance Matrix: (Units=1/GPa)
#
#
# Indices 1 2 3 4 5 6 
#
# 1 0.009419 -0.001131 -0.002257 0.003534 -0.000384 -0.001280
# 2 -0.001131 0.022641 -0.001093 -0.000025 -0.004206 -0.004556
# 3 -0.002257 -0.001093 0.011451 0.000758 0.000011 0.005074
# 4 0.003534 -0.000025 0.000758 0.026353 0.002528 0.008939
# 5 -0.000384 -0.004206 0.000011 0.002528 0.034611 0.010747
# 6 -0.001280 -0.004556 0.005074 0.008939 0.010747 0.060639
#
#
# Mechanical properties :
#
#
# Convention : Reuss Voigt Hill
#
# Bulk Modulus (GPa) = 28.94479 37.54267 33.24373
# Shear Modulus (GPa) = 26.94063 33.65535 30.29799
#
# Velocity S-wave (km/s) = 3.46198 3.86944 3.67137
# Velocity P-wave (km/s) = 5.37191 6.05519 5.72376
#
# Compressibility (1/GPa) = 0.03454853
#
# Stress axis : x y z
#
# Youngs Moduli (GPa) = 106.16849 44.16793 87.32490
#
# Poissons Ratio (x) = 0.04996 0.19713
# Poissons Ratio (y) = 0.12010 0.09543
# Poissons Ratio (z) = 0.23967 0.04827
#
# Static dielectric constant tensor:
#      x y z
#    x 1.824840 0.075060 0.001150 
#    y 0.075060 1.921820 0.028950 
#    z 0.001150 0.028950 1.811140 
# 
# From -- ./inp_files/207178.got.cif
#   From: 2010.05.17/outbox.cif.g08.bks.cpg/sg2_104_cif.got.tgz:207178.got - 2010.06.03 11:33:40.
