data_PCOD9029549
_publ_section_title
;
Structure prediction by ZEFSAII (Michael W. Deem and Ramdas Pophale) SiO2 
 PCOD9029549
Probable space group: P -1
;
_chemical_formula_sum "Si O2"
_cell_formula_units_Z 16
_cell_length_a 18.537278
_cell_length_b 5.193946
_cell_length_c 24.577905
_cell_angle_alpha 80.461060
_cell_angle_beta 160.499603
_cell_angle_gamma 89.822081
_cell_volume 681.708864
_symmetry_space_group_name_H-M "P -1"
_symmetry_group_IT_number 2
_symmetry_cell_setting 'triclinic'
loop_
_space_group_symop_operation_xyz
x,y,z
-x,-y,-z
loop_
_atom_site_type_symbol
_atom_site_label
_atom_site_fract_x
_atom_site_fract_y
_atom_site_fract_z
Si Si1 0.276653 0.497609 0.307401
Si Si2 0.044390 0.980677 0.780943
Si Si3 0.255491 0.723028 0.170648
Si Si4 0.796943 0.940929 0.329937
Si Si5 0.971739 0.162470 0.105232
Si Si6 0.773927 0.671580 0.539312
Si Si7 0.511217 0.533542 0.070101
Si Si8 0.958568 0.518764 0.553376
O O1 0.500000 0.500000 0.500000
O O2 0.322530 0.486397 0.275515
O O3 0.188020 0.253618 0.263130
O O4 0.062132 0.826448 0.160172
O O5 0.121583 0.835490 0.900616
O O6 0.862905 0.875624 0.627096
O O7 0.910301 0.338406 0.673742
O O8 0.290221 0.832716 0.924801
O O9 0.481401 0.793424 0.328306
O O10 0.206744 0.641351 0.078027
O O11 0.000000 0.000000 0.000000
O O12 0.783050 0.713840 0.372142
O O13 0.940643 0.825890 0.377993
O O14 0.538228 0.236334 0.128293
O O15 0.000000 0.000000 0.500000
O O16 0.855758 0.626671 0.535731
O O17 0.775268 0.508009 0.266196
O O18 0.500000 0.500000 0.000000
#
# Coordination Sequence:
#
# PCOD9029549 Si02
#       8
#     2   2   2   2   2   2   2   2
#     4  11  22  43  73  98 137 177 225 284 357 418
#     4  12  27  45  69 107 143 186 236 289 354 414
#     4  10  25  47  72 104 138 183 236 293 357 422
#     4   9  21  39  64  96 136 178 234 279 352 404
#     4  11  24  43  67 102 136 176 230 286 344 419
#     4  12  27  47  70 101 144 184 240 289 356 421
#     4  11  22  41  67  99 139 186 234 285 341 419
#     4  10  22  42  67  97 135 188 227 292 346 414
#
# _framework density 23.470431000000001
#
# number of rings (size 3 to 8) (size 9 to 14) (size 15 to 20)
#    0.000    1.250    1.250    3.750    3.500    9.000 
#    4.500    0.000    0.000    0.000    0.000    0.000 
#    0.000    0.000    0.000    0.000    0.000    0.000 
#
# Total GULP energy -89266.010414 kJ/mol
# GULP energy per Si atom -5579.125651 kJ/mol
# Density = 2.341701 g / cm^3
# Si number density = 23.470431 Si / 1000 Ang^3
#
#
#
# Elastic Constant Matrix: (Units=GPa)
#
#
# Indices 1 2 3 4 5 6 
#
# 1 133.6055 0.3622 23.1372 10.3255 -16.9158 -15.6131
# 2 0.3622 66.8269 6.5825 7.2242 1.1827 -1.5537
# 3 23.1372 6.5825 97.3802 3.9199 2.7951 2.4682
# 4 10.3255 7.2242 3.9199 27.0310 -2.4971 -3.7324
# 5 -16.9158 1.1827 2.7951 -2.4971 44.7129 5.0823
# 6 -15.6131 -1.5537 2.4682 -3.7324 5.0823 30.6519
#
#
#
# Elastic Compliance Matrix: (Units=1/GPa)
#
#
# Indices 1 2 3 4 5 6 
#
# 1 0.008884 0.000469 -0.002230 -0.002381 0.002905 0.003957
# 2 0.000469 0.015531 -0.000998 -0.004135 -0.000479 0.000683
# 3 -0.002230 -0.000998 0.010989 -0.000868 -0.001330 -0.001957
# 4 -0.002381 -0.004135 -0.000868 0.039692 0.001105 0.003298
# 5 0.002905 -0.000479 -0.001330 0.001105 0.023879 -0.002262
# 6 0.003957 0.000683 -0.001957 0.003298 -0.002262 0.035609
#
#
# Mechanical properties :
#
#
# Convention : Reuss Voigt Hill
#
# Bulk Modulus (GPa) = 33.46089 39.77516 36.61803
# Shear Modulus (GPa) = 33.31894 38.32788 35.82341
#
# Velocity S-wave (km/s) = 3.77186 4.04546 3.91105
# Velocity P-wave (km/s) = 5.76687 6.22934 6.00256
#
# Compressibility (1/GPa) = 0.02988563
#
# Stress axis : x y z
#
# Youngs Moduli (GPa) = 112.56273 64.38637 90.99874
#
# Poissons Ratio (x) = -0.03023 0.20296
# Poissons Ratio (y) = -0.05285 0.09086
# Poissons Ratio (z) = 0.25106 0.06429
#
# Static dielectric constant tensor:
#      x y z
#    x 1.915870 0.064910 -0.047340 
#    y 0.064910 2.355410 -0.075530 
#    z -0.047340 -0.075530 1.916200 
# 
# From -- ./inp_files/612659.got.cif
#   From: 2010.05.17/outbox.cif.g08.bks.cpg/sg2_307_cif.got.tgz:612659.got - 2010.06.03 11:33:40.
