data_PCOD9029142
_publ_section_title
;
Structure prediction by ZEFSAII (Michael W. Deem and Ramdas Pophale) SiO2 
 PCOD9029142
Probable space group: P -1
;
_chemical_formula_sum "Si O2"
_cell_formula_units_Z 15
_cell_length_a 5.118135
_cell_length_b 26.579441
_cell_length_c 20.863715
_cell_angle_alpha 16.647377
_cell_angle_beta 113.775106
_cell_angle_gamma 120.598456
_cell_volume 657.469901
_symmetry_space_group_name_H-M "P -1"
_symmetry_group_IT_number 2
_symmetry_cell_setting 'triclinic'
loop_
_space_group_symop_operation_xyz
x,y,z
-x,-y,-z
loop_
_atom_site_type_symbol
_atom_site_label
_atom_site_fract_x
_atom_site_fract_y
_atom_site_fract_z
Si Si1 0.500000 0.500000 0.000000
Si Si2 0.504487 0.711814 0.865929
Si Si3 0.272110 0.906516 0.907806
Si Si4 0.074620 0.867304 0.554950
Si Si5 0.830424 0.464828 0.349495
Si Si6 0.283921 0.946550 0.106896
Si Si7 0.266257 0.555996 0.166451
Si Si8 0.709340 0.999079 0.723370
O O1 0.396656 0.400603 0.039140
O O2 0.284054 0.280097 0.280167
O O3 0.285705 0.785713 0.714286
O O4 0.806149 0.905563 0.688874
O O5 0.285158 0.575469 0.068161
O O6 0.496871 0.027881 0.721828
O O7 0.011460 0.982257 0.804212
O O8 0.496474 0.934381 0.956345
O O9 0.071728 0.677042 0.145910
O O10 0.153060 0.862753 0.493614
O O11 0.846271 0.284173 0.606556
O O12 0.473991 0.444787 0.341679
O O13 0.941667 0.472674 0.277037
O O14 0.500000 0.000000 0.000000
O O15 0.000000 0.000000 0.000000
O O16 0.474705 0.783134 0.933718
#
# Coordination Sequence:
#
# PCOD9029142 Si02
#       8
#     1   2   2   2   2   2   2   2
#     4  12  24  36  56  88 120 164 224 270 330 392
#     4  10  23  41  61  88 129 173 220 280 329 374
#     4  10  22  42  66  94 126 164 210 255 309 379
#     4  10  23  41  61  88 129 173 220 280 329 374
#     4  10  22  42  66  94 126 164 210 255 309 379
#     4  12  26  42  66  98 129 161 200 248 316 385
#     4   9  20  40  66  91 124 171 216 261 316 370
#     4   9  20  40  66  91 124 171 216 261 316 370
#
# _framework density 22.814730999999998
#
# number of rings (size 3 to 8) (size 9 to 14) (size 15 to 20)
#    0.000    1.867    0.000    2.400    3.733    3.200 
#    0.000    0.000    0.000    0.000    0.000    0.000 
#    0.000    0.000    0.000    0.000    0.000    0.000 
#
# Total GULP energy -83685.558585 kJ/mol
# GULP energy per Si atom -5579.037239 kJ/mol
# Density = 2.276280 g / cm^3
# Si number density = 22.814731 Si / 1000 Ang^3
#
#
#
# Elastic Constant Matrix: (Units=GPa)
#
#
# Indices 1 2 3 4 5 6 
#
# 1 80.1777 7.5270 7.5818 -1.6452 -8.7346 -11.4286
# 2 7.5270 116.2505 17.2396 -5.1977 -8.6601 -11.5781
# 3 7.5818 17.2396 117.0659 -4.4356 -11.7845 -7.6552
# 4 -1.6452 -5.1977 -4.4356 44.6102 -3.1802 -4.3413
# 5 -8.7346 -8.6601 -11.7845 -3.1802 8.0323 34.3848
# 6 -11.4286 -11.5781 -7.6552 -4.3413 34.3848 13.6234
#
#
#
# Elastic Compliance Matrix: (Units=1/GPa)
#
#
# Indices 1 2 3 4 5 6 
#
# 1 0.013268 -0.000276 -0.000280 0.000913 0.003379 0.002500
# 2 -0.000276 0.009139 -0.000947 0.001272 0.002351 0.001476
# 3 -0.000280 -0.000947 0.008984 0.001083 0.000648 0.002718
# 4 0.000913 0.001272 0.001083 0.023148 0.002955 0.002374
# 5 0.003379 0.002351 0.000648 0.002955 -0.010867 0.033567
# 6 0.002500 0.001476 0.002718 0.002374 0.033567 -0.005683
#
#
# Mechanical properties :
#
#
# Convention : Reuss Voigt Hill
#
# Bulk Modulus (GPa) = 35.22978 42.02121 38.62550
# Shear Modulus (GPa) = 99.09681 31.99623 65.54652
#
# Velocity S-wave (km/s) = 6.59771 3.74898 5.36584
# Velocity P-wave (km/s) = 8.57408 6.09903 7.44020
#
# Compressibility (1/GPa) = 0.02838507
#
# Stress axis : x y z
#
# Youngs Moduli (GPa) = 75.36959 109.41721 111.31158
#
# Poissons Ratio (x) = 0.03019 0.03121
# Poissons Ratio (y) = 0.02080 0.10538
# Poissons Ratio (z) = 0.02113 0.10358
#
# Static dielectric constant tensor:
#      x y z
#    x 1.861730 0.012840 0.011860 
#    y 0.012840 1.834060 -0.024110 
#    z 0.011860 -0.024110 1.838330 
# 
# From -- ./inp_files/551125.got.cif
#   From: 2010.05.17/outbox.cif.g08.bks.cpg/sg2_276_cif.got.tgz:551125.got - 2010.06.03 11:33:40.
