data_PCOD9029287
_publ_section_title
;
Structure prediction by ZEFSAII (Michael W. Deem and Ramdas Pophale) SiO2 
 PCOD9029287
Probable space group: P -1
;
_chemical_formula_sum "Si O2"
_cell_formula_units_Z 16
_cell_length_a 12.239963
_cell_length_b 6.792941
_cell_length_c 22.722055
_cell_angle_alpha 105.972224
_cell_angle_beta 154.430153
_cell_angle_gamma 61.977836
_cell_volume 662.793688
_symmetry_space_group_name_H-M "P -1"
_symmetry_group_IT_number 2
_symmetry_cell_setting 'triclinic'
loop_
_space_group_symop_operation_xyz
x,y,z
-x,-y,-z
loop_
_atom_site_type_symbol
_atom_site_label
_atom_site_fract_x
_atom_site_fract_y
_atom_site_fract_z
Si Si1 0.290548 0.163700 0.501804
Si Si2 0.577727 0.698503 0.941470
Si Si3 0.377170 0.798397 0.064024
Si Si4 0.142260 0.068966 0.851211
Si Si5 0.508716 0.283750 0.518792
Si Si6 0.488759 0.878447 0.783384
Si Si7 0.216526 0.587612 0.637765
Si Si8 0.709031 0.069054 0.808719
O O1 0.251200 0.345492 0.445296
O O2 0.517183 0.123303 0.660713
O O3 0.970305 0.262728 0.383715
O O4 0.441115 0.908357 0.521550
O O5 0.628685 0.722755 0.898921
O O6 0.293060 0.936218 0.852386
O O7 0.556489 0.468888 0.924007
O O8 0.839020 0.697958 0.105712
O O9 0.320164 0.886806 0.976117
O O10 0.051120 0.967110 0.950988
O O11 0.604161 0.860591 0.211235
O O12 0.803935 0.148323 0.691280
O O13 0.500000 0.500000 0.500000
O O14 0.278327 0.780485 0.652459
O O15 0.667662 0.884725 0.814095
O O16 0.536539 0.336594 0.776300
O O17 0.000000 0.500000 0.500000
#
# Coordination Sequence:
#
# PCOD9029287 Si02
#       8
#     2   2   2   2   2   2   2   2
#     4  10  24  44  63  98 135 175 231 279 340 404
#     4  10  23  40  67 103 136 181 224 287 342 411
#     4  11  23  42  68 100 138 178 229 286 346 404
#     4  10  22  42  66  99 138 178 232 278 352 410
#     4  11  24  41  70 100 132 180 226 287 342 404
#     4  11  24  41  66  98 133 178 230 275 339 408
#     4  10  24  44  65  93 136 183 228 282 332 404
#     4  11  24  42  68  98 141 183 223 284 340 411
#
# _framework density 24.140241
#
# number of rings (size 3 to 8) (size 9 to 14) (size 15 to 20)
#    0.000    1.500    1.250    2.250    1.750    9.000 
#    0.000    2.500    0.000    0.000    0.000    0.000 
#    0.000    0.000    0.000    0.000    0.000    0.000 
#
# Total GULP energy -89266.588683 kJ/mol
# GULP energy per Si atom -5579.161793 kJ/mol
# Density = 2.408530 g / cm^3
# Si number density = 24.140241 Si / 1000 Ang^3
#
#
#
# Elastic Constant Matrix: (Units=GPa)
#
#
# Indices 1 2 3 4 5 6 
#
# 1 151.8534 45.4810 19.3877 0.4906 11.4497 22.4077
# 2 45.4810 149.1182 44.8181 37.2870 -3.3162 25.5268
# 3 19.3877 44.8181 54.8504 8.1974 2.2602 -14.1691
# 4 0.4906 37.2870 8.1974 39.7474 -5.6672 -0.3974
# 5 11.4497 -3.3162 2.2602 -5.6672 42.3395 4.5813
# 6 22.4077 25.5268 -14.1691 -0.3974 4.5813 36.4804
#
#
#
# Elastic Compliance Matrix: (Units=1/GPa)
#
#
# Indices 1 2 3 4 5 6 
#
# 1 0.008279 -0.000413 -0.004306 0.000934 -0.001234 -0.006304
# 2 -0.000413 0.020763 -0.020624 -0.014976 0.003308 -0.022864
# 3 -0.004306 -0.020624 0.044422 0.009834 -0.005304 0.035104
# 4 0.000934 -0.014976 0.009834 0.037531 0.001565 0.013937
# 5 -0.001234 0.003308 -0.005304 0.001565 0.025439 -0.006795
# 6 -0.006304 -0.022864 0.035104 0.013937 -0.006795 0.061922
#
#
# Mechanical properties :
#
#
# Convention : Reuss Voigt Hill
#
# Bulk Modulus (GPa) = 43.90139 63.91059 53.90599
# Shear Modulus (GPa) = 19.48291 40.12248 29.80269
#
# Velocity S-wave (km/s) = 2.84398 4.08126 3.51745
# Velocity P-wave (km/s) = 5.38607 6.98148 6.23502
#
# Compressibility (1/GPa) = 0.02277832
#
# Stress axis : x y z
#
# Youngs Moduli (GPa) = 120.78832 48.16290 22.51123
#
# Poissons Ratio (x) = 0.01988 0.09694
# Poissons Ratio (y) = 0.04985 0.46427
# Poissons Ratio (z) = 0.52015 0.99331
#
# Static dielectric constant tensor:
#      x y z
#    x 1.985730 0.025650 -0.025130 
#    y 0.025650 1.933070 0.042660 
#    z -0.025130 0.042660 2.015870 
# 
# From -- ./inp_files/609222.got.cif
#   From: 2010.05.17/outbox.cif.g08.bks.cpg/sg2_305_cif.got.tgz:609222.got - 2010.06.03 11:33:40.
