data_PCOD9029463
_publ_section_title
;
Structure prediction by ZEFSAII (Michael W. Deem and Ramdas Pophale) SiO2 
 PCOD9029463
Probable space group: P -1
;
_chemical_formula_sum "Si O2"
_cell_formula_units_Z 14
_cell_length_a 11.658371
_cell_length_b 12.961408
_cell_length_c 14.265260
_cell_angle_alpha 149.527297
_cell_angle_beta 34.346443
_cell_angle_gamma 129.448839
_cell_volume 594.481593
_symmetry_space_group_name_H-M "P -1"
_symmetry_group_IT_number 2
_symmetry_cell_setting 'triclinic'
loop_
_space_group_symop_operation_xyz
x,y,z
-x,-y,-z
loop_
_atom_site_type_symbol
_atom_site_label
_atom_site_fract_x
_atom_site_fract_y
_atom_site_fract_z
Si Si1 0.708038 0.853653 0.793945
Si Si2 0.766666 0.143261 0.368762
Si Si3 0.568256 0.490802 0.055277
Si Si4 0.287276 0.572468 0.641282
Si Si5 0.840812 0.782698 0.185989
Si Si6 0.899344 0.047420 0.502984
Si Si7 0.746029 0.979080 0.071843
O O1 0.734911 0.616954 0.556980
O O2 0.914187 0.918267 0.665293
O O3 0.500000 0.000000 0.000000
O O4 0.677912 0.880118 0.946948
O O5 0.644667 0.386600 0.652420
O O6 0.667525 0.009507 0.255562
O O7 0.783600 0.005707 0.343764
O O8 0.005997 0.133895 0.174622
O O9 0.712207 0.640032 0.110345
O O10 0.500000 0.500000 0.000000
O O11 0.704290 0.255233 0.800262
O O12 0.500000 0.500000 0.500000
O O13 0.287485 0.777353 0.742317
O O14 0.083090 0.651972 0.906346
O O15 0.819318 0.852816 0.363607
O O16 0.000000 0.000000 0.500000
#
# Coordination Sequence:
#
# PCOD9029463 Si02
#       7
#     2   2   2   2   2   2   2
#     4  12  22  43  68  94 135 178 222 280 345 405
#     4  10  22  42  67  95 131 175 221 281 333 402
#     4  12  24  44  71  97 139 185 229 275 352 410
#     4  11  21  40  68  94 132 177 216 276 353 397
#     4  11  23  45  67  95 140 174 226 288 337 407
#     4  12  27  46  69 104 138 180 236 288 340 416
#     4  10  22  43  63  96 134 165 227 278 330 405
#
# _framework density 23.549931999999998
#
# number of rings (size 3 to 8) (size 9 to 14) (size 15 to 20)
#    0.000    0.857    7.143    0.429    0.000    4.000 
#    2.571    2.143    0.000    0.000    0.000    0.000 
#    0.000    0.000    0.000    0.000    0.000    0.000 
#
# Total GULP energy -78254.028031 kJ/mol
# GULP energy per Si atom -5589.573431 kJ/mol
# Density = 2.349633 g / cm^3
# Si number density = 23.549932 Si / 1000 Ang^3
#
#
#
# Elastic Constant Matrix: (Units=GPa)
#
#
# Indices 1 2 3 4 5 6 
#
# 1 216.1402 29.2354 88.0902 7.0290 21.7544 -3.5443
# 2 29.2354 34.7876 32.2026 6.2448 1.7971 12.7941
# 3 88.0902 32.2026 193.2874 25.1312 -0.8190 -8.1041
# 4 7.0290 6.2448 25.1312 30.4466 9.0698 5.8249
# 5 21.7544 1.7971 -0.8190 9.0698 65.0771 4.1933
# 6 -3.5443 12.7941 -8.1041 5.8249 4.1933 31.2036
#
#
#
# Elastic Compliance Matrix: (Units=1/GPa)
#
#
# Indices 1 2 3 4 5 6 
#
# 1 0.006349 -0.003926 -0.002400 0.001705 -0.002392 0.001711
# 2 -0.003926 0.046112 -0.006905 0.000896 0.001211 -0.021476
# 3 -0.002400 -0.006905 0.008536 -0.006679 0.001657 0.005800
# 4 0.001705 0.000896 -0.006679 0.041210 -0.005854 -0.008814
# 5 -0.002392 0.001211 0.001657 -0.005854 0.017069 -0.001539
# 6 0.001711 -0.021476 0.005800 -0.008814 -0.001539 0.044406
#
#
# Mechanical properties :
#
#
# Convention : Reuss Voigt Hill
#
# Bulk Modulus (GPa) = 28.95520 82.58575 55.77047
# Shear Modulus (GPa) = 24.79468 44.99127 34.89298
#
# Velocity S-wave (km/s) = 3.24829 4.37563 3.85341
# Velocity P-wave (km/s) = 5.13717 7.78926 6.59784
#
# Compressibility (1/GPa) = 0.03453611
#
# Stress axis : x y z
#
# Youngs Moduli (GPa) = 157.50461 21.68613 117.14759
#
# Poissons Ratio (x) = 0.08515 0.28110
# Poissons Ratio (y) = 0.61840 0.80890
# Poissons Ratio (z) = 0.37794 0.14974
#
# Static dielectric constant tensor:
#      x y z
#    x 2.196980 -0.067790 -0.031580 
#    y -0.067790 1.990480 -0.017090 
#    z -0.031580 -0.017090 1.934770 
# 
# From -- ./inp_files/522562.got.cif
#   From: 2010.05.17/outbox.cif.g08.bks.cpg/sg2_262_cif.got.tgz:522562.got - 2010.06.03 11:33:40.
