data_PCOD9029351
_publ_section_title
;
Structure prediction by ZEFSAII (Michael W. Deem and Ramdas Pophale) SiO2 
 PCOD9029351
Probable space group: P -1
;
_chemical_formula_sum "Si O2"
_cell_formula_units_Z 14
_cell_length_a 16.128821
_cell_length_b 24.551584
_cell_length_c 11.625477
_cell_angle_alpha 22.307772
_cell_angle_beta 152.549469
_cell_angle_gamma 162.749440
_cell_volume 517.894074
_symmetry_space_group_name_H-M "P -1"
_symmetry_group_IT_number 2
_symmetry_cell_setting 'triclinic'
loop_
_space_group_symop_operation_xyz
x,y,z
-x,-y,-z
loop_
_atom_site_type_symbol
_atom_site_label
_atom_site_fract_x
_atom_site_fract_y
_atom_site_fract_z
Si Si1 0.753263 0.064236 0.137728
Si Si2 0.552506 0.644637 0.653163
Si Si3 0.910160 0.651661 0.660881
Si Si4 0.226936 0.523324 0.782932
Si Si5 0.475520 0.948791 0.337761
Si Si6 0.945254 0.226821 0.665329
Si Si7 0.678571 0.774569 0.283991
O O1 0.709479 0.868243 0.477424
O O2 0.728752 0.084718 0.931498
O O3 0.026839 0.312306 0.035498
O O4 0.500000 0.000000 0.000000
O O5 0.363815 0.469124 0.994402
O O6 0.633159 0.715494 0.478507
O O7 0.219542 0.462127 0.601929
O O8 0.798286 0.717241 0.468006
O O9 0.638096 0.383891 0.842289
O O10 0.987779 0.736304 0.458913
O O11 0.218562 0.797384 0.798228
O O12 0.467360 0.776616 0.627598
O O13 0.000000 0.500000 0.500000
O O14 0.329508 0.862027 0.451310
O O15 0.888183 0.031191 0.017735
#
# Coordination Sequence:
#
# PCOD9029351 Si02
#       7
#     2   2   2   2   2   2   2
#     4  11  24  45  67 103 140 180 242 291 347 417
#     4  11  23  45  74 100 141 188 226 297 354 416
#     4  10  23  40  67 104 142 185 225 290 346 425
#     4  10  24  45  69 100 134 181 241 288 353 412
#     4  11  23  44  67 103 142 183 232 294 346 416
#     4  11  22  43  68 103 143 182 231 280 357 425
#     4  10  22  42  67 106 139 182 235 276 358 433
#
# _framework density 27.032556
#
# number of rings (size 3 to 8) (size 9 to 14) (size 15 to 20)
#    0.000    1.429    1.429    3.000    2.000    2.857 
#    2.571    5.714    0.000    0.000    0.000    0.000 
#    0.000    0.000    0.000    0.000    0.000    0.000 
#
# Total GULP energy -78265.662568 kJ/mol
# GULP energy per Si atom -5590.404469 kJ/mol
# Density = 2.697103 g / cm^3
# Si number density = 27.032556 Si / 1000 Ang^3
#
#
#
# Elastic Constant Matrix: (Units=GPa)
#
#
# Indices 1 2 3 4 5 6 
#
# 1 148.3412 4.6903 41.5521 6.1843 8.5145 21.0899
# 2 4.6903 108.5133 29.6344 -13.3773 2.1305 24.5020
# 3 41.5521 29.6344 138.3222 -8.9354 23.4027 -9.9305
# 4 6.1843 -13.3773 -8.9354 25.5481 4.8476 -5.1084
# 5 8.5145 2.1305 23.4027 4.8476 58.4360 2.7533
# 6 21.0899 24.5020 -9.9305 -5.1084 2.7533 42.4878
#
#
#
# Elastic Compliance Matrix: (Units=1/GPa)
#
#
# Indices 1 2 3 4 5 6 
#
# 1 0.008899 0.001720 -0.003960 -0.004188 0.000899 -0.006897
# 2 0.001720 0.012462 -0.003788 0.002869 0.000981 -0.008644
# 3 -0.003960 -0.003788 0.010853 0.005126 -0.004414 0.007589
# 4 -0.004188 0.002869 0.005126 0.046042 -0.005721 0.007529
# 5 0.000899 0.000981 -0.004414 -0.005721 0.019376 -0.003987
# 6 -0.006897 -0.008644 0.007589 0.007529 -0.003987 0.034882
#
#
# Mechanical properties :
#
#
# Convention : Reuss Voigt Hill
#
# Bulk Modulus (GPa) = 49.60369 60.77004 55.18686
# Shear Modulus (GPa) = 33.04926 46.58104 39.81515
#
# Velocity S-wave (km/s) = 3.50032 4.15558 3.84195
# Velocity P-wave (km/s) = 5.89286 6.74939 6.33562
#
# Compressibility (1/GPa) = 0.02015979
#
# Stress axis : x y z
#
# Youngs Moduli (GPa) = 112.36614 80.24496 92.13800
#
# Poissons Ratio (x) = -0.13802 0.36483
# Poissons Ratio (y) = -0.19327 0.34900
# Poissons Ratio (z) = 0.44493 0.30395
#
# Static dielectric constant tensor:
#      x y z
#    x 2.232670 -0.079510 -0.060580 
#    y -0.079510 2.197900 0.040660 
#    z -0.060580 0.040660 2.128170 
# 
# From -- ./inp_files/272922.got.cif
#   From: 2010.05.17/outbox.cif.g08.bks.cpg/sg2_137_cif.got.tgz:272922.got - 2010.06.03 11:33:40.
