data_PCOD9029644
_publ_section_title
;
Structure prediction by ZEFSAII (Michael W. Deem and Ramdas Pophale) SiO2 
 PCOD9029644
Probable space group: P -1
;
_chemical_formula_sum "Si O2"
_cell_formula_units_Z 16
_cell_length_a 12.236553
_cell_length_b 28.610115
_cell_length_c 5.498975
_cell_angle_alpha 56.798408
_cell_angle_beta 49.485085
_cell_angle_gamma 26.209377
_cell_volume 642.807993
_symmetry_space_group_name_H-M "P -1"
_symmetry_group_IT_number 2
_symmetry_cell_setting 'triclinic'
loop_
_space_group_symop_operation_xyz
x,y,z
-x,-y,-z
loop_
_atom_site_type_symbol
_atom_site_label
_atom_site_fract_x
_atom_site_fract_y
_atom_site_fract_z
Si Si1 0.293749 0.769329 0.736097
Si Si2 0.114108 0.736600 0.773648
Si Si3 0.104475 0.409347 0.745761
Si Si4 0.090764 0.022180 0.556795
Si Si5 0.386465 0.825511 0.820664
Si Si6 0.349167 0.034067 0.373775
Si Si7 0.374077 0.490487 0.552474
Si Si8 0.068996 0.320078 0.679340
O O1 0.206354 0.735304 0.896842
O O2 0.569636 0.687386 0.403942
O O3 0.379972 0.766320 0.879224
O O4 0.019880 0.895822 0.707548
O O5 0.378136 0.628864 0.556699
O O6 0.939810 0.838447 0.583629
O O7 0.924089 0.745867 0.064122
O O8 0.110858 0.351362 0.738863
O O9 0.000000 0.500000 0.500000
O O10 0.863304 0.471919 0.103553
O O11 0.282307 0.991232 0.561379
O O12 0.260785 0.911156 0.558154
O O13 0.813875 0.100524 0.877490
O O14 0.689897 0.744898 0.670128
O O15 0.500000 0.000000 0.500000
O O16 0.500000 0.000000 0.000000
O O17 0.500000 0.500000 0.500000
O O18 0.223400 0.571268 0.320297
#
# Coordination Sequence:
#
# PCOD9029644 Si02
#       8
#     2   2   2   2   2   2   2   2
#     4  10  23  41  66  98 138 180 243 300 379 440
#     4  11  25  45  75 105 141 197 243 316 376 460
#     4  11  25  44  69 101 141 187 237 309 371 447
#     4  10  22  42  68 101 133 189 244 306 368 449
#     4  10  22  42  68  97 136 186 236 309 371 448
#     4  11  27  49  73 113 155 198 257 316 387 456
#     4  12  26  44  71 104 143 191 250 305 380 455
#     4  11  24  46  68 103 143 184 244 300 379 452
#
# _framework density 24.890794
#
# number of rings (size 3 to 8) (size 9 to 14) (size 15 to 20)
#    0.000    1.250    1.250    3.000    5.250    8.000 
#    9.000    0.000    0.000    0.000    0.000    0.000 
#    0.000    0.000    0.000    0.000    0.000    0.000 
#
# Total GULP energy -89444.605966 kJ/mol
# GULP energy per Si atom -5590.287873 kJ/mol
# Density = 2.483414 g / cm^3
# Si number density = 24.890794 Si / 1000 Ang^3
#
#
#
# Elastic Constant Matrix: (Units=GPa)
#
#
# Indices 1 2 3 4 5 6 
#
# 1 142.9667 35.9999 18.8700 -1.9020 -20.7007 16.8379
# 2 35.9999 116.8269 10.1624 16.1148 -3.3063 10.1662
# 3 18.8700 10.1624 84.7670 15.9268 -20.1331 6.8280
# 4 -1.9020 16.1148 15.9268 38.9184 2.3199 -11.1699
# 5 -20.7007 -3.3063 -20.1331 2.3199 35.4821 -5.4871
# 6 16.8379 10.1662 6.8280 -11.1699 -5.4871 46.4384
#
#
#
# Elastic Compliance Matrix: (Units=1/GPa)
#
#
# Indices 1 2 3 4 5 6 
#
# 1 0.008494 -0.002425 -0.000689 0.000962 0.004006 -0.001743
# 2 -0.002425 0.010230 0.000468 -0.005316 -0.000272 -0.002740
# 3 -0.000689 0.000468 0.015697 -0.008048 0.008598 -0.003080
# 4 0.000962 -0.005316 -0.008048 0.034314 -0.005255 0.009631
# 5 0.004006 -0.000272 0.008598 -0.005255 0.035764 0.000305
# 6 -0.001743 -0.002740 -0.003080 0.009631 0.000305 0.025571
#
#
# Mechanical properties :
#
#
# Convention : Reuss Voigt Hill
#
# Bulk Modulus (GPa) = 34.32936 52.73612 43.53274
# Shear Modulus (GPa) = 34.46542 42.80300 38.63421
#
# Velocity S-wave (km/s) = 3.72515 4.15134 3.94401
# Velocity P-wave (km/s) = 5.68544 6.64915 6.18609
#
# Compressibility (1/GPa) = 0.02912959
#
# Stress axis : x y z
#
# Youngs Moduli (GPa) = 117.72388 97.74832 63.70787
#
# Poissons Ratio (x) = 0.23707 0.04390
# Poissons Ratio (y) = 0.28552 -0.02984
# Poissons Ratio (z) = 0.08112 -0.04579
#
# Static dielectric constant tensor:
#      x y z
#    x 1.732680 -0.271440 0.490420 
#    y -0.271440 1.752790 0.421470 
#    z 0.490420 0.421470 1.224020 
# 
# From -- ./inp_files/85019.got.cif
#   From: 2010.05.17/outbox.cif.g08.bks.cpg/sg2_43_cif.got.tgz:85019.got - 2010.06.03 11:33:40.
