data_PCOD9029796
_publ_section_title
;
Structure prediction by ZEFSAII (Michael W. Deem and Ramdas Pophale) SiO2 
 PCOD9029796
Probable space group: P -1
;
_chemical_formula_sum "Si O2"
_cell_formula_units_Z 16
_cell_length_a 10.827566
_cell_length_b 14.653644
_cell_length_c 6.990740
_cell_angle_alpha 97.684550
_cell_angle_beta 136.929878
_cell_angle_gamma 91.752396
_cell_volume 737.039483
_symmetry_space_group_name_H-M "P -1"
_symmetry_group_IT_number 2
_symmetry_cell_setting 'triclinic'
loop_
_space_group_symop_operation_xyz
x,y,z
-x,-y,-z
loop_
_atom_site_type_symbol
_atom_site_label
_atom_site_fract_x
_atom_site_fract_y
_atom_site_fract_z
Si Si1 0.657524 0.328417 0.909711
Si Si2 0.823557 0.014821 0.562703
Si Si3 0.760187 0.968918 0.024814
Si Si4 0.882978 0.512179 0.183312
Si Si5 0.413765 0.829965 0.687344
Si Si6 0.523508 0.123851 0.774348
Si Si7 0.772643 0.367948 0.479672
Si Si8 0.489298 0.491617 0.712600
O O1 0.588447 0.220080 0.760324
O O2 0.805506 0.406904 0.984918
O O3 0.750601 0.331520 0.225418
O O4 0.486228 0.384099 0.737842
O O5 0.737354 0.107753 0.522012
O O6 0.041731 0.029067 0.844365
O O7 0.796131 0.990412 0.298349
O O8 0.687415 0.930927 0.494623
O O9 0.608141 0.873502 0.821631
O O10 0.656739 0.051018 0.860822
O O11 0.000000 0.500000 0.500000
O O12 0.014569 0.588279 0.227602
O O13 0.691320 0.543243 0.027417
O O14 0.332568 0.719908 0.543865
O O15 0.450856 0.850742 0.962954
O O16 0.667958 0.455070 0.389508
O O17 0.500000 0.500000 0.500000
#
# Coordination Sequence:
#
# PCOD9029796 Si02
#       8
#     2   2   2   2   2   2   2   2
#     4   8  17  32  46  70  98 127 164 205 235 289
#     4   8  13  22  36  59  90 121 151 188 239 285
#     4   8  13  22  36  59  91 119 148 192 238 283
#     4   8  18  32  49  71  96 126 164 203 236 288
#     4   8  15  23  39  62  90 123 155 193 234 286
#     4   8  13  25  37  59  92 121 154 189 236 283
#     4  10  17  32  51  68  98 135 164 200 248 285
#     4  10  21  34  50  72  99 131 168 206 245 290
#
# _framework density 21.708470999999999
#
# number of rings (size 3 to 8) (size 9 to 14) (size 15 to 20)
#    0.750    2.750    0.000    1.875    0.000    1.500 
#    2.250    3.750    0.000    0.000    0.000    3.500 
#    0.000    6.000    0.000    0.000    0.000    0.000 
#
# Total GULP energy -89106.687271 kJ/mol
# GULP energy per Si atom -5569.167954 kJ/mol
# Density = 2.165906 g / cm^3
# Si number density = 21.708471 Si / 1000 Ang^3
#
#
#
# Elastic Constant Matrix: (Units=GPa)
#
#
# Indices 1 2 3 4 5 6 
#
# 1 72.5112 33.6215 31.8581 2.1503 17.7534 20.4124
# 2 33.6215 127.1471 49.4596 25.1926 37.1909 35.7495
# 3 31.8581 49.4596 80.6247 11.7768 19.7917 -0.1387
# 4 2.1503 25.1926 11.7768 25.1841 -0.3776 9.6423
# 5 17.7534 37.1909 19.7917 -0.3776 46.2650 2.3581
# 6 20.4124 35.7495 -0.1387 9.6423 2.3581 30.6075
#
#
#
# Elastic Compliance Matrix: (Units=1/GPa)
#
#
# Indices 1 2 3 4 5 6 
#
# 1 0.026148 0.007243 -0.013832 0.007452 -0.008468 -0.027655
# 2 0.007243 0.027680 -0.014298 -0.009255 -0.017308 -0.032976
# 3 -0.013832 -0.014298 0.026905 -0.007848 0.003789 0.028228
# 4 0.007452 -0.009255 -0.007848 0.057063 0.009059 -0.012870
# 5 -0.008468 -0.017308 0.003789 0.009059 0.036199 0.020238
# 6 -0.027655 -0.032976 0.028228 -0.012870 0.020238 0.092254
#
#
# Mechanical properties :
#
#
# Convention : Reuss Voigt Hill
#
# Bulk Modulus (GPa) = 25.66971 56.68460 41.17715
# Shear Modulus (GPa) = 15.57585 31.43425 23.50505
#
# Velocity S-wave (km/s) = 2.68153 3.80941 3.29410
# Velocity P-wave (km/s) = 4.63010 6.74665 5.78598
#
# Compressibility (1/GPa) = 0.03895642
#
# Stress axis : x y z
#
# Youngs Moduli (GPa) = 38.24450 36.12738 37.16796
#
# Poissons Ratio (x) = -0.26166 0.51412
# Poissons Ratio (y) = -0.27699 0.53143
# Poissons Ratio (z) = 0.52901 0.51655
#
# Static dielectric constant tensor:
#      x y z
#    x 1.693690 0.056970 -0.009340 
#    y 0.056970 1.767920 0.007240 
#    z -0.009340 0.007240 1.812230 
# 
# From -- ./inp_files/268448.got.cif
#   From: 2010.05.17/outbox.cif.g08.bks.cpg/sg2_135_cif.got.tgz:268448.got - 2010.06.03 11:33:40.
