data_PCOD9029739
_publ_section_title
;
Structure prediction by ZEFSAII (Michael W. Deem and Ramdas Pophale) SiO2 
 PCOD9029739
Probable space group: P -1
;
_chemical_formula_sum "Si O2"
_cell_formula_units_Z 14
_cell_length_a 8.725647
_cell_length_b 7.078326
_cell_length_c 13.495464
_cell_angle_alpha 111.587693
_cell_angle_beta 45.259355
_cell_angle_gamma 88.556914
_cell_volume 496.961969
_symmetry_space_group_name_H-M "P -1"
_symmetry_group_IT_number 2
_symmetry_cell_setting 'triclinic'
loop_
_space_group_symop_operation_xyz
x,y,z
-x,-y,-z
loop_
_atom_site_type_symbol
_atom_site_label
_atom_site_fract_x
_atom_site_fract_y
_atom_site_fract_z
Si Si1 0.824374 0.302268 0.995943
Si Si2 0.388630 0.025116 0.915631
Si Si3 0.575941 0.330005 0.841192
Si Si4 0.328738 0.716838 0.744104
Si Si5 0.772135 0.882038 0.388822
Si Si6 0.800668 0.312103 0.542382
Si Si7 0.955503 0.391408 0.299130
O O1 0.040486 0.197855 0.802962
O O2 0.651120 0.170423 0.042975
O O3 0.664557 0.562167 0.095213
O O4 0.876556 0.276385 0.083825
O O5 0.195756 0.245086 0.101696
O O6 0.610633 0.087518 0.815096
O O7 0.366702 0.934664 0.798197
O O8 0.773339 0.338599 0.678464
O O9 0.500000 0.500000 0.000000
O O10 0.560045 0.503322 0.637067
O O11 0.229840 0.703035 0.679867
O O12 0.830702 0.652097 0.376846
O O13 0.500000 0.000000 0.500000
O O14 0.814596 0.067165 0.468169
O O15 0.990142 0.345922 0.391523
#
# Coordination Sequence:
#
# PCOD9029739 Si02
#       7
#     2   2   2   2   2   2   2
#     4   9  22  43  60  95 134 168 221 263 314 384
#     4  10  22  42  68  91 136 167 217 271 315 388
#     4  11  25  47  71  91 118 173 233 280 328 372
#     4   9  21  38  61  94 135 170 208 250 318 390
#     4  12  24  37  66  99 141 181 203 255 323 397
#     4  11  24  40  59  99 133 158 225 267 317 389
#     4  12  22  39  63  95 142 175 204 252 329 392
#
# _framework density 28.17117
#
# number of rings (size 3 to 8) (size 9 to 14) (size 15 to 20)
#    0.857    0.571    4.286    0.857    2.000    2.286 
#    0.000    1.429    0.000    0.000    0.000    0.000 
#    0.000    0.000    0.000    0.000    0.000    0.000 
#
# Total GULP energy -78301.380790 kJ/mol
# GULP energy per Si atom -5592.955771 kJ/mol
# Density = 2.810705 g / cm^3
# Si number density = 28.171170 Si / 1000 Ang^3
#
#
#
# Elastic Constant Matrix: (Units=GPa)
#
#
# Indices 1 2 3 4 5 6 
#
# 1 75.2547 40.4529 40.3594 -1.7266 5.0484 -3.3960
# 2 40.4529 190.9532 73.7013 -4.2290 -4.1598 -4.3108
# 3 40.3594 73.7013 170.7201 -13.9097 29.1907 -5.0618
# 4 -1.7266 -4.2290 -13.9097 60.4497 -12.2548 -8.8263
# 5 5.0484 -4.1598 29.1907 -12.2548 52.5526 6.3715
# 6 -3.3960 -4.3108 -5.0618 -8.8263 6.3715 39.7003
#
#
#
# Elastic Compliance Matrix: (Units=1/GPa)
#
#
# Indices 1 2 3 4 5 6 
#
# 1 0.016064 -0.002351 -0.002719 -0.000297 -0.000381 0.000767
# 2 -0.002351 0.006873 -0.002807 0.000233 0.002401 -0.000146
# 3 -0.002719 -0.002807 0.008645 0.000983 -0.004720 0.001541
# 4 -0.000297 0.000233 0.000983 0.017961 0.003253 0.003596
# 5 -0.000381 0.002401 -0.004720 0.003253 0.023042 -0.003349
# 6 0.000767 -0.000146 0.001541 0.003596 -0.003349 0.026772
#
#
# Mechanical properties :
#
#
# Convention : Reuss Voigt Hill
#
# Bulk Modulus (GPa) = 63.18211 82.88392 73.03301
# Shear Modulus (GPa) = 41.53309 49.36815 45.45062
#
# Velocity S-wave (km/s) = 3.84384 4.19075 4.02104
# Velocity P-wave (km/s) = 6.49437 7.27337 6.89488
#
# Compressibility (1/GPa) = 0.01582726
#
# Stress axis : x y z
#
# Youngs Moduli (GPa) = 62.25270 145.50621 115.67382
#
# Poissons Ratio (x) = 0.34212 0.31448
# Poissons Ratio (y) = 0.14637 0.32469
# Poissons Ratio (z) = 0.16925 0.40843
#
# Static dielectric constant tensor:
#      x y z
#    x 2.217560 0.003700 0.003040 
#    y 0.003700 2.139040 -0.044770 
#    z 0.003040 -0.044770 2.252850 
# 
# From -- ./inp_files/514564.got.cif
#   From: 2010.05.17/outbox.cif.g08.bks.cpg/sg2_258_cif.got.tgz:514564.got - 2010.06.03 11:33:40.
