data_PCOD9029484
_publ_section_title
;
Structure prediction by ZEFSAII (Michael W. Deem and Ramdas Pophale) SiO2 
 PCOD9029484
Probable space group: P -1
;
_chemical_formula_sum "Si O2"
_cell_formula_units_Z 16
_cell_length_a 15.113722
_cell_length_b 15.067082
_cell_length_c 16.315378
_cell_angle_alpha 145.137758
_cell_angle_beta 143.713798
_cell_angle_gamma 18.932126
_cell_volume 679.999019
_symmetry_space_group_name_H-M "P -1"
_symmetry_group_IT_number 2
_symmetry_cell_setting 'triclinic'
loop_
_space_group_symop_operation_xyz
x,y,z
-x,-y,-z
loop_
_atom_site_type_symbol
_atom_site_label
_atom_site_fract_x
_atom_site_fract_y
_atom_site_fract_z
Si Si1 0.269319 0.897208 0.906748
Si Si2 0.788337 0.799390 0.663505
Si Si3 0.838841 0.503965 0.993357
Si Si4 0.286289 0.798088 0.021764
Si Si5 0.332840 0.276050 0.135929
Si Si6 0.897595 0.212448 0.422959
Si Si7 0.410479 0.727799 0.553153
Si Si8 0.801016 0.820436 0.497509
O O1 0.531122 0.784311 0.011278
O O2 0.244723 0.811631 0.743561
O O3 0.298586 0.767987 0.910800
O O4 0.988355 0.239760 0.955984
O O5 0.852297 0.793073 0.612500
O O6 0.049304 0.471111 0.638860
O O7 0.699735 0.029543 0.820567
O O8 0.526143 0.913849 0.554232
O O9 0.789582 0.506554 0.862297
O O10 0.065543 0.442057 0.109479
O O11 0.500000 0.500000 0.000000
O O12 0.000000 0.000000 0.000000
O O13 0.547165 0.167423 0.274088
O O14 0.500000 0.000000 0.000000
O O15 0.071545 0.152711 0.439347
O O16 0.648930 0.532299 0.514632
O O17 0.113192 0.981530 0.480903
O O18 0.500000 0.500000 0.500000
#
# Coordination Sequence:
#
# PCOD9029484 Si02
#       8
#     2   2   2   2   2   2   2   2
#     4  12  25  45  69 102 143 185 229 295 342 420
#     4  10  22  42  67  97 132 177 221 279 341 417
#     4  11  25  43  72 101 138 183 230 278 365 407
#     4  12  26  44  69 102 138 183 237 286 354 417
#     4  11  25  47  74 102 140 183 230 290 357 421
#     4  12  26  44  69 101 139 183 235 283 351 409
#     4  12  28  45  71  99 140 183 239 287 346 427
#     4  10  22  42  67  95 136 175 223 278 345 405
#
# _framework density 23.529446
#
# number of rings (size 3 to 8) (size 9 to 14) (size 15 to 20)
#    0.000    0.750    1.250    5.625    3.500    6.000 
#    0.000    0.000    0.000    0.000    0.000    0.000 
#    0.000    0.000    0.000    0.000    0.000    0.000 
#
# Total GULP energy -89531.383231 kJ/mol
# GULP energy per Si atom -5595.711452 kJ/mol
# Density = 2.347589 g / cm^3
# Si number density = 23.529446 Si / 1000 Ang^3
#
#
#
# Elastic Constant Matrix: (Units=GPa)
#
#
# Indices 1 2 3 4 5 6 
#
# 1 105.0936 28.0950 -0.8668 -22.2552 3.6552 -5.1476
# 2 28.0950 141.0902 28.2384 -11.2295 -9.4056 4.3449
# 3 -0.8668 28.2384 99.1661 -7.8149 -3.5082 1.7941
# 4 -22.2552 -11.2295 -7.8149 28.0880 0.3566 -3.4048
# 5 3.6552 -9.4056 -3.5082 0.3566 22.5422 -6.7071
# 6 -5.1476 4.3449 1.7941 -3.4048 -6.7071 42.3898
#
#
#
# Elastic Compliance Matrix: (Units=1/GPa)
#
#
# Indices 1 2 3 4 5 6 
#
# 1 0.012308 -0.002176 0.001363 0.009541 -0.002225 0.002074
# 2 -0.002176 0.008261 -0.002177 0.000879 0.003321 -0.000423
# 3 0.001363 -0.002177 0.010992 0.003295 0.000614 0.000285
# 4 0.009541 0.000879 0.003295 0.044980 -0.000029 0.004537
# 5 -0.002225 0.003321 0.000614 -0.000029 0.048287 0.007001
# 6 0.002074 -0.000423 0.000285 0.004537 0.007001 0.025346
#
#
# Mechanical properties :
#
#
# Convention : Reuss Voigt Hill
#
# Bulk Modulus (GPa) = 39.09306 50.69812 44.89559
# Shear Modulus (GPa) = 30.36150 37.92956 34.14553
#
# Velocity S-wave (km/s) = 3.59606 4.01933 3.81357
# Velocity P-wave (km/s) = 5.82175 6.56761 6.20589
#
# Compressibility (1/GPa) = 0.02557999
#
# Stress axis : x y z
#
# Youngs Moduli (GPa) = 81.24921 121.04792 90.97413
#
# Poissons Ratio (x) = 0.26346 -0.12399
# Poissons Ratio (y) = 0.17684 0.19805
# Poissons Ratio (z) = -0.11074 0.26353
#
# Static dielectric constant tensor:
#      x y z
#    x 1.865640 0.008150 -0.049360 
#    y 0.008150 1.842280 0.020100 
#    z -0.049360 0.020100 1.897110 
# 
# From -- ./inp_files/534453.got.cif
#   From: 2010.05.17/outbox.cif.g08.bks.cpg/sg2_268_cif.got.tgz:534453.got - 2010.06.03 11:33:40.
