data_PCOD9029482
_publ_section_title
;
Structure prediction by ZEFSAII (Michael W. Deem and Ramdas Pophale) SiO2 
 PCOD9029482
Probable space group: P -1
;
_chemical_formula_sum "Si O2"
_cell_formula_units_Z 16
_cell_length_a 20.975135
_cell_length_b 23.262279
_cell_length_c 5.575459
_cell_angle_alpha 109.629330
_cell_angle_beta 120.040129
_cell_angle_gamma 18.516361
_cell_volume 645.640799
_symmetry_space_group_name_H-M "P -1"
_symmetry_group_IT_number 2
_symmetry_cell_setting 'triclinic'
loop_
_space_group_symop_operation_xyz
x,y,z
-x,-y,-z
loop_
_atom_site_type_symbol
_atom_site_label
_atom_site_fract_x
_atom_site_fract_y
_atom_site_fract_z
Si Si1 0.733264 0.976776 0.989681
Si Si2 0.997705 0.269324 0.258409
Si Si3 0.909847 0.503008 0.857786
Si Si4 0.267045 0.699639 0.524660
Si Si5 0.821765 0.113319 0.032129
Si Si6 0.279743 0.564999 0.633570
Si Si7 0.655971 0.922880 0.017846
Si Si8 0.698768 0.622720 0.106781
O O1 0.601080 0.138948 0.084767
O O2 0.780950 0.943017 0.753000
O O3 0.570913 0.044881 0.849794
O O4 0.025156 0.739907 0.282851
O O5 0.169018 0.176735 0.616979
O O6 0.796579 0.383968 0.162572
O O7 0.824638 0.457979 0.074246
O O8 0.798275 0.569477 0.481457
O O9 0.160271 0.265194 0.051983
O O10 0.747942 0.622866 0.960955
O O11 0.000000 0.500000 0.000000
O O12 0.500000 0.500000 0.500000
O O13 0.252946 0.775038 0.752566
O O14 0.284918 0.630304 0.648797
O O15 0.994804 0.921470 0.190024
O O16 0.535192 0.327056 0.708828
O O17 0.000000 0.000000 0.000000
O O18 0.500000 0.000000 0.000000
#
# Coordination Sequence:
#
# PCOD9029482 Si02
#       8
#     2   2   2   2   2   2   2   2
#     4  11  25  44  68  97 137 190 239 294 367 438
#     4  10  25  46  62  99 140 185 238 298 359 439
#     4  11  23  42  67 101 136 179 243 312 374 445
#     4  11  25  46  72 110 142 184 240 292 367 442
#     4  11  25  46  74 107 145 184 234 298 365 434
#     4  11  26  45  70 105 145 191 242 296 360 446
#     4  10  22  42  67  95 134 182 235 302 366 428
#     4  11  25  45  66  97 141 186 242 304 371 445
#
# _framework density 24.781582
#
# number of rings (size 3 to 8) (size 9 to 14) (size 15 to 20)
#    0.000    1.250    2.500    1.500    8.750    1.500 
#    0.000    0.000    0.000    0.000    0.000    0.000 
#    0.000    0.000    0.000    0.000    0.000    0.000 
#
# Total GULP energy -89178.673783 kJ/mol
# GULP energy per Si atom -5573.667111 kJ/mol
# Density = 2.472518 g / cm^3
# Si number density = 24.781582 Si / 1000 Ang^3
#
#
#
# Elastic Constant Matrix: (Units=GPa)
#
#
# Indices 1 2 3 4 5 6 
#
# 1 145.6441 60.4446 20.0362 -6.9961 -4.3511 -20.5182
# 2 60.4446 189.3068 29.1701 6.7642 -3.5386 -16.0170
# 3 20.0362 29.1701 54.1004 0.5123 1.7108 -1.7650
# 4 -6.9961 6.7642 0.5123 36.1181 3.0314 -7.5054
# 5 -4.3511 -3.5386 1.7108 3.0314 23.7759 -7.9924
# 6 -20.5182 -16.0170 -1.7650 -7.5054 -7.9924 44.7947
#
#
#
# Elastic Compliance Matrix: (Units=1/GPa)
#
#
# Indices 1 2 3 4 5 6 
#
# 1 0.008853 -0.002219 -0.002053 0.002803 0.002455 0.004089
# 2 -0.002219 0.006593 -0.002722 -0.001486 0.001374 0.001230
# 3 -0.002053 -0.002722 0.020750 -0.000289 -0.002789 -0.001643
# 4 0.002803 -0.001486 -0.000289 0.029781 -0.001657 0.005436
# 5 0.002455 0.001374 -0.002789 -0.001657 0.046316 0.009492
# 6 0.004089 0.001230 -0.001643 0.005436 0.009492 0.027176
#
#
# Mechanical properties :
#
#
# Convention : Reuss Voigt Hill
#
# Bulk Modulus (GPa) = 45.03017 67.59479 56.31248
# Shear Modulus (GPa) = 31.08271 39.56443 35.32357
#
# Velocity S-wave (km/s) = 3.54540 3.99999 3.77954
# Velocity P-wave (km/s) = 5.91355 6.97629 6.46679
#
# Compressibility (1/GPa) = 0.02220733
#
# Stress axis : x y z
#
# Youngs Moduli (GPa) = 112.95165 151.67071 48.19300
#
# Poissons Ratio (x) = 0.33652 0.09895
# Poissons Ratio (y) = 0.25061 0.13121
# Poissons Ratio (z) = 0.23192 0.41292
#
# Static dielectric constant tensor:
#      x y z
#    x 2.962310 -0.390930 -1.301720 
#    y -0.390930 2.232100 0.468130 
#    z -1.301720 0.468130 3.717610 
# 
# From -- ./inp_files/120614.got.cif
#   From: 2010.05.17/outbox.cif.g08.bks.cpg/sg2_61_cif.got.tgz:120614.got - 2010.06.03 11:33:40.
