data_PCOD9029735
_publ_section_title
;
Structure prediction by ZEFSAII (Michael W. Deem and Ramdas Pophale) SiO2 
 PCOD9029735
Probable space group: P -1
;
_chemical_formula_sum "Si O2"
_cell_formula_units_Z 14
_cell_length_a 14.494721
_cell_length_b 7.967124
_cell_length_c 7.032396
_cell_angle_alpha 58.959604
_cell_angle_beta 63.468181
_cell_angle_gamma 53.661815
_cell_volume 548.658688
_symmetry_space_group_name_H-M "P -1"
_symmetry_group_IT_number 2
_symmetry_cell_setting 'triclinic'
loop_
_space_group_symop_operation_xyz
x,y,z
-x,-y,-z
loop_
_atom_site_type_symbol
_atom_site_label
_atom_site_fract_x
_atom_site_fract_y
_atom_site_fract_z
Si Si1 0.842634 0.790253 0.963196
Si Si2 0.273511 0.530006 0.795583
Si Si3 0.127009 0.365870 0.560461
Si Si4 0.437595 0.302807 0.061274
Si Si5 0.077140 0.750819 0.627584
Si Si6 0.482867 0.386521 0.385080
Si Si7 0.677667 0.999304 0.673732
O O1 0.792725 0.618053 0.073844
O O2 0.856748 0.789340 0.178534
O O3 0.746543 0.997625 0.806410
O O4 0.972898 0.701545 0.818151
O O5 0.169164 0.757009 0.689205
O O6 0.379628 0.431862 0.602621
O O7 0.316938 0.512538 0.979776
O O8 0.145932 0.569423 0.507432
O O9 0.221273 0.198921 0.425465
O O10 0.000000 0.500000 0.500000
O O11 0.468421 0.281392 0.265064
O O12 0.413459 0.099382 0.147929
O O13 0.519953 0.383395 0.822620
O O14 0.000000 0.000000 0.500000
O O15 0.603810 0.213541 0.480259
#
# Coordination Sequence:
#
# PCOD9029735 Si02
#       7
#     2   2   2   2   2   2   2
#     4  10  23  43  68  97 131 178 220 274 338 400
#     4  10  22  42  68  91 132 177 221 270 337 400
#     4  11  22  42  70  97 131 178 225 268 335 406
#     4  10  23  40  65  94 138 173 222 278 330 393
#     4  11  24  44  67 100 137 172 223 284 335 400
#     4  11  24  44  64 101 133 173 228 277 334 398
#     4  11  24  43  71  98 139 175 226 275 340 403
#
# _framework density 25.516774999999999
#
# number of rings (size 3 to 8) (size 9 to 14) (size 15 to 20)
#    0.000    1.429    1.429    4.286    4.000    3.429 
#   10.286    0.714    0.000    0.000    0.000    0.000 
#    0.000    0.000    0.000    0.000    0.000    0.000 
#
# Total GULP energy -78061.695729 kJ/mol
# GULP energy per Si atom -5575.835409 kJ/mol
# Density = 2.545870 g / cm^3
# Si number density = 25.516775 Si / 1000 Ang^3
#
#
#
# Elastic Constant Matrix: (Units=GPa)
#
#
# Indices 1 2 3 4 5 6 
#
# 1 134.6708 33.3484 68.1697 2.7971 28.4266 -39.5173
# 2 33.3484 88.7201 56.3144 -18.0980 0.7587 -40.9286
# 3 68.1697 56.3144 160.6514 -6.1186 27.1082 -30.1370
# 4 2.7971 -18.0980 -6.1186 48.0390 -5.8778 -0.6200
# 5 28.4266 0.7587 27.1082 -5.8778 72.8321 -20.8034
# 6 -39.5173 -40.9286 -30.1370 -0.6200 -20.8034 49.0020
#
#
#
# Elastic Compliance Matrix: (Units=1/GPa)
#
#
# Indices 1 2 3 4 5 6 
#
# 1 0.011472 0.001696 -0.003852 -0.000520 -0.000836 0.007937
# 2 0.001696 0.029754 -0.007537 0.011739 0.010229 0.026075
# 3 -0.003852 -0.007537 0.010166 -0.001835 -0.003706 -0.004745
# 4 -0.000520 0.011739 -0.001835 0.025918 0.006040 0.011149
# 5 -0.000836 0.010229 -0.003706 0.006040 0.019841 0.014090
# 6 0.007937 0.026075 -0.004745 0.011149 0.014090 0.051792
#
#
# Mechanical properties :
#
#
# Convention : Reuss Voigt Hill
#
# Bulk Modulus (GPa) = 31.24433 77.74528 54.49480
# Shear Modulus (GPa) = 27.93313 49.05527 38.49420
#
# Velocity S-wave (km/s) = 3.31221 4.38936 3.88826
# Velocity P-wave (km/s) = 5.18641 7.49820 6.44678
#
# Compressibility (1/GPa) = 0.03200581
#
# Stress axis : x y z
#
# Youngs Moduli (GPa) = 87.17029 33.60856 98.36394
#
# Poissons Ratio (x) = -0.05699 0.37890
# Poissons Ratio (y) = -0.14781 0.74136
# Poissons Ratio (z) = 0.33578 0.25330
#
# Static dielectric constant tensor:
#      x y z
#    x 2.028470 -0.061510 0.023270 
#    y -0.061510 2.028530 -0.121230 
#    z 0.023270 -0.121230 2.189140 
# 
# From -- ./inp_files/87398.got.cif
#   From: 2010.05.17/outbox.cif.g08.bks.cpg/sg2_44_cif.got.tgz:87398.got - 2010.06.03 11:33:40.
