data_PCOD9029585
_publ_section_title
;
Structure prediction by ZEFSAII (Michael W. Deem and Ramdas Pophale) SiO2 
 PCOD9029585
Probable space group: P -1
;
_chemical_formula_sum "Si O2"
_cell_formula_units_Z 16
_cell_length_a 11.192826
_cell_length_b 5.433342
_cell_length_c 23.610220
_cell_angle_alpha 124.111222
_cell_angle_beta 147.806281
_cell_angle_gamma 63.411076
_cell_volume 632.189637
_symmetry_space_group_name_H-M "P -1"
_symmetry_group_IT_number 2
_symmetry_cell_setting 'triclinic'
loop_
_space_group_symop_operation_xyz
x,y,z
-x,-y,-z
loop_
_atom_site_type_symbol
_atom_site_label
_atom_site_fract_x
_atom_site_fract_y
_atom_site_fract_z
Si Si1 0.206353 0.292922 0.575452
Si Si2 0.319609 0.213370 0.928246
Si Si3 0.223615 0.173545 0.133789
Si Si4 0.321137 0.881816 0.250365
Si Si5 0.951997 0.706197 0.371856
Si Si6 0.206281 0.865294 0.325368
Si Si7 0.478014 0.256767 0.868243
Si Si8 0.648848 0.596943 0.475326
O O1 0.416307 0.117747 0.658339
O O2 0.131797 0.449386 0.622883
O O3 0.299596 0.453860 0.577057
O O4 0.003065 0.057424 0.447328
O O5 0.421186 0.227441 0.907561
O O6 0.055616 0.174122 0.800851
O O7 0.331551 0.474677 0.014527
O O8 0.500000 0.000000 0.000000
O O9 0.235922 0.529244 0.173275
O O10 0.221065 0.072145 0.185343
O O11 0.426105 0.020690 0.161819
O O12 0.000000 0.000000 0.000000
O O13 0.301275 0.998755 0.321196
O O14 0.752072 0.648716 0.240645
O O15 0.200015 0.594565 0.448062
O O16 0.380907 0.609661 0.374610
O O17 0.247243 0.076833 0.422834
#
# Coordination Sequence:
#
# PCOD9029585 Si02
#       8
#     2   2   2   2   2   2   2   2
#     4  10  23  40  67 103 139 180 244 292 367 433
#     4  11  25  45  70  98 144 187 241 296 366 431
#     4  12  27  48  76 105 147 194 248 303 366 432
#     4  11  26  46  74 107 145 190 245 306 365 432
#     4  11  22  42  68 102 141 185 241 298 370 427
#     4  10  23  45  66 102 139 186 248 294 362 437
#     4  11  26  44  68 108 136 190 242 298 359 444
#     4  10  22  42  67  98 137 190 235 302 362 435
#
# _framework density 25.308861
#
# number of rings (size 3 to 8) (size 9 to 14) (size 15 to 20)
#    0.000    1.250    1.250    3.000    7.000    2.000 
#    4.500    3.750    0.000    0.000    0.000    0.000 
#    0.000    0.000    0.000    0.000    0.000    0.000 
#
# Total GULP energy -89248.478251 kJ/mol
# GULP energy per Si atom -5578.029891 kJ/mol
# Density = 2.525126 g / cm^3
# Si number density = 25.308861 Si / 1000 Ang^3
#
#
#
# Elastic Constant Matrix: (Units=GPa)
#
#
# Indices 1 2 3 4 5 6 
#
# 1 81.0768 44.5959 19.1322 -4.1299 -16.5393 0.1310
# 2 44.5959 97.4702 62.1431 -8.6863 -10.5740 7.3213
# 3 19.1322 62.1431 199.5060 -25.5115 -0.3331 2.7076
# 4 -4.1299 -8.6863 -25.5115 45.8018 -3.6517 6.4759
# 5 -16.5393 -10.5740 -0.3331 -3.6517 50.3114 -8.7877
# 6 0.1310 7.3213 2.7076 6.4759 -8.7877 24.3196
#
#
#
# Elastic Compliance Matrix: (Units=1/GPa)
#
#
# Indices 1 2 3 4 5 6 
#
# 1 0.017760 -0.008471 0.000932 0.000331 0.004786 0.003992
# 2 -0.008471 0.017410 -0.004448 0.000755 0.000047 -0.004885
# 3 0.000932 -0.004448 0.006695 0.002986 -0.000431 -0.000362
# 4 0.000331 0.000755 0.002986 0.024705 0.000889 -0.006819
# 5 0.004786 0.000047 -0.000431 0.000889 0.022928 0.008056
# 6 0.003992 -0.004885 -0.000362 -0.006819 0.008056 0.047335
#
#
# Mechanical properties :
#
#
# Convention : Reuss Voigt Hill
#
# Bulk Modulus (GPa) = 55.89547 69.97727 62.93637
# Shear Modulus (GPa) = 29.98128 40.89867 35.43997
#
# Velocity S-wave (km/s) = 3.44556 4.02429 3.74612
# Velocity P-wave (km/s) = 6.16137 7.02158 6.60549
#
# Compressibility (1/GPa) = 0.01789054
#
# Stress axis : x y z
#
# Youngs Moduli (GPa) = 56.30556 57.43734 149.37613
#
# Poissons Ratio (x) = 0.48655 -0.13915
# Poissons Ratio (y) = 0.47697 0.66439
# Poissons Ratio (z) = -0.05245 0.25547
#
# Static dielectric constant tensor:
#      x y z
#    x 2.240460 0.072680 0.290350 
#    y 0.072680 2.260400 0.160920 
#    z 0.290350 0.160920 2.232700 
# 
# From -- ./inp_files/609249.got.cif
#   From: 2010.05.17/outbox.cif.g08.bks.cpg/sg2_305_cif.got.tgz:609249.got - 2010.06.03 11:33:40.
