data_PCOD9029782
_publ_section_title
;
Structure prediction by ZEFSAII (Michael W. Deem and Ramdas Pophale) SiO2 
 PCOD9029782
Probable space group: P -1
;
_chemical_formula_sum "Si O2"
_cell_formula_units_Z 14
_cell_length_a 16.817228
_cell_length_b 8.797191
_cell_length_c 13.294912
_cell_angle_alpha 121.181649
_cell_angle_beta 153.844559
_cell_angle_gamma 50.861871
_cell_volume 665.603237
_symmetry_space_group_name_H-M "P -1"
_symmetry_group_IT_number 2
_symmetry_cell_setting 'triclinic'
loop_
_space_group_symop_operation_xyz
x,y,z
-x,-y,-z
loop_
_atom_site_type_symbol
_atom_site_label
_atom_site_fract_x
_atom_site_fract_y
_atom_site_fract_z
Si Si1 0.838748 0.299661 0.569652
Si Si2 0.227472 0.361603 0.044304
Si Si3 0.960505 0.861056 0.631985
Si Si4 0.851396 0.199191 0.955494
Si Si5 0.570259 0.614949 0.534934
Si Si6 0.687620 0.299386 0.175156
Si Si7 0.487268 0.015596 0.870182
O O1 0.698583 0.466102 0.544062
O O2 0.734824 0.306331 0.348051
O O3 0.039406 0.324422 0.789314
O O4 0.899249 0.088721 0.615875
O O5 0.161863 0.593095 0.029747
O O6 0.293443 0.313651 0.219281
O O7 0.416983 0.206506 0.142460
O O8 0.744672 0.856688 0.382676
O O9 0.116498 0.736726 0.680013
O O10 0.076130 0.810217 0.851276
O O11 0.627728 0.222956 0.687319
O O12 0.000000 0.000000 0.000000
O O13 0.500000 0.500000 0.500000
O O14 0.500000 0.500000 0.000000
O O15 0.622460 0.122754 0.024864
O O16 0.500000 0.000000 0.000000
#
# Coordination Sequence:
#
# PCOD9029782 Si02
#       7
#     2   2   2   2   2   2   2
#     4  12  23  46  68  99 140 181 230 287 339 413
#     4  11  24  44  71 103 134 183 232 278 350 410
#     4  12  24  44  71 100 140 181 230 282 341 407
#     4  11  24  44  69 102 138 177 232 286 341 408
#     4  10  22  42  68  94 133 179 227 278 344 405
#     4  12  28  45  67 105 142 179 234 286 339 408
#     4  12  25  45  73  98 140 189 227 277 348 409
#
# _framework density 21.033552
#
# number of rings (size 3 to 8) (size 9 to 14) (size 15 to 20)
#    0.000    0.571    2.857    6.857    4.000    0.571 
#    0.000    1.429    0.000    0.000    0.000    0.000 
#    0.000    0.000    0.000    0.000    0.000    0.000 
#
# Total GULP energy -78289.134933 kJ/mol
# GULP energy per Si atom -5592.081067 kJ/mol
# Density = 2.098568 g / cm^3
# Si number density = 21.033552 Si / 1000 Ang^3
#
#
#
# Elastic Constant Matrix: (Units=GPa)
#
#
# Indices 1 2 3 4 5 6 
#
# 1 83.6968 26.6904 45.9176 -14.1969 -12.7093 -30.2592
# 2 26.6904 93.4174 51.6093 -14.0662 -0.5148 -33.4298
# 3 45.9176 51.6093 141.0114 -23.1984 -23.8938 6.5935
# 4 -14.1969 -14.0662 -23.1984 39.7884 -1.4548 10.7802
# 5 -12.7093 -0.5148 -23.8938 -1.4548 47.4413 -3.1694
# 6 -30.2592 -33.4298 6.5935 10.7802 -3.1694 39.3738
#
#
#
# Elastic Compliance Matrix: (Units=1/GPa)
#
#
# Indices 1 2 3 4 5 6 
#
# 1 0.032049 0.015662 -0.018720 -0.005441 0.002014 0.042715
# 2 0.015662 0.032921 -0.021038 -0.007427 -0.003245 0.045283
# 3 -0.018720 -0.021038 0.025541 0.011611 0.005353 -0.039273
# 4 -0.005441 -0.007427 0.011611 0.033226 0.003911 -0.021214
# 5 0.002014 -0.003245 0.005353 0.003911 0.024318 -0.001217
# 6 0.042715 0.045283 -0.039273 -0.021214 -0.001217 0.108958
#
#
# Mechanical properties :
#
#
# Convention : Reuss Voigt Hill
#
# Bulk Modulus (GPa) = 23.62950 62.95114 43.29032
# Shear Modulus (GPa) = 15.65879 38.24791 26.95335
#
# Velocity S-wave (km/s) = 2.73145 4.26892 3.58361
# Velocity P-wave (km/s) = 4.60504 7.36832 6.14404
#
# Compressibility (1/GPa) = 0.04231998
#
# Stress axis : x y z
#
# Youngs Moduli (GPa) = 31.20241 30.37573 39.15330
#
# Poissons Ratio (x) = -0.47576 0.73293
# Poissons Ratio (y) = -0.48871 0.82371
# Poissons Ratio (z) = 0.58410 0.63905
#
# Static dielectric constant tensor:
#      x y z
#    x 1.732610 0.004110 0.036180 
#    y 0.004110 1.754840 0.037130 
#    z 0.036180 0.037130 1.801830 
# 
# From -- ./inp_files/274321.got.cif
#   From: 2010.05.17/outbox.cif.g08.bks.cpg/sg2_138_cif.got.tgz:274321.got - 2010.06.03 11:33:40.
