data_PCOD9029741
_publ_section_title
;
Structure prediction by ZEFSAII (Michael W. Deem and Ramdas Pophale) SiO2 
 PCOD9029741
Probable space group: P -1
;
_chemical_formula_sum "Si O2"
_cell_formula_units_Z 14
_cell_length_a 20.708883
_cell_length_b 20.816754
_cell_length_c 8.058175
_cell_angle_alpha 42.689879
_cell_angle_beta 42.179130
_cell_angle_gamma 14.506995
_cell_volume 581.073565
_symmetry_space_group_name_H-M "P -1"
_symmetry_group_IT_number 2
_symmetry_cell_setting 'triclinic'
loop_
_space_group_symop_operation_xyz
x,y,z
-x,-y,-z
loop_
_atom_site_type_symbol
_atom_site_label
_atom_site_fract_x
_atom_site_fract_y
_atom_site_fract_z
Si Si1 0.028765 0.508109 0.240663
Si Si2 0.188450 0.892930 0.128909
Si Si3 0.679557 0.677271 0.510009
Si Si4 0.069937 0.782906 0.520965
Si Si5 0.468831 0.995013 0.879610
Si Si6 0.551788 0.260904 0.401022
Si Si7 0.264375 0.554184 0.930365
O O1 0.947891 0.488034 0.323892
O O2 0.000000 0.500000 0.500000
O O3 0.315267 0.272326 0.090472
O O4 0.816283 0.775861 0.069776
O O5 0.097535 0.868433 0.352618
O O6 0.437722 0.680043 0.180327
O O7 0.306193 0.811162 0.880034
O O8 0.943938 0.185877 0.075030
O O9 0.548315 0.744736 0.479216
O O10 0.506631 0.926707 0.417826
O O11 0.726502 0.555181 0.788919
O O12 0.294194 0.551939 0.398903
O O13 0.155214 0.647664 0.777110
O O14 0.776922 0.037183 0.531205
O O15 0.500000 0.000000 0.000000
#
# Coordination Sequence:
#
# PCOD9029741 Si02
#       7
#     2   2   2   2   2   2   2
#     4  10  22  42  68  92 122 155 204 244 302 369
#     4  11  22  40  65  83 124 169 207 253 309 357
#     4   9  25  40  63  87 132 162 196 241 324 359
#     4  12  23  39  59  96 118 161 219 257 291 358
#     4  10  22  42  68  92 122 155 202 241 306 366
#     4  11  23  39  60  88 127 161 204 257 307 354
#     4  11  23  40  62  88 124 165 204 255 309 353
#
# _framework density 24.093336999999998
#
# number of rings (size 3 to 8) (size 9 to 14) (size 15 to 20)
#    0.857    0.571    0.000    6.000    6.000    0.000 
#    5.143    0.000    0.000    0.000    0.000    0.000 
#    0.000    0.000    0.000    0.000    0.000    0.000 
#
# Total GULP energy -78265.336534 kJ/mol
# GULP energy per Si atom -5590.381181 kJ/mol
# Density = 2.403850 g / cm^3
# Si number density = 24.093337 Si / 1000 Ang^3
#
#
#
# Elastic Constant Matrix: (Units=GPa)
#
#
# Indices 1 2 3 4 5 6 
#
# 1 79.7906 26.8064 34.4074 -13.8160 -9.2360 -21.1457
# 2 26.8064 156.2929 12.6341 -11.8944 3.4136 -8.0317
# 3 34.4074 12.6341 62.6276 -14.1069 -1.3091 -3.0377
# 4 -13.8160 -11.8944 -14.1069 27.7324 0.0370 15.9514
# 5 -9.2360 3.4136 -1.3091 0.0370 43.1795 -4.4575
# 6 -21.1457 -8.0317 -3.0377 15.9514 -4.4575 33.7348
#
#
#
# Elastic Compliance Matrix: (Units=1/GPa)
#
#
# Indices 1 2 3 4 5 6 
#
# 1 0.022692 -0.002623 -0.012187 -0.005081 0.006321 0.015740
# 2 -0.002623 0.006969 0.000568 0.002787 -0.001243 -0.001416
# 3 -0.012187 0.000568 0.025034 0.013971 -0.003172 -0.012275
# 4 -0.005081 0.002787 0.013971 0.058879 -0.003993 -0.029632
# 5 0.006321 -0.001243 -0.003172 -0.003993 0.025407 0.008626
# 6 0.015740 -0.001416 -0.012275 -0.029632 0.008626 0.053218
#
#
# Mechanical properties :
#
#
# Convention : Reuss Voigt Hill
#
# Bulk Modulus (GPa) = 38.15074 49.60077 43.87576
# Shear Modulus (GPa) = 21.79422 35.92022 28.85722
#
# Velocity S-wave (km/s) = 3.01088 3.86538 3.46457
# Velocity P-wave (km/s) = 5.28735 6.36813 5.85275
#
# Compressibility (1/GPa) = 0.02621181
#
# Stress axis : x y z
#
# Youngs Moduli (GPa) = 44.06744 143.49945 39.94640
#
# Poissons Ratio (x) = 0.37637 0.48683
# Poissons Ratio (y) = 0.11558 -0.02270
# Poissons Ratio (z) = 0.53705 -0.08156
#
# Static dielectric constant tensor:
#      x y z
#    x 1.921750 -0.026360 0.038620 
#    y -0.026360 2.099520 -0.003660 
#    z 0.038620 -0.003660 1.928630 
# 
# From -- ./inp_files/355461.got.cif
#   From: 2010.05.17/outbox.cif.g08.bks.cpg/sg2_178_cif.got.tgz:355461.got - 2010.06.03 11:33:40.
