data_PCOD9029357
_publ_section_title
;
Structure prediction by ZEFSAII (Michael W. Deem and Ramdas Pophale) SiO2 
 PCOD9029357
Probable space group: P -1
;
_chemical_formula_sum "Si O2"
_cell_formula_units_Z 10
_cell_length_a 10.361868
_cell_length_b 8.129111
_cell_length_c 7.026892
_cell_angle_alpha 127.082218
_cell_angle_beta 98.285967
_cell_angle_gamma 56.701469
_cell_volume 378.848754
_symmetry_space_group_name_H-M "P -1"
_symmetry_group_IT_number 2
_symmetry_cell_setting 'triclinic'
loop_
_space_group_symop_operation_xyz
x,y,z
-x,-y,-z
loop_
_atom_site_type_symbol
_atom_site_label
_atom_site_fract_x
_atom_site_fract_y
_atom_site_fract_z
Si Si1 0.936175 0.209794 0.965154
Si Si2 0.264188 0.265090 0.495886
Si Si3 0.570459 0.658417 0.739278
Si Si4 0.645155 0.261859 0.739674
Si Si5 0.232188 0.156552 0.020076
O O1 0.833818 0.495014 0.223652
O O2 0.095162 0.170678 0.882855
O O3 0.817162 0.186628 0.796078
O O4 0.000000 0.000000 0.000000
O O5 0.387155 0.297874 0.429282
O O6 0.164223 0.270299 0.296130
O O7 0.345761 0.992396 0.419725
O O8 0.620752 0.384488 0.612802
O O9 0.683223 0.707634 0.927775
O O10 0.386602 0.872546 0.897069
O O11 0.500000 0.500000 0.000000
#
# Coordination Sequence:
#
# PCOD9029357 Si02
#       5
#     2   2   2   2   2
#     4  12  23  39  67  91 123 169 204 247 314 364
#     4  10  22  42  67  87 126 165 201 252 310 362
#     4   9  19  41  66  87 127 159 200 262 300 356
#     4  12  22  41  64  93 127 159 205 259 303 362
#     4   9  18  41  65  86 125 163 200 251 307 365
#
# _framework density 26.395757
#
# number of rings (size 3 to 8) (size 9 to 14) (size 15 to 20)
#    1.200    0.400    4.000    0.600    0.000    1.600 
#    0.000   12.000    0.000    0.000    0.000    0.000 
#    0.000    0.000    0.000    0.000    0.000    0.000 
#
# Total GULP energy -55950.569248 kJ/mol
# GULP energy per Si atom -5595.056925 kJ/mol
# Density = 2.633568 g / cm^3
# Si number density = 26.395757 Si / 1000 Ang^3
#
#
#
# Elastic Constant Matrix: (Units=GPa)
#
#
# Indices 1 2 3 4 5 6 
#
# 1 198.0095 63.1229 50.4988 16.1423 23.6903 -20.8756
# 2 63.1229 160.0635 59.8157 36.8877 11.9832 32.6523
# 3 50.4988 59.8157 112.7062 34.7285 4.1893 15.0610
# 4 16.1423 36.8877 34.7285 37.3057 2.0853 17.3697
# 5 23.6903 11.9832 4.1893 2.0853 42.4044 7.0409
# 6 -20.8756 32.6523 15.0610 17.3697 7.0409 44.9696
#
#
#
# Elastic Compliance Matrix: (Units=1/GPa)
#
#
# Indices 1 2 3 4 5 6 
#
# 1 0.008361 -0.003392 -0.002362 -0.001792 -0.004816 0.008581
# 2 -0.003392 0.010664 -0.001996 -0.003882 0.000469 -0.007223
# 3 -0.002362 -0.001996 0.014075 -0.009825 0.001099 -0.000738
# 4 -0.001792 -0.003882 -0.009825 0.046526 0.002965 -0.013158
# 5 -0.004816 0.000469 0.001099 0.002965 0.027274 -0.008360
# 6 0.008581 -0.007223 -0.000738 -0.013158 -0.008360 0.038103
#
#
# Mechanical properties :
#
#
# Convention : Reuss Voigt Hill
#
# Bulk Modulus (GPa) = 56.81348 90.85044 73.83196
# Shear Modulus (GPa) = 30.05363 44.75871 37.40617
#
# Velocity S-wave (km/s) = 3.37794 4.12233 3.76856
# Velocity P-wave (km/s) = 6.06502 7.55986 6.85332
#
# Compressibility (1/GPa) = 0.01760146
#
# Stress axis : x y z
#
# Youngs Moduli (GPa) = 119.60839 93.77412 71.04613
#
# Poissons Ratio (x) = 0.31804 0.16778
# Poissons Ratio (y) = 0.40566 0.14181
# Poissons Ratio (z) = 0.28247 0.18718
#
# Static dielectric constant tensor:
#      x y z
#    x 2.125930 -0.003000 0.013470 
#    y -0.003000 2.066180 -0.077550 
#    z 0.013470 -0.077550 2.100230 
# 
# From -- ./inp_files/236231.got.cif
#   From: 2010.05.17/outbox.cif.g08.bks.cpg/sg2_119_cif.got.tgz:236231.got - 2010.06.03 11:33:40.
