data_PCOD9029322
_publ_section_title
;
Structure prediction by ZEFSAII (Michael W. Deem and Ramdas Pophale) SiO2 
 PCOD9029322
Probable space group: P -1
;
_chemical_formula_sum "Si O2"
_cell_formula_units_Z 16
_cell_length_a 13.109001
_cell_length_b 15.591630
_cell_length_c 11.001943
_cell_angle_alpha 65.249956
_cell_angle_beta 81.655551
_cell_angle_gamma 25.695994
_cell_volume 715.234540
_symmetry_space_group_name_H-M "P -1"
_symmetry_group_IT_number 2
_symmetry_cell_setting 'triclinic'
loop_
_space_group_symop_operation_xyz
x,y,z
-x,-y,-z
loop_
_atom_site_type_symbol
_atom_site_label
_atom_site_fract_x
_atom_site_fract_y
_atom_site_fract_z
Si Si1 0.088533 0.316859 0.060873
Si Si2 0.045602 0.051960 0.776388
Si Si3 0.598144 0.631993 0.809127
Si Si4 0.169279 0.762920 0.559979
Si Si5 0.313862 0.297698 0.422965
Si Si6 0.710050 0.335257 0.892160
Si Si7 0.282347 0.292542 0.719949
Si Si8 0.950478 0.738092 0.635378
O O1 0.068237 0.278143 0.213485
O O2 0.409935 0.022919 0.123385
O O3 0.000000 0.500000 0.000000
O O4 0.847443 0.474423 0.927001
O O5 0.833159 0.221538 0.596007
O O6 0.924463 0.195999 0.837258
O O7 0.295360 0.906468 0.768138
O O8 0.151166 0.860330 0.926179
O O9 0.635781 0.637122 0.662631
O O10 0.612130 0.507794 0.884185
O O11 0.458765 0.509899 0.743274
O O12 0.014730 0.794231 0.586363
O O13 0.000000 0.000000 0.500000
O O14 0.294630 0.297957 0.569517
O O15 0.003718 0.522073 0.300709
O O16 0.620646 0.995726 0.492755
O O17 0.207170 0.458618 0.693049
#
# Coordination Sequence:
#
# PCOD9029322 Si02
#       8
#     2   2   2   2   2   2   2   2
#     4  11  27  45  68 105 141 183 234 295 364 427
#     4  11  25  45  69 102 143 188 234 301 353 423
#     4  12  24  43  71  94 139 181 231 289 352 424
#     4  12  24  45  73 104 148 189 236 297 362 423
#     4  10  22  42  67 102 133 179 232 289 350 418
#     4  11  26  45  68 104 138 188 240 290 357 427
#     4  10  24  44  70  98 139 180 233 292 349 430
#     4  11  23  44  69 100 138 186 234 288 354 429
#
# _framework density 22.370287000000001
#
# number of rings (size 3 to 8) (size 9 to 14) (size 15 to 20)
#    0.000    1.000    2.500    2.625    3.500    8.000 
#    2.250    0.000    0.000    0.000    0.000    0.000 
#    0.000    0.000    0.000    0.000    0.000    0.000 
#
# Total GULP energy -89168.605112 kJ/mol
# GULP energy per Si atom -5573.037819 kJ/mol
# Density = 2.231937 g / cm^3
# Si number density = 22.370287 Si / 1000 Ang^3
#
#
#
# Elastic Constant Matrix: (Units=GPa)
#
#
# Indices 1 2 3 4 5 6 
#
# 1 110.2955 49.8595 52.6398 -9.8255 -3.8437 -14.9431
# 2 49.8595 121.3498 32.0287 -15.6955 -3.0864 -12.3870
# 3 52.6398 32.0287 105.1282 -3.3927 -6.7301 -15.7093
# 4 -9.8255 -15.6955 -3.3927 36.5378 -5.6535 -3.8897
# 5 -3.8437 -3.0864 -6.7301 -5.6535 34.2264 0.3334
# 6 -14.9431 -12.3870 -15.7093 -3.8897 0.3334 31.8638
#
#
#
# Elastic Compliance Matrix: (Units=1/GPa)
#
#
# Indices 1 2 3 4 5 6 
#
# 1 0.013843 -0.003751 -0.005297 0.001976 0.000475 0.002659
# 2 -0.003751 0.010800 -0.000846 0.003976 0.001019 0.002497
# 3 -0.005297 -0.000846 0.013089 0.000106 0.001885 0.003633
# 4 0.001976 0.003976 0.000106 0.031166 0.005688 0.006270
# 5 0.000475 0.001019 0.001885 0.005688 0.030654 0.001922
# 6 0.002659 0.002497 0.003633 0.006270 0.001922 0.036138
#
#
# Mechanical properties :
#
#
# Convention : Reuss Voigt Hill
#
# Bulk Modulus (GPa) = 55.72540 67.31441 61.51990
# Shear Modulus (GPa) = 30.96776 34.00863 32.48819
#
# Velocity S-wave (km/s) = 3.72469 3.90328 3.81503
# Velocity P-wave (km/s) = 6.59259 7.10426 6.85320
#
# Compressibility (1/GPa) = 0.01794514
#
# Stress axis : x y z
#
# Youngs Moduli (GPa) = 72.23863 92.59356 76.39795
#
# Poissons Ratio (x) = 0.34727 0.40471
# Poissons Ratio (y) = 0.27093 0.06461
# Poissons Ratio (z) = 0.38267 0.07830
#
# Static dielectric constant tensor:
#      x y z
#    x 2.134800 0.577630 -0.111890 
#    y 0.577630 2.825840 -0.270550 
#    z -0.111890 -0.270550 1.997280 
# 
# From -- ./inp_files/433811.got.cif
#   From: 2010.05.17/outbox.cif.g08.bks.cpg/sg2_217_cif.got.tgz:433811.got - 2010.06.03 11:33:40.
