data_PCOD9029257
_publ_section_title
;
Structure prediction by ZEFSAII (Michael W. Deem and Ramdas Pophale) SiO2 
 PCOD9029257
Probable space group: P -1
;
_chemical_formula_sum "Si O2"
_cell_formula_units_Z 16
_cell_length_a 22.444998
_cell_length_b 9.429777
_cell_length_c 12.977546
_cell_angle_alpha 144.611520
_cell_angle_beta 25.889535
_cell_angle_gamma 137.886304
_cell_volume 694.163600
_symmetry_space_group_name_H-M "P -1"
_symmetry_group_IT_number 2
_symmetry_cell_setting 'triclinic'
loop_
_space_group_symop_operation_xyz
x,y,z
-x,-y,-z
loop_
_atom_site_type_symbol
_atom_site_label
_atom_site_fract_x
_atom_site_fract_y
_atom_site_fract_z
Si Si1 0.591979 0.286500 0.513588
Si Si2 0.689485 0.374990 0.634547
Si Si3 0.859980 0.618792 0.250509
Si Si4 0.920173 0.779133 0.697101
Si Si5 0.787446 0.139965 0.757964
Si Si6 0.027048 0.857014 0.976597
Si Si7 0.707485 0.946340 0.976848
Si Si8 0.329674 0.601481 0.096919
O O1 0.614240 0.263409 0.587297
O O2 0.727224 0.447552 0.365413
O O3 0.610458 0.044258 0.274933
O O4 0.456561 0.428219 0.781065
O O5 0.847905 0.319333 0.338931
O O6 0.646769 0.274779 0.754186
O O7 0.669337 0.667006 0.839227
O O8 0.831979 0.862049 0.503305
O O9 0.000000 0.500000 0.000000
O O10 0.893951 0.708181 0.135379
O O11 0.810458 0.561726 0.764356
O O12 0.069794 0.704465 0.383571
O O13 0.935703 0.951007 0.875470
O O14 0.853683 0.927729 0.795089
O O15 0.692673 0.224845 0.862311
O O16 0.718546 0.124638 0.967495
O O17 0.000000 0.000000 0.000000
#
# Coordination Sequence:
#
# PCOD9029257 Si02
#       8
#     2   2   2   2   2   2   2   2
#     4  12  24  45  69 100 136 180 233 271 333 404
#     4  11  22  46  68  99 135 180 229 273 330 409
#     4  11  21  42  69  96 134 173 227 277 328 401
#     4  10  22  42  66  98 133 173 225 277 331 407
#     4  11  22  43  67 102 132 173 228 278 345 391
#     4  11  22  41  71 105 135 173 220 284 344 388
#     4  11  23  41  73  98 129 179 225 283 328 401
#     4  11  27  42  66  99 140 180 222 281 338 396
#
# _framework density 23.049322
#
# number of rings (size 3 to 8) (size 9 to 14) (size 15 to 20)
#    0.000    1.000    3.750    3.375    0.000    7.000 
#    2.250    0.000    0.000    0.000    0.000    0.000 
#    0.000    0.000    0.000    0.000    0.000    0.000 
#
# Total GULP energy -89569.031598 kJ/mol
# GULP energy per Si atom -5598.064475 kJ/mol
# Density = 2.299686 g / cm^3
# Si number density = 23.049322 Si / 1000 Ang^3
#
#
#
# Elastic Constant Matrix: (Units=GPa)
#
#
# Indices 1 2 3 4 5 6 
#
# 1 167.1876 65.2515 58.9575 -7.9984 14.3258 -35.8464
# 2 65.2515 78.9155 9.0740 -5.9546 2.5831 -0.2170
# 3 58.9575 9.0740 107.8827 1.0075 13.2872 0.8813
# 4 -7.9984 -5.9546 1.0075 23.2666 1.5587 2.2018
# 5 14.3258 2.5831 13.2872 1.5587 37.5100 -2.8347
# 6 -35.8464 -0.2170 0.8813 2.2018 -2.8347 49.1105
#
#
#
# Elastic Compliance Matrix: (Units=1/GPa)
#
#
# Indices 1 2 3 4 5 6 
#
# 1 0.016330 -0.012382 -0.007773 0.001784 -0.001812 0.011819
# 2 -0.012382 0.022463 0.004847 0.002095 0.000692 -0.009080
# 3 -0.007773 0.004847 0.013483 -0.001279 -0.002540 -0.005983
# 4 0.001784 0.002095 -0.001279 0.044412 -0.002278 -0.000788
# 5 -0.001812 0.000692 -0.002540 -0.002278 0.028333 0.000464
# 6 0.011819 -0.009080 -0.005983 -0.000788 0.000464 0.029119
#
#
# Mechanical properties :
#
#
# Convention : Reuss Voigt Hill
#
# Bulk Modulus (GPa) = 46.16844 68.95020 57.55932
# Shear Modulus (GPa) = 26.04489 36.69093 31.36791
#
# Velocity S-wave (km/s) = 3.36514 3.99412 3.69305
# Velocity P-wave (km/s) = 5.93065 7.15890 6.57352
#
# Compressibility (1/GPa) = 0.02165982
#
# Stress axis : x y z
#
# Youngs Moduli (GPa) = 61.23840 44.51750 74.16675
#
# Poissons Ratio (x) = 0.55122 0.57648
# Poissons Ratio (y) = 0.75826 -0.35947
# Poissons Ratio (z) = 0.47599 -0.21576
#
# Static dielectric constant tensor:
#      x y z
#    x 1.873120 0.025680 0.019480 
#    y 0.025680 1.941770 -0.010330 
#    z 0.019480 -0.010330 1.861020 
# 
# From -- ./inp_files/470186.got.cif
#   From: 2010.05.17/outbox.cif.g08.bks.cpg/sg2_236_cif.got.tgz:470186.got - 2010.06.03 11:33:40.
