data_PCOD9029317
_publ_section_title
;
Structure prediction by ZEFSAII (Michael W. Deem and Ramdas Pophale) SiO2 
 PCOD9029317
Probable space group: P -1
;
_chemical_formula_sum "Si O2"
_cell_formula_units_Z 12
_cell_length_a 10.230429
_cell_length_b 5.378270
_cell_length_c 17.816695
_cell_angle_alpha 98.527585
_cell_angle_beta 35.501172
_cell_angle_gamma 95.207108
_cell_volume 562.224963
_symmetry_space_group_name_H-M "P -1"
_symmetry_group_IT_number 2
_symmetry_cell_setting 'triclinic'
loop_
_space_group_symop_operation_xyz
x,y,z
-x,-y,-z
loop_
_atom_site_type_symbol
_atom_site_label
_atom_site_fract_x
_atom_site_fract_y
_atom_site_fract_z
Si Si1 0.842697 0.864411 0.791391
Si Si2 0.331908 0.938265 0.509955
Si Si3 0.561567 0.614652 0.630079
Si Si4 0.557745 0.730807 0.038544
Si Si5 0.423053 0.417892 0.211448
Si Si6 0.853316 0.259081 0.075040
O O1 0.774157 0.647833 0.755765
O O2 0.642476 0.067773 0.876034
O O3 0.799217 0.797939 0.895572
O O4 0.082943 0.951454 0.661485
O O5 0.352454 0.147417 0.444510
O O6 0.500000 0.000000 0.500000
O O7 0.394542 0.651621 0.442762
O O8 0.668093 0.572476 0.661455
O O9 0.298231 0.676515 0.777126
O O10 0.531925 0.657693 0.133686
O O11 0.500000 0.500000 0.000000
O O12 0.651866 0.237566 0.105922
O O13 0.000000 0.500000 0.000000
O O14 0.000000 0.000000 0.000000
#
# Coordination Sequence:
#
# PCOD9029317 Si02
#       6
#     2   2   2   2   2   2
#     4  10  23  42  71  96 141 184 233 284 346 412
#     4  12  27  49  68  97 144 189 234 278 351 424
#     4  10  26  46  68 106 134 179 239 281 353 412
#     4   9  20  43  62 104 132 179 231 283 344 406
#     4   9  23  40  71 100 139 164 240 287 354 394
#     4  10  22  42  67 101 139 174 221 284 345 403
#
# _framework density 21.343769000000002
#
# number of rings (size 3 to 8) (size 9 to 14) (size 15 to 20)
#    1.000    1.000    0.000    1.500    9.333    2.667 
#   15.000    0.000    0.000    0.000    0.000    0.000 
#    0.000    0.000    0.000    0.000    0.000    0.000 
#
# Total GULP energy -66843.093048 kJ/mol
# GULP energy per Si atom -5570.257754 kJ/mol
# Density = 2.129519 g / cm^3
# Si number density = 21.343769 Si / 1000 Ang^3
#
#
#
# Elastic Constant Matrix: (Units=GPa)
#
#
# Indices 1 2 3 4 5 6 
#
# 1 69.1140 5.5476 38.0492 -22.9463 -4.6177 -1.1017
# 2 5.5476 107.3851 62.8097 -17.5907 -3.9560 -14.3328
# 3 38.0492 62.8097 183.4004 -40.4489 -9.3748 -5.7689
# 4 -22.9463 -17.5907 -40.4489 43.8751 -1.0543 4.0597
# 5 -4.6177 -3.9560 -9.3748 -1.0543 28.1840 -8.3696
# 6 -1.1017 -14.3328 -5.7689 4.0597 -8.3696 29.4520
#
#
#
# Elastic Compliance Matrix: (Units=1/GPa)
#
#
# Indices 1 2 3 4 5 6 
#
# 1 0.018682 0.002153 -0.002614 0.008207 0.003092 0.000982
# 2 0.002153 0.012806 -0.004062 0.002025 0.002655 0.005992
# 3 -0.002614 -0.004062 0.008567 0.004998 0.001874 -0.000553
# 4 0.008207 0.002025 0.004998 0.032702 0.004206 -0.001041
# 5 0.003092 0.002655 0.001874 0.004206 0.040952 0.012832
# 6 0.000982 0.005992 -0.000553 -0.001041 0.012832 0.040588
#
#
# Mechanical properties :
#
#
# Convention : Reuss Voigt Hill
#
# Bulk Modulus (GPa) = 32.24752 63.63471 47.94112
# Shear Modulus (GPa) = 28.78881 37.20175 32.99528
#
# Velocity S-wave (km/s) = 3.67661 4.17943 3.93606
# Velocity P-wave (km/s) = 5.75888 7.29171 6.57015
#
# Compressibility (1/GPa) = 0.03101014
#
# Stress axis : x y z
#
# Youngs Moduli (GPa) = 53.52618 78.08819 116.73142
#
# Poissons Ratio (x) = -0.16816 0.30518
# Poissons Ratio (y) = -0.11527 0.47412
# Poissons Ratio (z) = 0.13994 0.31716
#
# Static dielectric constant tensor:
#      x y z
#    x 1.911580 0.129500 0.031760 
#    y 0.129500 1.998330 -0.038090 
#    z 0.031760 -0.038090 1.781630 
# 
# From -- ./inp_files/564480.got.cif
#   From: 2010.05.17/outbox.cif.g08.bks.cpg/sg2_283_cif.got.tgz:564480.got - 2010.06.03 11:33:40.
