data_PCOD9029390
_publ_section_title
;
Structure prediction by ZEFSAII (Michael W. Deem and Ramdas Pophale) SiO2 
 PCOD9029390
Probable space group: P -1
;
_chemical_formula_sum "Si O2"
_cell_formula_units_Z 16
_cell_length_a 6.614748
_cell_length_b 12.481946
_cell_length_c 28.077926
_cell_angle_alpha 25.442014
_cell_angle_beta 42.851770
_cell_angle_gamma 46.234019
_cell_volume 673.818143
_symmetry_space_group_name_H-M "P -1"
_symmetry_group_IT_number 2
_symmetry_cell_setting 'triclinic'
loop_
_space_group_symop_operation_xyz
x,y,z
-x,-y,-z
loop_
_atom_site_type_symbol
_atom_site_label
_atom_site_fract_x
_atom_site_fract_y
_atom_site_fract_z
Si Si1 0.543459 0.019366 0.231928
Si Si2 0.060221 0.000700 0.597910
Si Si3 0.279291 0.649331 0.855901
Si Si4 0.512543 0.408497 0.263597
Si Si5 0.740030 0.464626 0.429712
Si Si6 0.883795 0.359959 0.355081
Si Si7 0.588226 0.742207 0.939942
Si Si8 0.728900 0.822283 0.125888
O O1 0.706019 0.747525 0.302124
O O2 0.201217 0.032390 0.304719
O O3 0.712569 0.098220 0.217900
O O4 0.552735 0.191208 0.113976
O O5 0.026185 0.863549 0.607672
O O6 0.353508 0.839806 0.631672
O O7 0.013030 0.296969 0.476673
O O8 0.392489 0.629870 0.791547
O O9 0.928012 0.624540 0.921536
O O10 0.506522 0.464685 0.923518
O O11 0.159399 0.422698 0.314997
O O12 0.631391 0.662481 0.161686
O O13 0.500000 0.500000 0.500000
O O14 0.654654 0.317226 0.454971
O O15 0.805240 0.600652 0.239315
O O16 0.538988 0.994382 0.878406
O O17 0.000000 0.000000 0.000000
#
# Coordination Sequence:
#
# PCOD9029390 Si02
#       8
#     2   2   2   2   2   2   2   2
#     4  11  21  43  65  92 133 167 216 268 326 383
#     4  10  22  42  67  92 130 172 217 267 331 386
#     4  11  24  40  65  97 129 175 214 267 321 396
#     4  11  24  42  66  99 134 168 225 264 324 395
#     4  10  23  42  69  97 125 176 223 272 331 385
#     4  11  22  43  68  95 133 176 216 273 326 387
#     4  11  24  40  64  95 130 171 218 263 328 388
#     4  11  26  42  67  97 135 177 214 268 326 390
#
# _framework density 23.745282
#
# number of rings (size 3 to 8) (size 9 to 14) (size 15 to 20)
#    0.000    1.250    3.750    1.500    3.500    4.500 
#    0.000    1.875    0.000    0.000    0.000    0.000 
#    0.000    0.000    0.000    0.000    0.000    0.000 
#
# Total GULP energy -89143.304882 kJ/mol
# GULP energy per Si atom -5571.456555 kJ/mol
# Density = 2.369124 g / cm^3
# Si number density = 23.745282 Si / 1000 Ang^3
#
#
#
# Elastic Constant Matrix: (Units=GPa)
#
#
# Indices 1 2 3 4 5 6 
#
# 1 92.5044 36.8029 30.9365 3.4179 13.6205 25.0307
# 2 36.8029 127.2474 36.0936 -14.2415 23.4143 16.3003
# 3 30.9365 36.0936 67.3097 -7.9515 28.1791 8.2808
# 4 3.4179 -14.2415 -7.9515 36.2099 6.3752 11.0680
# 5 13.6205 23.4143 28.1791 6.3752 30.5542 6.8190
# 6 25.0307 16.3003 8.2808 11.0680 6.8190 47.6309
#
#
#
# Elastic Compliance Matrix: (Units=1/GPa)
#
#
# Indices 1 2 3 4 5 6 
#
# 1 0.015259 -0.002710 -0.006460 -0.002701 0.003086 -0.005782
# 2 -0.002710 0.011349 -0.000317 0.006936 -0.008003 -0.002870
# 3 -0.006460 -0.000317 0.031456 0.012640 -0.028337 -0.000846
# 4 -0.002701 0.006936 0.012640 0.040106 -0.022059 -0.009313
# 5 0.003086 -0.008003 -0.028337 -0.022059 0.067900 0.001449
# 6 -0.005782 -0.002870 -0.000846 -0.009313 0.001449 0.027120
#
#
# Mechanical properties :
#
#
# Convention : Reuss Voigt Hill
#
# Bulk Modulus (GPa) = 25.58167 54.96971 40.27569
# Shear Modulus (GPa) = 22.20304 35.09424 28.64864
#
# Velocity S-wave (km/s) = 3.06118 3.84858 3.47724
# Velocity P-wave (km/s) = 4.82609 6.55353 5.75499
#
# Compressibility (1/GPa) = 0.03909048
#
# Stress axis : x y z
#
# Youngs Moduli (GPa) = 65.53521 88.11188 31.79010
#
# Poissons Ratio (x) = 0.23882 0.20535
# Poissons Ratio (y) = 0.17763 0.01008
# Poissons Ratio (z) = 0.42333 0.02793
#
# Static dielectric constant tensor:
#      x y z
#    x 1.937210 0.005600 -0.017220 
#    y 0.005600 2.174430 0.183860 
#    z -0.017220 0.183860 2.112830 
# 
# From -- ./inp_files/117047.got.cif
#   From: 2010.05.17/outbox.cif.g08.bks.cpg/sg2_59_cif.got.tgz:117047.got - 2010.06.03 11:33:40.
