data_PCOD9029754
_publ_section_title
;
Structure prediction by ZEFSAII (Michael W. Deem and Ramdas Pophale) SiO2 
 PCOD9029754
Probable space group: P -1
;
_chemical_formula_sum "Si O2"
_cell_formula_units_Z 14
_cell_length_a 6.312686
_cell_length_b 14.558668
_cell_length_c 15.006081
_cell_angle_alpha 27.566877
_cell_angle_beta 106.290761
_cell_angle_gamma 95.331143
_cell_volume 573.717169
_symmetry_space_group_name_H-M "P -1"
_symmetry_group_IT_number 2
_symmetry_cell_setting 'triclinic'
loop_
_space_group_symop_operation_xyz
x,y,z
-x,-y,-z
loop_
_atom_site_type_symbol
_atom_site_label
_atom_site_fract_x
_atom_site_fract_y
_atom_site_fract_z
Si Si1 0.837583 0.964750 0.387872
Si Si2 0.112441 0.166630 0.150985
Si Si3 0.491914 0.786569 0.728070
Si Si4 0.579410 0.926067 0.898492
Si Si5 0.426552 0.476742 0.656193
Si Si6 0.321342 0.414078 0.252406
Si Si7 0.236689 0.795946 0.214563
O O1 0.817700 0.749704 0.609692
O O2 0.742165 0.141446 0.302249
O O3 0.653751 0.020182 0.235479
O O4 0.077912 0.977887 0.367055
O O5 0.292835 0.262920 0.134896
O O6 0.211249 0.091410 0.130528
O O7 0.863230 0.351693 0.962396
O O8 0.550225 0.620404 0.798335
O O9 0.500000 0.000000 0.500000
O O10 0.567669 0.106136 0.813224
O O11 0.642143 0.701580 0.147577
O O12 0.498535 0.613320 0.621922
O O13 0.235931 0.630682 0.434428
O O14 0.657416 0.344091 0.739250
O O15 0.000000 0.000000 0.000000
#
# Coordination Sequence:
#
# PCOD9029754 Si02
#       7
#     2   2   2   2   2   2   2
#     4  10  22  42  68  92 138 177 216 277 328 392
#     4  11  23  41  66 100 130 178 231 259 334 406
#     4   9  22  41  62  96 137 175 221 272 332 388
#     4  11  23  45  66  99 138 173 216 282 334 399
#     4  11  24  45  70 101 137 175 225 282 340 404
#     4  11  21  42  65  98 130 175 228 274 330 396
#     4  11  25  45  73 101 133 175 224 280 349 409
#
# _framework density 24.402267999999999
#
# number of rings (size 3 to 8) (size 9 to 14) (size 15 to 20)
#    0.000    1.429    2.857    1.714    0.000    4.571 
#    2.571    0.000    0.000    0.000    0.000    0.000 
#    0.000    0.000    0.000    0.000    0.000    0.000 
#
# Total GULP energy -78357.456566 kJ/mol
# GULP energy per Si atom -5596.961183 kJ/mol
# Density = 2.434673 g / cm^3
# Si number density = 24.402268 Si / 1000 Ang^3
#
#
#
# Elastic Constant Matrix: (Units=GPa)
#
#
# Indices 1 2 3 4 5 6 
#
# 1 58.9959 18.4589 3.5928 -0.1022 -15.1139 -6.3376
# 2 18.4589 130.4816 -5.5787 -1.2016 -1.0170 -0.2409
# 3 3.5928 -5.5787 94.9232 -5.6395 -3.8929 -0.0963
# 4 -0.1022 -1.2016 -5.6395 32.6289 0.3894 -3.1287
# 5 -15.1139 -1.0170 -3.8929 0.3894 52.2868 3.0739
# 6 -6.3376 -0.2409 -0.0963 -3.1287 3.0739 22.6821
#
#
#
# Elastic Compliance Matrix: (Units=1/GPa)
#
#
# Indices 1 2 3 4 5 6 
#
# 1 0.019735 -0.002768 -0.000672 0.000240 0.005317 0.004794
# 2 -0.002768 0.008078 0.000576 0.000341 -0.000570 -0.000561
# 3 -0.000672 0.000576 0.010730 0.001870 0.000599 0.000041
# 4 0.000240 0.000341 0.001870 0.031414 -0.000280 0.004450
# 5 0.005317 -0.000570 0.000599 -0.000280 0.020779 -0.001372
# 6 0.004794 -0.000561 0.000041 0.004450 -0.001372 0.046221
#
#
# Mechanical properties :
#
#
# Convention : Reuss Voigt Hill
#
# Bulk Modulus (GPa) = 30.47555 35.26077 32.86816
# Shear Modulus (GPa) = 32.54699 39.38138 35.96419
#
# Velocity S-wave (km/s) = 3.65604 4.02162 3.84318
# Velocity P-wave (km/s) = 5.50801 6.00381 5.76124
#
# Compressibility (1/GPa) = 0.03281319
#
# Stress axis : x y z
#
# Youngs Moduli (GPa) = 50.67139 123.79605 93.19783
#
# Poissons Ratio (x) = 0.34268 0.06267
# Poissons Ratio (y) = 0.14026 -0.05367
# Poissons Ratio (z) = 0.03408 -0.07129
#
# Static dielectric constant tensor:
#      x y z
#    x 1.933270 0.029350 -0.005740 
#    y 0.029350 1.931780 0.020480 
#    z -0.005740 0.020480 1.966600 
# 
# From -- ./inp_files/484111.got.cif
#   From: 2010.05.17/outbox.cif.g08.bks.cpg/sg2_243_cif.got.tgz:484111.got - 2010.06.03 11:33:40.
