data_PCOD9029352
_publ_section_title
;
Structure prediction by ZEFSAII (Michael W. Deem and Ramdas Pophale) SiO2 
 PCOD9029352
Probable space group: P -1
;
_chemical_formula_sum "Si O2"
_cell_formula_units_Z 12
_cell_length_a 10.154618
_cell_length_b 10.983545
_cell_length_c 5.244342
_cell_angle_alpha 80.721998
_cell_angle_beta 62.858701
_cell_angle_gamma 86.511293
_cell_volume 513.648680
_symmetry_space_group_name_H-M "P -1"
_symmetry_group_IT_number 2
_symmetry_cell_setting 'triclinic'
loop_
_space_group_symop_operation_xyz
x,y,z
-x,-y,-z
loop_
_atom_site_type_symbol
_atom_site_label
_atom_site_fract_x
_atom_site_fract_y
_atom_site_fract_z
Si Si1 0.118961 0.050184 0.676481
Si Si2 0.960612 0.582556 0.755822
Si Si3 0.859938 0.173600 0.565213
Si Si4 0.637627 0.312776 0.014358
Si Si5 0.332755 0.531173 0.577860
Si Si6 0.284904 0.298263 0.412262
O O1 0.226119 0.165235 0.605776
O O2 0.010492 0.114176 0.549623
O O3 0.201465 0.929991 0.538224
O O4 0.000000 0.000000 0.000000
O O5 0.000000 0.500000 0.500000
O O6 0.077024 0.696786 0.637510
O O7 0.704308 0.384939 0.174331
O O8 0.000000 0.500000 0.000000
O O9 0.740441 0.198952 0.882842
O O10 0.656567 0.399032 0.722670
O O11 0.806751 0.647166 0.769196
O O12 0.461645 0.289682 0.209611
O O13 0.500000 0.500000 0.500000
O O14 0.259134 0.399494 0.621708
#
# Coordination Sequence:
#
# PCOD9029352 Si02
#       6
#     2   2   2   2   2   2
#     4  10  24  49  69  93 141 193 240 292 339 426
#     4  11  26  42  69 105 141 184 233 285 353 424
#     4  10  25  45  66 101 140 181 239 299 347 413
#     4  11  24  43  72 108 141 178 232 302 357 419
#     4  10  22  42  67 106 147 176 222 290 362 422
#     4  10  23  45  72 106 141 193 234 287 361 420
#
# _framework density 23.362271
#
# number of rings (size 3 to 8) (size 9 to 14) (size 15 to 20)
#    0.000    1.667    0.000    3.000    7.000    8.667 
#   18.000    1.667    0.000    0.000    0.000    0.000 
#    0.000    0.000    0.000    0.000    0.000    0.000 
#
# Total GULP energy -66913.709775 kJ/mol
# GULP energy per Si atom -5576.142481 kJ/mol
# Density = 2.330910 g / cm^3
# Si number density = 23.362271 Si / 1000 Ang^3
#
#
#
# Elastic Constant Matrix: (Units=GPa)
#
#
# Indices 1 2 3 4 5 6 
#
# 1 128.8641 54.4440 44.9334 2.2331 0.2416 14.5979
# 2 54.4440 204.2802 110.7575 4.4642 -8.4558 36.1609
# 3 44.9334 110.7575 133.2351 4.9667 17.1137 20.6415
# 4 2.2331 4.4642 4.9667 55.6657 -7.6550 -4.3737
# 5 0.2416 -8.4558 17.1137 -7.6550 49.7901 2.8911
# 6 14.5979 36.1609 20.6415 -4.3737 2.8911 31.7475
#
#
#
# Elastic Compliance Matrix: (Units=1/GPa)
#
#
# Indices 1 2 3 4 5 6 
#
# 1 0.009090 -0.000957 -0.002055 -0.000169 0.000580 -0.001830
# 2 -0.000957 0.011388 -0.008695 0.000060 0.005364 -0.007358
# 3 -0.002055 -0.008695 0.016330 -0.001638 -0.007371 0.000677
# 4 -0.000169 0.000060 -0.001638 0.018827 0.003273 0.003369
# 5 0.000580 0.005364 -0.007371 0.003273 0.024223 -0.003339
# 6 -0.001830 -0.007358 0.000677 0.003369 -0.003339 0.041048
#
#
# Mechanical properties :
#
#
# Convention : Reuss Voigt Hill
#
# Bulk Modulus (GPa) = 74.66329 98.51660 86.58995
# Shear Modulus (GPa) = 33.60573 44.52363 39.06468
#
# Velocity S-wave (km/s) = 3.79682 4.37027 4.09360
# Velocity P-wave (km/s) = 7.15887 8.22960 7.71284
#
# Compressibility (1/GPa) = 0.01339346
#
# Stress axis : x y z
#
# Youngs Moduli (GPa) = 110.01071 87.81332 61.23838
#
# Poissons Ratio (x) = 0.08403 0.12583
# Poissons Ratio (y) = 0.10528 0.53248
# Poissons Ratio (z) = 0.22605 0.76356
#
# Static dielectric constant tensor:
#      x y z
#    x 3.672880 -1.624150 -0.635620 
#    y -1.624150 3.555170 0.588440 
#    z -0.635620 0.588440 2.200030 
# 
# From -- ./inp_files/69531.got.cif
#   From: 2010.05.17/outbox.cif.g08.bks.cpg/sg2_35_cif.got.tgz:69531.got - 2010.06.03 11:33:40.
