data_PCOD9029690
_publ_section_title
;
Structure prediction by ZEFSAII (Michael W. Deem and Ramdas Pophale) SiO2 
 PCOD9029690
Probable space group: P -1
;
_chemical_formula_sum "Si O2"
_cell_formula_units_Z 16
_cell_length_a 14.112797
_cell_length_b 10.972267
_cell_length_c 13.971286
_cell_angle_alpha 52.999738
_cell_angle_beta 53.315330
_cell_angle_gamma 20.002691
_cell_volume 586.975815
_symmetry_space_group_name_H-M "P -1"
_symmetry_group_IT_number 2
_symmetry_cell_setting 'triclinic'
loop_
_space_group_symop_operation_xyz
x,y,z
-x,-y,-z
loop_
_atom_site_type_symbol
_atom_site_label
_atom_site_fract_x
_atom_site_fract_y
_atom_site_fract_z
Si Si1 0.920102 0.657801 0.575214
Si Si2 0.481664 0.725185 0.665162
Si Si3 0.123279 0.714533 0.184201
Si Si4 0.377720 0.227866 0.085622
Si Si5 0.649017 0.303736 0.402662
Si Si6 0.991451 0.396395 0.171894
Si Si7 0.915659 0.249027 0.140796
Si Si8 0.653259 0.739221 0.380103
O O1 0.000000 0.500000 0.500000
O O2 0.639175 0.908566 0.662528
O O3 0.177848 0.320930 0.647388
O O4 0.847739 0.922455 0.483086
O O5 0.563824 0.492191 0.651057
O O6 0.551355 0.774513 0.521260
O O7 0.174235 0.020017 0.739985
O O8 0.665560 0.548166 0.729330
O O9 0.252072 0.489269 0.118876
O O10 0.071747 0.957721 0.107491
O O11 0.195723 0.286764 0.142579
O O12 0.326514 0.383161 0.945247
O O13 0.302175 0.184483 0.884941
O O14 0.500000 0.500000 0.500000
O O15 0.804560 0.264634 0.282373
O O16 0.081373 0.184103 0.130234
O O17 0.882274 0.418809 0.316739
#
# Coordination Sequence:
#
# PCOD9029690 Si02
#       8
#     2   2   2   2   2   2   2   2
#     4  11  24  41  66 101 141 182 224 276 348 425
#     4  10  22  42  68 104 142 180 225 290 358 422
#     4  11  25  45  73 104 140 184 239 296 358 429
#     4  12  28  50  71 102 141 192 247 298 352 418
#     4  10  23  45  73 109 146 184 233 290 357 433
#     4  12  28  47  72 103 143 190 244 297 354 423
#     4  11  25  48  75 104 142 190 238 299 358 418
#     4  11  23  40  66  99 137 180 225 280 350 418
#
# _framework density 27.258361000000001
#
# number of rings (size 3 to 8) (size 9 to 14) (size 15 to 20)
#    0.000    1.000    0.000    6.750    0.000   16.000 
#    0.000   10.625    0.000    0.000    0.000    0.000 
#    0.000    0.000    0.000    0.000    0.000    0.000 
#
# Total GULP energy -89373.146023 kJ/mol
# GULP energy per Si atom -5585.821626 kJ/mol
# Density = 2.719632 g / cm^3
# Si number density = 27.258361 Si / 1000 Ang^3
#
#
#
# Elastic Constant Matrix: (Units=GPa)
#
#
# Indices 1 2 3 4 5 6 
#
# 1 259.3751 83.6369 52.2192 11.3161 15.4654 -1.0734
# 2 83.6369 114.6518 44.1326 2.5121 -0.5011 9.8194
# 3 52.2192 44.1326 100.2295 -7.4688 10.8364 2.9876
# 4 11.3161 2.5121 -7.4688 40.6857 -0.6597 15.6406
# 5 15.4654 -0.5011 10.8364 -0.6597 42.7618 2.1630
# 6 -1.0734 9.8194 2.9876 15.6406 2.1630 66.5857
#
#
#
# Elastic Compliance Matrix: (Units=1/GPa)
#
#
# Indices 1 2 3 4 5 6 
#
# 1 0.005459 -0.003560 -0.001270 -0.002023 -0.001786 0.001203
# 2 -0.003560 0.013072 -0.004107 0.000215 0.002582 -0.001935
# 3 -0.001270 -0.004107 0.013008 0.003203 -0.002802 -0.000660
# 4 -0.002023 0.000215 0.003203 0.028379 0.000709 -0.006897
# 5 -0.001786 0.002582 -0.002802 0.000709 0.024846 -0.001258
# 6 0.001203 -0.001935 -0.000660 -0.006897 -0.001258 0.017014
#
#
# Mechanical properties :
#
#
# Convention : Reuss Voigt Hill
#
# Bulk Modulus (GPa) = 73.17390 92.69264 82.93327
# Shear Modulus (GPa) = 40.25565 49.62450 44.94007
#
# Velocity S-wave (km/s) = 3.84711 4.27139 4.06479
# Velocity P-wave (km/s) = 6.82909 7.64234 7.24713
#
# Compressibility (1/GPa) = 0.01366608
#
# Stress axis : x y z
#
# Youngs Moduli (GPa) = 183.19360 76.50005 76.87347
#
# Poissons Ratio (x) = 0.27232 0.09764
# Poissons Ratio (y) = 0.65211 0.31569
# Poissons Ratio (z) = 0.23267 0.31416
#
# Static dielectric constant tensor:
#      x y z
#    x 2.252760 -0.039380 0.040400 
#    y -0.039380 2.339970 -0.038580 
#    z 0.040400 -0.038580 2.217620 
# 
# From -- ./inp_files/538219.got.cif
#   From: 2010.05.17/outbox.cif.g08.bks.cpg/sg2_270_cif.got.tgz:538219.got - 2010.06.03 11:33:40.
