data_PCOD9029199
_publ_section_title
;
Structure prediction by ZEFSAII (Michael W. Deem and Ramdas Pophale) SiO2 
 PCOD9029199
Probable space group: P -1
;
_chemical_formula_sum "Si O2"
_cell_formula_units_Z 16
_cell_length_a 22.171525
_cell_length_b 5.260533
_cell_length_c 8.122415
_cell_angle_alpha 62.362022
_cell_angle_beta 112.607843
_cell_angle_gamma 84.204036
_cell_volume 728.176971
_symmetry_space_group_name_H-M "P -1"
_symmetry_group_IT_number 2
_symmetry_cell_setting 'triclinic'
loop_
_space_group_symop_operation_xyz
x,y,z
-x,-y,-z
loop_
_atom_site_type_symbol
_atom_site_label
_atom_site_fract_x
_atom_site_fract_y
_atom_site_fract_z
Si Si1 0.249514 0.456675 0.847698
Si Si2 0.088531 0.117283 0.081538
Si Si3 0.911469 0.382877 0.315944
Si Si4 0.547612 0.678582 0.571418
Si Si5 0.330944 0.830647 0.971052
Si Si6 0.330943 0.176522 0.521779
Si Si7 0.249514 0.794783 0.400843
Si Si8 0.010556 0.984166 0.765834
O O1 0.170467 0.486741 0.785865
O O2 0.250592 0.624111 0.625889
O O3 0.276558 0.652577 0.944405
O O4 0.300322 0.108144 0.984098
O O5 0.067145 0.399283 0.850718
O O6 0.046763 0.167906 0.192368
O O7 0.061828 0.897747 0.003530
O O8 0.170467 0.001856 0.225537
O O9 0.938172 0.083231 0.318045
O O10 0.953237 0.308196 0.552077
O O11 0.500000 0.500000 0.500000
O O12 0.598446 0.432188 0.823508
O O13 0.598446 0.772473 0.471831
O O14 0.500000 0.000000 0.500000
O O15 0.338940 0.991590 0.758409
O O16 0.276558 0.517749 0.385269
O O17 0.300322 0.990889 0.416868
#
# Coordination Sequence:
#
# PCOD9029199 Si02
#       8
#     2   2   2   2   2   2   2   2
#     4  10  22  42  66  96 128 174 224 274 323 388
#     4  11  23  39  62  87 124 175 221 281 342 388
#     4  11  23  39  62  87 124 175 221 281 342 388
#     4  12  26  43  70 106 134 170 210 258 312 396
#     4  10  24  44  67  97 136 170 214 266 319 384
#     4  10  24  44  67  97 136 170 214 266 319 384
#     4  10  22  42  66  96 128 174 224 274 323 388
#     4  10  24  43  54  90 128 166 232 276 344 406
#
# _framework density 21.972678999999999
#
# number of rings (size 3 to 8) (size 9 to 14) (size 15 to 20)
#    0.000    1.500    1.250    2.250    7.000    1.000 
#    0.000    0.000    0.000    0.000    0.000    0.000 
#    0.000    0.000    0.000    0.000    0.000    0.000 
#
# Total GULP energy -89227.368352 kJ/mol
# GULP energy per Si atom -5576.710522 kJ/mol
# Density = 2.192267 g / cm^3
# Si number density = 21.972679 Si / 1000 Ang^3
#
#
#
# Elastic Constant Matrix: (Units=GPa)
#
#
# Indices 1 2 3 4 5 6 
#
# 1 132.7427 44.7139 43.5299 -9.9886 3.2761 5.4288
# 2 44.7139 94.4383 41.1341 -16.4597 -0.3309 8.2964
# 3 43.5299 41.1341 116.3355 -14.2761 6.1818 6.1336
# 4 -9.9886 -16.4597 -14.2761 29.7642 -0.0681 1.6750
# 5 3.2761 -0.3309 6.1818 -0.0681 38.2259 -1.9108
# 6 5.4288 8.2964 6.1336 1.6750 -1.9108 32.7018
#
#
#
# Elastic Compliance Matrix: (Units=1/GPa)
#
#
# Indices 1 2 3 4 5 6 
#
# 1 0.009474 -0.003438 -0.002261 0.000210 -0.000492 -0.000316
# 2 -0.003438 0.014836 -0.003152 0.005701 0.000801 -0.002847
# 3 -0.002261 -0.003152 0.011057 0.002862 -0.001674 -0.001143
# 4 0.000210 0.005701 0.002862 0.038418 -0.000564 -0.004019
# 5 -0.000492 0.000801 -0.001674 -0.000564 0.026568 0.001774
# 6 -0.000316 -0.002847 -0.001143 -0.004019 0.001774 0.031878
#
#
# Mechanical properties :
#
#
# Convention : Reuss Voigt Hill
#
# Bulk Modulus (GPa) = 56.61000 66.91914 61.76457
# Shear Modulus (GPa) = 32.08816 34.41429 33.25122
#
# Velocity S-wave (km/s) = 3.82562 3.96186 3.89433
# Velocity P-wave (km/s) = 6.73302 7.17288 6.95643
#
# Compressibility (1/GPa) = 0.01766472
#
# Stress axis : x y z
#
# Youngs Moduli (GPa) = 105.55541 67.40198 90.44338
#
# Poissons Ratio (x) = 0.23174 0.20445
# Poissons Ratio (y) = 0.36292 0.28510
# Poissons Ratio (z) = 0.23861 0.21247
#
# Static dielectric constant tensor:
#      x y z
#    x 1.777890 0.032990 -0.041730 
#    y 0.032990 2.358280 0.077610 
#    z -0.041730 0.077610 1.829590 
# 
# From -- ./inp_files/340153.got.cif
#   From: 2010.05.17/outbox.cif.g08.bks.cpg/sg2_171_cif.got.tgz:340153.got - 2010.06.03 11:33:40.
