data_PCOD9029277
_publ_section_title
;
Structure prediction by ZEFSAII (Michael W. Deem and Ramdas Pophale) SiO2 
 PCOD9029277
Probable space group: P -1
;
_chemical_formula_sum "Si O2"
_cell_formula_units_Z 16
_cell_length_a 8.117602
_cell_length_b 8.801398
_cell_length_c 15.213628
_cell_angle_alpha 66.939081
_cell_angle_beta 103.579020
_cell_angle_gamma 142.326333
_cell_volume 605.724379
_symmetry_space_group_name_H-M "P -1"
_symmetry_group_IT_number 2
_symmetry_cell_setting 'triclinic'
loop_
_space_group_symop_operation_xyz
x,y,z
-x,-y,-z
loop_
_atom_site_type_symbol
_atom_site_label
_atom_site_fract_x
_atom_site_fract_y
_atom_site_fract_z
Si Si1 0.443888 0.926511 0.154549
Si Si2 0.635696 0.505735 0.369470
Si Si3 0.272178 0.327074 0.113170
Si Si4 0.735252 0.947603 0.028726
Si Si5 0.237246 0.053683 0.544076
Si Si6 0.146046 0.778830 0.430917
Si Si7 0.456826 0.789963 0.744111
Si Si8 0.159861 0.384603 0.270806
O O1 0.606969 0.949543 0.095488
O O2 0.634832 0.174755 0.189734
O O3 0.241549 0.637084 0.237112
O O4 0.263567 0.923505 0.080467
O O5 0.946100 0.773252 0.371988
O O6 0.425875 0.485001 0.317274
O O7 0.517945 0.355369 0.483878
O O8 0.664004 0.397952 0.315006
O O9 0.524643 0.639432 0.050352
O O10 0.142221 0.321424 0.181857
O O11 0.384383 0.239786 0.182705
O O12 0.033049 0.123438 0.058865
O O13 0.252612 0.923397 0.503134
O O14 0.113821 0.881743 0.654722
O O15 0.000000 0.000000 0.500000
O O16 0.000000 0.500000 0.500000
O O17 0.362166 0.935808 0.345878
#
# Coordination Sequence:
#
# PCOD9029277 Si02
#       8
#     2   2   2   2   2   2   2   2
#     4  10  22  42  66  99 129 168 220 279 331 395
#     4   9  21  41  61  86 129 176 212 268 330 389
#     4  10  23  45  69  97 135 179 217 272 332 407
#     4  10  24  46  70  96 139 173 216 277 346 389
#     4   9  19  38  58  90 121 164 217 263 316 391
#     4  11  23  40  60  87 134 167 212 273 331 383
#     4  10  23  41  64  97 127 173 226 266 331 396
#     4   9  19  39  64  94 125 170 224 265 326 395
#
# _framework density 26.414652
#
# number of rings (size 3 to 8) (size 9 to 14) (size 15 to 20)
#    0.000    2.250    0.000    1.500    5.250    9.500 
#   15.750    0.000    0.000    0.000    0.000    0.000 
#    0.000    0.000    0.000    0.000    0.000    0.000 
#
# Total GULP energy -89428.328253 kJ/mol
# GULP energy per Si atom -5589.270516 kJ/mol
# Density = 2.635453 g / cm^3
# Si number density = 26.414652 Si / 1000 Ang^3
#
#
#
# Elastic Constant Matrix: (Units=GPa)
#
#
# Indices 1 2 3 4 5 6 
#
# 1 93.5708 38.9236 40.5175 9.1015 4.5824 -2.0869
# 2 38.9236 109.7683 47.2994 19.0862 7.9261 -22.7111
# 3 40.5175 47.2994 105.2534 -3.7664 14.3670 -4.5046
# 4 9.1015 19.0862 -3.7664 36.8285 -6.6844 0.4287
# 5 4.5824 7.9261 14.3670 -6.6844 56.2829 12.7629
# 6 -2.0869 -22.7111 -4.5046 0.4287 12.7629 52.0637
#
#
#
# Elastic Compliance Matrix: (Units=1/GPa)
#
#
# Indices 1 2 3 4 5 6 
#
# 1 0.013928 -0.003023 -0.004184 -0.002223 0.000366 -0.001194
# 2 -0.003023 0.015757 -0.005482 -0.008647 -0.003219 0.007138
# 3 -0.004184 -0.005482 0.013933 0.005017 -0.001622 -0.000997
# 4 -0.002223 -0.008647 0.005017 0.033708 0.005253 -0.004992
# 5 0.000366 -0.003219 -0.001622 0.005253 0.020738 -0.006657
# 6 -0.001194 0.007138 -0.000997 -0.004992 -0.006657 0.023860
#
#
# Mechanical properties :
#
#
# Convention : Reuss Voigt Hill
#
# Bulk Modulus (GPa) = 54.82146 62.45261 58.63704
# Shear Modulus (GPa) = 32.59835 41.15848 36.87841
#
# Velocity S-wave (km/s) = 3.51679 3.95165 3.74054
# Velocity P-wave (km/s) = 6.10652 6.67197 6.39550
#
# Compressibility (1/GPa) = 0.01824103
#
# Stress axis : x y z
#
# Youngs Moduli (GPa) = 71.79858 63.46360 71.77144
#
# Poissons Ratio (x) = 0.19185 0.30027
# Poissons Ratio (y) = 0.21705 0.39344
# Poissons Ratio (z) = 0.30039 0.34789
#
# Static dielectric constant tensor:
#      x y z
#    x 2.130340 -0.005070 0.041940 
#    y -0.005070 2.152960 -0.099370 
#    z 0.041940 -0.099370 2.222520 
# 
# From -- ./inp_files/494706.got.cif
#   From: 2010.05.17/outbox.cif.g08.bks.cpg/sg2_248_cif.got.tgz:494706.got - 2010.06.03 11:33:40.
