data_PCOD9029559
_publ_section_title
;
Structure prediction by ZEFSAII (Michael W. Deem and Ramdas Pophale) SiO2 
 PCOD9029559
Probable space group: P -1
;
_chemical_formula_sum "Si O2"
_cell_formula_units_Z 15
_cell_length_a 13.245003
_cell_length_b 14.191114
_cell_length_c 7.799575
_cell_angle_alpha 78.677315
_cell_angle_beta 85.018233
_cell_angle_gamma 149.777880
_cell_volume 618.188112
_symmetry_space_group_name_H-M "P -1"
_symmetry_group_IT_number 2
_symmetry_cell_setting 'triclinic'
loop_
_space_group_symop_operation_xyz
x,y,z
-x,-y,-z
loop_
_atom_site_type_symbol
_atom_site_label
_atom_site_fract_x
_atom_site_fract_y
_atom_site_fract_z
Si Si1 0.015572 0.133589 0.851707
Si Si2 0.161007 0.812696 0.242766
Si Si3 0.028749 0.413126 0.996359
Si Si4 0.478172 0.349317 0.866130
Si Si5 0.203345 0.551837 0.292689
Si Si6 0.610220 0.422344 0.204107
Si Si7 0.752413 0.764378 0.534854
Si Si8 0.500000 0.000000 0.000000
O O1 0.172821 0.317970 0.906146
O O2 0.182538 0.226056 0.658088
O O3 0.897483 0.125661 0.777466
O O4 0.798884 0.887682 0.040010
O O5 0.419565 0.999570 0.180448
O O6 0.173812 0.787767 0.044815
O O7 0.969386 0.600576 0.465973
O O8 0.259498 0.568245 0.811615
O O9 0.056880 0.399740 0.192763
O O10 0.000000 0.500000 0.000000
O O11 0.605889 0.370139 0.746577
O O12 0.612277 0.561823 0.729251
O O13 0.496675 0.342932 0.066891
O O14 0.331739 0.763271 0.180879
O O15 0.416739 0.287438 0.419679
O O16 0.000000 0.000000 0.500000
#
# Coordination Sequence:
#
# PCOD9029559 Si02
#       8
#     2   2   2   2   2   2   2   1
#     4  11  23  44  70  94 139 176 227 287 345 408
#     4  11  23  44  67  98 133 184 229 283 344 419
#     4  10  22  42  67  97 138 174 224 288 334 409
#     4  11  23  45  68  97 138 180 224 287 352 404
#     4  11  23  43  68  96 136 183 226 284 348 410
#     4  10  24  42  66 101 134 176 231 279 341 417
#     4  12  24  44  72  99 135 182 226 282 354 416
#     4  12  22  36  72  96 132 180 232 276 350 402
#
# _framework density 24.26446
#
# number of rings (size 3 to 8) (size 9 to 14) (size 15 to 20)
#    0.000    1.067    5.333    1.200    0.000    0.533 
#    2.400    2.667    0.000    0.000    0.000    0.000 
#    0.000    0.000    0.000    0.000    0.000    0.000 
#
# Total GULP energy -83659.730554 kJ/mol
# GULP energy per Si atom -5577.315370 kJ/mol
# Density = 2.420923 g / cm^3
# Si number density = 24.264460 Si / 1000 Ang^3
#
#
#
# Elastic Constant Matrix: (Units=GPa)
#
#
# Indices 1 2 3 4 5 6 
#
# 1 126.1813 14.6795 49.4017 -1.9320 -27.9864 -14.7179
# 2 14.6795 126.5436 40.0029 -14.2911 2.1888 -4.3805
# 3 49.4017 40.0029 144.9967 -18.5701 -17.6757 -8.8009
# 4 -1.9320 -14.2911 -18.5701 41.9001 -3.6004 -3.1714
# 5 -27.9864 2.1888 -17.6757 -3.6004 48.7060 3.1519
# 6 -14.7179 -4.3805 -8.8009 -3.1714 3.1519 29.5113
#
#
#
# Elastic Compliance Matrix: (Units=1/GPa)
#
#
# Indices 1 2 3 4 5 6 
#
# 1 0.010540 -0.000335 -0.002688 -0.000110 0.004837 0.003877
# 2 -0.000335 0.008913 -0.002194 0.002006 -0.001296 0.000856
# 3 -0.002688 -0.002194 0.009189 0.003470 0.002066 0.001226
# 4 -0.000110 0.002006 0.003470 0.026616 0.002825 0.003836
# 5 0.004837 -0.001296 0.002066 0.002825 0.024292 0.000545
# 6 0.003877 0.000856 0.001226 0.003836 0.000545 0.036665
#
#
# Mechanical properties :
#
#
# Convention : Reuss Voigt Hill
#
# Bulk Modulus (GPa) = 54.92169 67.32109 61.12139
# Shear Modulus (GPa) = 37.67367 43.59932 40.63649
#
# Velocity S-wave (km/s) = 3.94461 4.24351 4.09679
# Velocity P-wave (km/s) = 6.59017 7.19825 6.90091
#
# Compressibility (1/GPa) = 0.01820774
#
# Stress axis : x y z
#
# Youngs Moduli (GPa) = 94.88035 112.18994 108.83083
#
# Poissons Ratio (x) = 0.03757 0.29251
# Poissons Ratio (y) = 0.03178 0.23880
# Poissons Ratio (z) = 0.25502 0.24617
#
# Static dielectric constant tensor:
#      x y z
#    x 1.693840 -0.194660 0.091970 
#    y -0.194660 1.875050 0.083850 
#    z 0.091970 0.083850 1.819250 
# 
# From -- ./inp_files/315089.got.cif
#   From: 2010.05.17/outbox.cif.g08.bks.cpg/sg2_158_cif.got.tgz:315089.got - 2010.06.03 11:33:40.
