data_PCOD9029408
_publ_section_title
;
Structure prediction by ZEFSAII (Michael W. Deem and Ramdas Pophale) SiO2 
 PCOD9029408
Probable space group: P -1
;
_chemical_formula_sum "Si O2"
_cell_formula_units_Z 14
_cell_length_a 10.982881
_cell_length_b 12.359212
_cell_length_c 12.488435
_cell_angle_alpha 145.102601
_cell_angle_beta 86.517627
_cell_angle_gamma 66.811056
_cell_volume 609.638346
_symmetry_space_group_name_H-M "P -1"
_symmetry_group_IT_number 2
_symmetry_cell_setting 'triclinic'
loop_
_space_group_symop_operation_xyz
x,y,z
-x,-y,-z
loop_
_atom_site_type_symbol
_atom_site_label
_atom_site_fract_x
_atom_site_fract_y
_atom_site_fract_z
Si Si1 0.136754 0.089410 0.645389
Si Si2 0.726703 0.709866 0.103310
Si Si3 0.297038 0.652161 0.602299
Si Si4 0.404643 0.807398 0.214348
Si Si5 0.801557 0.381769 0.634974
Si Si6 0.011904 0.721757 0.796692
Si Si7 0.838471 0.876451 0.702277
O O1 0.254248 0.090944 0.716597
O O2 0.209501 0.053486 0.493425
O O3 0.182955 0.819670 0.453894
O O4 0.908527 0.404559 0.911998
O O5 0.534971 0.832767 0.250578
O O6 0.747885 0.622722 0.907757
O O7 0.500000 0.500000 0.500000
O O8 0.326557 0.504752 0.370387
O O9 0.191650 0.638713 0.682826
O O10 0.125873 0.016099 0.895337
O O11 0.361904 0.847346 0.122744
O O12 0.500000 0.500000 0.000000
O O13 0.009529 0.167082 0.396283
O O14 0.097382 0.414118 0.565701
O O15 0.869495 0.867085 0.818995
#
# Coordination Sequence:
#
# PCOD9029408 Si02
#       7
#     2   2   2   2   2   2   2
#     4  11  24  43  61  94 133 168 217 266 326 394
#     4  11  24  40  64  92 130 171 217 265 323 389
#     4  10  23  41  68  99 128 169 222 270 328 388
#     4  12  23  40  67  96 131 173 217 269 329 389
#     4  11  22  41  65  94 129 170 212 267 330 381
#     4   9  22  45  63  93 136 171 215 272 325 385
#     4  10  22  42  67  93 130 176 218 266 328 389
#
# _framework density 22.964435999999999
#
# number of rings (size 3 to 8) (size 9 to 14) (size 15 to 20)
#    0.000    1.429    2.857    1.714    4.000    1.143 
#    0.000    6.429    0.000    0.000    0.000    0.000 
#    0.000    0.000    0.000    0.000    0.000    0.000 
#
# Total GULP energy -78255.675252 kJ/mol
# GULP energy per Si atom -5589.691089 kJ/mol
# Density = 2.291217 g / cm^3
# Si number density = 22.964436 Si / 1000 Ang^3
#
#
#
# Elastic Constant Matrix: (Units=GPa)
#
#
# Indices 1 2 3 4 5 6 
#
# 1 116.4075 29.9278 3.9766 10.9631 -1.8969 -12.0902
# 2 29.9278 74.2815 11.9562 -1.1073 1.3686 -13.0838
# 3 3.9766 11.9562 38.3497 -2.2681 12.1606 5.0127
# 4 10.9631 -1.1073 -2.2681 27.9712 -9.1713 -0.2309
# 5 -1.8969 1.3686 12.1606 -9.1713 40.6531 -8.5480
# 6 -12.0902 -13.0838 5.0127 -0.2309 -8.5480 36.1771
#
#
#
# Elastic Compliance Matrix: (Units=1/GPa)
#
#
# Indices 1 2 3 4 5 6 
#
# 1 0.010172 -0.003697 -0.000522 -0.004060 0.000297 0.002179
# 2 -0.003697 0.017198 -0.006738 0.002717 0.003288 0.006713
# 3 -0.000522 -0.006738 0.033347 -0.001452 -0.012230 -0.010131
# 4 -0.004060 0.002717 -0.001452 0.040569 0.009811 0.002404
# 5 0.000297 0.003288 -0.012230 0.009811 0.032635 0.010757
# 6 0.002179 0.006713 -0.010131 0.002404 0.010757 0.034759
#
#
# Mechanical properties :
#
#
# Convention : Reuss Voigt Hill
#
# Bulk Modulus (GPa) = 25.76963 35.63999 30.70481
# Shear Modulus (GPa) = 24.56661 33.17217 28.86939
#
# Velocity S-wave (km/s) = 3.27428 3.80478 3.54946
# Velocity P-wave (km/s) = 5.05375 5.90383 5.49525
#
# Compressibility (1/GPa) = 0.03880537
#
# Stress axis : x y z
#
# Youngs Moduli (GPa) = 98.30661 58.14473 29.98755
#
# Poissons Ratio (x) = 0.21494 0.01564
# Poissons Ratio (y) = 0.36340 0.20206
# Poissons Ratio (z) = 0.05127 0.39179
#
# Static dielectric constant tensor:
#      x y z
#    x 1.860990 -0.041240 -0.006320 
#    y -0.041240 1.922100 -0.039200 
#    z -0.006320 -0.039200 1.871450 
# 
# From -- ./inp_files/426351.got.cif
#   From: 2010.05.17/outbox.cif.g08.bks.cpg/sg2_214_cif.got.tgz:426351.got - 2010.06.03 11:33:40.
