data_PCOD9029425
_publ_section_title
;
Structure prediction by ZEFSAII (Michael W. Deem and Ramdas Pophale) SiO2 
 PCOD9029425
Probable space group: P -1
;
_chemical_formula_sum "Si O2"
_cell_formula_units_Z 15
_cell_length_a 12.660627
_cell_length_b 11.889663
_cell_length_c 6.443675
_cell_angle_alpha 71.381971
_cell_angle_beta 48.584089
_cell_angle_gamma 58.413463
_cell_volume 619.078391
_symmetry_space_group_name_H-M "P -1"
_symmetry_group_IT_number 2
_symmetry_cell_setting 'triclinic'
loop_
_space_group_symop_operation_xyz
x,y,z
-x,-y,-z
loop_
_atom_site_type_symbol
_atom_site_label
_atom_site_fract_x
_atom_site_fract_y
_atom_site_fract_z
Si Si1 0.127542 0.115950 0.358129
Si Si2 0.361815 0.827254 0.127930
Si Si3 0.834455 0.248969 0.357844
Si Si4 0.604244 0.267075 0.298282
Si Si5 0.653347 0.747933 0.071614
Si Si6 0.984839 0.689912 0.254630
Si Si7 0.787822 0.551160 0.677169
Si Si8 0.500000 0.500000 0.000000
O O1 0.088932 0.168773 0.614896
O O2 0.974104 0.164543 0.384182
O O3 0.223057 0.959076 0.316624
O O4 0.245018 0.172461 0.078078
O O5 0.322667 0.701054 0.314979
O O6 0.521966 0.815222 0.022058
O O7 0.357324 0.829706 0.888466
O O8 0.750617 0.210646 0.299067
O O9 0.914952 0.321954 0.073525
O O10 0.451051 0.270215 0.604108
O O11 0.583208 0.408884 0.159698
O O12 0.765012 0.609569 0.904750
O O13 0.855499 0.637103 0.411464
O O14 0.086419 0.598316 0.367395
O O15 0.627863 0.560633 0.794441
#
# Coordination Sequence:
#
# PCOD9029425 Si02
#       8
#     2   2   2   2   2   2   2   1
#     4  11  25  42  68  95 133 170 216 270 319 380
#     4  11  24  44  65  98 131 170 219 269 315 384
#     4  11  24  41  66  94 131 173 217 257 322 387
#     4  11  25  41  66  96 133 169 218 265 323 381
#     4  10  24  44  67 100 125 171 218 265 327 385
#     4  10  23  45  63  96 131 171 208 267 324 384
#     4  10  22  42  67  94 129 163 214 264 322 381
#     4  12  22  40  70  92 130 172 208 274 318 376
#
# _framework density 24.229566999999999
#
# number of rings (size 3 to 8) (size 9 to 14) (size 15 to 20)
#    0.000    1.333    2.667    1.600    1.867    5.333 
#    0.000    2.000    0.000    0.000    0.000    0.000 
#    0.000    0.000    0.000    0.000    0.000    0.000 
#
# Total GULP energy -83522.841416 kJ/mol
# GULP energy per Si atom -5568.189428 kJ/mol
# Density = 2.417442 g / cm^3
# Si number density = 24.229567 Si / 1000 Ang^3
#
#
#
# Elastic Constant Matrix: (Units=GPa)
#
#
# Indices 1 2 3 4 5 6 
#
# 1 138.3408 22.6310 33.4977 -19.0254 -31.5224 2.2835
# 2 22.6310 60.0985 1.9014 -7.3936 -3.9393 4.3537
# 3 33.4977 1.9014 112.7629 -19.9933 -28.8137 23.3705
# 4 -19.0254 -7.3936 -19.9933 23.4646 4.1315 -6.5063
# 5 -31.5224 -3.9393 -28.8137 4.1315 51.5441 -9.9879
# 6 2.2835 4.3537 23.3705 -6.5063 -9.9879 30.9174
#
#
#
# Elastic Compliance Matrix: (Units=1/GPa)
#
#
# Indices 1 2 3 4 5 6 
#
# 1 0.010030 -0.002874 -0.001179 0.006270 0.005458 0.003637
# 2 -0.002874 0.018386 0.001853 0.004263 -0.000231 -0.002955
# 3 -0.001179 0.001853 0.013324 0.008198 0.004865 -0.006949
# 4 0.006270 0.004263 0.008198 0.056864 0.005437 0.006463
# 5 0.005458 -0.000231 0.004865 0.005437 0.026074 0.005519
# 6 0.003637 -0.002955 -0.006949 0.006463 0.005519 0.040887
#
#
# Mechanical properties :
#
#
# Convention : Reuss Voigt Hill
#
# Bulk Modulus (GPa) = 26.78017 47.47361 37.12689
# Shear Modulus (GPa) = 27.41042 38.06335 32.73689
#
# Velocity S-wave (km/s) = 3.36710 3.96782 3.67974
# Velocity P-wave (km/s) = 5.11792 6.37395 5.78015
#
# Compressibility (1/GPa) = 0.03734107
#
# Stress axis : x y z
#
# Youngs Moduli (GPa) = 99.70160 54.38798 75.05320
#
# Poissons Ratio (x) = 0.15631 0.08846
# Poissons Ratio (y) = 0.28654 -0.13908
# Poissons Ratio (z) = 0.11751 -0.10079
#
# Static dielectric constant tensor:
#      x y z
#    x 1.875550 -0.025330 -0.021430 
#    y -0.025330 1.958070 -0.041900 
#    z -0.021430 -0.041900 1.925100 
# 
# From -- ./inp_files/69529.got.cif
#   From: 2010.05.17/outbox.cif.g08.bks.cpg/sg2_35_cif.got.tgz:69529.got - 2010.06.03 11:33:40.
