data_PCOD9029177
_publ_section_title
;
Structure prediction by ZEFSAII (Michael W. Deem and Ramdas Pophale) SiO2 
 PCOD9029177
Probable space group: P -1
;
_chemical_formula_sum "Si O2"
_cell_formula_units_Z 16
_cell_length_a 12.456796
_cell_length_b 14.604753
_cell_length_c 9.122108
_cell_angle_alpha 91.630910
_cell_angle_beta 148.372513
_cell_angle_gamma 75.769964
_cell_volume 788.371756
_symmetry_space_group_name_H-M "P -1"
_symmetry_group_IT_number 2
_symmetry_cell_setting 'triclinic'
loop_
_space_group_symop_operation_xyz
x,y,z
-x,-y,-z
loop_
_atom_site_type_symbol
_atom_site_label
_atom_site_fract_x
_atom_site_fract_y
_atom_site_fract_z
Si Si1 0.209749 0.388519 0.352900
Si Si2 0.862523 0.931694 0.328800
Si Si3 0.641316 0.962634 0.363351
Si Si4 0.791314 0.100837 0.706610
Si Si5 0.969706 0.234067 0.737514
Si Si6 0.627938 0.816871 0.576694
Si Si7 0.601155 0.461173 0.274265
Si Si8 0.295707 0.485556 0.181915
O O1 0.339767 0.269094 0.509151
O O2 0.306468 0.458624 0.552666
O O3 0.241649 0.409208 0.218778
O O4 0.948774 0.420169 0.092368
O O5 0.817171 0.902491 0.438453
O O6 0.968452 0.837772 0.336904
O O7 0.000000 0.000000 0.500000
O O8 0.613300 0.003957 0.983546
O O9 0.670092 0.903123 0.544833
O O10 0.675914 0.062752 0.442919
O O11 0.852695 0.186734 0.714319
O O12 0.618710 0.141981 0.640716
O O13 0.000000 0.000000 0.000000
O O14 0.805742 0.349593 0.514452
O O15 0.194198 0.222552 0.084764
O O16 0.398526 0.458190 0.139129
O O17 0.500000 0.500000 0.000000
O O18 0.500000 0.500000 0.500000
#
# Coordination Sequence:
#
# PCOD9029177 Si02
#       8
#     2   2   2   2   2   2   2   2
#     4  10  22  42  66  95 128 171 215 277 323 384
#     4  11  24  43  64  93 139 179 217 264 329 396
#     4  11  24  42  63  99 136 172 216 278 318 397
#     4  12  23  42  68 102 135 169 220 279 328 387
#     4  12  24  42  70  94 129 184 222 270 336 387
#     4  12  24  40  70 100 130 172 231 267 332 389
#     4  11  26  45  64  98 138 171 222 276 330 399
#     4   9  18  40  66  88 126 163 215 273 324 371
#
# _framework density 20.294995
#
# number of rings (size 3 to 8) (size 9 to 14) (size 15 to 20)
#    0.000    1.000    3.750    4.125    0.000    3.500 
#    0.000    0.000    0.000    0.000    0.000    0.000 
#    0.000    0.000    0.000    0.000    0.000    0.000 
#
# Total GULP energy -89330.111671 kJ/mol
# GULP energy per Si atom -5583.131979 kJ/mol
# Density = 2.024880 g / cm^3
# Si number density = 20.294995 Si / 1000 Ang^3
#
#
#
# Elastic Constant Matrix: (Units=GPa)
#
#
# Indices 1 2 3 4 5 6 
#
# 1 110.8955 23.2096 36.5329 -7.5556 19.9993 -20.9818
# 2 23.2096 109.0408 41.0072 7.8972 15.6104 -14.1285
# 3 36.5329 41.0072 105.1103 1.2855 17.5113 -5.2396
# 4 -7.5556 7.8972 1.2855 30.5274 0.3544 -4.3338
# 5 19.9993 15.6104 17.5113 0.3544 35.0380 -3.0905
# 6 -20.9818 -14.1285 -5.2396 -4.3338 -3.0905 17.9140
#
#
#
# Elastic Compliance Matrix: (Units=1/GPa)
#
#
# Indices 1 2 3 4 5 6 
#
# 1 0.014779 0.000870 -0.003772 0.006130 -0.005462 0.017434
# 2 0.000870 0.012186 -0.004094 -0.001518 -0.003112 0.008528
# 3 -0.003772 -0.004094 0.012661 -0.001039 -0.002752 -0.004670
# 4 0.006130 -0.001518 -0.001039 0.036762 -0.001412 0.014329
# 5 -0.005462 -0.003112 -0.002752 -0.001412 0.034071 -0.004121
# 6 0.017434 0.008528 -0.004670 0.014329 -0.004121 0.084356
#
#
# Mechanical properties :
#
#
# Convention : Reuss Voigt Hill
#
# Bulk Modulus (GPa) = 39.01309 58.50511 48.75910
# Shear Modulus (GPa) = 23.00413 31.64901 27.32657
#
# Velocity S-wave (km/s) = 3.37038 3.95327 3.67341
# Velocity P-wave (km/s) = 5.86607 7.05179 6.48608
#
# Compressibility (1/GPa) = 0.02563243
#
# Stress axis : x y z
#
# Youngs Moduli (GPa) = 67.66179 82.06205 78.98565
#
# Poissons Ratio (x) = -0.07136 0.29793
# Poissons Ratio (y) = -0.05884 0.32339
# Poissons Ratio (z) = 0.25522 0.33599
#
# Static dielectric constant tensor:
#      x y z
#    x 1.740570 -0.012380 -0.013130 
#    y -0.012380 1.746370 0.010310 
#    z -0.013130 0.010310 1.752610 
# 
# From -- ./inp_files/273273.got.cif
#   From: 2010.05.17/outbox.cif.g08.bks.cpg/sg2_137_cif.got.tgz:273273.got - 2010.06.03 11:33:40.
