data_PCOD9029057
_publ_section_title
;
Structure prediction by ZEFSAII (Michael W. Deem and Ramdas Pophale) SiO2 
 PCOD9029057
Probable space group: P -1
;
_chemical_formula_sum "Si O2"
_cell_formula_units_Z 15
_cell_length_a 8.860010
_cell_length_b 11.974773
_cell_length_c 16.812039
_cell_angle_alpha 138.707542
_cell_angle_beta 126.251433
_cell_angle_gamma 34.539378
_cell_volume 665.549260
_symmetry_space_group_name_H-M "P -1"
_symmetry_group_IT_number 2
_symmetry_cell_setting 'triclinic'
loop_
_space_group_symop_operation_xyz
x,y,z
-x,-y,-z
loop_
_atom_site_type_symbol
_atom_site_label
_atom_site_fract_x
_atom_site_fract_y
_atom_site_fract_z
Si Si1 0.842633 0.593784 0.582238
Si Si2 0.466372 0.940314 0.044974
Si Si3 0.093855 0.555490 0.798965
Si Si4 0.143643 0.054075 0.757629
Si Si5 0.524438 0.499602 0.821807
Si Si6 0.453823 0.530088 0.631280
Si Si7 0.283895 0.084399 0.654988
Si Si8 0.000000 0.000000 0.500000
O O1 0.706251 0.499505 0.487918
O O2 0.000000 0.500000 0.500000
O O3 0.019607 0.518376 0.672179
O O4 0.597468 0.884065 0.659285
O O5 0.171239 0.182083 0.111850
O O6 0.699640 0.874468 0.135535
O O7 0.500000 0.000000 0.000000
O O8 0.498623 0.718696 0.937631
O O9 0.338684 0.523387 0.840220
O O10 0.171189 0.343444 0.762577
O O11 0.151960 0.035905 0.653641
O O12 0.838197 0.251260 0.794579
O O13 0.327852 0.792321 0.712278
O O14 0.426824 0.521485 0.713321
O O15 0.760197 0.306373 0.585871
O O16 0.213901 0.000621 0.517998
#
# Coordination Sequence:
#
# PCOD9029057 Si02
#       8
#     2   2   2   2   2   2   2   1
#     4  11  25  43  69 103 148 189 227 288 359 428
#     4  12  25  51  77 101 139 190 245 304 350 422
#     4  12  27  47  72 107 149 185 238 298 358 431
#     4  12  25  47  75 103 143 186 244 298 352 428
#     4  12  26  46  71 109 143 185 240 298 363 421
#     4  11  24  43  70 107 142 185 238 289 354 420
#     4  11  25  42  69 106 141 189 240 289 354 426
#     4  10  22  42  66 104 140 182 240 290 334 422
#
# _framework density 22.537776000000001
#
# number of rings (size 3 to 8) (size 9 to 14) (size 15 to 20)
#    0.000    0.533    5.333    2.400    3.733    1.600 
#    0.000    1.333    0.000    0.000    0.000    0.000 
#    0.000    0.000    0.000    0.000    0.000    0.000 
#
# Total GULP energy -83741.865981 kJ/mol
# GULP energy per Si atom -5582.791065 kJ/mol
# Density = 2.248648 g / cm^3
# Si number density = 22.537776 Si / 1000 Ang^3
#
#
#
# Elastic Constant Matrix: (Units=GPa)
#
#
# Indices 1 2 3 4 5 6 
#
# 1 114.8369 51.5053 31.5065 13.1753 -1.2464 -17.8448
# 2 51.5053 110.9751 31.2377 15.9115 8.0185 -8.7748
# 3 31.5065 31.2377 94.1550 12.7116 14.6526 -2.7186
# 4 13.1753 15.9115 12.7116 30.2150 5.6801 4.7587
# 5 -1.2464 8.0185 14.6526 5.6801 39.4329 1.4393
# 6 -17.8448 -8.7748 -2.7186 4.7587 1.4393 32.9073
#
#
#
# Elastic Compliance Matrix: (Units=1/GPa)
#
#
# Indices 1 2 3 4 5 6 
#
# 1 0.012738 -0.004397 -0.002545 -0.003581 0.002542 0.005932
# 2 -0.004397 0.012319 -0.001844 -0.003731 -0.001471 0.001352
# 3 -0.002545 -0.001844 0.013079 -0.002599 -0.004183 -0.000232
# 4 -0.003581 -0.003731 -0.002599 0.039807 -0.003804 -0.008741
# 5 0.002542 -0.001471 -0.004183 -0.003804 0.027842 -0.000027
# 6 0.005932 0.001352 -0.000232 -0.008741 -0.000027 0.035212
#
#
# Mechanical properties :
#
#
# Convention : Reuss Voigt Hill
#
# Bulk Modulus (GPa) = 48.62664 60.94065 54.78364
# Shear Modulus (GPa) = 30.22542 34.22554 32.22548
#
# Velocity S-wave (km/s) = 3.66608 3.90113 3.78543
# Velocity P-wave (km/s) = 6.28829 6.88402 6.59289
#
# Compressibility (1/GPa) = 0.02056486
#
# Stress axis : x y z
#
# Youngs Moduli (GPa) = 78.50299 81.17599 76.45758
#
# Poissons Ratio (x) = 0.35694 0.19455
# Poissons Ratio (y) = 0.34518 0.14100
# Poissons Ratio (z) = 0.19976 0.14970
#
# Static dielectric constant tensor:
#      x y z
#    x 1.899870 -0.013840 0.020800 
#    y -0.013840 1.967150 -0.198230 
#    z 0.020800 -0.198230 2.097390 
# 
# From -- ./inp_files/38431.got.cif
#   From: 2010.05.17/outbox.cif.g08.bks.cpg/sg2_20_cif.got.tgz:38431.got - 2010.06.03 11:33:40.
