data_PCOD9029435
_publ_section_title
;
Structure prediction by ZEFSAII (Michael W. Deem and Ramdas Pophale) SiO2 
 PCOD9029435
Probable space group: P -1
;
_chemical_formula_sum "Si O2"
_cell_formula_units_Z 16
_cell_length_a 14.335865
_cell_length_b 9.141801
_cell_length_c 9.199808
_cell_angle_alpha 116.602978
_cell_angle_beta 122.683071
_cell_angle_gamma 101.987482
_cell_volume 727.712826
_symmetry_space_group_name_H-M "P -1"
_symmetry_group_IT_number 2
_symmetry_cell_setting 'triclinic'
loop_
_space_group_symop_operation_xyz
x,y,z
-x,-y,-z
loop_
_atom_site_type_symbol
_atom_site_label
_atom_site_fract_x
_atom_site_fract_y
_atom_site_fract_z
Si Si1 0.002341 0.813298 0.763713
Si Si2 0.481243 0.318244 0.490667
Si Si3 0.950487 0.631874 0.332432
Si Si4 0.643129 0.276340 0.848344
Si Si5 0.464552 0.937223 0.773293
Si Si6 0.998158 0.818014 0.174601
Si Si7 0.846530 0.462861 0.668399
Si Si8 0.759649 0.042007 0.740017
O O1 0.011435 0.728748 0.581824
O O2 0.862098 0.626339 0.639398
O O3 0.012312 0.014996 0.834690
O O4 0.124630 0.867697 0.997442
O O5 0.500000 0.500000 0.500000
O O6 0.596906 0.364965 0.726011
O O7 0.467261 0.164262 0.287711
O O8 0.344272 0.195208 0.418608
O O9 0.966041 0.794377 0.305556
O O10 0.040181 0.567662 0.305273
O O11 0.788381 0.448286 0.121941
O O12 0.675158 0.134945 0.727153
O O13 0.526638 0.135474 0.809903
O O14 0.302021 0.751010 0.546021
O O15 0.500000 0.000000 0.000000
O O16 0.153598 0.895620 0.305587
O O17 0.896865 0.593299 0.917485
#
# Coordination Sequence:
#
# PCOD9029435 Si02
#       8
#     2   2   2   2   2   2   2   2
#     4  11  24  41  65 102 139 167 214 285 336 385
#     4  11  27  44  71  93 134 182 228 275 337 399
#     4  12  24  40  71  98 134 175 221 274 338 390
#     4  11  24  47  68  97 138 178 228 272 332 407
#     4  11  25  43  69 104 136 177 224 274 333 402
#     4  11  24  40  66 100 132 173 224 273 327 395
#     4  11  23  41  71  94 131 177 228 264 326 403
#     4  10  22  42  67  94 133 177 222 272 327 397
#
# _framework density 21.986695000000001
#
# number of rings (size 3 to 8) (size 9 to 14) (size 15 to 20)
#    0.000    1.000    2.500    5.625   12.250    0.000 
#    0.000    0.625    0.000    0.000    0.000    0.000 
#    0.000    0.000    0.000    0.000    0.000    0.000 
#
# Total GULP energy -89441.322233 kJ/mol
# GULP energy per Si atom -5590.082640 kJ/mol
# Density = 2.193665 g / cm^3
# Si number density = 21.986695 Si / 1000 Ang^3
#
#
#
# Elastic Constant Matrix: (Units=GPa)
#
#
# Indices 1 2 3 4 5 6 
#
# 1 58.6568 33.4904 30.0330 11.4757 10.9452 13.4032
# 2 33.4904 126.8288 35.2619 1.2380 18.4871 6.1659
# 3 30.0330 35.2619 58.9357 16.8966 6.6030 5.6138
# 4 11.4757 1.2380 16.8966 30.3394 12.8817 5.6340
# 5 10.9452 18.4871 6.6030 12.8817 41.6659 8.9534
# 6 13.4032 6.1659 5.6138 5.6340 8.9534 36.6189
#
#
#
# Elastic Compliance Matrix: (Units=1/GPa)
#
#
# Indices 1 2 3 4 5 6 
#
# 1 0.026487 -0.003711 -0.009730 -0.002537 -0.001520 -0.006816
# 2 -0.003711 0.011237 -0.006167 0.006450 -0.005175 0.000685
# 3 -0.009730 -0.006167 0.029139 -0.014611 0.004940 0.001173
# 4 -0.002537 0.006450 -0.014611 0.048248 -0.014406 -0.001819
# 5 -0.001520 -0.005175 0.004940 -0.014406 0.031396 -0.004789
# 6 -0.006816 0.000685 0.001173 -0.001819 -0.004789 0.030959
#
#
# Mechanical properties :
#
#
# Convention : Reuss Voigt Hill
#
# Bulk Modulus (GPa) = 36.16946 49.11023 42.63985
# Shear Modulus (GPa) = 22.13391 31.43392 26.78391
#
# Velocity S-wave (km/s) = 3.17629 3.78521 3.49404
# Velocity P-wave (km/s) = 5.47157 6.44116 5.97606
#
# Compressibility (1/GPa) = 0.02764763
#
# Stress axis : x y z
#
# Youngs Moduli (GPa) = 37.75504 88.99028 34.31775
#
# Poissons Ratio (x) = 0.33025 0.33391
# Poissons Ratio (y) = 0.14011 0.21163
# Poissons Ratio (z) = 0.36736 0.54877
#
# Static dielectric constant tensor:
#      x y z
#    x 1.829190 0.011790 0.026640 
#    y 0.011790 1.877320 0.002050 
#    z 0.026640 0.002050 1.813890 
# 
# From -- ./inp_files/299360.got.cif
#   From: 2010.05.17/outbox.cif.g08.bks.cpg/sg2_150_cif.got.tgz:299360.got - 2010.06.03 11:33:40.
