data_PCOD9029943
_publ_section_title
;
Structure prediction by ZEFSAII (Michael W. Deem and Ramdas Pophale) SiO2 
 PCOD9029943
Probable space group: P -1
;
_chemical_formula_sum "Si O2"
_cell_formula_units_Z 16
_cell_length_a 9.314107
_cell_length_b 14.152526
_cell_length_c 8.448886
_cell_angle_alpha 55.767020
_cell_angle_beta 127.654817
_cell_angle_gamma 89.968843
_cell_volume 620.041618
_symmetry_space_group_name_H-M "P -1"
_symmetry_group_IT_number 2
_symmetry_cell_setting 'triclinic'
loop_
_space_group_symop_operation_xyz
x,y,z
-x,-y,-z
loop_
_atom_site_type_symbol
_atom_site_label
_atom_site_fract_x
_atom_site_fract_y
_atom_site_fract_z
Si Si1 0.254815 0.083050 0.313201
Si Si2 0.662576 0.420041 0.325099
Si Si3 0.034938 0.336431 0.134085
Si Si4 0.461360 0.285374 0.489833
Si Si5 0.075244 0.234823 0.609385
Si Si6 0.138605 0.922728 0.511259
Si Si7 0.596056 0.340472 0.865356
Si Si8 0.481725 0.001117 0.172479
O O1 0.121706 0.236160 0.131029
O O2 0.311854 0.010815 0.598305
O O3 0.500000 0.000000 0.500000
O O4 0.125493 0.013614 0.259797
O O5 0.603993 0.312565 0.443587
O O6 0.603402 0.523420 0.330318
O O7 0.896623 0.356482 0.474797
O O8 0.500000 0.500000 0.000000
O O9 0.203897 0.388518 0.184124
O O10 0.112123 0.279660 0.420541
O O11 0.791541 0.367463 0.948664
O O12 0.529154 0.302460 0.694018
O O13 0.512267 0.133751 0.649355
O O14 0.998087 0.136073 0.604336
O O15 0.277725 0.143867 0.943548
O O16 0.334295 0.777533 0.848458
O O17 0.000000 0.000000 0.500000
O O18 0.500000 0.000000 0.000000
#
# Coordination Sequence:
#
# PCOD9029943 Si02
#       8
#     2   2   2   2   2   2   2   2
#     4  11  23  35  59 101 139 161 218 279 339 405
#     4  12  26  47  66  98 139 185 230 289 328 403
#     4  10  22  42  69 100 138 179 218 279 342 413
#     4  11  25  42  74 102 131 181 235 274 351 400
#     4  11  22  41  68  94 138 175 227 271 346 402
#     4  11  19  37  67  93 125 178 216 264 348 397
#     4  11  23  44  73  93 137 181 233 278 334 409
#     4  11  21  42  69  99 135 170 220 288 338 408
#
# _framework density 25.804721000000001
#
# number of rings (size 3 to 8) (size 9 to 14) (size 15 to 20)
#    0.000    1.000    7.500    1.875    3.500    2.000 
#    0.000    0.625    5.500    0.000    0.000    0.000 
#    0.000    0.000    0.000    0.000    0.000    0.000 
#
# Total GULP energy -89146.453545 kJ/mol
# GULP energy per Si atom -5571.653347 kJ/mol
# Density = 2.574599 g / cm^3
# Si number density = 25.804721 Si / 1000 Ang^3
#
#
#
# Elastic Constant Matrix: (Units=GPa)
#
#
# Indices 1 2 3 4 5 6 
#
# 1 100.8048 29.1814 -15.1175 -20.5068 5.1243 -5.3036
# 2 29.1814 73.7517 -2.9200 -7.9189 11.9340 -8.9612
# 3 -15.1175 -2.9200 68.8657 -1.0883 19.0374 -6.1910
# 4 -20.5068 -7.9189 -1.0883 22.7645 -4.6201 4.0508
# 5 5.1243 11.9340 19.0374 -4.6201 38.5398 -18.1100
# 6 -5.3036 -8.9612 -6.1910 4.0508 -18.1100 38.2821
#
#
#
# Elastic Compliance Matrix: (Units=1/GPa)
#
#
# Indices 1 2 3 4 5 6 
#
# 1 0.013880 -0.004030 0.003305 0.011086 -0.000953 -0.000110
# 2 -0.004030 0.016150 0.001121 0.000941 -0.004312 0.001264
# 3 0.003305 0.001121 0.017979 0.002437 -0.010019 -0.001370
# 4 0.011086 0.000941 0.002437 0.055311 0.002471 -0.002534
# 5 -0.000953 -0.004312 -0.010019 0.002471 0.040162 0.015976
# 6 -0.000110 0.001264 -0.001370 -0.002534 0.015976 0.034007
#
#
# Mechanical properties :
#
#
# Convention : Reuss Voigt Hill
#
# Bulk Modulus (GPa) = 20.49156 29.52333 25.00745
# Shear Modulus (GPa) = 25.91143 35.40250 30.65696
#
# Velocity S-wave (km/s) = 3.17225 3.70799 3.45053
# Velocity P-wave (km/s) = 4.62340 5.45877 5.05836
#
# Compressibility (1/GPa) = 0.04880057
#
# Stress axis : x y z
#
# Youngs Moduli (GPa) = 72.04449 61.91828 55.62029
#
# Poissons Ratio (x) = 0.24953 -0.18382
# Poissons Ratio (y) = 0.29034 -0.06233
# Poissons Ratio (z) = -0.23810 -0.06939
#
# Static dielectric constant tensor:
#      x y z
#    x 3.665960 0.622660 -0.245810 
#    y 0.622660 2.643420 -0.223380 
#    z -0.245810 -0.223380 2.340440 
# 
# From -- ./inp_files/206056.got.cif
#   From: 2010.05.17/outbox.cif.g08.bks.cpg/sg2_104_cif.got.tgz:206056.got - 2010.06.03 11:33:40.
