data_PCOD9029134
_publ_section_title
;
Structure prediction by ZEFSAII (Michael W. Deem and Ramdas Pophale) SiO2 
 PCOD9029134
Probable space group: P -1
;
_chemical_formula_sum "Si O2"
_cell_formula_units_Z 15
_cell_length_a 11.645537
_cell_length_b 17.928331
_cell_length_c 20.902036
_cell_angle_alpha 159.676287
_cell_angle_beta 24.583497
_cell_angle_gamma 147.915187
_cell_volume 630.119346
_symmetry_space_group_name_H-M "P -1"
_symmetry_group_IT_number 2
_symmetry_cell_setting 'triclinic'
loop_
_space_group_symop_operation_xyz
x,y,z
-x,-y,-z
loop_
_atom_site_type_symbol
_atom_site_label
_atom_site_fract_x
_atom_site_fract_y
_atom_site_fract_z
Si Si1 0.750613 0.336994 0.063401
Si Si2 0.234875 0.511894 0.689494
Si Si3 0.012784 0.897891 0.050631
Si Si4 0.500000 0.500000 0.000000
Si Si5 0.287793 0.810432 0.468397
Si Si6 0.616303 0.955455 0.735827
Si Si7 0.355562 0.332628 0.716278
Si Si8 0.531955 0.104669 0.754800
O O1 0.676850 0.343804 0.179617
O O2 0.578788 0.515122 0.253418
O O3 0.721452 0.114395 0.863993
O O4 0.067690 0.406166 0.953577
O O5 0.500000 0.500000 0.500000
O O6 0.207588 0.269911 0.534027
O O7 0.984226 0.653960 0.897509
O O8 0.781590 0.935741 0.144117
O O9 0.970156 0.059955 0.262823
O O10 0.305728 0.909372 0.878317
O O11 0.691950 0.331613 0.719023
O O12 0.571603 0.338541 0.894826
O O13 0.408857 0.671725 0.354353
O O14 0.500000 0.000000 0.500000
O O15 0.596114 0.068150 0.767449
O O16 0.312588 0.093724 0.519508
#
# Coordination Sequence:
#
# PCOD9029134 Si02
#       8
#     2   2   2   1   2   2   2   2
#     4  11  23  42  67  96 131 179 223 274 333 392
#     4  10  23  43  65  96 136 177 215 275 325 395
#     4  10  23  44  70  97 139 176 214 287 333 389
#     4  12  24  38  70  98 130 176 218 272 338 404
#     4  11  21  44  63  99 136 168 221 277 336 387
#     4  11  24  46  69  97 136 179 230 264 334 412
#     4  10  22  42  66  93 136 171 219 287 327 386
#     4  11  23  44  68 102 131 176 222 281 338 392
#
# _framework density 23.805015999999998
#
# number of rings (size 3 to 8) (size 9 to 14) (size 15 to 20)
#    0.000    1.333    4.000    2.000    0.000    3.733 
#    4.800    3.333    0.000    0.000    0.000    0.000 
#    0.000    0.000    0.000    0.000    0.000    0.000 
#
# Total GULP energy -83615.674219 kJ/mol
# GULP energy per Si atom -5574.378281 kJ/mol
# Density = 2.375083 g / cm^3
# Si number density = 23.805016 Si / 1000 Ang^3
#
#
#
# Elastic Constant Matrix: (Units=GPa)
#
#
# Indices 1 2 3 4 5 6 
#
# 1 130.9899 19.7553 70.7807 9.2034 25.5970 -28.4752
# 2 19.7553 39.6745 18.4547 8.0480 0.4972 -15.2005
# 3 70.7807 18.4547 142.5590 14.5582 9.0669 -19.9380
# 4 9.2034 8.0480 14.5582 40.8275 -4.3981 1.0587
# 5 25.5970 0.4972 9.0669 -4.3981 50.7854 1.1740
# 6 -28.4752 -15.2005 -19.9380 1.0587 1.1740 36.3842
#
#
#
# Elastic Compliance Matrix: (Units=1/GPa)
#
#
# Indices 1 2 3 4 5 6 
#
# 1 0.013452 -0.001005 -0.004874 -0.001969 -0.006248 0.007696
# 2 -0.001005 0.032190 -0.001338 -0.005996 -0.000369 0.012115
# 3 -0.004874 -0.001338 0.009957 -0.002166 0.000478 0.001130
# 4 -0.001969 -0.005996 -0.002166 0.027478 0.003960 -0.006160
# 5 -0.006248 -0.000369 0.000478 0.003960 0.023232 -0.005647
# 6 0.007696 0.012115 0.001130 -0.006160 -0.005647 0.039550
#
#
# Mechanical properties :
#
#
# Convention : Reuss Voigt Hill
#
# Bulk Modulus (GPa) = 24.29233 59.02274 41.65753
# Shear Modulus (GPa) = 28.73352 39.21492 33.97422
#
# Velocity S-wave (km/s) = 3.47801 4.06315 3.78191
# Velocity P-wave (km/s) = 5.13377 6.84546 6.05045
#
# Compressibility (1/GPa) = 0.04116526
#
# Stress axis : x y z
#
# Youngs Moduli (GPa) = 74.34042 31.06511 100.43656
#
# Poissons Ratio (x) = 0.03121 0.48952
# Poissons Ratio (y) = 0.07469 0.13440
# Poissons Ratio (z) = 0.36233 0.04157
#
# Static dielectric constant tensor:
#      x y z
#    x 1.906890 0.006570 -0.028280 
#    y 0.006570 1.959260 0.002600 
#    z -0.028280 0.002600 1.922650 
# 
# From -- ./inp_files/259600.got.cif
#   From: 2010.05.17/outbox.cif.g08.bks.cpg/sg2_130_cif.got.tgz:259600.got - 2010.06.03 11:33:40.
