data_PCOD9029233
_publ_section_title
;
Structure prediction by ZEFSAII (Michael W. Deem and Ramdas Pophale) SiO2 
 PCOD9029233
Probable space group: P -1
;
_chemical_formula_sum "Si O2"
_cell_formula_units_Z 16
_cell_length_a 9.971039
_cell_length_b 10.250830
_cell_length_c 11.216342
_cell_angle_alpha 58.258740
_cell_angle_beta 120.601090
_cell_angle_gamma 77.795392
_cell_volume 634.358040
_symmetry_space_group_name_H-M "P -1"
_symmetry_group_IT_number 2
_symmetry_cell_setting 'triclinic'
loop_
_space_group_symop_operation_xyz
x,y,z
-x,-y,-z
loop_
_atom_site_type_symbol
_atom_site_label
_atom_site_fract_x
_atom_site_fract_y
_atom_site_fract_z
Si Si1 0.695311 0.464695 0.232468
Si Si2 0.100779 0.654180 0.078555
Si Si3 0.700383 0.625197 0.482572
Si Si4 0.873124 0.796388 0.343187
Si Si5 0.325156 0.816548 0.060545
Si Si6 0.750705 0.626453 0.951784
Si Si7 0.773282 0.083016 0.377366
Si Si8 0.373665 0.053345 0.531203
O O1 0.486390 0.664827 0.100229
O O2 0.790367 0.505420 0.148114
O O3 0.656959 0.318016 0.238862
O O4 0.880798 0.339585 0.473565
O O5 0.182339 0.577498 0.289323
O O6 0.148244 0.801944 0.000905
O O7 0.887624 0.693023 0.969725
O O8 0.217459 0.489367 0.100191
O O9 0.808660 0.663544 0.411499
O O10 0.480866 0.714398 0.291487
O O11 0.666427 0.770273 0.502477
O O12 0.776391 0.960557 0.326668
O O13 0.767910 0.951853 0.109869
O O14 0.514950 0.832903 0.764930
O O15 0.813059 0.939544 0.577933
O O16 0.000000 0.000000 0.500000
O O17 0.500000 0.000000 0.500000
#
# Coordination Sequence:
#
# PCOD9029233 Si02
#       8
#     2   2   2   2   2   2   2   2
#     4  11  22  41  67 101 129 173 221 274 331 395
#     4  11  24  44  66  97 136 172 213 279 340 385
#     4  11  23  46  66  92 137 177 216 269 338 395
#     4  10  22  42  66  97 133 172 222 271 326 392
#     4  12  26  43  68  97 136 179 221 271 327 402
#     4  11  23  41  70  97 131 171 221 276 336 393
#     4   9  20  36  64  96 130 160 211 280 323 371
#     4  11  22  39  66  95 125 168 223 269 327 391
#
# _framework density 25.222349000000001
#
# number of rings (size 3 to 8) (size 9 to 14) (size 15 to 20)
#    0.000    1.250    2.500    3.750    0.000    4.000 
#    2.250    0.625    0.000    0.000    0.000    0.000 
#    0.000    0.000    0.000    0.000    0.000    0.000 
#
# Total GULP energy -89210.555372 kJ/mol
# GULP energy per Si atom -5575.659711 kJ/mol
# Density = 2.516494 g / cm^3
# Si number density = 25.222349 Si / 1000 Ang^3
#
#
#
# Elastic Constant Matrix: (Units=GPa)
#
#
# Indices 1 2 3 4 5 6 
#
# 1 118.4876 53.5147 -5.0737 2.5437 -16.9760 24.2489
# 2 53.5147 48.2982 9.7721 -13.5982 -6.7605 8.2662
# 3 -5.0737 9.7721 85.6656 2.0864 -9.7345 2.4893
# 4 2.5437 -13.5982 2.0864 22.9746 -0.9697 16.5200
# 5 -16.9760 -6.7605 -9.7345 -0.9697 23.6075 1.6684
# 6 24.2489 8.2662 2.4893 16.5200 1.6684 27.8717
#
#
#
# Elastic Compliance Matrix: (Units=1/GPa)
#
#
# Indices 1 2 3 4 5 6 
#
# 1 0.029195 -0.042466 0.008424 -0.032200 0.010638 0.004891
# 2 -0.042466 0.127624 -0.016849 0.143381 0.010962 -0.085040
# 3 0.008424 -0.016849 0.015054 -0.015827 0.006414 0.005320
# 4 -0.032200 0.143381 -0.015827 0.253860 0.033508 -0.165568
# 5 0.010638 0.010962 0.006414 0.033508 0.059750 -0.036517
# 6 0.004891 -0.085040 0.005320 -0.165568 -0.036517 0.156690
#
#
# Mechanical properties :
#
#
# Convention : Reuss Voigt Hill
#
# Bulk Modulus (GPa) = 14.26720 40.98640 27.62680
# Shear Modulus (GPa) = 6.51621 27.83999 17.17810
#
# Velocity S-wave (km/s) = 1.60907 3.32593 2.61256
# Velocity P-wave (km/s) = 3.02010 5.57085 4.48081
#
# Compressibility (1/GPa) = 0.07009084
#
# Stress axis : x y z
#
# Youngs Moduli (GPa) = 34.25287 7.83554 66.42771
#
# Poissons Ratio (x) = 0.33275 -0.55961
# Poissons Ratio (y) = 1.45459 1.11922
# Poissons Ratio (z) = -0.28856 0.13202
#
# Static dielectric constant tensor:
#      x y z
#    x -4.608220 -2.105170 -1.300590 
#    y -2.105170 1.395510 -0.381730 
#    z -1.300590 -0.381730 2.068140 
# 
# From -- ./inp_files/392151.got.cif
#   From: 2010.05.17/outbox.cif.g08.bks.cpg/sg2_197_cif.got.tgz:392151.got - 2010.06.03 11:33:40.
