data_PCOD9029847
_publ_section_title
;
Structure prediction by ZEFSAII (Michael W. Deem and Ramdas Pophale) SiO2 
 PCOD9029847
Probable space group: P -1
;
_chemical_formula_sum "Si O2"
_cell_formula_units_Z 16
_cell_length_a 14.651773
_cell_length_b 7.889464
_cell_length_c 10.159428
_cell_angle_alpha 126.914012
_cell_angle_beta 129.930222
_cell_angle_gamma 65.966431
_cell_volume 719.563890
_symmetry_space_group_name_H-M "P -1"
_symmetry_group_IT_number 2
_symmetry_cell_setting 'triclinic'
loop_
_space_group_symop_operation_xyz
x,y,z
-x,-y,-z
loop_
_atom_site_type_symbol
_atom_site_label
_atom_site_fract_x
_atom_site_fract_y
_atom_site_fract_z
Si Si1 0.991729 0.810566 0.658966
Si Si2 0.010059 0.289254 0.825270
Si Si3 0.558174 0.983885 0.690360
Si Si4 0.593282 0.426827 0.939224
Si Si5 0.592903 0.070129 0.231446
Si Si6 0.205489 0.243389 0.773331
Si Si7 0.867970 0.463161 0.529943
Si Si8 0.384787 0.450779 0.550419
O O1 0.889779 0.770213 0.437084
O O2 0.948815 0.670307 0.677199
O O3 0.106754 0.691528 0.643412
O O4 0.998997 0.065542 0.787713
O O5 0.135263 0.279486 0.859677
O O6 0.913133 0.331681 0.638701
O O7 0.000000 0.500000 0.000000
O O8 0.454712 0.019515 0.718105
O O9 0.619388 0.750367 0.644004
O O10 0.500000 0.000000 0.500000
O O11 0.639280 0.183428 0.882702
O O12 0.507764 0.431970 0.735583
O O13 0.500000 0.500000 0.000000
O O14 0.700125 0.580421 0.089759
O O15 0.607769 0.315806 0.391315
O O16 0.717601 0.973505 0.254481
O O17 0.500000 0.000000 0.000000
O O18 0.731827 0.541504 0.461051
#
# Coordination Sequence:
#
# PCOD9029847 Si02
#       8
#     2   2   2   2   2   2   2   2
#     4  10  22  43  71  93 128 170 227 270 330 396
#     4  11  25  45  65  99 132 167 221 283 337 394
#     4  10  24  39  58  90 135 173 211 267 332 393
#     4  11  20  40  62  94 129 172 219 258 323 406
#     4  12  22  39  63  94 129 177 223 265 319 403
#     4  11  22  41  70  90 131 176 217 266 328 392
#     4  10  22  42  68  97 122 177 219 270 330 396
#     4  11  22  39  61  95 136 161 216 271 328 390
#
# _framework density 22.235690999999999
#
# number of rings (size 3 to 8) (size 9 to 14) (size 15 to 20)
#    0.000    1.250    2.500    4.125    1.750    2.500 
#    6.750    5.000    0.000    0.000    0.000    0.000 
#    0.000    0.000    0.000    0.000    0.000    0.000 
#
# Total GULP energy -89359.054456 kJ/mol
# GULP energy per Si atom -5584.940903 kJ/mol
# Density = 2.218508 g / cm^3
# Si number density = 22.235691 Si / 1000 Ang^3
#
#
#
# Elastic Constant Matrix: (Units=GPa)
#
#
# Indices 1 2 3 4 5 6 
#
# 1 97.3344 28.1752 32.4647 10.7927 11.2338 -7.8005
# 2 28.1752 119.5998 35.1049 48.5208 4.0809 -4.9206
# 3 32.4647 35.1049 64.8270 29.9624 8.9941 -3.3625
# 4 10.7927 48.5208 29.9624 53.3826 8.0206 6.6657
# 5 11.2338 4.0809 8.9941 8.0206 28.5513 2.1833
# 6 -7.8005 -4.9206 -3.3625 6.6657 2.1833 43.3659
#
#
#
# Elastic Compliance Matrix: (Units=1/GPa)
#
#
# Indices 1 2 3 4 5 6 
#
# 1 0.013282 -0.002559 -0.006328 0.003635 -0.003983 0.001250
# 2 -0.002559 0.014493 -0.000769 -0.012988 0.002597 0.002990
# 3 -0.006328 -0.000769 0.025028 -0.012089 -0.002093 0.002679
# 4 0.003635 -0.012988 -0.012089 0.038407 -0.005992 -0.007359
# 5 -0.003983 0.002597 -0.002093 -0.005992 0.038687 -0.001611
# 6 0.001250 0.002990 0.002679 -0.007359 -0.001611 0.025044
#
#
# Mechanical properties :
#
#
# Convention : Reuss Voigt Hill
#
# Bulk Modulus (GPa) = 29.85917 52.58341 41.22129
# Shear Modulus (GPa) = 26.96612 37.46105 32.21359
#
# Velocity S-wave (km/s) = 3.48622 4.10899 3.81035
# Velocity P-wave (km/s) = 5.44634 6.79789 6.15930
#
# Compressibility (1/GPa) = 0.03349054
#
# Stress axis : x y z
#
# Youngs Moduli (GPa) = 75.28879 68.99750 39.95485
#
# Poissons Ratio (x) = 0.17655 0.25285
# Poissons Ratio (y) = 0.19265 0.03074
# Poissons Ratio (z) = 0.47646 0.05309
#
# Static dielectric constant tensor:
#      x y z
#    x 1.804750 0.025550 0.010080 
#    y 0.025550 1.923640 0.016530 
#    z 0.010080 0.016530 1.833820 
# 
# From -- ./inp_files/446442.got.cif
#   From: 2010.05.17/outbox.cif.g08.bks.cpg/sg2_224_cif.got.tgz:446442.got - 2010.06.03 11:33:40.
