data_PCOD9029336
_publ_section_title
;
Structure prediction by ZEFSAII (Michael W. Deem and Ramdas Pophale) SiO2 
 PCOD9029336
Probable space group: P -1
;
_chemical_formula_sum "Si O2"
_cell_formula_units_Z 14
_cell_length_a 6.954524
_cell_length_b 12.664413
_cell_length_c 7.226578
_cell_angle_alpha 118.764457
_cell_angle_beta 89.678859
_cell_angle_gamma 94.095602
_cell_volume 556.216266
_symmetry_space_group_name_H-M "P -1"
_symmetry_group_IT_number 2
_symmetry_cell_setting 'triclinic'
loop_
_space_group_symop_operation_xyz
x,y,z
-x,-y,-z
loop_
_atom_site_type_symbol
_atom_site_label
_atom_site_fract_x
_atom_site_fract_y
_atom_site_fract_z
Si Si1 0.141071 0.125951 0.321894
Si Si2 0.865220 0.300736 0.644670
Si Si3 0.271280 0.498829 0.458319
Si Si4 0.325955 0.337581 0.996834
Si Si5 0.247264 0.554482 0.907953
Si Si6 0.147389 0.083728 0.863900
Si Si7 0.440789 0.912986 0.594830
O O1 0.368637 0.131393 0.352718
O O2 0.044896 0.235141 0.512072
O O3 0.095955 0.125525 0.103925
O O4 0.037258 0.996891 0.283106
O O5 0.779724 0.388682 0.569397
O O6 0.701218 0.565097 0.082544
O O7 0.695989 0.195699 0.576971
O O8 0.500000 0.500000 0.500000
O O9 0.233718 0.385064 0.227308
O O10 0.175797 0.511737 0.670269
O O11 0.557989 0.355853 0.040893
O O12 0.237957 0.201086 0.853249
O O13 0.889169 0.373238 0.898117
O O14 0.312128 0.989023 0.795257
O O15 0.500000 0.000000 0.500000
#
# Coordination Sequence:
#
# PCOD9029336 Si02
#       7
#     2   2   2   2   2   2   2
#     4  10  24  45  67 100 139 176 233 279 335 421
#     4  10  22  42  67 103 139 179 225 283 345 404
#     4   9  19  36  67 104 131 180 228 275 340 411
#     4   9  18  36  67  99 136 175 228 274 340 408
#     4   9  18  37  66 103 136 171 228 280 336 409
#     4  10  22  44  68 100 134 184 225 276 345 407
#     4  11  24  43  70 101 134 179 229 280 351 407
#
# _framework density 25.170065999999998
#
# number of rings (size 3 to 8) (size 9 to 14) (size 15 to 20)
#    0.000    2.286    0.000    2.143    4.000    2.286 
#   10.286    2.857    0.000    1.714    0.000    0.000 
#    0.000    0.000    0.000    0.000    0.000    0.000 
#
# Total GULP energy -78450.695025 kJ/mol
# GULP energy per Si atom -5603.621073 kJ/mol
# Density = 2.511278 g / cm^3
# Si number density = 25.170066 Si / 1000 Ang^3
#
#
#
# Elastic Constant Matrix: (Units=GPa)
#
#
# Indices 1 2 3 4 5 6 
#
# 1 121.1256 20.8301 29.9860 17.7968 -15.5714 2.9801
# 2 20.8301 98.8716 52.5309 18.4232 6.3755 17.5424
# 3 29.9860 52.5309 176.2212 -5.6548 -31.4597 -7.6415
# 4 17.7968 18.4232 -5.6548 51.7638 6.4863 5.0354
# 5 -15.5714 6.3755 -31.4597 6.4863 32.3353 9.5878
# 6 2.9801 17.5424 -7.6415 5.0354 9.5878 32.8200
#
#
#
# Elastic Compliance Matrix: (Units=1/GPa)
#
#
# Indices 1 2 3 4 5 6 
#
# 1 0.009884 -0.001291 -0.000454 -0.003565 0.005713 -0.001435
# 2 -0.001291 0.016361 -0.006362 -0.004485 -0.006946 -0.007392
# 3 -0.000454 -0.006362 0.009439 0.002061 0.009008 0.002692
# 4 -0.003565 -0.004485 0.002061 0.022744 -0.003617 0.000768
# 5 0.005713 -0.006946 0.009008 -0.003617 0.046862 -0.007844
# 6 -0.001435 -0.007392 0.002692 0.000768 -0.007844 0.037351
#
#
# Mechanical properties :
#
#
# Convention : Reuss Voigt Hill
#
# Bulk Modulus (GPa) = 51.35738 66.99025 59.17382
# Shear Modulus (GPa) = 30.23965 42.90857 36.57411
#
# Velocity S-wave (km/s) = 3.46990 4.13334 3.81606
# Velocity P-wave (km/s) = 6.04169 7.03222 6.55569
#
# Compressibility (1/GPa) = 0.01947140
#
# Stress axis : x y z
#
# Youngs Moduli (GPa) = 101.17658 61.11928 105.93819
#
# Poissons Ratio (x) = 0.07889 0.04807
# Poissons Ratio (y) = 0.13060 0.67399
# Poissons Ratio (z) = 0.04591 0.38885
#
# Static dielectric constant tensor:
#      x y z
#    x 2.028320 0.030870 -0.010710 
#    y 0.030870 1.972720 -0.006410 
#    z -0.010710 -0.006410 1.989940 
# 
# From -- ./inp_files/135914.got.cif
#   From: 2010.05.17/outbox.cif.g08.bks.cpg/sg2_68_cif.got.tgz:135914.got - 2010.06.03 11:33:40.
