data_PCOD9029582
_publ_section_title
;
Structure prediction by ZEFSAII (Michael W. Deem and Ramdas Pophale) SiO2 
 PCOD9029582
Probable space group: P -1
;
_chemical_formula_sum "Si O2"
_cell_formula_units_Z 16
_cell_length_a 16.673121
_cell_length_b 12.569745
_cell_length_c 4.818155
_cell_angle_alpha 51.221623
_cell_angle_beta 79.930925
_cell_angle_gamma 50.489096
_cell_volume 563.776875
_symmetry_space_group_name_H-M "P -1"
_symmetry_group_IT_number 2
_symmetry_cell_setting 'triclinic'
loop_
_space_group_symop_operation_xyz
x,y,z
-x,-y,-z
loop_
_atom_site_type_symbol
_atom_site_label
_atom_site_fract_x
_atom_site_fract_y
_atom_site_fract_z
Si Si1 0.563302 0.263558 0.557996
Si Si2 0.332293 0.427862 0.314403
Si Si3 0.172025 0.240782 0.429798
Si Si4 0.180032 0.641718 0.556958
Si Si5 0.024530 0.627052 0.044740
Si Si6 0.903170 0.016229 0.656928
Si Si7 0.707879 0.161634 0.106355
Si Si8 0.400849 0.073579 0.640657
O O1 0.428929 0.424439 0.337910
O O2 0.621277 0.201592 0.323656
O O3 0.624333 0.296807 0.680139
O O4 0.580924 0.092210 0.954932
O O5 0.223725 0.561436 0.356497
O O6 0.380772 0.219672 0.627526
O O7 0.290085 0.501776 0.909729
O O8 0.283459 0.192775 0.353075
O O9 0.080179 0.323856 0.117790
O O10 0.217494 0.036632 0.782661
O O11 0.112228 0.406285 0.422281
O O12 0.090410 0.643047 0.747873
O O13 0.139032 0.844799 0.287016
O O14 0.968533 0.797962 0.011163
O O15 0.800089 0.119594 0.333341
O O16 0.000000 0.000000 0.500000
O O17 0.500000 0.000000 0.500000
#
# Coordination Sequence:
#
# PCOD9029582 Si02
#       8
#     2   2   2   2   2   2   2   2
#     4  11  24  40  65  98 135 175 217 270 341 397
#     4  12  24  41  65  98 135 176 224 270 326 399
#     4   9  18  36  65  99 133 168 215 269 341 393
#     4  11  24  42  66  95 132 175 225 275 324 390
#     4   9  18  39  67  95 133 171 219 276 333 395
#     4   9  21  45  71  96 129 179 228 279 336 388
#     4  10  22  42  67  98 137 171 219 275 333 407
#     4  11  22  39  67 102 140 180 216 271 337 409
#
# _framework density 28.380022
#
# number of rings (size 3 to 8) (size 9 to 14) (size 15 to 20)
#    0.000    1.750    1.250    3.375    1.750    1.000 
#    0.000   25.625    0.000    0.000    0.000    0.000 
#    0.000    0.000    0.000    0.000    0.000    0.000 
#
# Total GULP energy -89629.395829 kJ/mol
# GULP energy per Si atom -5601.837239 kJ/mol
# Density = 2.831543 g / cm^3
# Si number density = 28.380022 Si / 1000 Ang^3
#
#
#
# Elastic Constant Matrix: (Units=GPa)
#
#
# Indices 1 2 3 4 5 6 
#
# 1 168.7378 55.4707 36.2245 -11.2697 21.7056 -16.9122
# 2 55.4707 144.4721 14.6267 1.7161 -8.4342 -3.4204
# 3 36.2245 14.6267 85.4288 9.7539 4.6742 -8.4801
# 4 -11.2697 1.7161 9.7539 35.9462 -0.7367 -4.6930
# 5 21.7056 -8.4342 4.6742 -0.7367 53.7484 -24.9148
# 6 -16.9122 -3.4204 -8.4801 -4.6930 -24.9148 65.7511
#
#
#
# Elastic Compliance Matrix: (Units=1/GPa)
#
#
# Indices 1 2 3 4 5 6 
#
# 1 0.008354 -0.003103 -0.003189 0.003645 -0.003254 0.000603
# 2 -0.003103 0.008314 -0.000063 -0.001215 0.002830 0.000612
# 3 -0.003189 -0.000063 0.013647 -0.004594 0.000376 0.000751
# 4 0.003645 -0.001215 -0.004594 0.030614 0.000364 0.002605
# 5 -0.003254 0.002830 0.000376 0.000364 0.024323 0.008601
# 6 0.000603 0.000612 0.000751 0.002605 0.008601 0.018938
#
#
# Mechanical properties :
#
#
# Convention : Reuss Voigt Hill
#
# Bulk Modulus (GPa) = 56.80583 67.92026 62.36305
# Shear Modulus (GPa) = 40.72715 50.57695 45.65205
#
# Velocity S-wave (km/s) = 3.79233 4.22611 4.01508
# Velocity P-wave (km/s) = 6.26381 6.91359 6.59671
#
# Compressibility (1/GPa) = 0.01760383
#
# Stress axis : x y z
#
# Youngs Moduli (GPa) = 119.70865 120.28097 73.27501
#
# Poissons Ratio (x) = 0.37329 0.23368
# Poissons Ratio (y) = 0.37151 0.00461
# Poissons Ratio (z) = 0.38176 0.00756
#
# Static dielectric constant tensor:
#      x y z
#    x 2.297020 0.035680 -0.058210 
#    y 0.035680 2.186520 -0.089030 
#    z -0.058210 -0.089030 2.209490 
# 
# From -- ./inp_files/110462.got.cif
#   From: 2010.05.17/outbox.cif.g08.bks.cpg/sg2_56_cif.got.tgz:110462.got - 2010.06.03 11:33:40.
