data_PCOD9029381
_publ_section_title
;
Structure prediction by ZEFSAII (Michael W. Deem and Ramdas Pophale) SiO2 
 PCOD9029381
Probable space group: P -1
;
_chemical_formula_sum "Si O2"
_cell_formula_units_Z 16
_cell_length_a 17.544032
_cell_length_b 9.206118
_cell_length_c 8.554741
_cell_angle_alpha 133.730169
_cell_angle_beta 116.136441
_cell_angle_gamma 46.934583
_cell_volume 728.119124
_symmetry_space_group_name_H-M "P -1"
_symmetry_group_IT_number 2
_symmetry_cell_setting 'triclinic'
loop_
_space_group_symop_operation_xyz
x,y,z
-x,-y,-z
loop_
_atom_site_type_symbol
_atom_site_label
_atom_site_fract_x
_atom_site_fract_y
_atom_site_fract_z
Si Si1 0.384992 0.171396 0.444360
Si Si2 0.040551 0.790268 0.642419
Si Si3 0.280569 0.575041 0.135998
Si Si4 0.063934 0.683521 0.934509
Si Si5 0.133208 0.182013 0.702779
Si Si6 0.527603 0.952166 0.165904
Si Si7 0.321598 0.978901 0.498682
Si Si8 0.767164 0.339792 0.472988
O O1 0.331914 0.457660 0.571492
O O2 0.500000 0.000000 0.500000
O O3 0.421176 0.027695 0.207097
O O4 0.312302 0.135593 0.458017
O O5 0.048166 0.661369 0.718843
O O6 0.138942 0.658314 0.515631
O O7 0.942217 0.850166 0.497135
O O8 0.021839 0.044686 0.874013
O O9 0.312113 0.761976 0.282357
O O10 0.264816 0.568498 0.306228
O O11 0.170983 0.662085 0.028751
O O12 0.370919 0.327822 0.945171
O O13 0.070506 0.474993 0.892408
O O14 0.228808 0.137095 0.653973
O O15 0.189285 0.949309 0.698502
O O16 0.569801 0.107786 0.384433
O O17 0.500000 0.000000 0.000000
#
# Coordination Sequence:
#
# PCOD9029381 Si02
#       8
#     2   2   2   2   2   2   2   2
#     4  10  23  43  68  96 129 172 220 278 331 386
#     4  11  24  42  67  99 138 174 218 270 325 392
#     4  11  23  43  66  94 133 172 219 269 328 394
#     4  11  23  42  67  96 133 176 221 262 324 397
#     4  11  22  42  70  95 136 180 213 269 334 385
#     4  11  22  42  69  94 127 170 218 276 330 388
#     4  10  22  42  67  91 132 171 211 271 331 382
#     4  11  23  43  65  97 137 171 219 277 327 388
#
# _framework density 21.974426000000001
#
# number of rings (size 3 to 8) (size 9 to 14) (size 15 to 20)
#    0.000    1.250    5.000    1.500    1.750    1.500 
#    2.250    2.500    0.000    0.000    0.000    0.000 
#    0.000    0.000    0.000    0.000    0.000    0.000 
#
# Total GULP energy -89141.202852 kJ/mol
# GULP energy per Si atom -5571.325178 kJ/mol
# Density = 2.192441 g / cm^3
# Si number density = 21.974426 Si / 1000 Ang^3
#
#
#
# Elastic Constant Matrix: (Units=GPa)
#
#
# Indices 1 2 3 4 5 6 
#
# 1 88.3070 36.5527 13.8403 -1.8631 -8.3001 19.7509
# 2 36.5527 138.6046 21.8465 6.2432 11.5171 11.8918
# 3 13.8403 21.8465 42.3629 6.3526 18.7884 16.4951
# 4 -1.8631 6.2432 6.3526 22.9215 1.1168 -6.0844
# 5 -8.3001 11.5171 18.7884 1.1168 28.6276 -3.5911
# 6 19.7509 11.8918 16.4951 -6.0844 -3.5911 24.2085
#
#
#
# Elastic Compliance Matrix: (Units=1/GPa)
#
#
# Indices 1 2 3 4 5 6 
#
# 1 0.015787 -0.003640 -0.004835 0.001571 0.008381 -0.006160
# 2 -0.003640 0.009000 0.001687 -0.004122 -0.006194 -0.004556
# 3 -0.004835 0.001687 0.100746 -0.048693 -0.077498 -0.089264
# 4 0.001571 -0.004122 -0.048693 0.071808 0.038506 0.057681
# 5 0.008381 -0.006194 -0.077498 0.038506 0.098407 0.073286
# 6 -0.006160 -0.004556 -0.089264 0.057681 0.073286 0.134762
#
#
# Mechanical properties :
#
#
# Convention : Reuss Voigt Hill
#
# Bulk Modulus (GPa) = 8.93195 45.97262 27.45229
# Shear Modulus (GPa) = 10.38630 28.28718 19.33674
#
# Velocity S-wave (km/s) = 2.17642 3.59176 2.96964
# Velocity P-wave (km/s) = 3.22324 6.17797 4.92730
#
# Compressibility (1/GPa) = 0.11195765
#
# Stress axis : x y z
#
# Youngs Moduli (GPa) = 63.34266 111.11071 9.92599
#
# Poissons Ratio (x) = 0.40444 0.04799
# Poissons Ratio (y) = 0.23057 -0.01675
# Poissons Ratio (z) = 0.30625 -0.18747
#
# Static dielectric constant tensor:
#      x y z
#    x 1.945190 0.450520 -0.299170 
#    y 0.450520 2.583370 -0.548810 
#    z -0.299170 -0.548810 2.251600 
# 
# From -- ./inp_files/218118.got.cif
#   From: 2010.05.17/outbox.cif.g08.bks.cpg/sg2_110_cif.got.tgz:218118.got - 2010.06.03 11:33:40.
