data_PCOD9029781
_publ_section_title
;
Structure prediction by ZEFSAII (Michael W. Deem and Ramdas Pophale) SiO2 
 PCOD9029781
Probable space group: P -1
;
_chemical_formula_sum "Si O2"
_cell_formula_units_Z 16
_cell_length_a 9.374195
_cell_length_b 19.660595
_cell_length_c 26.686929
_cell_angle_alpha 18.644765
_cell_angle_beta 30.684707
_cell_angle_gamma 29.478153
_cell_volume 754.239264
_symmetry_space_group_name_H-M "P -1"
_symmetry_group_IT_number 2
_symmetry_cell_setting 'triclinic'
loop_
_space_group_symop_operation_xyz
x,y,z
-x,-y,-z
loop_
_atom_site_type_symbol
_atom_site_label
_atom_site_fract_x
_atom_site_fract_y
_atom_site_fract_z
Si Si1 0.684448 0.151980 0.087125
Si Si2 0.297885 0.980113 0.528092
Si Si3 0.612755 0.098077 0.945807
Si Si4 0.386953 0.009344 0.673411
Si Si5 0.143888 0.994419 0.227216
Si Si6 0.253369 0.604864 0.860191
Si Si7 0.347545 0.457121 0.423556
Si Si8 0.374293 0.793705 0.395568
O O1 0.600642 0.155990 0.168658
O O2 0.538290 0.978705 0.226866
O O3 0.539277 0.403261 0.933952
O O4 0.040648 0.045045 0.048602
O O5 0.406212 0.060336 0.388768
O O6 0.323294 0.718358 0.709296
O O7 0.500000 0.000000 0.500000
O O8 0.954934 0.117428 0.543919
O O9 0.590314 0.349875 0.761384
O O10 0.389742 0.084782 0.066084
O O11 0.500000 0.000000 0.000000
O O12 0.470250 0.214833 0.528600
O O13 0.051967 0.076031 0.706021
O O14 0.904517 0.195053 0.191788
O O15 0.312731 0.796417 0.353294
O O16 0.000000 0.500000 0.000000
O O17 0.458518 0.426178 0.468933
O O18 0.000000 0.500000 0.500000
#
# Coordination Sequence:
#
# PCOD9029781 Si02
#       8
#     2   2   2   2   2   2   2   2
#     4  11  23  44  68  97 138 172 223 275 330 393
#     4  11  22  42  67  97 135 168 219 273 329 392
#     4  12  25  46  68  99 135 175 222 279 326 397
#     4  11  23  43  68  96 134 172 217 274 331 389
#     4  11  23  45  68  97 139 173 219 276 332 391
#     4  11  23  43  67  99 137 174 218 277 330 392
#     4  11  23  44  68  92 132 174 220 270 328 391
#     4  10  22  42  68  94 133 172 217 272 326 390
#
# _framework density 21.213428
#
# number of rings (size 3 to 8) (size 9 to 14) (size 15 to 20)
#    0.000    1.000    8.750    0.000    1.750    5.000 
#    2.250    1.250    0.000    0.000    0.000    0.000 
#    0.000    0.000    0.000    0.000    0.000    0.000 
#
# Total GULP energy -89321.915576 kJ/mol
# GULP energy per Si atom -5582.619723 kJ/mol
# Density = 2.116514 g / cm^3
# Si number density = 21.213428 Si / 1000 Ang^3
#
#
#
# Elastic Constant Matrix: (Units=GPa)
#
#
# Indices 1 2 3 4 5 6 
#
# 1 71.8921 -0.3174 7.3771 -1.7581 4.7747 -19.9037
# 2 -0.3174 59.9365 29.4970 5.5509 6.4466 -21.9967
# 3 7.3771 29.4970 101.9131 19.1629 19.8507 -13.2374
# 4 -1.7581 5.5509 19.1629 37.8368 -6.8626 3.6917
# 5 4.7747 6.4466 19.8507 -6.8626 46.3222 -1.3763
# 6 -19.9037 -21.9967 -13.2374 3.6917 -1.3763 38.3359
#
#
#
# Elastic Compliance Matrix: (Units=1/GPa)
#
#
# Indices 1 2 3 4 5 6 
#
# 1 0.017341 0.004996 -0.000558 -0.001162 -0.002068 0.011715
# 2 0.004996 0.025267 -0.004683 -0.002997 -0.002002 0.015692
# 3 -0.000558 -0.004683 0.014315 -0.008019 -0.006539 0.002503
# 4 -0.001162 -0.002997 -0.008019 0.033225 0.008659 -0.007981
# 5 -0.002068 -0.002002 -0.006539 0.008659 0.026034 -0.004379
# 6 0.011715 0.015692 0.002503 -0.007981 -0.004379 0.042647
#
#
# Mechanical properties :
#
#
# Convention : Reuss Voigt Hill
#
# Bulk Modulus (GPa) = 17.72020 34.09501 25.90761
# Shear Modulus (GPa) = 28.06913 37.64465 32.85689
#
# Velocity S-wave (km/s) = 3.64150 4.21713 3.93984
# Velocity P-wave (km/s) = 5.10413 6.31027 5.73897
#
# Compressibility (1/GPa) = 0.05643277
#
# Stress axis : x y z
#
# Youngs Moduli (GPa) = 57.66559 39.57692 69.85817
#
# Poissons Ratio (x) = -0.19773 0.03900
# Poissons Ratio (y) = -0.28810 0.32715
# Poissons Ratio (z) = 0.03220 0.18534
#
# Static dielectric constant tensor:
#      x y z
#    x 1.805320 0.029500 0.007530 
#    y 0.029500 1.788370 -0.018560 
#    z 0.007530 -0.018560 1.769100 
# 
# From -- ./inp_files/350177.got.cif
#   From: 2010.05.17/outbox.cif.g08.bks.cpg/sg2_176_cif.got.tgz:350177.got - 2010.06.03 11:33:40.
