data_PCOD9029185
_publ_section_title
;
Structure prediction by ZEFSAII (Michael W. Deem and Ramdas Pophale) SiO2 
 PCOD9029185
Probable space group: P -1
;
_chemical_formula_sum "Si O2"
_cell_formula_units_Z 14
_cell_length_a 23.069418
_cell_length_b 14.496565
_cell_length_c 6.247282
_cell_angle_alpha 91.372771
_cell_angle_beta 75.016629
_cell_angle_gamma 158.939019
_cell_volume 565.586544
_symmetry_space_group_name_H-M "P -1"
_symmetry_group_IT_number 2
_symmetry_cell_setting 'triclinic'
loop_
_space_group_symop_operation_xyz
x,y,z
-x,-y,-z
loop_
_atom_site_type_symbol
_atom_site_label
_atom_site_fract_x
_atom_site_fract_y
_atom_site_fract_z
Si Si1 0.605541 0.829115 0.415122
Si Si2 0.575761 0.280193 0.707560
Si Si3 0.843355 0.695038 0.864928
Si Si4 0.601783 0.158733 0.153924
Si Si5 0.217655 0.774514 0.381721
Si Si6 0.974290 0.649533 0.125662
Si Si7 0.187123 0.149156 0.889107
O O1 0.468712 0.699322 0.398585
O O2 0.437052 0.503113 0.627444
O O3 0.676453 0.992099 0.559380
O O4 0.819535 0.108853 0.113358
O O5 0.789693 0.609577 0.660378
O O6 0.561991 0.158630 0.602136
O O7 0.371959 0.984535 0.046491
O O8 0.663905 0.358663 0.109515
O O9 0.824313 0.771402 0.967527
O O10 0.060890 0.977898 0.775804
O O11 0.825141 0.443528 0.046126
O O12 0.500000 0.000000 0.000000
O O13 0.000000 0.500000 0.500000
O O14 0.159653 0.599769 0.574338
O O15 0.072255 0.894144 0.099409
#
# Coordination Sequence:
#
# PCOD9029185 Si02
#       7
#     2   2   2   2   2   2   2
#     4  12  23  41  68  96 133 174 217 273 327 393
#     4  11  21  40  66 100 128 168 225 269 332 379
#     4   9  20  42  64  92 134 172 223 265 318 395
#     4   9  19  38  66  94 129 165 219 274 315 383
#     4  12  23  40  66  98 133 171 213 274 326 386
#     4  11  22  41  65 101 134 172 216 270 331 391
#     4  10  22  42  66  95 133 177 218 267 328 393
#
# _framework density 24.753064999999999
#
# number of rings (size 3 to 8) (size 9 to 14) (size 15 to 20)
#    0.000    1.429    4.286    1.714    0.000    0.571 
#    0.000   27.143    0.000    0.000    0.000    0.000 
#    0.000    0.000    0.000    0.000    0.000    0.000 
#
# Total GULP energy -78204.080980 kJ/mol
# GULP energy per Si atom -5586.005784 kJ/mol
# Density = 2.469673 g / cm^3
# Si number density = 24.753065 Si / 1000 Ang^3
#
#
#
# Elastic Constant Matrix: (Units=GPa)
#
#
# Indices 1 2 3 4 5 6 
#
# 1 118.9673 59.4121 21.8254 3.9086 8.8241 -15.2467
# 2 59.4121 186.3960 41.8048 -15.8391 14.8116 -20.4875
# 3 21.8254 41.8048 110.2324 -27.9158 -0.1933 -8.8278
# 4 3.9086 -15.8391 -27.9158 28.3683 1.0791 6.1076
# 5 8.8241 14.8116 -0.1933 1.0791 37.7845 0.0748
# 6 -15.2467 -20.4875 -8.8278 6.1076 0.0748 48.0895
#
#
#
# Elastic Compliance Matrix: (Units=1/GPa)
#
#
# Indices 1 2 3 4 5 6 
#
# 1 0.011002 -0.003130 -0.002323 -0.006043 -0.001186 0.002497
# 2 -0.003130 0.007236 -0.001248 0.003008 -0.002201 0.001483
# 3 -0.002323 -0.001248 0.013175 0.012659 0.000739 -0.000459
# 4 -0.006043 0.003008 0.012659 0.051303 -0.001159 -0.004824
# 5 -0.001186 -0.002201 0.000739 -0.001159 0.027645 -0.001074
# 6 0.002497 0.001483 -0.000459 -0.004824 -0.001074 0.022748
#
#
# Mechanical properties :
#
#
# Convention : Reuss Voigt Hill
#
# Bulk Modulus (GPa) = 55.52422 73.52003 64.52212
# Shear Modulus (GPa) = 32.78359 42.35202 37.56781
#
# Velocity S-wave (km/s) = 3.64321 4.14089 3.90000
# Velocity P-wave (km/s) = 6.33856 7.25455 6.81197
#
# Compressibility (1/GPa) = 0.01801016
#
# Stress axis : x y z
#
# Youngs Moduli (GPa) = 90.89436 138.19840 75.89851
#
# Poissons Ratio (x) = 0.43260 0.17635
# Poissons Ratio (y) = 0.28453 0.09470
# Poissons Ratio (z) = 0.21119 0.17244
#
# Static dielectric constant tensor:
#      x y z
#    x 2.044460 -0.041290 -0.019010 
#    y -0.041290 1.982470 0.025480 
#    z -0.019010 0.025480 2.043180 
# 
# From -- ./inp_files/124192.got.cif
#   From: 2010.05.17/outbox.cif.g08.bks.cpg/sg2_63_cif.got.tgz:124192.got - 2010.06.03 11:33:40.
