data_PCOD9029415
_publ_section_title
;
Structure prediction by ZEFSAII (Michael W. Deem and Ramdas Pophale) SiO2 
 PCOD9029415
Probable space group: P -1
;
_chemical_formula_sum "Si O2"
_cell_formula_units_Z 14
_cell_length_a 9.802150
_cell_length_b 8.181614
_cell_length_c 11.183780
_cell_angle_alpha 53.947762
_cell_angle_beta 88.726115
_cell_angle_gamma 79.237286
_cell_volume 708.025739
_symmetry_space_group_name_H-M "P -1"
_symmetry_group_IT_number 2
_symmetry_cell_setting 'triclinic'
loop_
_space_group_symop_operation_xyz
x,y,z
-x,-y,-z
loop_
_atom_site_type_symbol
_atom_site_label
_atom_site_fract_x
_atom_site_fract_y
_atom_site_fract_z
Si Si1 0.748280 0.581905 0.729643
Si Si2 0.723802 0.948681 0.926016
Si Si3 0.844674 0.620165 0.465370
Si Si4 0.448639 0.285929 0.106391
Si Si5 0.741369 0.043942 0.159061
Si Si6 0.630773 0.372493 0.623613
Si Si7 0.964761 0.309566 0.007659
O O1 0.803811 0.698874 0.568318
O O2 0.665063 0.698673 0.792136
O O3 0.638699 0.470264 0.713090
O O4 0.882282 0.415162 0.846525
O O5 0.661983 0.129032 0.753447
O O6 0.632689 0.776353 0.980302
O O7 0.888468 0.850097 0.947579
O O8 0.709923 0.039771 0.020142
O O9 0.757552 0.442946 0.523958
O O10 0.000000 0.500000 0.500000
O O11 0.806662 0.812027 0.296440
O O12 0.593230 0.121560 0.193009
O O13 0.500000 0.500000 0.000000
O O14 0.851381 0.190331 0.117056
O O15 0.500000 0.500000 0.500000
O O16 0.000000 0.500000 0.000000
#
# Coordination Sequence:
#
# PCOD9029415 Si02
#       7
#     2   2   2   2   2   2   2
#     4  10  23  44  65  91 145 167 211 281 334 377
#     4  12  23  40  73  96 129 175 228 270 333 392
#     4  10  22  42  67  93 134 168 221 275 327 391
#     4  12  23  42  63 100 137 167 220 278 328 391
#     4  12  23  40  69 100 126 177 227 272 321 402
#     4  10  22  43  66  97 131 175 217 269 335 391
#     4  12  22  43  68  99 132 172 218 279 335 382
#
# _framework density 19.773292000000001
#
# number of rings (size 3 to 8) (size 9 to 14) (size 15 to 20)
#    0.857    0.000    4.286    3.429    0.000    1.714 
#    0.000    2.143    0.000    0.000    0.000    0.000 
#    0.000    0.000    0.000    0.000    0.000    0.000 
#
# Total GULP energy -78013.939444 kJ/mol
# GULP energy per Si atom -5572.424246 kJ/mol
# Density = 1.972829 g / cm^3
# Si number density = 19.773292 Si / 1000 Ang^3
#
#
#
# Elastic Constant Matrix: (Units=GPa)
#
#
# Indices 1 2 3 4 5 6 
#
# 1 140.3830 35.4224 46.9097 -8.3970 11.0259 -12.7727
# 2 35.4224 72.1706 25.2645 -4.4408 4.8504 2.1531
# 3 46.9097 25.2645 119.3434 -16.9183 18.7662 4.2651
# 4 -8.3970 -4.4408 -16.9183 24.0183 -3.4660 1.9729
# 5 11.0259 4.8504 18.7662 -3.4660 39.8305 -8.3352
# 6 -12.7727 2.1531 4.2651 1.9729 -8.3352 41.9142
#
#
#
# Elastic Compliance Matrix: (Units=1/GPa)
#
#
# Indices 1 2 3 4 5 6 
#
# 1 0.009357 -0.003629 -0.002995 0.000214 -0.000022 0.003328
# 2 -0.003629 0.016398 -0.001822 0.000565 -0.000479 -0.001885
# 3 -0.002995 -0.001822 0.011691 0.006456 -0.004570 -0.003221
# 4 0.000214 0.000565 0.006456 0.046633 0.000312 -0.002754
# 5 -0.000022 -0.000479 -0.004570 0.000312 0.028641 0.006164
# 6 0.003328 -0.001885 -0.003221 -0.002754 0.006164 0.026652
#
#
# Mechanical properties :
#
#
# Convention : Reuss Voigt Hill
#
# Bulk Modulus (GPa) = 48.65088 60.78779 54.71933
# Shear Modulus (GPa) = 30.65295 36.10596 33.37945
#
# Velocity S-wave (km/s) = 3.94155 4.27780 4.11312
# Velocity P-wave (km/s) = 6.73589 7.43025 7.09157
#
# Compressibility (1/GPa) = 0.02055461
#
# Stress axis : x y z
#
# Youngs Moduli (GPa) = 106.87050 60.98204 85.53565
#
# Poissons Ratio (x) = 0.22129 0.25616
# Poissons Ratio (y) = 0.38782 0.15587
# Poissons Ratio (z) = 0.32006 0.11112
#
# Static dielectric constant tensor:
#      x y z
#    x 1.700900 0.007990 -0.006440 
#    y 0.007990 1.726600 -0.004400 
#    z -0.006440 -0.004400 1.687500 
# 
# From -- ./inp_files/381024.got.cif
#   From: 2010.05.17/outbox.cif.g08.bks.cpg/sg2_191_cif.got.tgz:381024.got - 2010.06.03 11:33:40.
