data_PCOD9029680
_publ_section_title
;
Structure prediction by ZEFSAII (Michael W. Deem and Ramdas Pophale) SiO2 
 PCOD9029680
Probable space group: P -1
;
_chemical_formula_sum "Si O2"
_cell_formula_units_Z 14
_cell_length_a 19.092696
_cell_length_b 9.449815
_cell_length_c 18.265580
_cell_angle_alpha 40.823794
_cell_angle_beta 164.167513
_cell_angle_gamma 140.637262
_cell_volume 568.647303
_symmetry_space_group_name_H-M "P -1"
_symmetry_group_IT_number 2
_symmetry_cell_setting 'triclinic'
loop_
_space_group_symop_operation_xyz
x,y,z
-x,-y,-z
loop_
_atom_site_type_symbol
_atom_site_label
_atom_site_fract_x
_atom_site_fract_y
_atom_site_fract_z
Si Si1 0.157992 0.973150 0.369491
Si Si2 0.315532 0.602545 0.052596
Si Si3 0.372894 0.719353 0.351136
Si Si4 0.042656 0.718688 0.870966
Si Si5 0.206204 0.107235 0.103218
Si Si6 0.738933 0.462264 0.302856
Si Si7 0.846988 0.743588 0.447492
O O1 0.314588 0.788932 0.618852
O O2 0.940876 0.868230 0.130999
O O3 0.334416 0.203891 0.419324
O O4 0.042766 0.050239 0.298171
O O5 0.344342 0.349595 0.177735
O O6 0.256177 0.692160 0.036563
O O7 0.047098 0.613180 0.736107
O O8 0.580105 0.734592 0.227610
O O9 0.222380 0.483666 0.327503
O O10 0.184805 0.717068 0.092601
O O11 0.368225 0.926626 0.317770
O O12 0.000000 0.000000 0.000000
O O13 0.778706 0.633615 0.342968
O O14 0.000000 0.500000 0.500000
O O15 0.500000 0.500000 0.000000
O O16 0.000000 0.000000 0.500000
#
# Coordination Sequence:
#
# PCOD9029680 Si02
#       7
#     2   2   2   2   2   2   2
#     4  11  25  44  73 104 150 199 251 314 373 462
#     4  12  26  48  76 109 154 194 248 313 385 452
#     4  10  22  42  68 103 153 192 256 299 368 462
#     4  10  24  41  68 110 147 199 242 303 383 457
#     4  11  23  43  71 108 151 200 248 302 380 457
#     4  12  29  51  82 110 147 200 264 318 389 453
#     4  12  29  52  77 110 148 194 260 330 383 447
#
# _framework density 24.61983
#
# number of rings (size 3 to 8) (size 9 to 14) (size 15 to 20)
#    0.000    0.857    2.857    2.571    8.000    1.714 
#    0.000    0.000    0.000    0.000    0.000    0.000 
#    0.000    0.000    0.000    0.000    0.000    0.000 
#
# Total GULP energy -78425.670550 kJ/mol
# GULP energy per Si atom -5601.833611 kJ/mol
# Density = 2.456379 g / cm^3
# Si number density = 24.619830 Si / 1000 Ang^3
#
#
#
# Elastic Constant Matrix: (Units=GPa)
#
#
# Indices 1 2 3 4 5 6 
#
# 1 169.8495 80.1562 63.3591 -1.2522 39.1231 -26.9280
# 2 80.1562 104.8218 22.1293 -4.0220 17.8823 -33.7184
# 3 63.3591 22.1293 120.5637 -1.4340 10.5234 -15.7941
# 4 -1.2522 -4.0220 -1.4340 36.0277 8.3387 13.2245
# 5 39.1231 17.8823 10.5234 8.3387 53.5016 -1.3435
# 6 -26.9280 -33.7184 -15.7941 13.2245 -1.3435 41.8921
#
#
#
# Elastic Compliance Matrix: (Units=1/GPa)
#
#
# Indices 1 2 3 4 5 6 
#
# 1 0.012584 -0.007712 -0.004725 0.000873 -0.005840 -0.000363
# 2 -0.007712 0.018695 0.002148 -0.002265 -0.000387 0.011603
# 3 -0.004725 0.002148 0.010694 -0.000793 0.000833 0.003001
# 4 0.000873 -0.002265 -0.000793 0.033187 -0.005205 -0.012204
# 5 -0.005840 -0.000387 0.000833 -0.005205 0.023705 -0.001349
# 6 -0.000363 0.011603 0.003001 -0.012204 -0.001349 0.037917
#
#
# Mechanical properties :
#
#
# Convention : Reuss Voigt Hill
#
# Bulk Modulus (GPa) = 46.73839 80.72491 63.73165
# Shear Modulus (GPa) = 30.39682 41.59032 35.99357
#
# Velocity S-wave (km/s) = 3.51757 4.11457 3.82773
# Velocity P-wave (km/s) = 5.96011 7.44531 6.74372
#
# Compressibility (1/GPa) = 0.02139569
#
# Stress axis : x y z
#
# Youngs Moduli (GPa) = 79.46772 53.48916 93.50918
#
# Poissons Ratio (x) = 0.41252 0.44182
# Poissons Ratio (y) = 0.61287 -0.20088
# Poissons Ratio (z) = 0.37548 -0.11491
#
# Static dielectric constant tensor:
#      x y z
#    x 1.994310 0.037690 0.025430 
#    y 0.037690 1.971040 0.011070 
#    z 0.025430 0.011070 1.940980 
# 
# From -- ./inp_files/575517.got.cif
#   From: 2010.05.17/outbox.cif.g08.bks.cpg/sg2_288_cif.got.tgz:575517.got - 2010.06.03 11:33:40.
