data_PCOD9029445
_publ_section_title
;
Structure prediction by ZEFSAII (Michael W. Deem and Ramdas Pophale) SiO2 
 PCOD9029445
Probable space group: P -1
;
_chemical_formula_sum "Si O2"
_cell_formula_units_Z 14
_cell_length_a 9.242257
_cell_length_b 9.592167
_cell_length_c 8.890475
_cell_angle_alpha 114.450865
_cell_angle_beta 69.971522
_cell_angle_gamma 91.157768
_cell_volume 667.249399
_symmetry_space_group_name_H-M "P -1"
_symmetry_group_IT_number 2
_symmetry_cell_setting 'triclinic'
loop_
_space_group_symop_operation_xyz
x,y,z
-x,-y,-z
loop_
_atom_site_type_symbol
_atom_site_label
_atom_site_fract_x
_atom_site_fract_y
_atom_site_fract_z
Si Si1 0.168985 0.524224 0.883331
Si Si2 0.805959 0.792031 0.374025
Si Si3 0.068725 0.770616 0.791993
Si Si4 0.444050 0.954991 0.332097
Si Si5 0.065928 0.628536 0.431736
Si Si6 0.787819 0.929859 0.116795
Si Si7 0.651650 0.376484 0.864402
O O1 0.263261 0.354975 0.739725
O O2 0.142459 0.616123 0.779449
O O3 0.254374 0.624191 0.012861
O O4 0.000000 0.500000 0.000000
O O5 0.836822 0.886357 0.253933
O O6 0.952185 0.709462 0.379541
O O7 0.695773 0.904050 0.574458
O O8 0.087998 0.758928 0.603001
O O9 0.155342 0.910291 0.876800
O O10 0.889223 0.802891 0.921298
O O11 0.602842 0.945365 0.176923
O O12 0.384535 0.790533 0.253807
O O13 0.500000 0.000000 0.500000
O O14 0.230114 0.565287 0.271225
O O15 0.000000 0.500000 0.500000
O O16 0.500000 0.500000 0.000000
#
# Coordination Sequence:
#
# PCOD9029445 Si02
#       7
#     2   2   2   2   2   2   2
#     4  12  22  45  70  99 137 190 233 279 349 424
#     4  11  22  43  72  91 139 186 227 283 351 416
#     4  11  23  40  68 101 134 179 234 292 343 414
#     4  10  23  42  67 100 138 180 231 289 345 411
#     4  12  24  41  68 104 136 174 239 289 341 406
#     4  10  22  42  67  94 140 179 227 289 353 414
#     4  12  26  44  75 103 138 190 238 278 354 425
#
# _framework density 20.981660999999999
#
# number of rings (size 3 to 8) (size 9 to 14) (size 15 to 20)
#    0.000    0.857    4.286    3.429    2.000    4.571 
#    2.571    2.857    0.000    0.000    0.000    0.000 
#    0.000    0.000    0.000    0.000    0.000    0.000 
#
# Total GULP energy -78115.147048 kJ/mol
# GULP energy per Si atom -5579.653361 kJ/mol
# Density = 2.093391 g / cm^3
# Si number density = 20.981661 Si / 1000 Ang^3
#
#
#
# Elastic Constant Matrix: (Units=GPa)
#
#
# Indices 1 2 3 4 5 6 
#
# 1 92.6670 33.2068 50.1396 6.7302 -13.1074 3.4265
# 2 33.2068 109.5709 32.6484 18.6376 -11.9848 5.1521
# 3 50.1396 32.6484 120.3638 13.1249 -17.0731 -1.5821
# 4 6.7302 18.6376 13.1249 40.9269 3.6428 6.4284
# 5 -13.1074 -11.9848 -17.0731 3.6428 53.0622 4.2461
# 6 3.4265 5.1521 -1.5821 6.4284 4.2461 28.9650
#
#
#
# Elastic Compliance Matrix: (Units=1/GPa)
#
#
# Indices 1 2 3 4 5 6 
#
# 1 0.014913 -0.002798 -0.005353 0.000714 0.001435 -0.001927
# 2 -0.002798 0.011314 -0.001183 -0.004312 0.001865 -0.001062
# 3 -0.005353 -0.001183 0.011485 -0.002733 0.002153 0.001762
# 4 0.000714 -0.004312 -0.002733 0.028269 -0.003196 -0.005272
# 5 0.001435 0.001865 0.002153 -0.003196 0.020751 -0.002716
# 6 -0.001927 -0.001062 0.001762 -0.005272 -0.002716 0.036606
#
#
# Mechanical properties :
#
#
# Convention : Reuss Voigt Hill
#
# Bulk Modulus (GPa) = 52.50733 61.62125 57.06429
# Shear Modulus (GPa) = 33.70325 38.36463 36.03394
#
# Velocity S-wave (km/s) = 4.01224 4.28072 4.14865
# Velocity P-wave (km/s) = 6.82230 7.33932 7.08552
#
# Compressibility (1/GPa) = 0.01904496
#
# Stress axis : x y z
#
# Youngs Moduli (GPa) = 67.05695 88.38339 87.06873
#
# Poissons Ratio (x) = 0.24733 0.46606
# Poissons Ratio (y) = 0.18765 0.10296
# Poissons Ratio (z) = 0.35894 0.10451
#
# Static dielectric constant tensor:
#      x y z
#    x 1.824450 0.019580 0.028720 
#    y 0.019580 1.757810 0.062900 
#    z 0.028720 0.062900 1.820840 
# 
# From -- ./inp_files/157327.got.cif
#   From: 2010.05.17/outbox.cif.g08.bks.cpg/sg2_79_cif.got.tgz:157327.got - 2010.06.03 11:33:40.
