data_PCOD9029849
_publ_section_title
;
Structure prediction by ZEFSAII (Michael W. Deem and Ramdas Pophale) SiO2 
 PCOD9029849
Probable space group: P -1
;
_chemical_formula_sum "Si O2"
_cell_formula_units_Z 14
_cell_length_a 11.570852
_cell_length_b 14.944813
_cell_length_c 5.411488
_cell_angle_alpha 81.259734
_cell_angle_beta 71.779080
_cell_angle_gamma 42.537613
_cell_volume 596.432489
_symmetry_space_group_name_H-M "P -1"
_symmetry_group_IT_number 2
_symmetry_cell_setting 'triclinic'
loop_
_space_group_symop_operation_xyz
x,y,z
-x,-y,-z
loop_
_atom_site_type_symbol
_atom_site_label
_atom_site_fract_x
_atom_site_fract_y
_atom_site_fract_z
Si Si1 0.035177 0.587446 0.464334
Si Si2 0.365056 0.025347 0.767503
Si Si3 0.800153 0.067354 0.137763
Si Si4 0.551389 0.420140 0.748117
Si Si5 0.288309 0.221543 0.087646
Si Si6 0.205922 0.854046 0.393340
Si Si7 0.236607 0.459895 0.893175
O O1 0.163308 0.527124 0.643910
O O2 0.000000 0.500000 0.500000
O O3 0.844621 0.729711 0.617964
O O4 0.120248 0.565060 0.153776
O O5 0.500000 0.000000 0.500000
O O6 0.232113 0.020977 0.755482
O O7 0.507726 0.898728 0.909402
O O8 0.262466 0.159477 0.925502
O O9 0.713014 0.167633 0.383532
O O10 0.723035 0.129915 0.894397
O O11 0.000000 0.000000 0.000000
O O12 0.500000 0.500000 0.500000
O O13 0.754797 0.271671 0.649944
O O14 0.429917 0.396908 0.829077
O O15 0.500000 0.500000 0.000000
O O16 0.242416 0.347387 0.966764
O O17 0.000000 0.000000 0.500000
#
# Coordination Sequence:
#
# PCOD9029849 Si02
#       7
#     2   2   2   2   2   2   2
#     4  10  22  42  68  97 126 180 234 277 351 430
#     4  11  26  40  68 109 140 184 239 302 358 422
#     4  10  23  46  70 101 141 191 238 292 363 437
#     4  12  26  46  70 106 143 187 249 306 361 431
#     4  10  24  43  66  99 144 180 232 292 361 436
#     4  10  23  47  74  99 140 192 244 294 369 436
#     4  11  24  44  72  95 139 190 232 287 368 436
#
# _framework density 23.472898000000001
#
# number of rings (size 3 to 8) (size 9 to 14) (size 15 to 20)
#    0.000    1.429    0.000    4.286   12.000    0.000 
#   15.429    0.000    0.000    0.000    0.000    0.000 
#    0.000    0.000    0.000    0.000    0.000    0.000 
#
# Total GULP energy -78141.361351 kJ/mol
# GULP energy per Si atom -5581.525811 kJ/mol
# Density = 2.341947 g / cm^3
# Si number density = 23.472898 Si / 1000 Ang^3
#
#
#
# Elastic Constant Matrix: (Units=GPa)
#
#
# Indices 1 2 3 4 5 6 
#
# 1 114.3394 33.7478 42.8603 14.9623 -0.2250 7.3228
# 2 33.7478 127.7086 53.0247 23.9328 6.5637 9.8181
# 3 42.8603 53.0247 172.7447 18.3266 35.1804 21.9272
# 4 14.9623 23.9328 18.3266 39.7631 9.3783 11.0238
# 5 -0.2250 6.5637 35.1804 9.3783 36.3311 1.6270
# 6 7.3228 9.8181 21.9272 11.0238 1.6270 31.0194
#
#
#
# Elastic Compliance Matrix: (Units=1/GPa)
#
#
# Indices 1 2 3 4 5 6 
#
# 1 0.010510 -0.001336 -0.002725 -0.002964 0.003677 0.000728
# 2 -0.001336 0.010102 -0.002759 -0.005005 0.002098 0.000737
# 3 -0.002725 -0.002759 0.009668 0.001913 -0.009127 -0.005519
# 4 -0.002964 -0.005005 0.001913 0.033454 -0.009133 -0.010478
# 5 0.003677 0.002098 -0.009127 -0.009133 0.038088 0.006168
# 6 0.000728 0.000737 -0.005519 -0.010478 0.006168 0.039134
#
#
# Mechanical properties :
#
#
# Convention : Reuss Voigt Hill
#
# Bulk Modulus (GPa) = 60.08976 74.89537 67.49257
# Shear Modulus (GPa) = 31.22216 40.43338 35.82777
#
# Velocity S-wave (km/s) = 3.65106 4.15487 3.91109
# Velocity P-wave (km/s) = 6.59006 7.41577 7.01508
#
# Compressibility (1/GPa) = 0.01664177
#
# Stress axis : x y z
#
# Youngs Moduli (GPa) = 95.14856 98.98585 103.43145
#
# Poissons Ratio (x) = 0.13220 0.28180
# Poissons Ratio (y) = 0.12707 0.28540
# Poissons Ratio (z) = 0.25923 0.27314
#
# Static dielectric constant tensor:
#      x y z
#    x 1.810820 0.032760 0.011290 
#    y 0.032760 1.916780 0.032850 
#    z 0.011290 0.032850 1.961340 
# 
# From -- ./inp_files/77572.got.cif
#   From: 2010.05.17/outbox.cif.g08.bks.cpg/sg2_39_cif.got.tgz:77572.got - 2010.06.03 11:33:40.
