data_PCOD9029419
_publ_section_title
;
Structure prediction by ZEFSAII (Michael W. Deem and Ramdas Pophale) SiO2 
 PCOD9029419
Probable space group: P -1
;
_chemical_formula_sum "Si O2"
_cell_formula_units_Z 16
_cell_length_a 8.369142
_cell_length_b 15.323107
_cell_length_c 9.314711
_cell_angle_alpha 68.614854
_cell_angle_beta 53.392362
_cell_angle_gamma 101.044233
_cell_volume 747.342179
_symmetry_space_group_name_H-M "P -1"
_symmetry_group_IT_number 2
_symmetry_cell_setting 'triclinic'
loop_
_space_group_symop_operation_xyz
x,y,z
-x,-y,-z
loop_
_atom_site_type_symbol
_atom_site_label
_atom_site_fract_x
_atom_site_fract_y
_atom_site_fract_z
Si Si1 0.256383 0.023835 0.387448
Si Si2 0.593589 0.834661 0.531635
Si Si3 0.414340 0.056960 0.812923
Si Si4 0.570457 0.208232 0.902311
Si Si5 0.609906 0.579215 0.530970
Si Si6 0.765430 0.407351 0.094061
Si Si7 0.745145 0.448138 0.740033
Si Si8 0.003514 0.807158 0.248233
O O1 0.311270 0.047282 0.511344
O O2 0.350810 0.949125 0.321805
O O3 0.446132 0.147124 0.152096
O O4 0.000000 0.000000 0.500000
O O5 0.580219 0.863408 0.358264
O O6 0.336463 0.725642 0.778838
O O7 0.810874 0.815162 0.441109
O O8 0.413873 0.115115 0.924630
O O9 0.186029 0.929342 0.009555
O O10 0.590804 0.324099 0.828806
O O11 0.827094 0.224151 0.743964
O O12 0.500000 0.500000 0.500000
O O13 0.426607 0.601771 0.687074
O O14 0.657667 0.521290 0.672770
O O15 0.844664 0.699937 0.295257
O O16 0.759968 0.443213 0.909342
O O17 0.000000 0.500000 0.000000
O O18 0.000000 0.500000 0.500000
#
# Coordination Sequence:
#
# PCOD9029419 Si02
#       8
#     2   2   2   2   2   2   2   2
#     4  11  22  43  63  93 134 170 217 267 331 396
#     4  11  23  42  65  97 134 167 219 277 331 391
#     4  11  24  40  67  99 129 176 215 271 336 399
#     4  11  23  42  67  95 130 171 223 267 333 401
#     4  11  25  44  72 100 134 178 223 282 338 396
#     4  11  26  45  66  99 137 175 228 278 334 401
#     4  12  24  45  71  96 133 178 229 276 339 398
#     4  10  22  42  67  93 135 166 222 268 330 398
#
# _framework density 21.409203000000002
#
# number of rings (size 3 to 8) (size 9 to 14) (size 15 to 20)
#    0.000    1.000    2.500    4.875    5.250    0.000 
#    2.250    0.000    0.000    0.000    0.000    0.000 
#    0.000    0.000    0.000    0.000    0.000    0.000 
#
# Total GULP energy -89124.561503 kJ/mol
# GULP energy per Si atom -5570.285094 kJ/mol
# Density = 2.136047 g / cm^3
# Si number density = 21.409203 Si / 1000 Ang^3
#
#
#
# Elastic Constant Matrix: (Units=GPa)
#
#
# Indices 1 2 3 4 5 6 
#
# 1 53.5953 26.2409 25.2011 -20.4521 -2.0884 20.3827
# 2 26.2409 121.0440 29.6870 -18.2070 -1.6692 31.2544
# 3 25.2011 29.6870 67.6584 -12.8057 -3.4439 19.2704
# 4 -20.4521 -18.2070 -12.8057 30.2151 3.1254 -0.9963
# 5 -2.0884 -1.6692 -3.4439 3.1254 34.5552 7.0706
# 6 20.3827 31.2544 19.2704 -0.9963 7.0706 30.2441
#
#
#
# Elastic Compliance Matrix: (Units=1/GPa)
#
#
# Indices 1 2 3 4 5 6 
#
# 1 0.039461 0.003664 -0.002751 0.026183 0.005882 -0.029140
# 2 0.003664 0.013261 -0.000627 0.009331 0.003277 -0.016232
# 3 -0.002751 -0.000627 0.020555 0.005724 0.003638 -0.011256
# 4 0.026183 0.009331 0.005724 0.057519 0.003511 -0.029861
# 5 0.005882 0.003277 0.003638 0.003511 0.033033 -0.017275
# 6 -0.029140 -0.016232 -0.011256 -0.029861 -0.017275 0.079704
#
#
# Mechanical properties :
#
#
# Convention : Reuss Voigt Hill
#
# Bulk Modulus (GPa) = 13.54145 44.95064 29.24605
# Shear Modulus (GPa) = 18.68612 29.74745 24.21679
#
# Velocity S-wave (km/s) = 2.95754 3.73160 3.36689
# Velocity P-wave (km/s) = 4.24282 6.29349 5.36701
#
# Compressibility (1/GPa) = 0.07384734
#
# Stress axis : x y z
#
# Youngs Moduli (GPa) = 25.34138 75.40927 48.65110
#
# Poissons Ratio (x) = -0.27628 0.13385
# Poissons Ratio (y) = -0.09284 0.03052
# Poissons Ratio (z) = 0.06972 0.04730
#
# Static dielectric constant tensor:
#      x y z
#    x 1.709890 0.229430 0.013470 
#    y 0.229430 1.721980 -0.130990 
#    z 0.013470 -0.130990 1.755230 
# 
# From -- ./inp_files/206737.got.cif
#   From: 2010.05.17/outbox.cif.g08.bks.cpg/sg2_104_cif.got.tgz:206737.got - 2010.06.03 11:33:40.
