data_PCOD9029570
_publ_section_title
;
Structure prediction by ZEFSAII (Michael W. Deem and Ramdas Pophale) SiO2 
 PCOD9029570
Probable space group: P -1
;
_chemical_formula_sum "Si O2"
_cell_formula_units_Z 16
_cell_length_a 6.714305
_cell_length_b 11.859103
_cell_length_c 26.420128
_cell_angle_alpha 29.984190
_cell_angle_beta 43.966271
_cell_angle_gamma 42.040680
_cell_volume 685.421500
_symmetry_space_group_name_H-M "P -1"
_symmetry_group_IT_number 2
_symmetry_cell_setting 'triclinic'
loop_
_space_group_symop_operation_xyz
x,y,z
-x,-y,-z
loop_
_atom_site_type_symbol
_atom_site_label
_atom_site_fract_x
_atom_site_fract_y
_atom_site_fract_z
Si Si1 0.235029 0.808109 0.407150
Si Si2 0.345494 0.826921 0.492667
Si Si3 0.618105 0.182448 0.347833
Si Si4 0.279326 0.334473 0.883519
Si Si5 0.314404 0.740696 0.971340
Si Si6 0.269775 0.137838 0.069815
Si Si7 0.170029 0.079067 0.772331
Si Si8 0.198624 0.445532 0.407248
O O1 0.333364 0.730954 0.476399
O O2 0.510702 0.873680 0.307080
O O3 0.070953 0.623524 0.489727
O O4 0.945954 0.052822 0.363166
O O5 0.513637 0.611208 0.584995
O O6 0.542910 0.005028 0.390920
O O7 0.000000 0.000000 0.500000
O O8 0.635795 0.430307 0.229168
O O9 0.349570 0.249446 0.412252
O O10 0.536422 0.119435 0.891330
O O11 0.242476 0.306251 0.961193
O O12 0.958852 0.321061 0.927140
O O13 0.541723 0.799498 0.945107
O O14 0.171332 0.977966 0.869210
O O15 0.500000 0.500000 0.000000
O O16 0.944168 0.126297 0.152232
O O17 0.948811 0.310294 0.691693
#
# Coordination Sequence:
#
# PCOD9029570 Si02
#       8
#     2   2   2   2   2   2   2   2
#     4  11  23  40  63  95 133 176 219 267 328 393
#     4  11  21  39  64  95 128 173 220 269 327 385
#     4  11  21  39  67  92 130 168 217 270 327 392
#     4  10  22  42  67  98 130 171 225 283 332 394
#     4  11  25  45  68  96 137 176 223 279 339 405
#     4  10  23  44  67  97 133 171 225 281 336 400
#     4  11  25  42  65  97 133 175 218 273 337 395
#     4  11  22  41  62  92 134 170 216 272 317 397
#
# _framework density 23.343301
#
# number of rings (size 3 to 8) (size 9 to 14) (size 15 to 20)
#    0.000    1.250    3.750    2.250    0.000    8.500 
#    2.250    0.000    0.000    0.000    0.000    0.000 
#    0.000    0.000    0.000    0.000    0.000    0.000 
#
# Total GULP energy -89186.851754 kJ/mol
# GULP energy per Si atom -5574.178235 kJ/mol
# Density = 2.329017 g / cm^3
# Si number density = 23.343301 Si / 1000 Ang^3
#
#
#
# Elastic Constant Matrix: (Units=GPa)
#
#
# Indices 1 2 3 4 5 6 
#
# 1 150.5599 17.6826 35.4412 -7.2002 -18.7366 -5.7511
# 2 17.6826 54.7280 27.1452 -1.0509 6.6578 -24.5565
# 3 35.4412 27.1452 131.7742 1.8480 -16.4713 -13.7210
# 4 -7.2002 -1.0509 1.8480 32.0584 -19.0041 -5.5274
# 5 -18.7366 6.6578 -16.4713 -19.0041 28.5558 3.6582
# 6 -5.7511 -24.5565 -13.7210 -5.5274 3.6582 37.1932
#
#
#
# Elastic Compliance Matrix: (Units=1/GPa)
#
#
# Indices 1 2 3 4 5 6 
#
# 1 0.009549 -0.005713 0.000089 0.010366 0.014827 -0.002180
# 2 -0.005713 0.036101 -0.006864 -0.011906 -0.026775 0.021284
# 3 0.000089 -0.006864 0.010247 0.005938 0.011649 -0.001001
# 4 0.010366 -0.011906 0.005938 0.066917 0.057508 0.000221
# 5 0.014827 -0.026775 0.011649 0.057508 0.097537 -0.012135
# 6 -0.002180 0.021284 -0.001001 0.000221 -0.012135 0.041459
#
#
# Mechanical properties :
#
#
# Convention : Reuss Voigt Hill
#
# Bulk Modulus (GPa) = 32.33765 55.28891 43.81328
# Shear Modulus (GPa) = 16.82972 36.68101 26.75536
#
# Velocity S-wave (km/s) = 2.68799 3.96835 3.38918
# Velocity P-wave (km/s) = 4.84942 6.68832 5.84168
#
# Compressibility (1/GPa) = 0.03092370
#
# Stress axis : x y z
#
# Youngs Moduli (GPa) = 104.71884 27.69976 97.58685
#
# Poissons Ratio (x) = 0.15824 -0.00873
# Poissons Ratio (y) = 0.59822 0.66983
# Poissons Ratio (z) = -0.00936 0.19013
#
# Static dielectric constant tensor:
#      x y z
#    x 1.905250 -0.047500 0.017220 
#    y -0.047500 1.950380 0.008460 
#    z 0.017220 0.008460 1.914760 
# 
# From -- ./inp_files/480743.got.cif
#   From: 2010.05.17/outbox.cif.g08.bks.cpg/sg2_241_cif.got.tgz:480743.got - 2010.06.03 11:33:40.
