data_PCOD9029717
_publ_section_title
;
Structure prediction by ZEFSAII (Michael W. Deem and Ramdas Pophale) SiO2 
 PCOD9029717
Probable space group: P -1
;
_chemical_formula_sum "Si O2"
_cell_formula_units_Z 14
_cell_length_a 10.395125
_cell_length_b 13.682015
_cell_length_c 7.777953
_cell_angle_alpha 137.414548
_cell_angle_beta 72.770735
_cell_angle_gamma 127.879211
_cell_volume 565.133712
_symmetry_space_group_name_H-M "P -1"
_symmetry_group_IT_number 2
_symmetry_cell_setting 'triclinic'
loop_
_space_group_symop_operation_xyz
x,y,z
-x,-y,-z
loop_
_atom_site_type_symbol
_atom_site_label
_atom_site_fract_x
_atom_site_fract_y
_atom_site_fract_z
Si Si1 0.457471 0.424133 0.646661
Si Si2 0.244258 0.262022 0.848349
Si Si3 0.222850 0.531128 0.365287
Si Si4 0.873175 0.094936 0.441960
Si Si5 0.807854 0.545802 0.354851
Si Si6 0.280242 0.888170 0.791391
Si Si7 0.320820 0.862607 0.133299
O O1 0.320504 0.286126 0.663956
O O2 0.581508 0.366803 0.511164
O O3 0.345795 0.436743 0.568739
O O4 0.589163 0.625110 0.943860
O O5 0.111142 0.058136 0.699373
O O6 0.183466 0.386503 0.052207
O O7 0.124617 0.424043 0.437584
O O8 0.210626 0.683502 0.503383
O O9 0.802761 0.047628 0.213908
O O10 0.741380 0.082113 0.610955
O O11 0.045035 0.298580 0.623741
O O12 0.745071 0.343894 0.075302
O O13 0.477798 0.013813 0.819450
O O14 0.255125 0.878205 0.993770
#
# Coordination Sequence:
#
# PCOD9029717 Si02
#       7
#     2   2   2   2   2   2   2
#     4   9  19  39  62  88 116 156 207 254 288 358
#     4   9  21  38  62  90 114 159 211 240 308 347
#     4   9  20  39  64  87 116 158 207 252 289 361
#     4  12  24  40  62  94 128 162 192 253 311 369
#     4  11  23  38  60  93 126 159 198 245 317 355
#     4  10  22  42  68  90 117 160 211 251 302 347
#     4  10  23  40  62  94 119 160 209 251 290 369
#
# _framework density 24.772897
#
# number of rings (size 3 to 8) (size 9 to 14) (size 15 to 20)
#    0.857    1.143    0.000    3.000    2.000    3.429 
#    5.143    0.000    0.000    0.000    0.000    0.000 
#    0.000    0.000    0.000    0.000    0.000    0.000 
#
# Total GULP energy -78222.994730 kJ/mol
# GULP energy per Si atom -5587.356766 kJ/mol
# Density = 2.471651 g / cm^3
# Si number density = 24.772897 Si / 1000 Ang^3
#
#
#
# Elastic Constant Matrix: (Units=GPa)
#
#
# Indices 1 2 3 4 5 6 
#
# 1 64.2078 6.5622 1.6109 11.0543 23.7764 -1.9689
# 2 6.5622 116.8127 25.4604 33.4457 14.1068 2.6614
# 3 1.6109 25.4604 32.7763 14.1860 -1.5409 -4.6049
# 4 11.0543 33.4457 14.1860 22.0337 -5.9840 -6.2197
# 5 23.7764 14.1068 -1.5409 -5.9840 14.2706 -5.9711
# 6 -1.9689 2.6614 -4.6049 -6.2197 -5.9711 29.3991
#
#
#
# Elastic Compliance Matrix: (Units=1/GPa)
#
#
# Indices 1 2 3 4 5 6 
#
# 1 0.001005 -0.012761 -0.000195 0.030924 0.029640 0.013754
# 2 -0.012761 0.002626 -0.005917 0.015616 0.027444 0.006859
# 3 -0.000195 -0.005917 0.042713 -0.015074 0.006721 0.005389
# 4 0.030924 0.015616 -0.015074 -0.012564 -0.082709 -0.021160
# 5 0.029640 0.027444 0.006721 -0.082709 -0.051895 -0.027485
# 6 0.013754 0.006859 0.005389 -0.021160 -0.027485 0.025100
#
#
# Mechanical properties :
#
#
# Convention : Reuss Voigt Hill
#
# Bulk Modulus (GPa) = 116.31573 31.22928 73.77250
# Shear Modulus (GPa) = 105.04654 25.15156 65.09905
#
# Velocity S-wave (km/s) = 6.51889 3.18981 5.13180
# Velocity P-wave (km/s) = 10.18410 5.11861 8.05965
#
# Compressibility (1/GPa) = 0.00859729
#
# Stress axis : x y z
#
# Youngs Moduli (GPa) = 994.62088 380.86137 23.41203
#
# Poissons Ratio (x) = 4.86011 0.00457
# Poissons Ratio (y) = 12.69220 0.13854
# Poissons Ratio (z) = 0.19421 2.25368
#
# Static dielectric constant tensor:
#      x y z
#    x 2.007350 0.054670 0.033240 
#    y 0.054670 1.938160 -0.010810 
#    z 0.033240 -0.010810 1.947690 
# 
# From -- ./inp_files/193015.got.cif
#   From: 2010.05.17/outbox.cif.g08.bks.cpg/sg2_97_cif.got.tgz:193015.got - 2010.06.03 11:33:40.
