data_PCOD9029845
_publ_section_title
;
Structure prediction by ZEFSAII (Michael W. Deem and Ramdas Pophale) SiO2 
 PCOD9029845
Probable space group: P -1
;
_chemical_formula_sum "Si O2"
_cell_formula_units_Z 13
_cell_length_a 5.416265
_cell_length_b 10.152138
_cell_length_c 16.308561
_cell_angle_alpha 137.604611
_cell_angle_beta 74.904507
_cell_angle_gamma 119.560984
_cell_volume 517.604299
_symmetry_space_group_name_H-M "P -1"
_symmetry_group_IT_number 2
_symmetry_cell_setting 'triclinic'
loop_
_space_group_symop_operation_xyz
x,y,z
-x,-y,-z
loop_
_atom_site_type_symbol
_atom_site_label
_atom_site_fract_x
_atom_site_fract_y
_atom_site_fract_z
Si Si1 0.294286 0.236525 0.398375
Si Si2 0.261003 0.758460 0.753754
Si Si3 0.708290 0.503030 0.212689
Si Si4 0.823232 0.428777 0.899595
Si Si5 0.652512 0.873210 0.473022
Si Si6 0.000000 0.500000 0.500000
Si Si7 0.328038 0.215543 0.964563
O O1 0.500000 0.500000 0.500000
O O2 0.419933 0.145519 0.273291
O O3 0.391412 0.180230 0.450682
O O4 0.003293 0.253372 0.416485
O O5 0.264006 0.629305 0.774162
O O6 0.043772 0.586143 0.628628
O O7 0.188921 0.956816 0.867932
O O8 0.568154 0.651559 0.325798
O O9 0.533390 0.335055 0.078703
O O10 0.021744 0.660600 0.217643
O O11 0.859659 0.656908 0.963976
O O12 0.500992 0.277320 0.890215
O O13 0.000000 0.500000 0.000000
O O14 0.500000 0.000000 0.500000
O O15 0.000000 0.000000 0.500000
#
# Coordination Sequence:
#
# PCOD9029845 Si02
#       7
#     2   2   2   2   2   1   2
#     4  10  23  45  68  98 144 192 245 306 369 441
#     4  11  24  42  72  99 137 188 244 300 371 445
#     4  11  24  45  67 103 145 183 245 309 362 450
#     4   9  22  43  65  97 141 181 231 300 369 442
#     4  12  30  47  76 112 150 202 253 312 382 448
#     4  10  22  42  68  96 142 186 244 302 362 434
#     4  10  23  43  71  98 138 186 236 301 375 445
#
# _framework density 25.115711000000001
#
# number of rings (size 3 to 8) (size 9 to 14) (size 15 to 20)
#    0.000    1.538    3.077    0.462    8.615    6.769 
#    0.000    0.000    0.000    0.000    0.000    0.000 
#    0.000    0.000    0.000    0.000    0.000    0.000 
#
# Total GULP energy -72393.876914 kJ/mol
# GULP energy per Si atom -5568.759763 kJ/mol
# Density = 2.505855 g / cm^3
# Si number density = 25.115711 Si / 1000 Ang^3
#
#
#
# Elastic Constant Matrix: (Units=GPa)
#
#
# Indices 1 2 3 4 5 6 
#
# 1 96.4871 49.9766 25.5579 -19.6661 -5.9246 -34.7345
# 2 49.9766 129.1022 53.5979 -30.7824 -3.2160 -47.6181
# 3 25.5579 53.5979 130.7297 -13.5746 -0.0664 -21.3663
# 4 -19.6661 -30.7824 -13.5746 47.6568 -0.3854 0.5018
# 5 -5.9246 -3.2160 -0.0664 -0.3854 26.7465 -1.6160
# 6 -34.7345 -47.6181 -21.3663 0.5018 -1.6160 50.0624
#
#
#
# Elastic Compliance Matrix: (Units=1/GPa)
#
#
# Indices 1 2 3 4 5 6 
#
# 1 0.016049 -0.000616 -0.000564 0.005989 0.004193 0.010383
# 2 -0.000616 0.017129 -0.003552 0.009671 0.002920 0.014347
# 3 -0.000564 -0.003552 0.009253 0.000103 -0.000518 0.000162
# 4 0.005989 0.009671 0.000103 0.029621 0.003715 0.013220
# 5 0.004193 0.002920 -0.000518 0.003715 0.039125 0.006692
# 6 0.010383 0.014347 0.000162 0.013220 0.006692 0.040978
#
#
# Mechanical properties :
#
#
# Convention : Reuss Voigt Hill
#
# Bulk Modulus (GPa) = 30.33394 68.28708 49.31051
# Shear Modulus (GPa) = 28.96754 40.03890 34.50322
#
# Velocity S-wave (km/s) = 3.39980 3.99705 3.71046
# Velocity P-wave (km/s) = 5.24552 6.96777 6.16706
#
# Compressibility (1/GPa) = 0.03296637
#
# Stress axis : x y z
#
# Youngs Moduli (GPa) = 62.31044 58.38011 108.07729
#
# Poissons Ratio (x) = 0.03598 0.06094
# Poissons Ratio (y) = 0.03841 0.38387
# Poissons Ratio (z) = 0.03513 0.20736
#
# Static dielectric constant tensor:
#      x y z
#    x 2.952560 0.369820 0.150780 
#    y 0.369820 2.162810 0.053320 
#    z 0.150780 0.053320 2.057770 
# 
# From -- ./inp_files/480116.got.cif
#   From: 2010.05.17/outbox.cif.g08.bks.cpg/sg2_241_cif.got.tgz:480116.got - 2010.06.03 11:33:40.
