data_PCOD9030363
_publ_section_title
;
Structure prediction by ZEFSAII (Michael W. Deem and Ramdas Pophale) SiO2 
 PCOD9030363
Probable space group: P -1
;
_chemical_formula_sum "Si O2"
_cell_formula_units_Z 16
_cell_length_a 13.430952
_cell_length_b 25.115552
_cell_length_c 8.023981
_cell_angle_alpha 48.442436
_cell_angle_beta 129.734704
_cell_angle_gamma 159.859601
_cell_volume 695.968011
_symmetry_space_group_name_H-M "P -1"
_symmetry_group_IT_number 2
_symmetry_cell_setting 'triclinic'
loop_
_space_group_symop_operation_xyz
x,y,z
-x,-y,-z
loop_
_atom_site_type_symbol
_atom_site_label
_atom_site_fract_x
_atom_site_fract_y
_atom_site_fract_z
Si Si1 0.577321 0.499836 0.258589
Si Si2 0.314860 0.913064 0.727646
Si Si3 0.611838 0.860644 0.433988
Si Si4 0.750534 0.781405 0.627163
Si Si5 0.657833 0.969249 0.775758
Si Si6 0.304909 0.297375 0.904115
Si Si7 0.833929 0.237417 0.813551
Si Si8 0.334495 0.169326 0.067693
O O1 0.362675 0.328144 0.404924
O O2 0.601352 0.574316 0.265597
O O3 0.891720 0.620831 0.305343
O O4 0.500000 0.500000 0.000000
O O5 0.414928 0.898710 0.744356
O O6 0.243643 0.945012 0.469958
O O7 0.599050 0.077214 0.791373
O O8 0.100532 0.774959 0.922344
O O9 0.653727 0.816117 0.442087
O O10 0.328846 0.769526 0.298785
O O11 0.629392 0.838380 0.686365
O O12 0.903147 0.050449 0.338820
O O13 0.624177 0.693664 0.851389
O O14 0.533449 0.829436 0.902019
O O15 0.955400 0.118434 0.888030
O O16 0.424374 0.296266 0.907497
O O17 0.000000 0.000000 0.000000
#
# Coordination Sequence:
#
# PCOD9030363 Si02
#       8
#     2   2   2   2   2   2   2   2
#     4  10  21  35  55  81 118 154 182 233 294 336
#     4  10  21  30  54  84 117 140 192 240 279 321
#     4  10  19  35  58  86 111 143 194 242 272 333
#     4   9  20  35  57  85 116 146 186 236 288 333
#     4  10  17  32  51  85 112 150 186 233 280 330
#     4   9  17  32  51  78 112 146 183 226 273 341
#     4  11  21  35  56  86 114 150 188 246 274 332
#     4   9  18  30  53  81 112 144 185 229 283 331
#
# _framework density 22.989561999999999
#
# number of rings (size 3 to 8) (size 9 to 14) (size 15 to 20)
#    0.000    2.250    2.500    0.750    5.250    1.500 
#    0.000    0.000    0.000   13.500    0.000    9.625 
#    0.000    0.000    0.000    0.000    0.000    0.000 
#
# Total GULP energy -89273.318690 kJ/mol
# GULP energy per Si atom -5579.582418 kJ/mol
# Density = 2.293724 g / cm^3
# Si number density = 22.989562 Si / 1000 Ang^3
#
#
#
# Elastic Constant Matrix: (Units=GPa)
#
#
# Indices 1 2 3 4 5 6 
#
# 1 128.0876 46.7507 27.4774 -13.4037 41.2689 -36.9849
# 2 46.7507 68.4279 11.6661 -16.1808 19.9900 -29.5147
# 3 27.4774 11.6661 77.5758 3.3431 -5.2438 -3.4159
# 4 -13.4037 -16.1808 3.3431 15.9620 -4.5724 10.4105
# 5 41.2689 19.9900 -5.2438 -4.5724 35.6169 -6.0709
# 6 -36.9849 -29.5147 -3.4159 10.4105 -6.0709 43.0382
#
#
#
# Elastic Compliance Matrix: (Units=1/GPa)
#
#
# Indices 1 2 3 4 5 6 
#
# 1 0.021682 0.000954 -0.009048 0.005105 -0.023956 0.013954
# 2 0.000954 0.029504 -0.005892 0.018820 -0.013712 0.014098
# 3 -0.009048 -0.005892 0.018073 -0.009286 0.014215 -0.006130
# 4 0.005105 0.018820 -0.009286 0.089913 -0.007365 -0.006231
# 5 -0.023956 -0.013712 0.014215 -0.007365 0.061542 -0.018400
# 6 0.013954 0.014098 -0.006130 -0.006231 -0.018400 0.043321
#
#
# Mechanical properties :
#
#
# Convention : Reuss Voigt Hill
#
# Bulk Modulus (GPa) = 24.22126 49.54217 36.88172
# Shear Modulus (GPa) = 16.35223 31.46990 23.91106
#
# Velocity S-wave (km/s) = 2.66989 3.70385 3.22853
# Velocity P-wave (km/s) = 4.47918 6.31569 5.47499
#
# Compressibility (1/GPa) = 0.04128604
#
# Stress axis : x y z
#
# Youngs Moduli (GPa) = 46.12078 33.89364 55.33245
#
# Poissons Ratio (x) = -0.03232 0.50066
# Poissons Ratio (y) = -0.04398 0.32601
# Poissons Ratio (z) = 0.41731 0.19970
#
# Static dielectric constant tensor:
#      x y z
#    x 1.937730 -0.022400 0.018070 
#    y -0.022400 1.843770 -0.014020 
#    z 0.018070 -0.014020 1.923900 
# 
# From -- ./inp_files/320587.got.cif
#   From: 2010.05.17/outbox.cif.g08.bks.cpg/sg2_161_cif.got.tgz:320587.got - 2010.06.03 11:33:40.
