data_PCOD9030163
_publ_section_title
;
Structure prediction by ZEFSAII (Michael W. Deem and Ramdas Pophale) SiO2 
 PCOD9030163
Probable space group: P -1
;
_chemical_formula_sum "Si O2"
_cell_formula_units_Z 15
_cell_length_a 9.014756
_cell_length_b 26.384237
_cell_length_c 18.722074
_cell_angle_alpha 19.128234
_cell_angle_beta 25.342949
_cell_angle_gamma 34.069326
_cell_volume 614.167106
_symmetry_space_group_name_H-M "P -1"
_symmetry_group_IT_number 2
_symmetry_cell_setting 'triclinic'
loop_
_space_group_symop_operation_xyz
x,y,z
-x,-y,-z
loop_
_atom_site_type_symbol
_atom_site_label
_atom_site_fract_x
_atom_site_fract_y
_atom_site_fract_z
Si Si1 0.477882 0.708964 0.980428
Si Si2 0.938337 0.702556 0.043229
Si Si3 0.774070 0.507036 0.018139
Si Si4 0.500000 0.000000 0.500000
Si Si5 0.877581 0.036199 0.585766
Si Si6 0.727555 0.798172 0.401594
Si Si7 0.739817 0.763346 0.601847
Si Si8 0.712423 0.398092 0.640448
O O1 0.315071 0.849968 0.831488
O O2 0.860412 0.809941 0.704059
O O3 0.477884 0.585815 0.081114
O O4 0.323294 0.615422 0.241563
O O5 0.804967 0.572939 0.333746
O O6 0.663599 0.668890 0.143094
O O7 0.328514 0.683596 0.876311
O O8 0.961140 0.892776 0.790842
O O9 0.595459 0.349020 0.269258
O O10 0.945102 0.631236 0.718504
O O11 0.000000 0.500000 0.000000
O O12 0.715401 0.883958 0.515112
O O13 0.473557 0.063603 0.722894
O O14 0.000000 0.000000 0.500000
O O15 0.846528 0.830971 0.387915
O O16 0.034684 0.725685 0.326397
#
# Coordination Sequence:
#
# PCOD9030163 Si02
#       8
#     2   2   2   1   2   2   2   2
#     4  11  22  43  69  96 135 184 227 288 344 413
#     4  11  23  43  67 104 135 188 229 284 351 421
#     4  11  24  39  68 104 137 175 241 293 335 403
#     4  10  22  42  70 100 122 176 242 278 336 402
#     4  12  21  41  72  95 131 184 237 280 332 416
#     4  12  24  42  70 106 137 184 235 290 347 414
#     4  11  22  42  75  95 132 183 241 279 336 430
#     4  11  26  41  69 104 146 179 228 293 358 410
#
# _framework density 24.423321000000001
#
# number of rings (size 3 to 8) (size 9 to 14) (size 15 to 20)
#    0.000    0.800    6.667    0.400    0.000    2.133 
#    0.000    0.000    0.000    2.400    0.000    0.000 
#    0.000    0.000    0.000    0.000    0.000    0.000 
#
# Total GULP energy -83522.431962 kJ/mol
# GULP energy per Si atom -5568.162131 kJ/mol
# Density = 2.436773 g / cm^3
# Si number density = 24.423321 Si / 1000 Ang^3
#
#
#
# Elastic Constant Matrix: (Units=GPa)
#
#
# Indices 1 2 3 4 5 6 
#
# 1 125.9041 33.5942 21.8976 2.8754 22.3511 -9.2671
# 2 33.5942 67.4967 24.4800 -12.2550 14.9979 -4.2291
# 3 21.8976 24.4800 102.3656 -18.5970 27.5961 2.0671
# 4 2.8754 -12.2550 -18.5970 31.8154 -1.6396 1.5411
# 5 22.3511 14.9979 27.5961 -1.6396 48.0220 -9.9939
# 6 -9.2671 -4.2291 2.0671 1.5411 -9.9939 49.7168
#
#
#
# Elastic Compliance Matrix: (Units=1/GPa)
#
#
# Indices 1 2 3 4 5 6 
#
# 1 0.009945 -0.004583 -0.001001 -0.003432 -0.002509 0.001108
# 2 -0.004583 0.019572 -0.001734 0.006793 -0.002725 0.000124
# 3 -0.001001 -0.001734 0.013678 0.007174 -0.007140 -0.002560
# 4 -0.003432 0.006793 0.007174 0.038467 -0.003816 -0.002320
# 5 -0.002509 -0.002725 -0.007140 -0.003816 0.027925 0.005329
# 6 0.001108 0.000124 -0.002560 -0.002320 0.005329 0.021581
#
#
# Mechanical properties :
#
#
# Convention : Reuss Voigt Hill
#
# Bulk Modulus (GPa) = 35.01501 50.63446 42.82474
# Shear Modulus (GPa) = 32.19124 40.29715 36.24420
#
# Velocity S-wave (km/s) = 3.63444 4.06636 3.85645
# Velocity P-wave (km/s) = 5.65509 6.54401 6.11572
#
# Compressibility (1/GPa) = 0.02855918
#
# Stress axis : x y z
#
# Youngs Moduli (GPa) = 100.55562 51.09292 73.11258
#
# Poissons Ratio (x) = 0.23416 0.07318
# Poissons Ratio (y) = 0.46084 0.12676
# Poissons Ratio (z) = 0.10065 0.08859
#
# Static dielectric constant tensor:
#      x y z
#    x 1.671670 -0.122570 0.118500 
#    y -0.122570 1.996280 -0.044370 
#    z 0.118500 -0.044370 2.100470 
# 
# From -- ./inp_files/563402.got.cif
#   From: 2010.05.17/outbox.cif.g08.bks.cpg/sg2_282_cif.got.tgz:563402.got - 2010.06.03 11:33:40.
