data_PCOD9030099
_publ_section_title
;
Structure prediction by ZEFSAII (Michael W. Deem and Ramdas Pophale) SiO2 
 PCOD9030099
Probable space group: P -1
;
_chemical_formula_sum "Si O2"
_cell_formula_units_Z 14
_cell_length_a 14.869785
_cell_length_b 13.966161
_cell_length_c 5.300027
_cell_angle_alpha 86.822445
_cell_angle_beta 88.682740
_cell_angle_gamma 151.974363
_cell_volume 510.272557
_symmetry_space_group_name_H-M "P -1"
_symmetry_group_IT_number 2
_symmetry_cell_setting 'triclinic'
loop_
_space_group_symop_operation_xyz
x,y,z
-x,-y,-z
loop_
_atom_site_type_symbol
_atom_site_label
_atom_site_fract_x
_atom_site_fract_y
_atom_site_fract_z
Si Si1 0.346563 0.960997 0.116978
Si Si2 0.594546 0.547280 0.237927
Si Si3 0.000000 0.000000 0.000000
Si Si4 0.130703 0.918548 0.411046
Si Si5 0.000000 0.000000 0.500000
Si Si6 0.685869 0.261150 0.651809
Si Si7 0.970933 0.322751 0.182297
Si Si8 0.265026 0.524318 0.732836
O O1 0.267930 0.990211 0.200667
O O2 0.340832 0.877939 0.355492
O O3 0.175696 0.759339 0.974457
O O4 0.540110 0.144784 0.912316
O O5 0.500000 0.500000 0.500000
O O6 0.595095 0.433363 0.248603
O O7 0.500000 0.500000 0.000000
O O8 0.818142 0.795204 0.221865
O O9 0.932880 0.871486 0.777758
O O10 0.158028 0.886740 0.671478
O O11 0.908142 0.679851 0.400597
O O12 0.136003 0.037388 0.368020
O O13 0.910514 0.498652 0.661192
O O14 0.641184 0.294222 0.427523
O O15 0.145375 0.440626 0.996651
#
# Coordination Sequence:
#
# PCOD9030099 Si02
#       8
#     2   2   1   2   1   2   2   2
#     4  10  23  44  67 105 136 187 246 298 374 450
#     4  12  28  49  75 111 152 203 259 316 387 459
#     4  12  26  50  76 108 150 202 248 320 384 454
#     4  10  23  42  70  99 142 190 240 301 373 444
#     4  12  24  44  78 106 148 202 248 314 380 452
#     4  10  23  43  70  99 145 181 241 312 364 442
#     4  10  22  42  69  96 137 185 233 296 376 438
#     4  10  23  46  66 102 146 186 242 312 366 449
#
# _framework density 27.436316999999999
#
# number of rings (size 3 to 8) (size 9 to 14) (size 15 to 20)
#    0.000    1.429    1.429    2.143    6.000    8.571 
#    5.143    2.857    0.000    0.000    0.000    0.000 
#    0.000    0.000    0.000    0.000    0.000    0.000 
#
# Total GULP energy -78040.438814 kJ/mol
# GULP energy per Si atom -5574.317058 kJ/mol
# Density = 2.737387 g / cm^3
# Si number density = 27.436317 Si / 1000 Ang^3
#
#
#
# Elastic Constant Matrix: (Units=GPa)
#
#
# Indices 1 2 3 4 5 6 
#
# 1 177.8051 52.3752 40.8822 -4.0527 -3.1537 -7.1849
# 2 52.3752 117.4368 16.1358 -13.0448 1.3141 -8.9411
# 3 40.8822 16.1358 125.9995 -18.7987 -32.9418 1.9726
# 4 -4.0527 -13.0448 -18.7987 38.5969 10.1590 4.5571
# 5 -3.1537 1.3141 -32.9418 10.1590 31.5064 -9.4294
# 6 -7.1849 -8.9411 1.9726 4.5571 -9.4294 44.0609
#
#
#
# Elastic Compliance Matrix: (Units=1/GPa)
#
#
# Indices 1 2 3 4 5 6 
#
# 1 0.006991 -0.002866 -0.002378 -0.001159 -0.001131 0.000543
# 2 -0.002866 0.010317 -0.000418 0.003405 -0.001993 0.000866
# 3 -0.002378 -0.000418 0.012293 0.002182 0.012346 0.001393
# 4 -0.001159 0.003405 0.002182 0.031054 -0.009434 -0.004827
# 5 -0.001131 -0.001993 0.012346 -0.009434 0.050868 0.010720
# 6 0.000543 0.000866 0.001393 -0.004827 0.010720 0.025691
#
#
# Mechanical properties :
#
#
# Convention : Reuss Voigt Hill
#
# Bulk Modulus (GPa) = 54.71393 71.11418 62.91406
# Shear Modulus (GPa) = 32.33504 43.62270 37.97887
#
# Velocity S-wave (km/s) = 3.43672 3.99176 3.72459
# Velocity P-wave (km/s) = 5.97775 6.87179 6.44031
#
# Compressibility (1/GPa) = 0.01827688
#
# Stress axis : x y z
#
# Youngs Moduli (GPa) = 143.04974 96.92584 81.34444
#
# Poissons Ratio (x) = 0.27776 0.19347
# Poissons Ratio (y) = 0.40994 0.03400
# Poissons Ratio (z) = 0.34023 0.04052
#
# Static dielectric constant tensor:
#      x y z
#    x 3.424530 0.183270 0.529900 
#    y 0.183270 1.827550 -0.108320 
#    z 0.529900 -0.108320 2.256720 
# 
# From -- ./inp_files/88541.got.cif
#   From: 2010.05.17/outbox.cif.g08.bks.cpg/sg2_45_cif.got.tgz:88541.got - 2010.06.03 11:33:40.
