data_PCOD9030761
_publ_section_title
;
Structure prediction by ZEFSAII (Michael W. Deem and Ramdas Pophale) SiO2 
 PCOD9030761
Probable space group: P -1
;
_chemical_formula_sum "Si O2"
_cell_formula_units_Z 16
_cell_length_a 12.164899
_cell_length_b 9.603506
_cell_length_c 13.666728
_cell_angle_alpha 102.087122
_cell_angle_beta 56.934381
_cell_angle_gamma 137.816098
_cell_volume 842.915583
_symmetry_space_group_name_H-M "P -1"
_symmetry_group_IT_number 2
_symmetry_cell_setting 'triclinic'
loop_
_space_group_symop_operation_xyz
x,y,z
-x,-y,-z
loop_
_atom_site_type_symbol
_atom_site_label
_atom_site_fract_x
_atom_site_fract_y
_atom_site_fract_z
Si Si1 0.802437 0.731770 0.064526
Si Si2 0.792620 0.288244 0.515690
Si Si3 0.915110 0.806809 0.235232
Si Si4 0.136566 0.920721 0.663788
Si Si5 0.645531 0.028301 0.244685
Si Si6 0.343406 0.151723 0.970847
Si Si7 0.210868 0.515338 0.121429
Si Si8 0.120856 0.530334 0.713717
O O1 0.780416 0.690257 0.184022
O O2 0.636870 0.685449 0.077680
O O3 0.830016 0.606834 0.976000
O O4 0.000000 0.000000 0.000000
O O5 0.596513 0.168640 0.654621
O O6 0.795837 0.367778 0.420185
O O7 0.000000 0.500000 0.500000
O O8 0.784394 0.114137 0.466056
O O9 0.865145 0.913568 0.327734
O O10 0.883166 0.637919 0.286311
O O11 0.150641 0.006750 0.114341
O O12 0.263100 0.987741 0.711228
O O13 0.910860 0.676216 0.765054
O O14 0.702326 0.006504 0.111223
O O15 0.738702 0.261742 0.250326
O O16 0.551696 0.286585 0.942955
O O17 0.099835 0.575854 0.185262
#
# Coordination Sequence:
#
# PCOD9030761 Si02
#       8
#     2   2   2   2   2   2   2   2
#     4  10  17  32  52  79 112 151 191 219 268 341
#     4  10  21  41  64  83 106 146 199 235 278 341
#     4  11  21  36  55  88 120 149 183 239 289 332
#     4  10  18  35  59  82 111 150 191 233 275 336
#     4  10  19  38  61  82 105 155 200 229 267 341
#     4  11  20  32  61  85 119 149 195 231 280 341
#     4  10  19  33  54  85 113 157 192 229 274 335
#     4  10  22  37  58  85 114 148 193 237 285 332
#
# _framework density 18.981733999999999
#
# number of rings (size 3 to 8) (size 9 to 14) (size 15 to 20)
#    0.000    2.000    3.750    5.625    0.000    2.500 
#    0.000    4.375    0.000    0.000    0.000    0.000 
#    0.000    0.000    0.000    0.000    0.000    0.000 
#
# Total GULP energy -89275.337398 kJ/mol
# GULP energy per Si atom -5579.708587 kJ/mol
# Density = 1.893853 g / cm^3
# Si number density = 18.981734 Si / 1000 Ang^3
#
#
#
# Elastic Constant Matrix: (Units=GPa)
#
#
# Indices 1 2 3 4 5 6 
#
# 1 73.1557 48.2459 13.2825 -7.9517 -9.9958 -23.2126
# 2 48.2459 68.4729 4.0827 8.0790 -5.4703 -15.9559
# 3 13.2825 4.0827 30.5540 5.0845 -10.1987 -5.8155
# 4 -7.9517 8.0790 5.0845 24.5695 6.9734 -8.1771
# 5 -9.9958 -5.4703 -10.1987 6.9734 19.7843 -6.6316
# 6 -23.2126 -15.9559 -5.8155 -8.1771 -6.6316 50.1401
#
#
#
# Elastic Compliance Matrix: (Units=1/GPa)
#
#
# Indices 1 2 3 4 5 6 
#
# 1 0.047694 -0.033689 -0.021046 0.036855 -0.004241 0.014368
# 2 -0.033689 0.041554 0.019067 -0.034020 0.015041 -0.003721
# 3 -0.021046 0.019067 0.058241 -0.035082 0.037818 0.002360
# 4 0.036855 -0.034020 -0.035082 0.084776 -0.034940 0.011372
# 5 -0.004241 0.015041 0.037818 -0.034940 0.088815 0.013258
# 6 0.014368 -0.003721 0.002360 0.011372 0.013258 0.029293
#
#
# Mechanical properties :
#
#
# Convention : Reuss Voigt Hill
#
# Bulk Modulus (GPa) = 13.13183 33.71162 23.42172
# Shear Modulus (GPa) = 11.18332 26.00354 18.59343
#
# Velocity S-wave (km/s) = 2.42990 3.70526 3.13316
# Velocity P-wave (km/s) = 3.84782 6.00865 5.04528
#
# Compressibility (1/GPa) = 0.07615086
#
# Stress axis : x y z
#
# Youngs Moduli (GPa) = 20.96696 24.06533 17.17012
#
# Poissons Ratio (x) = 0.81075 0.36136
# Poissons Ratio (y) = 0.70637 -0.32738
# Poissons Ratio (z) = 0.44127 -0.45885
#
# Static dielectric constant tensor:
#      x y z
#    x 1.692400 0.009350 -0.022890 
#    y 0.009350 1.670890 0.014500 
#    z -0.022890 0.014500 1.662090 
# 
# From -- ./inp_files/331951.got.cif
#   From: 2010.05.17/outbox.cif.g08.bks.cpg/sg2_166_cif.got.tgz:331951.got - 2010.06.03 11:33:40.
