data_PCOD9030238
_publ_section_title
;
Structure prediction by ZEFSAII (Michael W. Deem and Ramdas Pophale) SiO2 
 PCOD9030238
Probable space group: P -1
;
_chemical_formula_sum "Si O2"
_cell_formula_units_Z 12
_cell_length_a 5.396289
_cell_length_b 22.690781
_cell_length_c 22.639822
_cell_angle_alpha 167.272078
_cell_angle_beta 129.773814
_cell_angle_gamma 49.432838
_cell_volume 463.723095
_symmetry_space_group_name_H-M "P -1"
_symmetry_group_IT_number 2
_symmetry_cell_setting 'triclinic'
loop_
_space_group_symop_operation_xyz
x,y,z
-x,-y,-z
loop_
_atom_site_type_symbol
_atom_site_label
_atom_site_fract_x
_atom_site_fract_y
_atom_site_fract_z
Si Si1 0.191074 0.371001 0.663010
Si Si2 0.578018 0.769955 0.710877
Si Si3 0.211622 0.714885 0.816049
Si Si4 0.248138 0.024041 0.614116
Si Si5 0.254865 0.638882 0.047842
Si Si6 0.938295 0.090261 0.898230
O O1 0.582270 0.273285 0.630565
O O2 0.127577 0.423447 0.774037
O O3 0.110627 0.129130 0.372909
O O4 0.023075 0.646901 0.876808
O O5 0.829909 0.675385 0.709582
O O6 0.600052 0.534545 0.435824
O O7 0.212237 0.909067 0.803628
O O8 0.715788 0.016901 0.942309
O O9 0.300219 0.761842 0.943063
O O10 0.528499 0.183210 0.785110
O O11 0.046843 0.180615 0.789543
O O12 0.000000 0.000000 0.500000
O O13 0.500000 0.500000 0.000000
#
# Coordination Sequence:
#
# PCOD9030238 Si02
#       6
#     2   2   2   2   2   2
#     4  12  28  46  69 110 142 200 244 312 381 448
#     4  10  22  42  70 102 139 189 241 294 358 438
#     4  10  22  42  70 102 139 189 241 294 358 438
#     4  12  27  50  80 111 148 196 257 317 377 451
#     4  12  27  50  80 111 148 196 257 317 377 451
#     4  12  25  46  66 106 144 190 236 302 378 438
#
# _framework density 25.877513
#
# number of rings (size 3 to 8) (size 9 to 14) (size 15 to 20)
#    0.000    0.667    3.333    3.500    0.000    4.000 
#    6.000    6.667    0.000    0.000    0.000    0.000 
#    0.000    0.000    0.000    0.000    0.000    0.000 
#
# Total GULP energy -67023.418014 kJ/mol
# GULP energy per Si atom -5585.284835 kJ/mol
# Density = 2.581861 g / cm^3
# Si number density = 25.877513 Si / 1000 Ang^3
#
#
#
# Elastic Constant Matrix: (Units=GPa)
#
#
# Indices 1 2 3 4 5 6 
#
# 1 136.1212 28.4705 60.6607 -11.3598 -39.6966 14.4623
# 2 28.4705 98.5991 45.4889 -5.0112 -14.4471 9.5464
# 3 60.6607 45.4889 209.9263 -17.9019 -50.2687 18.3290
# 4 -11.3598 -5.0112 -17.9019 57.1148 9.6205 -23.3330
# 5 -39.6966 -14.4471 -50.2687 9.6205 64.4521 -3.8188
# 6 14.4623 9.5464 18.3290 -23.3330 -3.8188 35.5216
#
#
#
# Elastic Compliance Matrix: (Units=1/GPa)
#
#
# Indices 1 2 3 4 5 6 
#
# 1 0.009793 -0.001332 -0.001213 -0.000493 0.004693 -0.002822
# 2 -0.001332 0.011626 -0.001961 -0.000726 0.000245 -0.002021
# 3 -0.001213 -0.001961 0.006641 0.000283 0.003844 -0.001807
# 4 -0.000493 -0.000726 0.000283 0.024472 -0.002950 0.016008
# 5 0.004693 0.000245 0.003844 -0.002950 0.021688 -0.003566
# 6 -0.002822 -0.002021 -0.001807 0.016008 -0.003566 0.040908
#
#
# Mechanical properties :
#
#
# Convention : Reuss Voigt Hill
#
# Bulk Modulus (GPa) = 52.49943 79.32078 65.91010
# Shear Modulus (GPa) = 38.31686 52.08614 45.20150
#
# Velocity S-wave (km/s) = 3.85216 4.49129 4.18395
# Velocity P-wave (km/s) = 6.33382 7.59042 6.99041
#
# Compressibility (1/GPa) = 0.01904783
#
# Stress axis : x y z
#
# Youngs Moduli (GPa) = 102.11393 86.01282 150.57096
#
# Poissons Ratio (x) = 0.11459 0.18262
# Poissons Ratio (y) = 0.13604 0.29531
# Poissons Ratio (z) = 0.12385 0.16869
#
# Static dielectric constant tensor:
#      x y z
#    x 1.931540 -0.092620 0.070810 
#    y -0.092620 2.133060 -0.032920 
#    z 0.070810 -0.032920 2.025670 
# 
# From -- ./inp_files/8589.got.cif
#   From: 2010.05.17/outbox.cif.g08.bks.cpg/sg2_5_cif.got.tgz:8589.got - 2010.06.03 11:33:40.
