data_PCOD9030498
_publ_section_title
;
Structure prediction by ZEFSAII (Michael W. Deem and Ramdas Pophale) SiO2 
 PCOD9030498
Probable space group: P -1
;
_chemical_formula_sum "Si O2"
_cell_formula_units_Z 14
_cell_length_a 5.212740
_cell_length_b 17.282273
_cell_length_c 11.575164
_cell_angle_alpha 136.435460
_cell_angle_beta 52.462166
_cell_angle_gamma 122.400156
_cell_volume 561.303294
_symmetry_space_group_name_H-M "P -1"
_symmetry_group_IT_number 2
_symmetry_cell_setting 'triclinic'
loop_
_space_group_symop_operation_xyz
x,y,z
-x,-y,-z
loop_
_atom_site_type_symbol
_atom_site_label
_atom_site_fract_x
_atom_site_fract_y
_atom_site_fract_z
Si Si1 0.217971 0.618109 0.803132
Si Si2 0.621667 0.471113 0.692545
Si Si3 0.286599 0.098728 0.678170
Si Si4 0.525461 0.768556 0.454104
Si Si5 0.416171 0.026711 0.182841
Si Si6 0.421751 0.176089 0.962152
Si Si7 0.110894 0.307348 0.368906
O O1 0.384132 0.535183 0.752258
O O2 0.510521 0.643724 0.653292
O O3 0.854135 0.563390 0.808379
O O4 0.257792 0.742206 0.985342
O O5 0.407997 0.359848 0.691854
O O6 0.912376 0.406251 0.493569
O O7 0.285193 0.159269 0.621252
O O8 0.431947 0.184440 0.832175
O O9 0.500000 0.000000 0.500000
O O10 0.943247 0.036206 0.753157
O O11 0.562436 0.844045 0.642164
O O12 0.125276 0.751876 0.530027
O O13 0.625648 0.955461 0.129776
O O14 0.500000 0.000000 0.000000
O O15 0.141729 0.227848 0.163916
#
# Coordination Sequence:
#
# PCOD9030498 Si02
#       7
#     2   2   2   2   2   2   2
#     4  10  22  42  73 104 148 187 251 304 363 426
#     4  10  22  42  71 107 144 192 246 305 362 437
#     4  12  26  46  70  97 153 190 236 298 371 451
#     4  10  24  43  68 106 136 190 238 293 370 435
#     4  12  27  45  72 106 139 184 249 307 364 436
#     4  10  25  42  71 104 138 188 234 305 358 432
#     4   8  21  39  70 100 142 176 252 291 361 424
#
# _framework density 24.941951
#
# number of rings (size 3 to 8) (size 9 to 14) (size 15 to 20)
#    1.714    0.000    1.429    2.143    4.000    3.429 
#    0.000    1.429    0.000    0.000    0.000    0.000 
#    0.000    0.000    0.000    0.000    0.000    0.000 
#
# Total GULP energy -78131.101771 kJ/mol
# GULP energy per Si atom -5580.792984 kJ/mol
# Density = 2.488518 g / cm^3
# Si number density = 24.941951 Si / 1000 Ang^3
#
#
#
# Elastic Constant Matrix: (Units=GPa)
#
#
# Indices 1 2 3 4 5 6 
#
# 1 65.2170 33.2905 18.0421 2.4762 11.8462 8.9280
# 2 33.2905 126.7822 24.5962 -8.3960 -5.7835 14.4699
# 3 18.0421 24.5962 70.9295 -13.0820 -0.4773 3.6938
# 4 2.4762 -8.3960 -13.0820 43.7827 -0.3164 -0.7411
# 5 11.8462 -5.7835 -0.4773 -0.3164 28.2899 9.7765
# 6 8.9280 14.4699 3.6938 -0.7411 9.7765 28.5423
#
#
#
# Elastic Compliance Matrix: (Units=1/GPa)
#
#
# Indices 1 2 3 4 5 6 
#
# 1 0.021275 -0.005470 -0.004249 -0.003594 -0.010157 0.000054
# 2 -0.005470 0.010702 -0.001646 0.001820 0.006425 -0.005655
# 3 -0.004249 -0.001646 0.016699 0.004919 0.001967 -0.000543
# 4 -0.003594 0.001820 0.004919 0.024869 0.002456 -0.000631
# 5 -0.010157 0.006425 0.001967 0.002456 0.046584 -0.016227
# 6 0.000054 -0.005655 -0.000543 -0.000631 -0.016227 0.043498
#
#
# Mechanical properties :
#
#
# Convention : Reuss Voigt Hill
#
# Bulk Modulus (GPa) = 38.54123 46.08736 42.31429
# Shear Modulus (GPa) = 25.64023 32.58967 29.11495
#
# Velocity S-wave (km/s) = 3.20972 3.61864 3.42030
# Velocity P-wave (km/s) = 5.40576 5.99812 5.70963
#
# Compressibility (1/GPa) = 0.02594624
#
# Stress axis : x y z
#
# Youngs Moduli (GPa) = 47.00349 93.43818 59.88364
#
# Poissons Ratio (x) = 0.51107 0.25445
# Poissons Ratio (y) = 0.25709 0.09860
# Poissons Ratio (z) = 0.19972 0.15384
#
# Static dielectric constant tensor:
#      x y z
#    x 2.081810 0.027780 -0.002390 
#    y 0.027780 2.075710 0.005670 
#    z -0.002390 0.005670 1.989750 
# 
# From -- ./inp_files/369466.got.cif
#   From: 2010.05.17/outbox.cif.g08.bks.cpg/sg2_185_cif.got.tgz:369466.got - 2010.06.03 11:33:40.
