data_PCOD9030896
_publ_section_title
;
Structure prediction by ZEFSAII (Michael W. Deem and Ramdas Pophale) SiO2 
 PCOD9030896
Probable space group: P -1
;
_chemical_formula_sum "Si O2"
_cell_formula_units_Z 16
_cell_length_a 25.932797
_cell_length_b 5.398237
_cell_length_c 6.283096
_cell_angle_alpha 96.867925
_cell_angle_beta 120.592705
_cell_angle_gamma 56.590052
_cell_volume 616.032602
_symmetry_space_group_name_H-M "P -1"
_symmetry_group_IT_number 2
_symmetry_cell_setting 'triclinic'
loop_
_space_group_symop_operation_xyz
x,y,z
-x,-y,-z
loop_
_atom_site_type_symbol
_atom_site_label
_atom_site_fract_x
_atom_site_fract_y
_atom_site_fract_z
Si Si1 0.053165 0.194918 0.218499
Si Si2 0.784362 0.065841 0.325813
Si Si3 0.646192 0.915557 0.563344
Si Si4 0.080018 0.703430 0.875323
Si Si5 0.579848 0.554550 0.240390
Si Si6 0.790326 0.765874 0.680570
Si Si7 0.445977 0.718202 0.222437
Si Si8 0.198225 0.493872 0.766683
O O1 0.127264 0.126774 0.470625
O O2 0.072894 0.935680 0.060857
O O3 0.000000 0.500000 0.000000
O O4 0.000164 0.218639 0.296532
O O5 0.758471 0.079365 0.516455
O O6 0.764754 0.858718 0.143391
O O7 0.759733 0.348918 0.154310
O O8 0.615766 0.734899 0.377262
O O9 0.732055 0.739510 0.680205
O O10 0.615062 0.239231 0.414508
O O11 0.617656 0.990831 0.753677
O O12 0.137011 0.357997 0.047796
O O13 0.124747 0.693877 0.766728
O O14 0.495783 0.762061 0.171102
O O15 0.581061 0.451832 0.990729
O O16 0.816351 0.530052 0.515074
O O17 0.500000 0.500000 0.500000
#
# Coordination Sequence:
#
# PCOD9030896 Si02
#       8
#     2   2   2   2   2   2   2   2
#     4  11  21  39  64  93 122 161 218 278 341 398
#     4  10  22  43  61  88 128 162 210 276 326 391
#     4  11  24  40  70  96 138 184 226 270 331 394
#     4  11  24  41  64  92 124 169 217 275 338 400
#     4  10  23  41  67 103 140 175 225 278 321 392
#     4  10  24  44  63  91 134 174 218 274 325 397
#     4   9  21  43  69 105 140 177 221 274 333 383
#     4  10  24  42  62  90 122 166 210 269 332 394
#
# _framework density 25.972653000000001
#
# number of rings (size 3 to 8) (size 9 to 14) (size 15 to 20)
#    0.750    1.000    2.500    0.375    5.250    8.500 
#    0.000    1.250    0.000    0.000    0.000    0.000 
#    0.000    0.000    0.000    0.000    0.000    0.000 
#
# Total GULP energy -89323.908121 kJ/mol
# GULP energy per Si atom -5582.744258 kJ/mol
# Density = 2.591354 g / cm^3
# Si number density = 25.972653 Si / 1000 Ang^3
#
#
#
# Elastic Constant Matrix: (Units=GPa)
#
#
# Indices 1 2 3 4 5 6 
#
# 1 160.7440 55.5308 45.3260 28.4865 12.9866 1.5880
# 2 55.5308 110.6525 29.1670 6.4006 0.0093 21.5118
# 3 45.3260 29.1670 84.7437 24.9331 3.5167 -12.1016
# 4 28.4865 6.4006 24.9331 24.1364 -2.0585 -2.9892
# 5 12.9866 0.0093 3.5167 -2.0585 38.9629 5.4742
# 6 1.5880 21.5118 -12.1016 -2.9892 5.4742 54.2912
#
#
#
# Elastic Compliance Matrix: (Units=1/GPa)
#
#
# Indices 1 2 3 4 5 6 
#
# 1 0.010094 -0.004608 -0.000374 -0.010492 -0.004063 0.001279
# 2 -0.004608 0.013578 -0.005235 0.006734 0.003256 -0.006370
# 3 -0.000374 -0.005235 0.020300 -0.018706 -0.003528 0.005936
# 4 -0.010492 0.006734 -0.018706 0.071721 0.009470 -0.003537
# 5 -0.004063 0.003256 -0.003528 0.009470 0.028443 -0.004304
# 6 0.001279 -0.006370 0.005936 -0.003537 -0.004304 0.022468
#
#
# Mechanical properties :
#
#
# Convention : Reuss Voigt Hill
#
# Bulk Modulus (GPa) = 42.48590 68.46532 55.47561
# Shear Modulus (GPa) = 25.65630 38.55253 32.10441
#
# Velocity S-wave (km/s) = 3.14637 3.85691 3.51961
# Velocity P-wave (km/s) = 5.43994 6.80089 6.15813
#
# Compressibility (1/GPa) = 0.02353722
#
# Stress axis : x y z
#
# Youngs Moduli (GPa) = 99.07215 73.64705 49.26165
#
# Poissons Ratio (x) = 0.33939 0.01844
# Poissons Ratio (y) = 0.45655 0.25787
# Poissons Ratio (z) = 0.03708 0.38552
#
# Static dielectric constant tensor:
#      x y z
#    x 2.119520 0.056570 -0.056700 
#    y 0.056570 2.167140 -0.059220 
#    z -0.056700 -0.059220 2.038460 
# 
# From -- ./inp_files/125897.got.cif
#   From: 2010.05.17/outbox.cif.g08.bks.cpg/sg2_63_cif.got.tgz:125897.got - 2010.06.03 11:33:40.
