data_PCOD9030940
_publ_section_title
;
Structure prediction by ZEFSAII (Michael W. Deem and Ramdas Pophale) SiO2 
 PCOD9030940
Probable space group: P -1
;
_chemical_formula_sum "Si O2"
_cell_formula_units_Z 14
_cell_length_a 12.316308
_cell_length_b 8.945770
_cell_length_c 14.964628
_cell_angle_alpha 45.424300
_cell_angle_beta 141.262064
_cell_angle_gamma 108.239039
_cell_volume 625.038447
_symmetry_space_group_name_H-M "P -1"
_symmetry_group_IT_number 2
_symmetry_cell_setting 'triclinic'
loop_
_space_group_symop_operation_xyz
x,y,z
-x,-y,-z
loop_
_atom_site_type_symbol
_atom_site_label
_atom_site_fract_x
_atom_site_fract_y
_atom_site_fract_z
Si Si1 0.520586 0.873239 0.741316
Si Si2 0.056091 0.884426 0.988127
Si Si3 0.125376 0.922597 0.382177
Si Si4 0.387525 0.003207 0.068527
Si Si5 0.406144 0.411384 0.397670
Si Si6 0.668457 0.638116 0.263929
Si Si7 0.697375 0.407897 0.947235
O O1 0.558370 0.871648 0.870973
O O2 0.693495 0.623257 0.910494
O O3 0.309643 0.896924 0.568627
O O4 0.500064 0.124429 0.589562
O O5 0.873129 0.000773 0.751930
O O6 0.164731 0.590350 0.187339
O O7 0.225183 0.939419 0.031308
O O8 0.000000 0.000000 0.000000
O O9 0.161160 0.649511 0.512177
O O10 0.913864 0.156116 0.183454
O O11 0.592971 0.764493 0.260335
O O12 0.293279 0.188450 0.847120
O O13 0.500000 0.500000 0.500000
O O14 0.403180 0.472732 0.264685
O O15 0.462546 0.655520 0.088263
#
# Coordination Sequence:
#
# PCOD9030940 Si02
#       7
#     2   2   2   2   2   2   2
#     4  11  24  39  69  94 138 173 218 271 340 392
#     4  11  25  39  67 100 137 165 225 273 323 399
#     4  10  24  44  65 100 133 179 215 275 336 385
#     4  11  23  45  67 102 127 178 226 274 327 395
#     4  11  21  40  64  92 130 175 219 264 333 387
#     4  10  22  45  74  88 137 175 226 273 325 392
#     4  10  22  43  62  97 137 172 221 272 328 401
#
# _framework density 22.398620999999999
#
# number of rings (size 3 to 8) (size 9 to 14) (size 15 to 20)
#    0.000    1.429    4.286    0.429    6.000    7.429 
#    0.000    1.429    0.000    0.000    0.000    0.000 
#    0.000    0.000    0.000    0.000    0.000    0.000 
#
# Total GULP energy -78119.469905 kJ/mol
# GULP energy per Si atom -5579.962136 kJ/mol
# Density = 2.234764 g / cm^3
# Si number density = 22.398621 Si / 1000 Ang^3
#
#
#
# Elastic Constant Matrix: (Units=GPa)
#
#
# Indices 1 2 3 4 5 6 
#
# 1 105.7042 42.5441 35.9278 -15.1957 6.4685 -20.1667
# 2 42.5441 157.9580 44.8841 -23.3460 8.5843 -39.4020
# 3 35.9278 44.8841 99.1461 -32.5340 23.7719 -22.0771
# 4 -15.1957 -23.3460 -32.5340 58.3169 -3.6593 2.3302
# 5 6.4685 8.5843 23.7719 -3.6593 27.0041 1.1690
# 6 -20.1667 -39.4020 -22.0771 2.3302 1.1690 29.3727
#
#
#
# Elastic Compliance Matrix: (Units=1/GPa)
#
#
# Indices 1 2 3 4 5 6 
#
# 1 0.011785 -0.001136 -0.002113 0.001200 -0.000652 0.004910
# 2 -0.001136 0.010641 0.000863 0.003635 -0.003984 0.014013
# 3 -0.002113 0.000863 0.021685 0.010116 -0.018176 0.015927
# 4 0.001200 0.003635 0.010116 0.023610 -0.007657 0.011736
# 5 -0.000652 -0.003984 -0.018176 -0.007657 0.054327 -0.021009
# 6 0.004910 0.014013 0.015927 0.011736 -0.021009 0.068090
#
#
# Mechanical properties :
#
#
# Convention : Reuss Voigt Hill
#
# Bulk Modulus (GPa) = 25.42016 67.72449 46.57232
# Shear Modulus (GPa) = 24.03589 38.90224 31.46906
#
# Velocity S-wave (km/s) = 3.27937 4.17203 3.75234
# Velocity P-wave (km/s) = 5.07076 7.31501 6.29373
#
# Compressibility (1/GPa) = 0.03933886
#
# Stress axis : x y z
#
# Youngs Moduli (GPa) = 84.85422 93.97713 46.11466
#
# Poissons Ratio (x) = 0.10678 0.09743
# Poissons Ratio (y) = 0.09642 -0.03980
# Poissons Ratio (z) = 0.17928 -0.08110
#
# Static dielectric constant tensor:
#      x y z
#    x 1.899590 0.002580 0.010860 
#    y 0.002580 1.863490 -0.013700 
#    z 0.010860 -0.013700 1.869320 
# 
# From -- ./inp_files/529417.got.cif
#   From: 2010.05.17/outbox.cif.g08.bks.cpg/sg2_265_cif.got.tgz:529417.got - 2010.06.03 11:33:40.
