data_PCOD9030828
_publ_section_title
;
Structure prediction by ZEFSAII (Michael W. Deem and Ramdas Pophale) SiO2 
 PCOD9030828
Probable space group: P -1
;
_chemical_formula_sum "Si O2"
_cell_formula_units_Z 16
_cell_length_a 9.294431
_cell_length_b 8.058600
_cell_length_c 13.350600
_cell_angle_alpha 96.783270
_cell_angle_beta 69.393007
_cell_angle_gamma 135.809892
_cell_volume 638.456307
_symmetry_space_group_name_H-M "P -1"
_symmetry_group_IT_number 2
_symmetry_cell_setting 'triclinic'
loop_
_space_group_symop_operation_xyz
x,y,z
-x,-y,-z
loop_
_atom_site_type_symbol
_atom_site_label
_atom_site_fract_x
_atom_site_fract_y
_atom_site_fract_z
Si Si1 0.349220 0.253930 0.896908
Si Si2 0.468023 0.066071 0.208036
Si Si3 0.070416 0.873102 0.593881
Si Si4 0.115405 0.771780 0.795656
Si Si5 0.330188 0.609494 0.004212
Si Si6 0.286137 0.389804 0.608576
Si Si7 0.913271 0.312367 0.598011
Si Si8 0.623355 0.648516 0.709220
O O1 0.450371 0.248766 0.970746
O O2 0.569578 0.475169 0.795849
O O3 0.195425 0.007718 0.851243
O O4 0.269236 0.379599 0.952262
O O5 0.676874 0.187372 0.236062
O O6 0.327228 0.128424 0.247362
O O7 0.276228 0.792533 0.282057
O O8 0.596353 0.191626 0.079355
O O9 0.084764 0.775936 0.684170
O O10 0.199378 0.915407 0.466290
O O11 0.819025 0.712637 0.606189
O O12 0.143843 0.110703 0.628915
O O13 0.891172 0.527973 0.886902
O O14 0.500000 0.500000 0.500000
O O15 0.394678 0.502663 0.697385
O O16 0.130499 0.412946 0.607719
O O17 0.000000 0.500000 0.500000
#
# Coordination Sequence:
#
# PCOD9030828 Si02
#       8
#     2   2   2   2   2   2   2   2
#     4  10  22  42  75 107 136 179 240 283 350 420
#     4  11  27  46  67 105 152 182 232 293 356 417
#     4  12  25  46  74 101 144 184 242 291 345 420
#     4  12  25  43  74 108 141 185 234 289 356 421
#     4  10  23  47  73 100 144 185 231 294 347 422
#     4  12  24  43  75  98 134 190 240 286 345 418
#     4  12  29  47  69 106 146 188 236 296 356 409
#     4  11  22  46  69 105 139 185 229 291 346 420
#
# _framework density 25.060447
#
# number of rings (size 3 to 8) (size 9 to 14) (size 15 to 20)
#    0.000    0.750    5.000    1.875    5.250    1.000 
#    4.500    0.000    0.000    0.000    0.000    0.000 
#    0.000    0.000    0.000    0.000    0.000    0.000 
#
# Total GULP energy -89250.527832 kJ/mol
# GULP energy per Si atom -5578.157990 kJ/mol
# Density = 2.500341 g / cm^3
# Si number density = 25.060447 Si / 1000 Ang^3
#
#
#
# Elastic Constant Matrix: (Units=GPa)
#
#
# Indices 1 2 3 4 5 6 
#
# 1 135.6978 31.6325 53.7843 -15.6882 23.5845 14.4881
# 2 31.6325 56.8238 41.3504 4.9118 6.0465 -2.5231
# 3 53.7843 41.3504 114.7439 -20.1773 16.4539 9.8090
# 4 -15.6882 4.9118 -20.1773 44.9399 -1.9784 1.0852
# 5 23.5845 6.0465 16.4539 -1.9784 52.3744 0.7525
# 6 14.4881 -2.5231 9.8090 1.0852 0.7525 40.1712
#
#
#
# Elastic Compliance Matrix: (Units=1/GPa)
#
#
# Indices 1 2 3 4 5 6 
#
# 1 0.010560 -0.004548 -0.001933 0.003252 -0.003448 -0.003645
# 2 -0.004548 0.028896 -0.010753 -0.009654 0.001635 0.006311
# 3 -0.001933 -0.010753 0.015486 0.007442 -0.002416 -0.003915
# 4 0.003252 -0.009654 0.007442 0.027818 -0.001575 -0.004318
# 5 -0.003448 0.001635 -0.002416 -0.001575 0.021134 0.001583
# 6 -0.003645 0.006311 -0.003915 -0.004318 0.001583 0.027648
#
#
# Mechanical properties :
#
#
# Convention : Reuss Voigt Hill
#
# Bulk Modulus (GPa) = 48.84324 62.31110 55.57717
# Shear Modulus (GPa) = 28.92945 39.53031 34.22988
#
# Velocity S-wave (km/s) = 3.40131 3.97596 3.69981
# Velocity P-wave (km/s) = 5.91251 6.78203 6.36214
#
# Compressibility (1/GPa) = 0.02047366
#
# Stress axis : x y z
#
# Youngs Moduli (GPa) = 94.69658 34.60719 64.57479
#
# Poissons Ratio (x) = 0.15739 0.12482
# Poissons Ratio (y) = 0.43068 0.69437
# Poissons Ratio (z) = 0.18305 0.37213
#
# Static dielectric constant tensor:
#      x y z
#    x 1.954810 -0.096050 -0.004140 
#    y -0.096050 2.234600 0.017680 
#    z -0.004140 0.017680 2.003160 
# 
# From -- ./inp_files/495057.got.cif
#   From: 2010.05.17/outbox.cif.g08.bks.cpg/sg2_248_cif.got.tgz:495057.got - 2010.06.03 11:33:40.
