data_PCOD9030126
_publ_section_title
;
Structure prediction by ZEFSAII (Michael W. Deem and Ramdas Pophale) SiO2 
 PCOD9030126
Probable space group: P -1
;
_chemical_formula_sum "Si O2"
_cell_formula_units_Z 16
_cell_length_a 11.595826
_cell_length_b 5.306325
_cell_length_c 11.460434
_cell_angle_alpha 67.681534
_cell_angle_beta 86.870783
_cell_angle_gamma 81.766961
_cell_volume 645.624796
_symmetry_space_group_name_H-M "P -1"
_symmetry_group_IT_number 2
_symmetry_cell_setting 'triclinic'
loop_
_space_group_symop_operation_xyz
x,y,z
-x,-y,-z
loop_
_atom_site_type_symbol
_atom_site_label
_atom_site_fract_x
_atom_site_fract_y
_atom_site_fract_z
Si Si1 0.945802 0.719549 0.058313
Si Si2 0.350228 0.730008 0.247435
Si Si3 0.320955 0.101870 0.965762
Si Si4 0.312400 0.214529 0.424111
Si Si5 0.868542 0.094245 0.596369
Si Si6 0.666348 0.291332 0.191029
Si Si7 0.093715 0.693081 0.681247
Si Si8 0.528598 0.859027 0.387703
O O1 0.812380 0.789970 0.019272
O O2 0.949753 0.573762 0.210339
O O3 0.000000 0.500000 0.000000
O O4 0.000000 0.000000 0.000000
O O5 0.326697 0.419502 0.280975
O O6 0.471661 0.708517 0.313690
O O7 0.233050 0.831726 0.314478
O O8 0.365731 0.927222 0.105627
O O9 0.372287 0.386763 0.889825
O O10 0.318316 0.892163 0.894991
O O11 0.185922 0.131860 0.441051
O O12 0.362453 0.319322 0.523641
O O13 0.410647 0.952526 0.450658
O O14 0.990896 0.946466 0.662938
O O15 0.886161 0.320355 0.457319
O O16 0.786573 0.271962 0.262831
O O17 0.575776 0.132030 0.292277
#
# Coordination Sequence:
#
# PCOD9030126 Si02
#       8
#     2   2   2   2   2   2   2   2
#     4  11  23  42  68  95 137 185 227 273 332 412
#     4  11  25  41  69 100 136 183 236 289 345 419
#     4  11  27  43  70 101 142 188 234 284 349 410
#     4  10  22  42  69  98 133 181 231 290 355 408
#     4  10  22  44  68 102 138 177 230 296 347 415
#     4  11  25  47  69 103 145 185 234 287 343 422
#     4  10  22  44  69 102 140 180 231 284 356 410
#     4  10  23  43  69  96 137 180 234 288 355 407
#
# _framework density 24.782197
#
# number of rings (size 3 to 8) (size 9 to 14) (size 15 to 20)
#    0.000    1.500    1.250    2.625    7.000    3.000 
#    4.500    1.250    0.000    0.000    0.000    0.000 
#    0.000    0.000    0.000    0.000    0.000    0.000 
#
# Total GULP energy -89396.586568 kJ/mol
# GULP energy per Si atom -5587.286660 kJ/mol
# Density = 2.472579 g / cm^3
# Si number density = 24.782197 Si / 1000 Ang^3
#
#
#
# Elastic Constant Matrix: (Units=GPa)
#
#
# Indices 1 2 3 4 5 6 
#
# 1 83.6243 23.0371 25.1167 -1.5085 -14.8865 -9.9697
# 2 23.0371 103.7242 48.7424 -13.4860 -15.2168 -2.6161
# 3 25.1167 48.7424 131.0142 -32.2463 -7.8009 15.5959
# 4 -1.5085 -13.4860 -32.2463 41.3228 4.6218 -15.4727
# 5 -14.8865 -15.2168 -7.8009 4.6218 36.1112 -11.3586
# 6 -9.9697 -2.6161 15.5959 -15.4727 -11.3586 27.3603
#
#
#
# Elastic Compliance Matrix: (Units=1/GPa)
#
#
# Indices 1 2 3 4 5 6 
#
# 1 0.016428 0.000119 -0.003801 0.001475 0.009941 0.013126
# 2 0.000119 0.013615 -0.004957 0.003110 0.007111 0.008881
# 3 -0.003801 -0.004957 0.012183 0.005427 -0.004051 -0.007416
# 4 0.001475 0.003110 0.005427 0.036624 0.004840 0.020462
# 5 0.009941 0.007111 -0.004051 0.004840 0.041675 0.026650
# 6 0.013126 0.008881 -0.007416 0.020462 0.026650 0.069044
#
#
# Mechanical properties :
#
#
# Convention : Reuss Voigt Hill
#
# Bulk Modulus (GPa) = 40.08244 56.90612 48.49428
# Shear Modulus (GPa) = 23.23813 35.72328 29.48070
#
# Velocity S-wave (km/s) = 3.06550 3.80081 3.45279
# Velocity P-wave (km/s) = 5.36085 6.50184 5.95872
#
# Compressibility (1/GPa) = 0.02494858
#
# Stress axis : x y z
#
# Youngs Moduli (GPa) = 60.87040 73.44623 82.08286
#
# Poissons Ratio (x) = -0.00872 0.31201
# Poissons Ratio (y) = -0.00723 0.40685
# Poissons Ratio (z) = 0.23138 0.36404
#
# Static dielectric constant tensor:
#      x y z
#    x 1.917170 0.021210 0.014800 
#    y 0.021210 2.090520 0.084260 
#    z 0.014800 0.084260 2.108610 
# 
# From -- ./inp_files/409866.got.cif
#   From: 2010.05.17/outbox.cif.g08.bks.cpg/sg2_205_cif.got.tgz:409866.got - 2010.06.03 11:33:40.
