data_PCOD9030936
_publ_section_title
;
Structure prediction by ZEFSAII (Michael W. Deem and Ramdas Pophale) SiO2 
 PCOD9030936
Probable space group: P -1
;
_chemical_formula_sum "Si O2"
_cell_formula_units_Z 16
_cell_length_a 20.350042
_cell_length_b 11.057770
_cell_length_c 11.283484
_cell_angle_alpha 53.151212
_cell_angle_beta 152.895587
_cell_angle_gamma 140.884875
_cell_volume 692.315289
_symmetry_space_group_name_H-M "P -1"
_symmetry_group_IT_number 2
_symmetry_cell_setting 'triclinic'
loop_
_space_group_symop_operation_xyz
x,y,z
-x,-y,-z
loop_
_atom_site_type_symbol
_atom_site_label
_atom_site_fract_x
_atom_site_fract_y
_atom_site_fract_z
Si Si1 0.268472 0.181156 0.742953
Si Si2 0.645704 0.227340 0.887702
Si Si3 0.795429 0.416929 0.769315
Si Si4 0.117319 0.184681 0.249724
Si Si5 0.967833 0.240013 0.419373
Si Si6 0.078033 0.395858 0.741980
Si Si7 0.316637 0.562742 0.666976
Si Si8 0.791015 0.001706 0.673254
O O1 0.185135 0.146758 0.498316
O O2 0.286796 0.359676 0.725673
O O3 0.114954 0.953361 0.680389
O O4 0.488611 0.274973 0.044138
O O5 0.709723 0.266089 0.829976
O O6 0.418247 0.072582 0.616367
O O7 0.763012 0.171258 0.167095
O O8 0.732294 0.430127 0.981080
O O9 0.817635 0.599698 0.751203
O O10 0.665404 0.346703 0.484774
O O11 0.000000 0.500000 0.000000
O O12 0.209174 0.156837 0.304553
O O13 0.891377 0.039307 0.938512
O O14 0.089181 0.297260 0.701163
O O15 0.108757 0.456432 0.451949
O O16 0.000000 0.500000 0.500000
O O17 0.931112 0.212011 0.702780
#
# Coordination Sequence:
#
# PCOD9030936 Si02
#       8
#     2   2   2   2   2   2   2   2
#     4  10  22  43  62  97 127 177 225 266 334 389
#     4  11  25  42  69 101 131 181 218 277 343 396
#     4  11  22  46  69  96 138 175 226 277 337 399
#     4  10  23  44  69  93 140 174 219 293 320 401
#     4  11  22  40  67  97 130 174 217 272 337 395
#     4  10  23  41  66  99 134 169 216 277 333 395
#     4  10  23  42  67  93 133 174 220 279 321 402
#     4  11  23  46  67 102 135 174 229 273 344 399
#
# _framework density 23.110856999999999
#
# number of rings (size 3 to 8) (size 9 to 14) (size 15 to 20)
#    0.000    1.500    3.750    0.375    1.750    5.500 
#   11.250    1.250    0.000    0.000    0.000    0.000 
#    0.000    0.000    0.000    0.000    0.000    0.000 
#
# Total GULP energy -89227.152422 kJ/mol
# GULP energy per Si atom -5576.697026 kJ/mol
# Density = 2.305826 g / cm^3
# Si number density = 23.110857 Si / 1000 Ang^3
#
#
#
# Elastic Constant Matrix: (Units=GPa)
#
#
# Indices 1 2 3 4 5 6 
#
# 1 39.5834 6.3155 27.1428 10.4847 -17.9028 1.0243
# 2 6.3155 51.9730 14.4311 2.6564 -14.3699 -0.4445
# 3 27.1428 14.4311 129.8657 11.1867 -15.4456 11.1179
# 4 10.4847 2.6564 11.1867 29.8345 -5.7832 4.3843
# 5 -17.9028 -14.3699 -15.4456 -5.7832 38.2231 -3.7012
# 6 1.0243 -0.4445 11.1179 4.3843 -3.7012 29.3205
#
#
#
# Elastic Compliance Matrix: (Units=1/GPa)
#
#
# Indices 1 2 3 4 5 6 
#
# 1 0.038223 0.001703 -0.005956 -0.009028 0.015178 0.004215
# 2 0.001703 0.021936 -0.001935 -0.000514 0.008392 0.002143
# 3 -0.005956 -0.001935 0.009501 -0.000834 -0.000125 -0.003315
# 4 -0.009028 -0.000514 -0.000834 0.037876 0.000490 -0.004978
# 5 0.015178 0.008392 -0.000125 0.000490 0.036859 0.004224
# 6 0.004215 0.002143 -0.003315 -0.004978 0.004224 0.036526
#
#
# Mechanical properties :
#
#
# Convention : Reuss Voigt Hill
#
# Bulk Modulus (GPa) = 17.45661 35.24453 26.35057
# Shear Modulus (GPa) = 23.54163 31.04446 27.29305
#
# Velocity S-wave (km/s) = 3.19508 3.66906 3.44024
# Velocity P-wave (km/s) = 4.60230 5.76478 5.21602
#
# Compressibility (1/GPa) = 0.05728488
#
# Stress axis : x y z
#
# Youngs Moduli (GPa) = 26.16253 45.58723 105.25368
#
# Poissons Ratio (x) = -0.07765 0.62689
# Poissons Ratio (y) = -0.04456 0.20362
# Poissons Ratio (z) = 0.15582 0.08819
#
# Static dielectric constant tensor:
#      x y z
#    x 1.972490 -0.042400 0.031330 
#    y -0.042400 1.972540 -0.051340 
#    z 0.031330 -0.051340 1.875560 
# 
# From -- ./inp_files/471192.got.cif
#   From: 2010.05.17/outbox.cif.g08.bks.cpg/sg2_236_cif.got.tgz:471192.got - 2010.06.03 11:33:40.
