data_PCOD9030528
_publ_section_title
;
Structure prediction by ZEFSAII (Michael W. Deem and Ramdas Pophale) SiO2 
 PCOD9030528
Probable space group: P -1
;
_chemical_formula_sum "Si O2"
_cell_formula_units_Z 13
_cell_length_a 13.006665
_cell_length_b 8.739515
_cell_length_c 11.134275
_cell_angle_alpha 57.948184
_cell_angle_beta 77.013473
_cell_angle_gamma 125.702966
_cell_volume 548.936065
_symmetry_space_group_name_H-M "P -1"
_symmetry_group_IT_number 2
_symmetry_cell_setting 'triclinic'
loop_
_space_group_symop_operation_xyz
x,y,z
-x,-y,-z
loop_
_atom_site_type_symbol
_atom_site_label
_atom_site_fract_x
_atom_site_fract_y
_atom_site_fract_z
Si Si1 0.111506 0.274506 0.461853
Si Si2 0.352967 0.810061 0.986173
Si Si3 0.000475 0.203811 0.154577
Si Si4 0.326174 0.162526 0.768012
Si Si5 0.342395 0.870548 0.424509
Si Si6 0.322626 0.512158 0.757193
Si Si7 0.000000 0.500000 0.500000
O O1 0.999923 0.284964 0.543101
O O2 0.306492 0.647409 0.192559
O O3 0.000000 0.000000 0.500000
O O4 0.132788 0.154773 0.608574
O O5 0.385483 0.070764 0.861712
O O6 0.515346 0.942862 0.807386
O O7 0.139415 0.480390 0.108552
O O8 0.157480 0.350882 0.956987
O O9 0.856314 0.130952 0.154384
O O10 0.500000 0.500000 0.500000
O O11 0.267119 0.232781 0.846848
O O12 0.334185 0.665386 0.578085
O O13 0.132435 0.634610 0.528888
O O14 0.462491 0.170201 0.363096
#
# Coordination Sequence:
#
# PCOD9030528 Si02
#       7
#     2   2   2   2   2   2   1
#     4  10  25  46  67 100 140 184 229 289 342 419
#     4  10  23  45  68  98 142 181 229 294 347 416
#     4  10  23  44  67  97 141 184 232 284 345 421
#     4  12  23  38  68 109 131 178 233 288 354 410
#     4  10  23  46  66 105 134 187 228 294 345 423
#     4  10  22  42  71  96 146 171 238 288 348 407
#     4  12  26  44  74  98 142 188 240 276 366 416
#
# _framework density 23.682175000000001
#
# number of rings (size 3 to 8) (size 9 to 14) (size 15 to 20)
#    0.000    1.538    1.538    1.846    4.308    3.077 
#    0.000    6.923    0.000    0.000    0.000    0.000 
#    0.000    0.000    0.000    0.000    0.000    0.000 
#
# Total GULP energy -72469.648297 kJ/mol
# GULP energy per Si atom -5574.588331 kJ/mol
# Density = 2.362827 g / cm^3
# Si number density = 23.682175 Si / 1000 Ang^3
#
#
#
# Elastic Constant Matrix: (Units=GPa)
#
#
# Indices 1 2 3 4 5 6 
#
# 1 91.8775 31.7105 1.0145 -5.0994 27.6921 21.6080
# 2 31.7105 86.8591 8.3092 -9.6154 7.6251 27.9045
# 3 1.0145 8.3092 90.2116 -0.1464 22.3503 0.7874
# 4 -5.0994 -9.6154 -0.1464 25.6133 1.8002 9.4530
# 5 27.6921 7.6251 22.3503 1.8002 27.3162 -5.5372
# 6 21.6080 27.9045 0.7874 9.4530 -5.5372 36.8010
#
#
#
# Elastic Compliance Matrix: (Units=1/GPa)
#
#
# Indices 1 2 3 4 5 6 
#
# 1 0.049986 0.013046 0.020428 0.044806 -0.087013 -0.064281
# 2 0.013046 0.025368 0.006817 0.029454 -0.035938 -0.040015
# 3 0.020428 0.006817 0.022590 0.021425 -0.048685 -0.030476
# 4 0.044806 0.029454 0.021425 0.098654 -0.095683 -0.088838
# 5 -0.087013 -0.035938 -0.048685 -0.095683 0.208420 0.135319
# 6 -0.064281 -0.040015 -0.030476 -0.088838 0.135319 0.139089
#
#
# Mechanical properties :
#
#
# Convention : Reuss Voigt Hill
#
# Bulk Modulus (GPa) = 5.60137 39.00185 22.30161
# Shear Modulus (GPa) = 9.55960 33.14038 21.34999
#
# Velocity S-wave (km/s) = 2.01131 3.74489 3.00579
# Velocity P-wave (km/s) = 2.78643 5.93326 4.63507
#
# Compressibility (1/GPa) = 0.17852760
#
# Stress axis : x y z
#
# Youngs Moduli (GPa) = 20.00558 39.41906 44.26748
#
# Poissons Ratio (x) = -0.51428 -0.90428
# Poissons Ratio (y) = -0.26100 -0.30179
# Poissons Ratio (z) = -0.40867 -0.26874
#
# Static dielectric constant tensor:
#      x y z
#    x 1.828880 -0.005220 -0.040170 
#    y -0.005220 1.858050 -0.027420 
#    z -0.040170 -0.027420 1.941000 
# 
# From -- ./inp_files/156252.got.cif
#   From: 2010.05.17/outbox.cif.g08.bks.cpg/sg2_79_cif.got.tgz:156252.got - 2010.06.03 11:33:40.
