data_PCOD9030524
_publ_section_title
;
Structure prediction by ZEFSAII (Michael W. Deem and Ramdas Pophale) SiO2 
 PCOD9030524
Probable space group: P -1
;
_chemical_formula_sum "Si O2"
_cell_formula_units_Z 14
_cell_length_a 10.330813
_cell_length_b 8.441341
_cell_length_c 15.877901
_cell_angle_alpha 82.441747
_cell_angle_beta 141.968086
_cell_angle_gamma 119.950711
_cell_volume 644.231081
_symmetry_space_group_name_H-M "P -1"
_symmetry_group_IT_number 2
_symmetry_cell_setting 'triclinic'
loop_
_space_group_symop_operation_xyz
x,y,z
-x,-y,-z
loop_
_atom_site_type_symbol
_atom_site_label
_atom_site_fract_x
_atom_site_fract_y
_atom_site_fract_z
Si Si1 0.389860 0.581144 0.875407
Si Si2 0.259297 0.800859 0.446613
Si Si3 0.802160 0.046348 0.117766
Si Si4 0.504504 0.865831 0.143011
Si Si5 0.544963 0.528944 0.258532
Si Si6 0.866144 0.104968 0.452211
Si Si7 0.587429 0.641569 0.620081
O O1 0.494286 0.606884 0.831224
O O2 0.058915 0.398096 0.727094
O O3 0.500000 0.500000 0.000000
O O4 0.546742 0.816173 0.969553
O O5 0.221496 0.907001 0.496697
O O6 0.385722 0.687959 0.534107
O O7 0.500000 0.000000 0.500000
O O8 0.753848 0.018215 0.194606
O O9 0.107083 0.137535 0.251980
O O10 0.756809 0.191837 0.035960
O O11 0.490223 0.674803 0.176768
O O12 0.601657 0.005112 0.266450
O O13 0.397400 0.450320 0.278355
O O14 0.865121 0.655682 0.437818
O O15 0.000000 0.000000 0.500000
O O16 0.500000 0.500000 0.500000
#
# Coordination Sequence:
#
# PCOD9030524 Si02
#       7
#     2   2   2   2   2   2   2
#     4  11  23  45  72  99 141 186 234 294 353 432
#     4  11  27  45  72 108 140 187 239 296 359 418
#     4  11  25  43  70 103 139 190 234 294 357 426
#     4  10  22  42  71  96 134 194 240 280 357 429
#     4  10  23  42  69  99 138 189 235 288 358 426
#     4   9  21  42  72  97 134 187 235 285 346 430
#     4  12  29  45  68 107 149 182 241 304 357 415
#
# _framework density 21.731331000000001
#
# number of rings (size 3 to 8) (size 9 to 14) (size 15 to 20)
#    0.000    1.429    1.429    1.714   16.000    2.286 
#    2.571    0.000    0.000    0.000    0.000    0.000 
#    0.000    0.000    0.000    0.000    0.000    0.000 
#
# Total GULP energy -77951.558039 kJ/mol
# GULP energy per Si atom -5567.968431 kJ/mol
# Density = 2.168187 g / cm^3
# Si number density = 21.731331 Si / 1000 Ang^3
#
#
#
# Elastic Constant Matrix: (Units=GPa)
#
#
# Indices 1 2 3 4 5 6 
#
# 1 130.2719 42.8002 45.3753 14.1206 4.3679 14.3098
# 2 42.8002 85.8748 36.1764 -9.8627 0.5325 11.4999
# 3 45.3753 36.1764 104.5372 3.2737 16.6193 3.9069
# 4 14.1206 -9.8627 3.2737 37.9114 -8.7375 4.5407
# 5 4.3679 0.5325 16.6193 -8.7375 36.8045 4.6053
# 6 14.3098 11.4999 3.9069 4.5407 4.6053 36.3544
#
#
#
# Elastic Compliance Matrix: (Units=1/GPa)
#
#
# Indices 1 2 3 4 5 6 
#
# 1 0.010933 -0.004612 -0.002774 -0.005036 -0.000949 -0.001797
# 2 -0.004612 0.017674 -0.005025 0.008545 0.005210 -0.004963
# 3 -0.002774 -0.005025 0.013608 -0.003326 -0.006846 0.002501
# 4 -0.005036 0.008545 -0.003326 0.033964 0.010787 -0.005972
# 5 -0.000949 0.005210 -0.006846 0.010787 0.033629 -0.006146
# 6 -0.001797 -0.004963 0.002501 -0.005972 -0.006146 0.031040
#
#
# Mechanical properties :
#
#
# Convention : Reuss Voigt Hill
#
# Bulk Modulus (GPa) = 57.49352 63.26529 60.37941
# Shear Modulus (GPa) = 29.16017 35.30285 32.23151
#
# Velocity S-wave (km/s) = 3.66710 4.03490 3.85539
# Velocity P-wave (km/s) = 6.66664 7.13322 6.90388
#
# Compressibility (1/GPa) = 0.01739326
#
# Stress axis : x y z
#
# Youngs Moduli (GPa) = 91.46826 56.58010 73.48763
#
# Poissons Ratio (x) = 0.26097 0.20382
# Poissons Ratio (y) = 0.42188 0.36926
# Poissons Ratio (z) = 0.25369 0.28430
#
# Static dielectric constant tensor:
#      x y z
#    x 2.191170 -0.143060 -0.005650 
#    y -0.143060 1.962380 -0.018180 
#    z -0.005650 -0.018180 1.816560 
# 
# From -- ./inp_files/495003.got.cif
#   From: 2010.05.17/outbox.cif.g08.bks.cpg/sg2_248_cif.got.tgz:495003.got - 2010.06.03 11:33:40.
