data_PCOD9030286
_publ_section_title
;
Structure prediction by ZEFSAII (Michael W. Deem and Ramdas Pophale) SiO2 
 PCOD9030286
Probable space group: P -1
;
_chemical_formula_sum "Si O2"
_cell_formula_units_Z 11
_cell_length_a 5.789663
_cell_length_b 15.774340
_cell_length_c 5.237357
_cell_angle_alpha 116.630006
_cell_angle_beta 97.101076
_cell_angle_gamma 97.560864
_cell_volume 414.764161
_symmetry_space_group_name_H-M "P -1"
_symmetry_group_IT_number 2
_symmetry_cell_setting 'triclinic'
loop_
_space_group_symop_operation_xyz
x,y,z
-x,-y,-z
loop_
_atom_site_type_symbol
_atom_site_label
_atom_site_fract_x
_atom_site_fract_y
_atom_site_fract_z
Si Si1 0.500000 0.000000 0.000000
Si Si2 0.311787 0.626081 0.579046
Si Si3 0.690202 0.558032 0.906237
Si Si4 0.016496 0.737231 0.055482
Si Si5 0.969413 0.085210 0.423981
Si Si6 0.638401 0.805015 0.719482
O O1 0.211770 0.961905 0.881360
O O2 0.525062 0.889392 0.936828
O O3 0.526215 0.595295 0.723127
O O4 0.181902 0.524919 0.300602
O O5 0.441642 0.707796 0.509452
O O6 0.163826 0.679141 0.819396
O O7 0.500000 0.500000 0.000000
O O8 0.879537 0.656265 0.128866
O O9 0.150469 0.834843 0.343465
O O10 0.830276 0.776139 0.898911
O O11 0.220120 0.145300 0.439751
O O12 0.000000 0.000000 0.500000
#
# Coordination Sequence:
#
# PCOD9030286 Si02
#       6
#     1   2   2   2   2   2
#     4  12  26  46  74  98 146 194 244 308 358 422
#     4  10  23  42  70 105 143 190 238 302 364 435
#     4  10  22  42  70 106 145 186 241 298 367 440
#     4  11  24  45  71 104 147 192 244 300 367 436
#     4  12  27  46  71 106 145 192 252 300 365 433
#     4  11  25  45  68 103 144 187 246 302 360 433
#
# _framework density 26.521096
#
# number of rings (size 3 to 8) (size 9 to 14) (size 15 to 20)
#    0.000    1.091    1.818    3.273    2.545    7.273 
#    0.000    0.000    0.000    0.000    0.000    0.000 
#    0.000    0.000    0.000    0.000    0.000    0.000 
#
# Total GULP energy -61370.118320 kJ/mol
# GULP energy per Si atom -5579.101665 kJ/mol
# Density = 2.646073 g / cm^3
# Si number density = 26.521096 Si / 1000 Ang^3
#
#
#
# Elastic Constant Matrix: (Units=GPa)
#
#
# Indices 1 2 3 4 5 6 
#
# 1 96.6196 61.8274 15.3700 7.6400 -14.8569 -6.9590
# 2 61.8274 227.4783 40.0407 27.3459 -20.2627 10.5879
# 3 15.3700 40.0407 60.5628 31.0308 -17.7660 4.7673
# 4 7.6400 27.3459 31.0308 53.6782 -1.1582 -7.5460
# 5 -14.8569 -20.2627 -17.7660 -1.1582 35.2465 4.5647
# 6 -6.9590 10.5879 4.7673 -7.5460 4.5647 66.8062
#
#
#
# Elastic Compliance Matrix: (Units=1/GPa)
#
#
# Indices 1 2 3 4 5 6 
#
# 1 0.013146 -0.003331 -0.000625 0.000506 0.003096 0.001787
# 2 -0.003331 0.006001 -0.001715 -0.001769 0.001313 -0.001465
# 3 -0.000625 -0.001715 0.031595 -0.017694 0.014749 -0.005054
# 4 0.000506 -0.001769 -0.017694 0.030280 -0.009461 0.005662
# 5 0.003096 0.001313 0.014749 -0.009461 0.038152 -0.004614
# 6 0.001787 -0.001465 -0.005054 0.005662 -0.004614 0.016703
#
#
# Mechanical properties :
#
#
# Convention : Reuss Voigt Hill
#
# Bulk Modulus (GPa) = 25.38178 68.79299 47.08738
# Shear Modulus (GPa) = 31.18129 48.97435 40.07782
#
# Velocity S-wave (km/s) = 3.43259 4.30189 3.89159
# Velocity P-wave (km/s) = 5.03005 7.11831 6.16327
#
# Compressibility (1/GPa) = 0.03939835
#
# Stress axis : x y z
#
# Youngs Moduli (GPa) = 76.07018 166.63521 31.65056
#
# Poissons Ratio (x) = 0.55507 0.01980
# Poissons Ratio (y) = 0.25339 0.05429
# Poissons Ratio (z) = 0.04758 0.28582
#
# Static dielectric constant tensor:
#      x y z
#    x 2.218900 0.051770 0.108460 
#    y 0.051770 2.020010 0.007050 
#    z 0.108460 0.007050 2.344590 
# 
# From -- ./inp_files/3500.got.cif
#   From: 2010.05.17/outbox.cif.g08.bks.cpg/sg2_2_cif.got.tgz:3500.got - 2010.06.03 11:33:40.
