data_PCOD9030033
_publ_section_title
;
Structure prediction by ZEFSAII (Michael W. Deem and Ramdas Pophale) SiO2 
 PCOD9030033
Probable space group: P -1
;
_chemical_formula_sum "Si O2"
_cell_formula_units_Z 12
_cell_length_a 25.330093
_cell_length_b 9.803709
_cell_length_c 15.901021
_cell_angle_alpha 151.452165
_cell_angle_beta 16.741820
_cell_angle_gamma 152.002891
_cell_volume 517.933120
_symmetry_space_group_name_H-M "P -1"
_symmetry_group_IT_number 2
_symmetry_cell_setting 'triclinic'
loop_
_space_group_symop_operation_xyz
x,y,z
-x,-y,-z
loop_
_atom_site_type_symbol
_atom_site_label
_atom_site_fract_x
_atom_site_fract_y
_atom_site_fract_z
Si Si1 0.855367 0.108750 0.913963
Si Si2 0.757028 0.344953 0.369107
Si Si3 0.387192 0.246999 0.292655
Si Si4 0.501799 0.842616 0.191327
Si Si5 0.551786 0.325165 0.250394
Si Si6 0.930127 0.286764 0.569250
O O1 0.043024 0.401367 0.773648
O O2 0.782453 0.165133 0.149311
O O3 0.914189 0.801076 0.660320
O O4 0.697822 0.045703 0.046647
O O5 0.599953 0.509202 0.666490
O O6 0.668961 0.156457 0.483214
O O7 0.434355 0.400585 0.392900
O O8 0.174230 0.033110 0.488439
O O9 0.500000 0.000000 0.000000
O O10 0.486222 0.984282 0.200825
O O11 0.500000 0.500000 0.000000
O O12 0.500000 0.500000 0.500000
O O13 0.771557 0.383054 0.916906
O O14 0.000000 0.500000 0.500000
#
# Coordination Sequence:
#
# PCOD9030033 Si02
#       6
#     2   2   2   2   2   2
#     4  10  23  42  65  95 129 166 232 268 307 407
#     4  10  22  42  69  92 124 178 225 268 318 385
#     4   9  19  40  63  88 126 168 213 255 312 400
#     4  12  25  39  67  98 134 175 206 274 346 380
#     4  11  25  42  63  98 135 162 214 274 333 387
#     4  10  23  39  67  89 121 175 213 262 320 383
#
# _framework density 23.169015999999999
#
# number of rings (size 3 to 8) (size 9 to 14) (size 15 to 20)
#    0.000    1.667    0.000    4.500    9.333    2.667 
#    0.000    0.833    0.000    0.000    0.000    0.000 
#    0.000    0.000    0.000    0.000    0.000    0.000 
#
# Total GULP energy -66943.050400 kJ/mol
# GULP energy per Si atom -5578.587533 kJ/mol
# Density = 2.311628 g / cm^3
# Si number density = 23.169016 Si / 1000 Ang^3
#
#
#
# Elastic Constant Matrix: (Units=GPa)
#
#
# Indices 1 2 3 4 5 6 
#
# 1 67.4894 9.0816 29.2081 -17.0116 7.8512 -2.9154
# 2 9.0816 58.2000 22.4387 -5.7278 1.2921 -10.8150
# 3 29.2081 22.4387 100.7724 1.9802 15.6026 -5.1592
# 4 -17.0116 -5.7278 1.9802 37.1961 -2.6831 11.4384
# 5 7.8512 1.2921 15.6026 -2.6831 37.1162 -2.6411
# 6 -2.9154 -10.8150 -5.1592 11.4384 -2.6411 45.3812
#
#
#
# Elastic Compliance Matrix: (Units=1/GPa)
#
#
# Indices 1 2 3 4 5 6 
#
# 1 0.019926 -0.000228 -0.005840 0.009921 -0.001178 -0.002007
# 2 -0.000228 0.019806 -0.004450 0.002147 0.001652 0.003754
# 3 -0.005840 -0.004450 0.013453 -0.004712 -0.004533 0.001018
# 4 0.009921 0.002147 -0.004712 0.034590 0.001739 -0.008004
# 5 -0.001178 0.001652 -0.004533 0.001739 0.029241 0.001066
# 6 -0.002007 0.003754 0.001018 -0.008004 0.001066 0.024996
#
#
# Mechanical properties :
#
#
# Convention : Reuss Voigt Hill
#
# Bulk Modulus (GPa) = 31.10452 38.65761 34.88106
# Shear Modulus (GPa) = 28.77433 34.98759 31.88096
#
# Velocity S-wave (km/s) = 3.52793 3.89022 3.71349
# Velocity P-wave (km/s) = 5.48172 6.07451 5.78571
#
# Compressibility (1/GPa) = 0.03214967
#
# Stress axis : x y z
#
# Youngs Moduli (GPa) = 50.18454 50.49095 74.33028
#
# Poissons Ratio (x) = 0.01152 0.43410
# Poissons Ratio (y) = 0.01145 0.33074
# Poissons Ratio (z) = 0.29308 0.22466
#
# Static dielectric constant tensor:
#      x y z
#    x 1.996990 0.037300 0.014960 
#    y 0.037300 1.940710 0.129930 
#    z 0.014960 0.129930 2.135910 
# 
# From -- ./inp_files/147249.got.cif
#   From: 2010.05.17/outbox.cif.g08.bks.cpg/sg2_74_cif.got.tgz:147249.got - 2010.06.03 11:33:40.
