data_PCOD9030648
_publ_section_title
;
Structure prediction by ZEFSAII (Michael W. Deem and Ramdas Pophale) SiO2 
 PCOD9030648
Probable space group: P -1
;
_chemical_formula_sum "Si O2"
_cell_formula_units_Z 13
_cell_length_a 7.239753
_cell_length_b 12.477404
_cell_length_c 6.402102
_cell_angle_alpha 75.212987
_cell_angle_beta 120.536191
_cell_angle_gamma 87.560676
_cell_volume 471.204442
_symmetry_space_group_name_H-M "P -1"
_symmetry_group_IT_number 2
_symmetry_cell_setting 'triclinic'
loop_
_space_group_symop_operation_xyz
x,y,z
-x,-y,-z
loop_
_atom_site_type_symbol
_atom_site_label
_atom_site_fract_x
_atom_site_fract_y
_atom_site_fract_z
Si Si1 0.596427 0.869178 0.068352
Si Si2 0.295810 0.911841 0.538015
Si Si3 0.066440 0.154888 0.369939
Si Si4 0.531322 0.646326 0.055869
Si Si5 0.966497 0.619480 0.040666
Si Si6 0.500000 0.500000 0.500000
Si Si7 0.659710 0.310072 0.506129
O O1 0.821495 0.839065 0.340212
O O2 0.498069 0.759914 0.119315
O O3 0.542447 0.874085 0.787395
O O4 0.500000 0.000000 0.000000
O O5 0.279263 0.825707 0.382730
O O6 0.151325 0.885901 0.664671
O O7 0.208977 0.044141 0.391817
O O8 0.044228 0.269104 0.166510
O O9 0.511402 0.544581 0.241548
O O10 0.769211 0.632747 0.088561
O O11 0.348762 0.667743 0.757562
O O12 0.192740 0.618391 0.310081
O O13 0.000000 0.500000 0.000000
O O14 0.431932 0.379714 0.428776
#
# Coordination Sequence:
#
# PCOD9030648 Si02
#       7
#     2   2   2   2   2   1   2
#     4   9  20  43  73 103 143 187 236 300 362 424
#     4   9  21  44  73 105 143 187 246 297 362 426
#     4  10  22  42  72 108 143 189 241 301 357 432
#     4  11  27  50  72 109 144 192 249 298 358 441
#     4  12  29  46  74 111 151 196 243 302 368 431
#     4  12  28  48  74 104 148 194 248 296 360 438
#     4  11  26  48  74 109 143 195 242 301 370 425
#
# _framework density 27.588873
#
# number of rings (size 3 to 8) (size 9 to 14) (size 15 to 20)
#    0.000    1.538    0.000    2.308   10.769    1.231 
#    2.769    3.077    0.000    0.000    0.000    0.000 
#    0.000    0.000    0.000    0.000    0.000    0.000 
#
# Total GULP energy -72386.313685 kJ/mol
# GULP energy per Si atom -5568.177976 kJ/mol
# Density = 2.752608 g / cm^3
# Si number density = 27.588873 Si / 1000 Ang^3
#
#
#
# Elastic Constant Matrix: (Units=GPa)
#
#
# Indices 1 2 3 4 5 6 
#
# 1 118.7436 34.1757 72.3885 -16.4744 -30.7933 20.2046
# 2 34.1757 250.4927 77.1763 -22.7219 -18.2639 -14.2351
# 3 72.3885 77.1763 164.2129 -29.2228 1.0558 21.7827
# 4 -16.4744 -22.7219 -29.2228 61.3012 12.6320 -2.4703
# 5 -30.7933 -18.2639 1.0558 12.6320 29.1510 -5.0723
# 6 20.2046 -14.2351 21.7827 -2.4703 -5.0723 47.9250
#
#
#
# Elastic Compliance Matrix: (Units=1/GPa)
#
#
# Indices 1 2 3 4 5 6 
#
# 1 0.020301 0.001883 -0.010600 -0.004002 0.024606 -0.000783
# 2 0.001883 0.005594 -0.004043 -0.000544 0.006460 0.003361
# 3 -0.010600 -0.004043 0.014495 0.006015 -0.017712 -0.004885
# 4 -0.004002 -0.000544 0.006015 0.020734 -0.014053 -0.001627
# 5 0.024606 0.006460 -0.017712 -0.014053 0.072208 0.006514
# 6 -0.000783 0.003361 -0.004885 -0.001627 0.006514 0.025020
#
#
# Mechanical properties :
#
#
# Convention : Reuss Voigt Hill
#
# Bulk Modulus (GPa) = 67.25709 100.10338 83.68024
# Shear Modulus (GPa) = 26.47908 50.98935 38.73421
#
# Velocity S-wave (km/s) = 3.10138 4.30372 3.75104
# Velocity P-wave (km/s) = 6.10377 7.81401 7.01123
#
# Compressibility (1/GPa) = 0.01486832
#
# Stress axis : x y z
#
# Youngs Moduli (GPa) = 49.25932 178.77609 68.98995
#
# Poissons Ratio (x) = -0.33659 0.73131
# Poissons Ratio (y) = -0.09274 0.27892
# Poissons Ratio (z) = 0.52216 0.72278
#
# Static dielectric constant tensor:
#      x y z
#    x 1.797090 0.160780 -0.261280 
#    y 0.160780 2.213150 0.173720 
#    z -0.261280 0.173720 1.852620 
# 
# From -- ./inp_files/185460.got.cif
#   From: 2010.05.17/outbox.cif.g08.bks.cpg/sg2_93_cif.got.tgz:185460.got - 2010.06.03 11:33:40.
