data_PCOD9030815
_publ_section_title
;
Structure prediction by ZEFSAII (Michael W. Deem and Ramdas Pophale) SiO2 
 PCOD9030815
Probable space group: P -1
;
_chemical_formula_sum "Si O2"
_cell_formula_units_Z 15
_cell_length_a 7.574348
_cell_length_b 9.288666
_cell_length_c 15.847690
_cell_angle_alpha 142.313578
_cell_angle_beta 102.720098
_cell_angle_gamma 67.896063
_cell_volume 625.575610
_symmetry_space_group_name_H-M "P -1"
_symmetry_group_IT_number 2
_symmetry_cell_setting 'triclinic'
loop_
_space_group_symop_operation_xyz
x,y,z
-x,-y,-z
loop_
_atom_site_type_symbol
_atom_site_label
_atom_site_fract_x
_atom_site_fract_y
_atom_site_fract_z
Si Si1 0.500000 0.000000 0.500000
Si Si2 0.775065 0.450345 0.246935
Si Si3 0.942640 0.599676 0.168586
Si Si4 0.862955 0.650260 0.671838
Si Si5 0.643059 0.017720 0.673735
Si Si6 0.997632 0.921221 0.558826
Si Si7 0.369947 0.955016 0.039132
Si Si8 0.308688 0.461553 0.037489
O O1 0.416756 0.318886 0.645784
O O2 0.457957 0.993718 0.598370
O O3 0.894688 0.542874 0.231424
O O4 0.915293 0.365598 0.302795
O O5 0.742971 0.210899 0.091658
O O6 0.157215 0.449380 0.088434
O O7 0.941357 0.882628 0.288779
O O8 0.796349 0.537857 0.061281
O O9 0.880086 0.361913 0.539667
O O10 0.757022 0.808622 0.654016
O O11 0.755248 0.798708 0.811257
O O12 0.638640 0.287943 0.828605
O O13 0.768613 0.967819 0.574866
O O14 0.000000 0.000000 0.500000
O O15 0.506436 0.778931 0.042519
O O16 0.500000 0.000000 0.000000
#
# Coordination Sequence:
#
# PCOD9030815 Si02
#       8
#     1   2   2   2   2   2   2   2
#     4  12  24  42  74 102 136 190 234 292 352 426
#     4  12  25  45  73 101 140 188 240 285 365 423
#     4  10  22  42  74  99 136 189 236 283 354 437
#     4  12  26  45  74 108 143 191 239 297 353 425
#     4  11  24  44  73 104 143 186 241 295 352 428
#     4  11  22  43  73 100 142 188 236 288 359 423
#     4  12  28  44  70 103 149 184 239 301 354 425
#     4  10  23  45  69 102 140 188 234 292 359 423
#
# _framework density 23.977917999999999
#
# number of rings (size 3 to 8) (size 9 to 14) (size 15 to 20)
#    0.000    0.800    4.000    2.400    3.733    5.333 
#    0.000    0.667    0.000    0.000    0.000    0.000 
#    0.000    0.000    0.000    0.000    0.000    0.000 
#
# Total GULP energy -83769.490955 kJ/mol
# GULP energy per Si atom -5584.632730 kJ/mol
# Density = 2.392334 g / cm^3
# Si number density = 23.977918 Si / 1000 Ang^3
#
#
#
# Elastic Constant Matrix: (Units=GPa)
#
#
# Indices 1 2 3 4 5 6 
#
# 1 57.2103 20.9682 22.7038 6.5415 -10.6043 4.4052
# 2 20.9682 102.5797 5.2377 1.1186 -13.9332 -27.0212
# 3 22.7038 5.2377 115.6166 13.4744 -1.1337 -13.7985
# 4 6.5415 1.1186 13.4744 40.2260 -8.2575 -2.0397
# 5 -10.6043 -13.9332 -1.1337 -8.2575 42.4420 -0.5579
# 6 4.4052 -27.0212 -13.7985 -2.0397 -0.5579 42.6460
#
#
#
# Elastic Compliance Matrix: (Units=1/GPa)
#
#
# Indices 1 2 3 4 5 6 
#
# 1 0.023075 -0.006086 -0.004972 -0.001659 0.003208 -0.007886
# 2 -0.006086 0.014053 0.001658 0.001282 0.003520 0.010177
# 3 -0.004972 0.001658 0.010425 -0.002666 -0.000875 0.004798
# 4 -0.001659 0.001282 -0.002666 0.027137 0.005234 0.001488
# 5 0.003208 0.003520 -0.000875 0.005234 0.026543 0.002214
# 6 -0.007886 0.010177 0.004798 0.001488 0.002214 0.032364
#
#
# Mechanical properties :
#
#
# Convention : Reuss Voigt Hill
#
# Bulk Modulus (GPa) = 34.77906 41.46955 38.12430
# Shear Modulus (GPa) = 30.86787 40.16260 35.51523
#
# Velocity S-wave (km/s) = 3.59185 4.09710 3.85276
# Velocity P-wave (km/s) = 5.63365 6.30191 5.97712
#
# Compressibility (1/GPa) = 0.02875294
#
# Stress axis : x y z
#
# Youngs Moduli (GPa) = 43.33754 71.16015 95.92054
#
# Poissons Ratio (x) = 0.43310 0.47690
# Poissons Ratio (y) = 0.26376 -0.15906
# Poissons Ratio (z) = 0.21547 -0.11800
#
# Static dielectric constant tensor:
#      x y z
#    x 1.634830 0.169000 -0.168720 
#    y 0.169000 1.818100 0.045000 
#    z -0.168720 0.045000 1.871690 
# 
# From -- ./inp_files/294597.got.cif
#   From: 2010.05.17/outbox.cif.g08.bks.cpg/sg2_148_cif.got.tgz:294597.got - 2010.06.03 11:33:40.
