data_PCOD9030827
_publ_section_title
;
Structure prediction by ZEFSAII (Michael W. Deem and Ramdas Pophale) SiO2 
 PCOD9030827
Probable space group: P -1
;
_chemical_formula_sum "Si O2"
_cell_formula_units_Z 12
_cell_length_a 11.583842
_cell_length_b 7.259820
_cell_length_c 7.924057
_cell_angle_alpha 66.814100
_cell_angle_beta 52.849614
_cell_angle_gamma 89.257303
_cell_volume 464.695236
_symmetry_space_group_name_H-M "P -1"
_symmetry_group_IT_number 2
_symmetry_cell_setting 'triclinic'
loop_
_space_group_symop_operation_xyz
x,y,z
-x,-y,-z
loop_
_atom_site_type_symbol
_atom_site_label
_atom_site_fract_x
_atom_site_fract_y
_atom_site_fract_z
Si Si1 0.882835 0.945672 0.437842
Si Si2 0.169549 0.863876 0.254401
Si Si3 0.294348 0.147833 0.720000
Si Si4 0.121581 0.390802 0.987296
Si Si5 0.570270 0.396377 0.214403
Si Si6 0.559188 0.246606 0.903158
O O1 0.783895 0.923656 0.365991
O O2 0.987571 0.791054 0.412064
O O3 0.799913 0.968671 0.675884
O O4 0.014754 0.168657 0.228060
O O5 0.257453 0.701147 0.289503
O O6 0.245208 0.974946 0.973242
O O7 0.224171 0.330004 0.775231
O O8 0.473806 0.236777 0.496629
O O9 0.249596 0.532448 0.945956
O O10 0.000000 0.500000 0.000000
O O11 0.511511 0.601661 0.194888
O O12 0.527129 0.291272 0.108609
O O13 0.500000 0.000000 0.000000
#
# Coordination Sequence:
#
# PCOD9030827 Si02
#       6
#     2   2   2   2   2   2
#     4  10  23  45  75 108 149 198 255 312 373 461
#     4  10  22  42  75 106 144 196 251 302 382 443
#     4  11  24  47  76 107 150 195 253 321 371 450
#     4  11  25  44  72 108 150 197 253 309 383 450
#     4  11  27  47  73 117 152 191 263 315 371 463
#     4  11  24  45  75 108 154 202 245 312 388 447
#
# _framework density 25.823374999999999
#
# number of rings (size 3 to 8) (size 9 to 14) (size 15 to 20)
#    0.000    1.333    0.000    5.500    7.000    6.000 
#    0.000    1.667    0.000    0.000    0.000    0.000 
#    0.000    0.000    0.000    0.000    0.000    0.000 
#
# Total GULP energy -67169.630783 kJ/mol
# GULP energy per Si atom -5597.469232 kJ/mol
# Density = 2.576460 g / cm^3
# Si number density = 25.823375 Si / 1000 Ang^3
#
#
#
# Elastic Constant Matrix: (Units=GPa)
#
#
# Indices 1 2 3 4 5 6 
#
# 1 153.3277 40.3516 26.9082 -0.1270 -11.4717 2.6045
# 2 40.3516 95.8123 21.1422 2.6693 0.1465 4.6144
# 3 26.9082 21.1422 92.1500 -0.4151 -11.1141 11.8059
# 4 -0.1270 2.6693 -0.4151 20.7685 10.3163 -6.8376
# 5 -11.4717 0.1465 -11.1141 10.3163 42.7465 16.9631
# 6 2.6045 4.6144 11.8059 -6.8376 16.9631 65.3994
#
#
#
# Elastic Compliance Matrix: (Units=1/GPa)
#
#
# Indices 1 2 3 4 5 6 
#
# 1 0.007677 -0.002912 -0.001250 -0.000847 0.002157 -0.000523
# 2 -0.002912 0.012159 -0.002026 -0.001235 -0.000949 -0.000259
# 3 -0.001250 -0.002026 0.012809 -0.003430 0.005365 -0.003870
# 4 -0.000847 -0.001235 -0.003430 0.063158 -0.021483 0.012916
# 5 0.002157 -0.000949 0.005365 -0.021483 0.035492 -0.012439
# 6 -0.000523 -0.000259 -0.003870 0.012916 -0.012439 0.020605
#
#
# Mechanical properties :
#
#
# Convention : Reuss Voigt Hill
#
# Bulk Modulus (GPa) = 49.33769 57.56600 53.45185
# Shear Modulus (GPa) = 29.23401 42.64208 35.93804
#
# Velocity S-wave (km/s) = 3.36828 4.06802 3.73458
# Velocity P-wave (km/s) = 5.85444 6.66376 6.27217
#
# Compressibility (1/GPa) = 0.02026848
#
# Stress axis : x y z
#
# Youngs Moduli (GPa) = 130.25366 82.24441 78.06814
#
# Poissons Ratio (x) = 0.23949 0.09762
# Poissons Ratio (y) = 0.37929 0.15818
# Poissons Ratio (z) = 0.16287 0.16664
#
# Static dielectric constant tensor:
#      x y z
#    x 2.112570 -0.062270 -0.044990 
#    y -0.062270 2.118810 0.016780 
#    z -0.044990 0.016780 2.020970 
# 
# From -- ./inp_files/233729.got.cif
#   From: 2010.05.17/outbox.cif.g08.bks.cpg/sg2_117_cif.got.tgz:233729.got - 2010.06.03 11:33:40.
