data_PCOD9030110
_publ_section_title
;
Structure prediction by ZEFSAII (Michael W. Deem and Ramdas Pophale) SiO2 
 PCOD9030110
Probable space group: P -1
;
_chemical_formula_sum "Si O2"
_cell_formula_units_Z 14
_cell_length_a 20.107752
_cell_length_b 7.307541
_cell_length_c 8.019099
_cell_angle_alpha 63.278843
_cell_angle_beta 146.926697
_cell_angle_gamma 116.965453
_cell_volume 567.200086
_symmetry_space_group_name_H-M "P -1"
_symmetry_group_IT_number 2
_symmetry_cell_setting 'triclinic'
loop_
_space_group_symop_operation_xyz
x,y,z
-x,-y,-z
loop_
_atom_site_type_symbol
_atom_site_label
_atom_site_fract_x
_atom_site_fract_y
_atom_site_fract_z
Si Si1 0.122210 0.450112 0.043960
Si Si2 0.335151 0.595248 0.203218
Si Si3 0.263375 0.190297 0.995015
Si Si4 0.443491 0.462890 0.076225
Si Si5 0.622863 0.129064 0.121822
Si Si6 0.058344 0.286472 0.317070
Si Si7 0.169316 0.015437 0.188074
O O1 0.998638 0.552461 0.750953
O O2 0.229037 0.604648 0.112355
O O3 0.143855 0.404320 0.303307
O O4 0.118992 0.229558 0.035798
O O5 0.446185 0.513307 0.566824
O O6 0.280986 0.413422 0.035526
O O7 0.380458 0.801314 0.107260
O O8 0.134202 0.150867 0.644366
O O9 0.367481 0.238620 0.053312
O O10 0.258509 0.039038 0.202908
O O11 0.500000 0.500000 0.000000
O O12 0.366049 0.649070 0.855810
O O13 0.744383 0.031911 0.459690
O O14 0.500000 0.000000 0.000000
O O15 0.946189 0.153790 0.034843
#
# Coordination Sequence:
#
# PCOD9030110 Si02
#       7
#     2   2   2   2   2   2   2
#     4  10  24  44  69  94 140 176 226 273 338 390
#     4  10  22  42  69  97 131 182 219 271 347 400
#     4  10  22  43  66  96 137 175 226 277 329 405
#     4  11  23  42  71  96 133 175 222 277 343 402
#     4  11  23  43  67  99 135 173 225 279 338 400
#     4  11  24  43  71  98 135 180 232 272 329 404
#     4  11  24  44  66 102 136 177 227 279 333 395
#
# _framework density 24.682649999999999
#
# number of rings (size 3 to 8) (size 9 to 14) (size 15 to 20)
#    0.000    1.429    0.000    6.000   10.000    2.286 
#    7.714    1.429    0.000    0.000    0.000    0.000 
#    0.000    0.000    0.000    0.000    0.000    0.000 
#
# Total GULP energy -78236.807429 kJ/mol
# GULP energy per Si atom -5588.343388 kJ/mol
# Density = 2.462647 g / cm^3
# Si number density = 24.682650 Si / 1000 Ang^3
#
#
#
# Elastic Constant Matrix: (Units=GPa)
#
#
# Indices 1 2 3 4 5 6 
#
# 1 136.0513 52.4398 14.9390 -2.1047 2.4136 39.0750
# 2 52.4398 89.8841 21.3672 8.8054 0.0117 6.3818
# 3 14.9390 21.3672 88.4879 13.1082 -15.4653 9.2685
# 4 -2.1047 8.8054 13.1082 27.8235 8.6506 1.8661
# 5 2.4136 0.0117 -15.4653 8.6506 21.0795 -9.5056
# 6 39.0750 6.3818 9.2685 1.8661 -9.5056 51.1028
#
#
#
# Elastic Compliance Matrix: (Units=1/GPa)
#
#
# Indices 1 2 3 4 5 6 
#
# 1 0.014897 -0.008030 -0.003261 0.010469 -0.014168 -0.012814
# 2 -0.008030 0.016399 -0.001100 -0.007423 0.005684 0.005620
# 3 -0.003261 -0.001100 0.017669 -0.015116 0.021319 0.003944
# 4 0.010469 -0.007423 -0.015116 0.060836 -0.043889 -0.014722
# 5 -0.014168 0.005684 0.021319 -0.043889 0.094152 0.025373
# 6 -0.012814 0.005620 0.003944 -0.014722 0.025373 0.033207
#
#
# Mechanical properties :
#
#
# Convention : Reuss Voigt Hill
#
# Bulk Modulus (GPa) = 41.34960 54.65724 48.00342
# Shear Modulus (GPa) = 18.51835 35.04633 26.78234
#
# Velocity S-wave (km/s) = 2.74206 3.77221 3.29761
# Velocity P-wave (km/s) = 5.17823 6.41598 5.83005
#
# Compressibility (1/GPa) = 0.02418403
#
# Stress axis : x y z
#
# Youngs Moduli (GPa) = 67.12800 60.97904 56.59600
#
# Poissons Ratio (x) = 0.48965 0.18455
# Poissons Ratio (y) = 0.53903 0.06225
# Poissons Ratio (z) = 0.21889 0.06707
#
# Static dielectric constant tensor:
#      x y z
#    x 2.106250 0.015450 0.090310 
#    y 0.015450 2.026430 -0.034870 
#    z 0.090310 -0.034870 1.965230 
# 
# From -- ./inp_files/343463.got.cif
#   From: 2010.05.17/outbox.cif.g08.bks.cpg/sg2_172_cif.got.tgz:343463.got - 2010.06.03 11:33:40.
