data_PCOD9030534
_publ_section_title
;
Structure prediction by ZEFSAII (Michael W. Deem and Ramdas Pophale) SiO2 
 PCOD9030534
Probable space group: P -1
;
_chemical_formula_sum "Si O2"
_cell_formula_units_Z 16
_cell_length_a 11.548222
_cell_length_b 19.515913
_cell_length_c 8.708396
_cell_angle_alpha 126.217003
_cell_angle_beta 128.881130
_cell_angle_gamma 27.833509
_cell_volume 709.885370
_symmetry_space_group_name_H-M "P -1"
_symmetry_group_IT_number 2
_symmetry_cell_setting 'triclinic'
loop_
_space_group_symop_operation_xyz
x,y,z
-x,-y,-z
loop_
_atom_site_type_symbol
_atom_site_label
_atom_site_fract_x
_atom_site_fract_y
_atom_site_fract_z
Si Si1 0.225099 0.528047 0.058142
Si Si2 0.480021 0.017207 0.189440
Si Si3 0.439534 0.187255 0.594623
Si Si4 0.256338 0.436698 0.651084
Si Si5 0.853294 0.964988 0.902833
Si Si6 0.069888 0.292339 0.684871
Si Si7 0.694230 0.226343 0.183713
Si Si8 0.511739 0.567543 0.441382
O O1 0.407679 0.368414 0.065057
O O2 0.359051 0.557328 0.236619
O O3 0.972076 0.638185 0.098319
O O4 0.188785 0.534205 0.857073
O O5 0.257801 0.056808 0.113474
O O6 0.736490 0.870600 0.307574
O O7 0.415414 0.139893 0.362641
O O8 0.500000 0.000000 0.000000
O O9 0.457595 0.274694 0.670857
O O10 0.681828 0.050125 0.718743
O O11 0.205549 0.276665 0.636086
O O12 0.378944 0.424386 0.591373
O O13 0.000000 0.500000 0.500000
O O14 0.803942 0.079423 0.094101
O O15 0.131703 0.816964 0.866878
O O16 0.776127 0.412970 0.542506
O O17 0.664270 0.293246 0.405155
#
# Coordination Sequence:
#
# PCOD9030534 Si02
#       8
#     2   2   2   2   2   2   2   2
#     4  11  25  43  69 101 136 176 233 274 343 395
#     4  11  27  42  68 100 138 174 229 281 339 399
#     4  11  24  43  67  96 136 181 229 275 340 396
#     4  12  26  45  66 102 142 176 226 285 336 392
#     4  10  22  44  69  95 136 176 227 278 332 413
#     4  10  22  44  72  97 126 186 221 282 325 413
#     4  10  22  42  71  97 130 182 224 274 338 405
#     4  11  25  42  74  98 139 177 227 280 337 409
#
# _framework density 22.538851000000001
#
# number of rings (size 3 to 8) (size 9 to 14) (size 15 to 20)
#    0.000    1.250    2.500    3.375   10.500    1.500 
#    2.250    0.625    0.000    0.000    0.000    0.000 
#    0.000    0.000    0.000    0.000    0.000    0.000 
#
# Total GULP energy -89342.623038 kJ/mol
# GULP energy per Si atom -5583.913940 kJ/mol
# Density = 2.248755 g / cm^3
# Si number density = 22.538851 Si / 1000 Ang^3
#
#
#
# Elastic Constant Matrix: (Units=GPa)
#
#
# Indices 1 2 3 4 5 6 
#
# 1 118.7988 16.8623 75.2703 11.9304 -26.2420 7.7529
# 2 16.8623 61.2297 24.8672 20.8651 -8.6619 -12.6022
# 3 75.2703 24.8672 168.4075 30.3518 -14.0597 -5.9245
# 4 11.9304 20.8651 30.3518 29.2607 -5.7776 -6.1567
# 5 -26.2420 -8.6619 -14.0597 -5.7776 31.3630 -0.9059
# 6 7.7529 -12.6022 -5.9245 -6.1567 -0.9059 31.5718
#
#
#
# Elastic Compliance Matrix: (Units=1/GPa)
#
#
# Indices 1 2 3 4 5 6 
#
# 1 0.014718 -0.002167 -0.006144 0.002743 0.009328 -0.004830
# 2 -0.002167 0.023454 0.000564 -0.014411 0.002472 0.007261
# 3 -0.006144 0.000564 0.009990 -0.008239 -0.001968 0.001945
# 4 0.002743 -0.014411 -0.008239 0.053308 0.004516 0.002553
# 5 0.009328 0.002472 -0.001968 0.004516 0.040333 0.000365
# 6 -0.004830 0.007261 0.001945 0.002553 0.000365 0.036632
#
#
# Mechanical properties :
#
#
# Convention : Reuss Voigt Hill
#
# Bulk Modulus (GPa) = 30.61017 64.71508 47.66263
# Shear Modulus (GPa) = 24.41199 33.86817 29.14008
#
# Velocity S-wave (km/s) = 3.29463 3.88062 3.59957
# Velocity P-wave (km/s) = 5.29937 6.98956 6.20231
#
# Compressibility (1/GPa) = 0.03266888
#
# Stress axis : x y z
#
# Youngs Moduli (GPa) = 67.94345 42.63585 100.10367
#
# Poissons Ratio (x) = 0.09240 0.61502
# Poissons Ratio (y) = 0.14725 -0.05650
# Poissons Ratio (z) = 0.41743 -0.02406
#
# Static dielectric constant tensor:
#      x y z
#    x 1.820560 -0.012220 0.032490 
#    y -0.012220 1.921930 -0.001450 
#    z 0.032490 -0.001450 1.897020 
# 
# From -- ./inp_files/283271.got.cif
#   From: 2010.05.17/outbox.cif.g08.bks.cpg/sg2_142_cif.got.tgz:283271.got - 2010.06.03 11:33:40.
