data_PCOD9030538
_publ_section_title
;
Structure prediction by ZEFSAII (Michael W. Deem and Ramdas Pophale) SiO2 
 PCOD9030538
Probable space group: P -1
;
_chemical_formula_sum "Si O2"
_cell_formula_units_Z 13
_cell_length_a 14.006368
_cell_length_b 9.353811
_cell_length_c 9.078591
_cell_angle_alpha 47.272813
_cell_angle_beta 43.357723
_cell_angle_gamma 38.695859
_cell_volume 493.143461
_symmetry_space_group_name_H-M "P -1"
_symmetry_group_IT_number 2
_symmetry_cell_setting 'triclinic'
loop_
_space_group_symop_operation_xyz
x,y,z
-x,-y,-z
loop_
_atom_site_type_symbol
_atom_site_label
_atom_site_fract_x
_atom_site_fract_y
_atom_site_fract_z
Si Si1 0.767769 0.170300 0.484376
Si Si2 0.675633 0.586891 0.110770
Si Si3 0.500000 0.000000 0.500000
Si Si4 0.900845 0.047433 0.922173
Si Si5 0.953926 0.591397 0.155432
Si Si6 0.431527 0.028256 0.239718
Si Si7 0.281341 0.547776 0.362196
O O1 0.667859 0.376994 0.327858
O O2 0.706241 0.999325 0.663926
O O3 0.731161 0.291584 0.598934
O O4 0.958882 0.043830 0.302144
O O5 0.609755 0.778890 0.183411
O O6 0.868269 0.478818 0.930784
O O7 0.567306 0.759253 0.979568
O O8 0.606817 0.931767 0.577295
O O9 0.444965 0.281748 0.374354
O O10 0.758388 0.312103 0.845183
O O11 0.834519 0.877351 0.102481
O O12 0.000000 0.000000 0.000000
O O13 0.871292 0.480920 0.409512
O O14 0.000000 0.500000 0.000000
#
# Coordination Sequence:
#
# PCOD9030538 Si02
#       7
#     2   2   1   2   2   2   2
#     4  11  23  45  72 102 134 185 232 286 347 420
#     4  10  22  42  71  97 134 180 231 279 340 420
#     4  12  28  46  66 104 142 188 228 288 350 408
#     4  11  27  44  70 111 141 183 236 292 353 408
#     4  11  22  44  74 103 138 180 237 288 345 420
#     4  11  24  44  68  99 140 181 231 281 349 413
#     4  12  26  47  71 104 144 187 234 285 354 414
#
# _framework density 26.361498999999998
#
# number of rings (size 3 to 8) (size 9 to 14) (size 15 to 20)
#    0.000    0.923    4.615    1.846    8.615    0.615 
#    0.000    1.538    0.000    0.000    0.000    0.000 
#    0.000    0.000    0.000    0.000    0.000    0.000 
#
# Total GULP energy -72537.451767 kJ/mol
# GULP energy per Si atom -5579.803982 kJ/mol
# Density = 2.630150 g / cm^3
# Si number density = 26.361499 Si / 1000 Ang^3
#
#
#
# Elastic Constant Matrix: (Units=GPa)
#
#
# Indices 1 2 3 4 5 6 
#
# 1 76.8485 20.4964 30.0588 -9.3188 17.2238 27.8076
# 2 20.4964 112.5171 33.0960 -16.4532 22.4063 13.4517
# 3 30.0588 33.0960 115.0685 -29.5904 8.0647 -1.8100
# 4 -9.3188 -16.4532 -29.5904 51.0157 -15.2328 3.4564
# 5 17.2238 22.4063 8.0647 -15.2328 40.5989 1.0372
# 6 27.8076 13.4517 -1.8100 3.4564 1.0372 42.3690
#
#
#
# Elastic Compliance Matrix: (Units=1/GPa)
#
#
# Indices 1 2 3 4 5 6 
#
# 1 0.022368 0.001130 -0.005944 -0.000598 -0.008773 -0.015030
# 2 0.001130 0.011352 -0.003052 0.000670 -0.005775 -0.004390
# 3 -0.005944 -0.003052 0.012466 0.005984 0.003852 0.004820
# 4 -0.000598 0.000670 0.005984 0.025825 0.008433 -0.001878
# 5 -0.008773 -0.005775 0.003852 0.008433 0.033779 0.006241
# 6 -0.015030 -0.004390 0.004820 -0.001878 0.006241 0.035066
#
#
# Mechanical properties :
#
#
# Convention : Reuss Voigt Hill
#
# Bulk Modulus (GPa) = 32.83587 52.41515 42.62551
# Shear Modulus (GPa) = 29.98682 41.51559 35.75121
#
# Velocity S-wave (km/s) = 3.37638 3.97275 3.68664
# Velocity P-wave (km/s) = 5.26146 6.40079 5.85888
#
# Compressibility (1/GPa) = 0.03045450
#
# Stress axis : x y z
#
# Youngs Moduli (GPa) = 44.70614 88.08827 80.22066
#
# Poissons Ratio (x) = -0.09954 0.47680
# Poissons Ratio (y) = -0.05052 0.24485
# Poissons Ratio (z) = 0.26571 0.26887
#
# Static dielectric constant tensor:
#      x y z
#    x 2.011940 -0.045030 0.021610 
#    y -0.045030 2.321640 0.231170 
#    z 0.021610 0.231170 2.203000 
# 
# From -- ./inp_files/293854.got.cif
#   From: 2010.05.17/outbox.cif.g08.bks.cpg/sg2_147_cif.got.tgz:293854.got - 2010.06.03 11:33:40.
