data_PCOD9030747
_publ_section_title
;
Structure prediction by ZEFSAII (Michael W. Deem and Ramdas Pophale) SiO2 
 PCOD9030747
Probable space group: P -1
;
_chemical_formula_sum "Si O2"
_cell_formula_units_Z 16
_cell_length_a 8.447367
_cell_length_b 9.257856
_cell_length_c 14.179013
_cell_angle_alpha 108.467472
_cell_angle_beta 138.777491
_cell_angle_gamma 83.794862
_cell_volume 677.898029
_symmetry_space_group_name_H-M "P -1"
_symmetry_group_IT_number 2
_symmetry_cell_setting 'triclinic'
loop_
_space_group_symop_operation_xyz
x,y,z
-x,-y,-z
loop_
_atom_site_type_symbol
_atom_site_label
_atom_site_fract_x
_atom_site_fract_y
_atom_site_fract_z
Si Si1 0.555334 0.675914 0.526740
Si Si2 0.742523 0.783980 0.826898
Si Si3 0.623335 0.443041 0.285774
Si Si4 0.447033 0.330315 0.988086
Si Si5 0.011774 0.112042 0.317439
Si Si6 0.730790 0.090911 0.996485
Si Si7 0.898819 0.207529 0.688104
Si Si8 0.990304 0.273043 0.522064
O O1 0.500000 0.500000 0.500000
O O2 0.605145 0.781248 0.664807
O O3 0.809871 0.725082 0.595939
O O4 0.327520 0.713148 0.375826
O O5 0.640580 0.618614 0.797081
O O6 0.029033 0.819209 0.935269
O O7 0.676574 0.921398 0.889482
O O8 0.603995 0.352496 0.159068
O O9 0.736733 0.621132 0.348527
O O10 0.806206 0.381213 0.426544
O O11 0.530465 0.197965 0.934541
O O12 0.500000 0.500000 0.000000
O O13 0.157065 0.281417 0.867606
O O14 0.936328 0.130863 0.394991
O O15 0.810615 0.073568 0.137446
O O16 0.159717 0.974095 0.351708
O O17 0.950705 0.231180 0.604283
#
# Coordination Sequence:
#
# PCOD9030747 Si02
#       8
#     2   2   2   2   2   2   2   2
#     4  11  25  45  73 100 138 184 232 281 347 417
#     4  10  22  42  73  95 134 182 236 273 338 426
#     4  11  22  42  67  99 138 184 225 284 341 416
#     4  12  26  44  68 102 145 178 236 291 342 413
#     4  11  24  43  72 101 138 180 231 287 341 416
#     4  10  24  44  68 101 137 191 224 281 358 409
#     4  12  26  43  68 106 137 178 231 292 344 403
#     4  11  23  40  68 101 137 173 235 275 349 403
#
# _framework density 23.602371999999999
#
# number of rings (size 3 to 8) (size 9 to 14) (size 15 to 20)
#    0.000    1.000    3.750    2.250    7.000    2.000 
#    0.000    3.125    0.000    0.000    0.000    0.000 
#    0.000    0.000    0.000    0.000    0.000    0.000 
#
# Total GULP energy -89474.613653 kJ/mol
# GULP energy per Si atom -5592.163353 kJ/mol
# Density = 2.354865 g / cm^3
# Si number density = 23.602372 Si / 1000 Ang^3
#
#
#
# Elastic Constant Matrix: (Units=GPa)
#
#
# Indices 1 2 3 4 5 6 
#
# 1 46.1072 -4.0709 26.9163 11.0873 -8.8286 5.2371
# 2 -4.0709 74.4728 16.3564 -3.8752 2.8245 1.6902
# 3 26.9163 16.3564 95.8713 9.8930 -6.6668 -11.2262
# 4 11.0873 -3.8752 9.8930 31.0707 -1.3654 0.1675
# 5 -8.8286 2.8245 -6.6668 -1.3654 49.4287 6.4200
# 6 5.2371 1.6902 -11.2262 0.1675 6.4200 44.2697
#
#
#
# Elastic Compliance Matrix: (Units=1/GPa)
#
#
# Indices 1 2 3 4 5 6 
#
# 1 0.030563 0.003186 -0.008801 -0.007463 0.004745 -0.006629
# 2 0.003186 0.014602 -0.003831 0.001892 -0.000491 -0.001842
# 3 -0.008801 -0.003831 0.014313 -0.001925 -0.000104 0.004839
# 4 -0.007463 0.001892 -0.001925 0.035662 -0.000754 0.000297
# 5 0.004745 -0.000491 -0.000104 -0.000754 0.021551 -0.003692
# 6 -0.006629 -0.001842 0.004839 0.000297 -0.003692 0.025205
#
#
# Mechanical properties :
#
#
# Convention : Reuss Voigt Hill
#
# Bulk Modulus (GPa) = 24.63809 32.76167 28.69988
# Shear Modulus (GPa) = 28.68341 36.77045 32.72693
#
# Velocity S-wave (km/s) = 3.48986 3.95132 3.72774
# Velocity P-wave (km/s) = 5.16724 5.89305 5.54204
#
# Compressibility (1/GPa) = 0.04058757
#
# Stress axis : x y z
#
# Youngs Moduli (GPa) = 32.71885 68.48338 69.86615
#
# Poissons Ratio (x) = -0.21817 0.61486
# Poissons Ratio (y) = -0.10423 0.26764
# Poissons Ratio (z) = 0.28794 0.26234
#
# Static dielectric constant tensor:
#      x y z
#    x 1.962590 -0.000730 0.025110 
#    y -0.000730 1.870890 0.033490 
#    z 0.025110 0.033490 1.907570 
# 
# From -- ./inp_files/209463.got.cif
#   From: 2010.05.17/outbox.cif.g08.bks.cpg/sg2_105_cif.got.tgz:209463.got - 2010.06.03 11:33:40.
