data_PCOD9030636
_publ_section_title
;
Structure prediction by ZEFSAII (Michael W. Deem and Ramdas Pophale) SiO2 
 PCOD9030636
Probable space group: P -1
;
_chemical_formula_sum "Si O2"
_cell_formula_units_Z 15
_cell_length_a 15.880472
_cell_length_b 8.757907
_cell_length_c 4.999242
_cell_angle_alpha 115.222955
_cell_angle_beta 80.366547
_cell_angle_gamma 120.314585
_cell_volume 541.980230
_symmetry_space_group_name_H-M "P -1"
_symmetry_group_IT_number 2
_symmetry_cell_setting 'triclinic'
loop_
_space_group_symop_operation_xyz
x,y,z
-x,-y,-z
loop_
_atom_site_type_symbol
_atom_site_label
_atom_site_fract_x
_atom_site_fract_y
_atom_site_fract_z
Si Si1 0.205316 0.217129 0.780847
Si Si2 0.000000 0.000000 0.000000
Si Si3 0.401549 0.406981 0.160301
Si Si4 0.938198 0.692772 0.331819
Si Si5 0.138038 0.864566 0.169647
Si Si6 0.157894 0.663265 0.531411
Si Si7 0.533563 0.879336 0.072041
Si Si8 0.637902 0.283871 0.562823
O O1 0.120666 0.105156 0.959533
O O2 0.308395 0.314646 0.944317
O O3 0.165191 0.350351 0.764683
O O4 0.194885 0.067655 0.440807
O O5 0.018731 0.133777 0.355692
O O6 0.414271 0.234674 0.161751
O O7 0.500000 0.500000 0.000000
O O8 0.387444 0.563114 0.464115
O O9 0.922465 0.512347 0.382060
O O10 0.020549 0.785599 0.118727
O O11 0.131555 0.716473 0.299351
O O12 0.186009 0.835226 0.858600
O O13 0.246968 0.621269 0.405543
O O14 0.431718 0.743408 0.171994
O O15 0.607102 0.059708 0.351669
O O16 0.500000 0.000000 0.000000
#
# Coordination Sequence:
#
# PCOD9030636 Si02
#       8
#     2   1   2   2   2   2   2   2
#     4  11  25  46  74 108 153 206 260 322 397 469
#     4  10  22  42  72 106 152 190 256 312 384 456
#     4  10  23  48  77 110 153 199 263 320 396 471
#     4  11  26  44  75 105 153 208 259 323 388 474
#     4  11  27  46  74 110 159 206 261 322 396 468
#     4  12  27  46  73 112 156 204 261 322 392 470
#     4  10  23  46  77 106 148 194 257 328 395 465
#     4  10  24  46  70 109 148 199 255 322 392 464
#
# _framework density 27.676286000000001
#
# number of rings (size 3 to 8) (size 9 to 14) (size 15 to 20)
#    0.000    1.333    0.000    4.000   13.067    1.600 
#    2.400    0.000    0.000    0.000    0.000    0.000 
#    0.000    0.000    0.000    0.000    0.000    0.000 
#
# Total GULP energy -83723.177690 kJ/mol
# GULP energy per Si atom -5581.545179 kJ/mol
# Density = 2.761329 g / cm^3
# Si number density = 27.676286 Si / 1000 Ang^3
#
#
#
# Elastic Constant Matrix: (Units=GPa)
#
#
# Indices 1 2 3 4 5 6 
#
# 1 188.5661 38.9421 55.5625 5.4716 -14.7710 17.9097
# 2 38.9421 77.3308 21.7661 14.2826 -7.7351 -2.0977
# 3 55.5625 21.7661 102.5106 1.9801 -9.8118 10.0870
# 4 5.4716 14.2826 1.9801 24.9677 -13.2572 -5.8373
# 5 -14.7710 -7.7351 -9.8118 -13.2572 49.2458 9.3463
# 6 17.9097 -2.0977 10.0870 -5.8373 9.3463 50.9657
#
#
#
# Elastic Compliance Matrix: (Units=1/GPa)
#
#
# Indices 1 2 3 4 5 6 
#
# 1 0.007044 -0.002750 -0.002860 0.000636 0.001712 -0.002264
# 2 -0.002750 0.016480 -0.002085 -0.009072 -0.001334 0.001263
# 3 -0.002860 -0.002085 0.012067 0.001505 0.001938 -0.001652
# 4 0.000636 -0.009072 0.001505 0.052338 0.012627 0.002784
# 5 0.001712 -0.001334 0.001938 0.012627 0.025195 -0.004214
# 6 -0.002264 0.001263 -0.001652 0.002784 -0.004214 0.021887
#
#
# Mechanical properties :
#
#
# Convention : Reuss Voigt Hill
#
# Bulk Modulus (GPa) = 49.50373 66.77211 58.13792
# Shear Modulus (GPa) = 31.81960 41.84495 36.83228
#
# Velocity S-wave (km/s) = 3.39441 3.89259 3.65200
# Velocity P-wave (km/s) = 5.76959 6.66194 6.23176
#
# Compressibility (1/GPa) = 0.02020050
#
# Stress axis : x y z
#
# Youngs Moduli (GPa) = 141.95477 60.68091 82.87101
#
# Poissons Ratio (x) = 0.16688 0.23701
# Poissons Ratio (y) = 0.39039 0.17280
# Poissons Ratio (z) = 0.40599 0.12653
#
# Static dielectric constant tensor:
#      x y z
#    x 2.169450 -0.205460 -0.003950 
#    y -0.205460 2.495530 0.010870 
#    z -0.003950 0.010870 2.040190 
# 
# From -- ./inp_files/105749.got.cif
#   From: 2010.05.17/outbox.cif.g08.bks.cpg/sg2_53_cif.got.tgz:105749.got - 2010.06.03 11:33:40.
