data_PCOD9030456
_publ_section_title
;
Structure prediction by ZEFSAII (Michael W. Deem and Ramdas Pophale) SiO2 
 PCOD9030456
Probable space group: P -1
;
_chemical_formula_sum "Si O2"
_cell_formula_units_Z 12
_cell_length_a 7.048050
_cell_length_b 11.599769
_cell_length_c 15.317145
_cell_angle_alpha 25.312469
_cell_angle_beta 110.956733
_cell_angle_gamma 118.665527
_cell_volume 460.053540
_symmetry_space_group_name_H-M "P -1"
_symmetry_group_IT_number 2
_symmetry_cell_setting 'triclinic'
loop_
_space_group_symop_operation_xyz
x,y,z
-x,-y,-z
loop_
_atom_site_type_symbol
_atom_site_label
_atom_site_fract_x
_atom_site_fract_y
_atom_site_fract_z
Si Si1 0.410957 0.536857 0.302744
Si Si2 0.581642 0.355419 0.282844
Si Si3 0.057187 0.920730 0.658818
Si Si4 0.813202 0.621007 0.975437
Si Si5 0.954650 0.390984 0.714242
Si Si6 0.111912 0.169017 0.738399
O O1 0.460775 0.484074 0.246505
O O2 0.260085 0.708903 0.190980
O O3 0.636325 0.665852 0.304881
O O4 0.253853 0.207058 0.530750
O O5 0.621387 0.532514 0.076460
O O6 0.827188 0.453845 0.298630
O O7 0.500000 0.000000 0.500000
O O8 0.153155 0.673366 0.836522
O O9 0.000000 0.000000 0.500000
O O10 0.839514 0.793328 0.770587
O O11 0.032071 0.849821 0.902739
O O12 0.947132 0.630484 0.478450
O O13 0.972170 0.148407 0.817868
#
# Coordination Sequence:
#
# PCOD9030456 Si02
#       6
#     2   2   2   2   2   2
#     4  11  22  42  78  97 147 191 232 300 367 420
#     4  11  24  43  69 103 148 190 233 303 362 416
#     4  11  24  45  74 107 142 189 234 304 366 428
#     4  11  24  44  74 103 147 185 244 302 356 431
#     4  10  22  42  71 100 147 188 238 296 361 423
#     4  10  23  43  72 106 138 194 238 299 360 425
#
# _framework density 26.083922000000001
#
# number of rings (size 3 to 8) (size 9 to 14) (size 15 to 20)
#    0.000    1.333    3.333    1.500    0.000    2.667 
#    0.000   10.833    0.000    0.000    0.000    0.000 
#    0.000    0.000    0.000    0.000    0.000    0.000 
#
# Total GULP energy -67174.815057 kJ/mol
# GULP energy per Si atom -5597.901255 kJ/mol
# Density = 2.602455 g / cm^3
# Si number density = 26.083922 Si / 1000 Ang^3
#
#
#
# Elastic Constant Matrix: (Units=GPa)
#
#
# Indices 1 2 3 4 5 6 
#
# 1 157.0718 30.3616 12.9322 14.2282 -46.3844 -23.1746
# 2 30.3616 123.9278 37.8088 -1.6391 -16.4456 -12.8675
# 3 12.9322 37.8088 114.2596 25.4208 -38.9204 -3.1698
# 4 14.2282 -1.6391 25.4208 60.2113 -11.6098 -11.1716
# 5 -46.3844 -16.4456 -38.9204 -11.6098 52.1357 5.3112
# 6 -23.1746 -12.8675 -3.1698 -11.1716 5.3112 40.6334
#
#
#
# Elastic Compliance Matrix: (Units=1/GPa)
#
#
# Indices 1 2 3 4 5 6 
#
# 1 0.010137 -0.001740 0.003291 -0.001139 0.010282 0.003830
# 2 -0.001740 0.009872 -0.003945 0.002639 -0.001066 0.002691
# 3 0.003291 -0.003945 0.014766 -0.005077 0.011692 -0.001145
# 4 -0.001139 0.002639 -0.005077 0.020070 -0.000043 0.005314
# 5 0.010282 -0.001066 0.011692 -0.000043 0.036543 0.001651
# 6 0.003830 0.002691 -0.001145 0.005314 0.001651 0.028803
#
#
# Mechanical properties :
#
#
# Convention : Reuss Voigt Hill
#
# Bulk Modulus (GPa) = 33.35106 61.94050 47.64578
# Shear Modulus (GPa) = 37.04391 51.53985 44.29188
#
# Velocity S-wave (km/s) = 3.77262 4.44996 4.12521
# Velocity P-wave (km/s) = 5.63832 7.08527 6.40280
#
# Compressibility (1/GPa) = 0.02998406
#
# Stress axis : x y z
#
# Youngs Moduli (GPa) = 98.65257 101.29525 67.72541
#
# Poissons Ratio (x) = 0.17628 -0.22286
# Poissons Ratio (y) = 0.17168 0.26721
# Poissons Ratio (z) = -0.32463 0.39965
#
# Static dielectric constant tensor:
#      x y z
#    x 2.110690 -0.016280 -0.016570 
#    y -0.016280 2.052800 0.053640 
#    z -0.016570 0.053640 2.037550 
# 
# From -- ./inp_files/561106.got.cif
#   From: 2010.05.17/outbox.cif.g08.bks.cpg/sg2_281_cif.got.tgz:561106.got - 2010.06.03 11:33:40.
