data_PCOD9030611
_publ_section_title
;
Structure prediction by ZEFSAII (Michael W. Deem and Ramdas Pophale) SiO2 
 PCOD9030611
Probable space group: P -1
;
_chemical_formula_sum "Si O2"
_cell_formula_units_Z 13
_cell_length_a 16.523075
_cell_length_b 10.897595
_cell_length_c 7.235535
_cell_angle_alpha 41.295451
_cell_angle_beta 146.282041
_cell_angle_gamma 123.508528
_cell_volume 467.742629
_symmetry_space_group_name_H-M "P -1"
_symmetry_group_IT_number 2
_symmetry_cell_setting 'triclinic'
loop_
_space_group_symop_operation_xyz
x,y,z
-x,-y,-z
loop_
_atom_site_type_symbol
_atom_site_label
_atom_site_fract_x
_atom_site_fract_y
_atom_site_fract_z
Si Si1 0.706191 0.276737 0.958529
Si Si2 0.657233 0.736258 0.323392
Si Si3 0.908835 0.848697 0.421774
Si Si4 0.390347 0.685959 0.664765
Si Si5 0.040827 0.217389 0.786405
Si Si6 0.911762 0.376427 0.716580
Si Si7 0.500000 0.000000 0.000000
O O1 0.685478 0.508390 0.668369
O O2 0.685083 0.218585 0.770962
O O3 0.872337 0.198645 0.432645
O O4 0.580531 0.187355 0.920576
O O5 0.768530 0.794618 0.318772
O O6 0.648761 0.860643 0.350833
O O7 0.494591 0.796464 0.850735
O O8 0.866370 0.901801 0.068270
O O9 0.000000 0.000000 0.500000
O O10 0.035647 0.666123 0.925957
O O11 0.260280 0.637164 0.599551
O O12 0.500000 0.500000 0.000000
O O13 0.022972 0.234183 0.953540
O O14 0.072199 0.420541 0.554284
#
# Coordination Sequence:
#
# PCOD9030611 Si02
#       7
#     2   2   2   2   2   2   1
#     4  11  22  45  71  97 143 185 231 293 352 414
#     4  11  25  46  69 102 142 187 233 292 357 415
#     4  12  25  46  71 103 144 184 231 292 352 419
#     4  10  22  42  72 103 136 187 234 288 352 422
#     4  11  22  43  74 100 135 183 234 290 343 423
#     4  11  23  42  75 103 133 184 238 280 355 420
#     4  12  26  42  66 102 138 184 234 290 348 422
#
# _framework density 27.793064000000001
#
# number of rings (size 3 to 8) (size 9 to 14) (size 15 to 20)
#    0.000    0.923    3.077    4.615    0.000    2.462 
#    5.538    0.000    0.000    0.000    0.000    0.000 
#    0.000    0.000    0.000    0.000    0.000    0.000 
#
# Total GULP energy -72453.590490 kJ/mol
# GULP energy per Si atom -5573.353115 kJ/mol
# Density = 2.772981 g / cm^3
# Si number density = 27.793064 Si / 1000 Ang^3
#
#
#
# Elastic Constant Matrix: (Units=GPa)
#
#
# Indices 1 2 3 4 5 6 
#
# 1 168.5355 51.9512 11.4710 10.1847 15.9761 33.4315
# 2 51.9512 145.5116 9.1260 -19.9684 5.5107 37.3937
# 3 11.4710 9.1260 24.9818 3.3488 15.9493 17.6711
# 4 10.1847 -19.9684 3.3488 59.7042 2.7916 8.4399
# 5 15.9761 5.5107 15.9493 2.7916 55.5986 19.5909
# 6 33.4315 37.3937 17.6711 8.4399 19.5909 64.0597
#
#
#
# Elastic Compliance Matrix: (Units=1/GPa)
#
#
# Indices 1 2 3 4 5 6 
#
# 1 0.007217 -0.002282 -0.000314 -0.001672 -0.001035 -0.001811
# 2 -0.002282 0.009618 -0.000142 0.004309 0.001425 -0.005388
# 3 -0.000314 -0.000142 0.056045 -0.000963 -0.011890 -0.011450
# 4 -0.001672 0.004309 -0.000963 0.019077 0.000832 -0.004145
# 5 -0.001035 0.001425 -0.011890 0.000832 0.022973 -0.004147
# 6 -0.001811 -0.005388 -0.011450 -0.004145 -0.004147 0.024673
#
#
# Mechanical properties :
#
#
# Convention : Reuss Voigt Hill
#
# Bulk Modulus (GPa) = 14.83615 53.79169 34.31392
# Shear Modulus (GPa) = 29.84268 53.63789 41.74028
#
# Velocity S-wave (km/s) = 3.28036 4.39783 3.87954
# Velocity P-wave (km/s) = 4.43817 6.72192 5.69568
#
# Compressibility (1/GPa) = 0.06740293
#
# Stress axis : x y z
#
# Youngs Moduli (GPa) = 138.57001 103.97461 17.84288
#
# Poissons Ratio (x) = 0.23724 0.00561
# Poissons Ratio (y) = 0.31618 0.00254
# Poissons Ratio (z) = 0.04353 0.01478
#
# Static dielectric constant tensor:
#      x y z
#    x 2.284780 -0.131180 0.063680 
#    y -0.131180 2.231650 -0.078040 
#    z 0.063680 -0.078040 2.412650 
# 
# From -- ./inp_files/332797.got.cif
#   From: 2010.05.17/outbox.cif.g08.bks.cpg/sg2_167_cif.got.tgz:332797.got - 2010.06.03 11:33:40.
