data_PCOD9030026
_publ_section_title
;
Structure prediction by ZEFSAII (Michael W. Deem and Ramdas Pophale) SiO2 
 PCOD9030026
Probable space group: P -1
;
_chemical_formula_sum "Si O2"
_cell_formula_units_Z 16
_cell_length_a 9.262844
_cell_length_b 15.010996
_cell_length_c 15.457764
_cell_angle_alpha 144.185786
_cell_angle_beta 31.224181
_cell_angle_gamma 130.460218
_cell_volume 644.908006
_symmetry_space_group_name_H-M "P -1"
_symmetry_group_IT_number 2
_symmetry_cell_setting 'triclinic'
loop_
_space_group_symop_operation_xyz
x,y,z
-x,-y,-z
loop_
_atom_site_type_symbol
_atom_site_label
_atom_site_fract_x
_atom_site_fract_y
_atom_site_fract_z
Si Si1 0.739917 0.587689 0.646402
Si Si2 0.168137 0.085078 0.738801
Si Si3 0.451434 0.692422 0.264071
Si Si4 0.547494 0.266812 0.451009
Si Si5 0.717370 0.361872 0.875497
Si Si6 0.007599 0.130835 0.671309
Si Si7 0.992961 0.855574 0.765265
Si Si8 0.293239 0.376431 0.507792
O O1 0.549949 0.447292 0.620268
O O2 0.781875 0.634046 0.561303
O O3 0.000000 0.500000 0.500000
O O4 0.728152 0.763144 0.828796
O O5 0.241428 0.256660 0.843490
O O6 0.994021 0.071810 0.729459
O O7 0.500000 0.000000 0.500000
O O8 0.995799 0.023861 0.857006
O O9 0.361516 0.732607 0.242412
O O10 0.224775 0.767146 0.508275
O O11 0.482948 0.509451 0.117909
O O12 0.308063 0.193080 0.565632
O O13 0.847856 0.174531 0.249428
O O14 0.464428 0.246019 0.377371
O O15 0.788272 0.271867 0.856983
O O16 0.007072 0.415252 0.738112
O O17 0.000000 0.000000 0.500000
O O18 0.500000 0.500000 0.500000
#
# Coordination Sequence:
#
# PCOD9030026 Si02
#       8
#     2   2   2   2   2   2   2   2
#     4   9  17  29  50  72  99 126 173 217 253 297
#     4  10  19  31  50  73 108 140 168 213 261 311
#     4  10  19  34  49  74 109 140 173 211 260 321
#     4   9  18  29  46  76 100 131 167 212 258 290
#     4  10  21  32  51  77 105 142 169 215 266 306
#     4  11  20  31  49  77 107 134 174 214 265 306
#     4  10  17  32  51  76 105 136 173 212 256 304
#     4   9  17  31  47  73 101 125 167 217 258 294
#
# _framework density 24.809739
#
# number of rings (size 3 to 8) (size 9 to 14) (size 15 to 20)
#    0.000    2.250    3.750    1.500    1.750    0.500 
#    0.000    0.000    0.000    0.000    0.000   32.375 
#    0.000    0.000    0.000    0.000    0.000    0.000 
#
# Total GULP energy -89100.201695 kJ/mol
# GULP energy per Si atom -5568.762606 kJ/mol
# Density = 2.475327 g / cm^3
# Si number density = 24.809739 Si / 1000 Ang^3
#
#
#
# Elastic Constant Matrix: (Units=GPa)
#
#
# Indices 1 2 3 4 5 6 
#
# 1 161.1854 31.5479 26.3007 0.8799 -27.5999 -15.7477
# 2 31.5479 111.1480 3.5122 -7.3586 -0.0810 18.2321
# 3 26.3007 3.5122 37.9599 -4.9096 -0.9933 -0.5320
# 4 0.8799 -7.3586 -4.9096 27.3430 -1.5221 -7.6616
# 5 -27.5999 -0.0810 -0.9933 -1.5221 14.3314 10.2515
# 6 -15.7477 18.2321 -0.5320 -7.6616 10.2515 51.3009
#
#
#
# Elastic Compliance Matrix: (Units=1/GPa)
#
#
# Indices 1 2 3 4 5 6 
#
# 1 0.011858 -0.003216 -0.007512 -0.001341 0.022091 0.000090
# 2 -0.003216 0.010624 0.001364 0.001960 -0.003084 -0.003840
# 3 -0.007512 0.001364 0.031876 0.005894 -0.012245 0.000867
# 4 -0.001341 0.001960 0.005894 0.039564 -0.001678 0.005197
# 5 0.022091 -0.003084 -0.012245 -0.001678 0.123575 -0.017195
# 6 0.000090 -0.003840 0.000867 0.005197 -0.017195 0.025106
#
#
# Mechanical properties :
#
#
# Convention : Reuss Voigt Hill
#
# Bulk Modulus (GPa) = 28.06617 48.11276 38.08946
# Shear Modulus (GPa) = 18.30099 35.19056 26.74577
#
# Velocity S-wave (km/s) = 2.71892 3.77027 3.28691
# Velocity P-wave (km/s) = 4.60368 6.19581 5.45811
#
# Compressibility (1/GPa) = 0.03563009
#
# Stress axis : x y z
#
# Youngs Moduli (GPa) = 84.33105 94.12597 31.37119
#
# Poissons Ratio (x) = 0.30270 0.23567
# Poissons Ratio (y) = 0.27120 -0.04279
# Poissons Ratio (z) = 0.63353 -0.12840
#
# Static dielectric constant tensor:
#      x y z
#    x 2.026240 0.034940 0.062830 
#    y 0.034940 2.027310 0.035830 
#    z 0.062830 0.035830 2.052330 
# 
# From -- ./inp_files/444195.got.cif
#   From: 2010.05.17/outbox.cif.g08.bks.cpg/sg2_223_cif.got.tgz:444195.got - 2010.06.03 11:33:40.
