data_PCOD9030272
_publ_section_title
;
Structure prediction by ZEFSAII (Michael W. Deem and Ramdas Pophale) SiO2 
 PCOD9030272
Probable space group: P -1
;
_chemical_formula_sum "Si O2"
_cell_formula_units_Z 15
_cell_length_a 11.652717
_cell_length_b 10.767895
_cell_length_c 5.126355
_cell_angle_alpha 100.508877
_cell_angle_beta 95.779752
_cell_angle_gamma 117.978782
_cell_volume 545.519750
_symmetry_space_group_name_H-M "P -1"
_symmetry_group_IT_number 2
_symmetry_cell_setting 'triclinic'
loop_
_space_group_symop_operation_xyz
x,y,z
-x,-y,-z
loop_
_atom_site_type_symbol
_atom_site_label
_atom_site_fract_x
_atom_site_fract_y
_atom_site_fract_z
Si Si1 0.901490 0.616108 0.543006
Si Si2 0.941732 0.226348 0.863969
Si Si3 0.282019 0.167197 0.930146
Si Si4 0.584468 0.003380 0.268971
Si Si5 0.359712 0.433939 0.744329
Si Si6 0.000000 0.000000 0.500000
Si Si7 0.496877 0.297363 0.419207
Si Si8 0.243768 0.705431 0.406123
O O1 0.771555 0.631600 0.487600
O O2 0.855420 0.453845 0.566261
O O3 0.963200 0.652873 0.283405
O O4 0.993902 0.731153 0.821957
O O5 0.814659 0.249962 0.833402
O O6 0.933103 0.081208 0.688124
O O7 0.368554 0.115131 0.758278
O O8 0.311686 0.332394 0.948169
O O9 0.353515 0.174742 0.226531
O O10 0.129922 0.068277 0.765725
O O11 0.500000 0.000000 0.500000
O O12 0.280474 0.841348 0.654137
O O13 0.500000 0.000000 0.000000
O O14 0.465164 0.396048 0.635157
O O15 0.424270 0.606266 0.786296
O O16 0.614775 0.285985 0.581209
#
# Coordination Sequence:
#
# PCOD9030272 Si02
#       8
#     2   2   2   2   2   1   2   2
#     4  11  26  47  77 102 149 184 248 297 355 426
#     4  12  26  50  70 110 142 194 236 301 356 431
#     4  12  23  45  69  98 147 185 238 294 353 438
#     4  12  27  47  71 105 144 186 234 296 364 427
#     4  10  22  42  70 105 137 186 238 294 360 421
#     4  12  26  46  70 106 146 194 236 292 362 436
#     4  10  22  43  70 103 138 184 239 298 355 425
#     4  11  24  48  72 109 137 196 241 298 363 424
#
# _framework density 27.496715999999999
#
# number of rings (size 3 to 8) (size 9 to 14) (size 15 to 20)
#    0.000    0.800    4.000    2.800    0.000    2.667 
#   12.000    0.000    0.000    0.000    0.000    0.000 
#    0.000    0.000    0.000    0.000    0.000    0.000 
#
# Total GULP energy -83574.152520 kJ/mol
# GULP energy per Si atom -5571.610168 kJ/mol
# Density = 2.743413 g / cm^3
# Si number density = 27.496716 Si / 1000 Ang^3
#
#
#
# Elastic Constant Matrix: (Units=GPa)
#
#
# Indices 1 2 3 4 5 6 
#
# 1 171.8898 38.8071 57.5334 -18.9372 50.2441 -21.4892
# 2 38.8071 75.7831 12.0909 5.4756 -5.1965 -6.9176
# 3 57.5334 12.0909 139.2037 -6.7175 43.2064 17.9823
# 4 -18.9372 5.4756 -6.7175 36.0596 5.3397 8.5356
# 5 50.2441 -5.1965 43.2064 5.3397 62.8282 -8.1405
# 6 -21.4892 -6.9176 17.9823 8.5356 -8.1405 37.4966
#
#
#
# Elastic Compliance Matrix: (Units=1/GPa)
#
#
# Indices 1 2 3 4 5 6 
#
# 1 0.011633 -0.006776 -0.001201 0.007795 -0.009419 0.002173
# 2 -0.006776 0.019332 -0.003662 -0.010310 0.011218 0.006222
# 3 -0.001201 -0.003662 0.012963 0.006537 -0.010277 -0.011299
# 4 0.007795 -0.010310 0.006537 0.040250 -0.016734 -0.013365
# 5 -0.009419 0.011218 -0.010277 -0.016734 0.034538 0.012908
# 6 0.002173 0.006222 -0.011299 -0.013365 0.012908 0.040326
#
#
# Mechanical properties :
#
#
# Convention : Reuss Voigt Hill
#
# Bulk Modulus (GPa) = 48.42478 67.08214 57.75346
# Shear Modulus (GPa) = 26.42677 45.83990 36.13333
#
# Velocity S-wave (km/s) = 3.10351 4.08745 3.62898
# Velocity P-wave (km/s) = 5.52193 6.83562 6.21359
#
# Compressibility (1/GPa) = 0.02065058
#
# Stress axis : x y z
#
# Youngs Moduli (GPa) = 85.96312 51.72836 77.14402
#
# Poissons Ratio (x) = 0.35052 0.09262
# Poissons Ratio (y) = 0.58249 0.28248
# Poissons Ratio (z) = 0.10321 0.18942
#
# Static dielectric constant tensor:
#      x y z
#    x -2.839610 7.385780 -3.404160 
#    y 7.385780 -8.368390 4.979350 
#    z -3.404160 4.979350 -0.273560 
# 
# From -- ./inp_files/67376.got.cif
#   From: 2010.05.17/outbox.cif.g08.bks.cpg/sg2_34_cif.got.tgz:67376.got - 2010.06.03 11:33:40.
