data_PCOD9030133
_publ_section_title
;
Structure prediction by ZEFSAII (Michael W. Deem and Ramdas Pophale) SiO2 
 PCOD9030133
Probable space group: P -1
;
_chemical_formula_sum "Si O2"
_cell_formula_units_Z 16
_cell_length_a 5.698790
_cell_length_b 4.868569
_cell_length_c 24.878369
_cell_angle_alpha 71.011492
_cell_angle_beta 116.986035
_cell_angle_gamma 95.015088
_cell_volume 580.134160
_symmetry_space_group_name_H-M "P -1"
_symmetry_group_IT_number 2
_symmetry_cell_setting 'triclinic'
loop_
_space_group_symop_operation_xyz
x,y,z
-x,-y,-z
loop_
_atom_site_type_symbol
_atom_site_label
_atom_site_fract_x
_atom_site_fract_y
_atom_site_fract_z
Si Si1 0.250638 0.413867 0.628296
Si Si2 0.415021 0.823113 0.951338
Si Si3 0.183738 0.255444 0.486459
Si Si4 0.619124 0.920026 0.600833
Si Si5 0.693406 0.068339 0.746646
Si Si6 0.620080 0.466614 0.812805
Si Si7 0.144169 0.310997 0.074563
Si Si8 0.946095 0.428091 0.282670
O O1 0.433600 0.668625 0.614732
O O2 0.440676 0.127189 0.676994
O O3 0.998031 0.445150 0.560463
O O4 0.149663 0.496791 0.671763
O O5 0.598807 0.859572 0.915677
O O6 0.095592 0.857211 0.912800
O O7 0.500000 0.500000 0.000000
O O8 0.500000 0.000000 0.000000
O O9 0.283564 0.167094 0.443087
O O10 0.437799 0.220416 0.554380
O O11 0.000000 0.000000 0.500000
O O12 0.867499 0.869094 0.669708
O O13 0.623437 0.186815 0.792491
O O14 0.902810 0.293502 0.737103
O O15 0.758421 0.725400 0.778969
O O16 0.755525 0.470697 0.884214
O O17 0.314986 0.588446 0.778515
O O18 0.000000 0.500000 0.000000
#
# Coordination Sequence:
#
# PCOD9030133 Si02
#       8
#     2   2   2   2   2   2   2   2
#     4   8  15  30  50  82 118 165 210 269 322 391
#     4  10  22  42  69  98 136 175 218 268 334 404
#     4   8  12  20  43  80 120 161 211 262 325 382
#     4   8  13  24  47  81 119 163 211 266 322 391
#     4  10  23  41  62  92 127 170 221 269 334 396
#     4  11  25  42  66  96 129 170 221 272 330 404
#     4  10  24  46  71 104 139 180 227 282 347 411
#     4   9  19  37  59  84 126 166 216 270 332 391
#
# _framework density 27.579829
#
# number of rings (size 3 to 8) (size 9 to 14) (size 15 to 20)
#    0.000    2.750    0.000    0.375    1.750    6.000 
#    2.250    0.000    0.000    0.750    0.000  170.625 
#    0.000    0.000    0.000    0.000    0.000    0.000 
#
# Total GULP energy -89601.669315 kJ/mol
# GULP energy per Si atom -5600.104332 kJ/mol
# Density = 2.751706 g / cm^3
# Si number density = 27.579829 Si / 1000 Ang^3
#
#
#
# Elastic Constant Matrix: (Units=GPa)
#
#
# Indices 1 2 3 4 5 6 
#
# 1 178.9001 26.9777 22.6180 3.0070 -8.5220 12.0486
# 2 26.9777 137.0696 18.9217 17.9302 -5.3187 -1.9052
# 3 22.6180 18.9217 142.3088 11.0331 14.9334 14.0104
# 4 3.0070 17.9302 11.0331 37.6013 6.9608 2.6852
# 5 -8.5220 -5.3187 14.9334 6.9608 57.0742 2.0224
# 6 12.0486 -1.9052 14.0104 2.6852 2.0224 36.5224
#
#
#
# Elastic Compliance Matrix: (Units=1/GPa)
#
#
# Indices 1 2 3 4 5 6 
#
# 1 0.006019 -0.001092 -0.000756 0.000200 0.001035 -0.001825
# 2 -0.001092 0.008209 -0.000880 -0.003898 0.001260 0.001343
# 3 -0.000756 -0.000880 0.007827 -0.001261 -0.001997 -0.002596
# 4 0.000200 -0.003898 -0.001261 0.029591 -0.003550 -0.001764
# 5 0.001035 0.001260 -0.001997 -0.003550 0.018759 -0.000287
# 6 -0.001825 0.001343 -0.002596 -0.001764 -0.000287 0.029194
#
#
# Mechanical properties :
#
#
# Convention : Reuss Voigt Hill
#
# Bulk Modulus (GPa) = 60.24207 66.14593 63.19400
# Shear Modulus (GPa) = 45.21308 52.22366 48.71837
#
# Velocity S-wave (km/s) = 4.05329 4.35621 4.20747
# Velocity P-wave (km/s) = 6.61783 7.02407 6.82398
#
# Compressibility (1/GPa) = 0.01659970
#
# Stress axis : x y z
#
# Youngs Moduli (GPa) = 166.14854 121.81130 127.76180
#
# Poissons Ratio (x) = 0.13296 0.09658
# Poissons Ratio (y) = 0.18136 0.11247
# Poissons Ratio (z) = 0.12560 0.10723
#
# Static dielectric constant tensor:
#      x y z
#    x 2.319710 -0.064280 -0.004840 
#    y -0.064280 2.049540 -0.062140 
#    z -0.004840 -0.062140 2.160310 
# 
# From -- ./inp_files/614681.got.cif
#   From: 2010.05.17/outbox.cif.g08.bks.cpg/sg2_308_cif.got.tgz:614681.got - 2010.06.03 11:33:40.
