data_PCOD9030115
_publ_section_title
;
Structure prediction by ZEFSAII (Michael W. Deem and Ramdas Pophale) SiO2 
 PCOD9030115
Probable space group: P -1
;
_chemical_formula_sum "Si O2"
_cell_formula_units_Z 14
_cell_length_a 6.577786
_cell_length_b 9.711225
_cell_length_c 16.455475
_cell_angle_alpha 56.928475
_cell_angle_beta 140.430437
_cell_angle_gamma 104.203293
_cell_volume 530.004354
_symmetry_space_group_name_H-M "P -1"
_symmetry_group_IT_number 2
_symmetry_cell_setting 'triclinic'
loop_
_space_group_symop_operation_xyz
x,y,z
-x,-y,-z
loop_
_atom_site_type_symbol
_atom_site_label
_atom_site_fract_x
_atom_site_fract_y
_atom_site_fract_z
Si Si1 0.243338 0.377213 0.548318
Si Si2 0.211174 0.112049 0.112743
Si Si3 0.899229 0.500190 0.710858
Si Si4 0.187773 0.497362 0.143306
Si Si5 0.112719 0.061528 0.692636
Si Si6 0.341351 0.872066 0.604697
Si Si7 0.860301 0.862840 0.144300
O O1 0.575389 0.433498 0.638577
O O2 0.163445 0.383830 0.425474
O O3 0.248930 0.193108 0.641131
O O4 0.000000 0.500000 0.500000
O O5 0.356519 0.112319 0.250016
O O6 0.537232 0.101176 0.158875
O O7 0.058901 0.953959 0.117734
O O8 0.905484 0.292996 0.942556
O O9 0.952654 0.561510 0.797251
O O10 0.179163 0.319541 0.832063
O O11 0.546885 0.341603 0.295996
O O12 0.000000 0.500000 0.000000
O O13 0.000948 0.144455 0.719162
O O14 0.772152 0.063077 0.542490
O O15 0.000000 0.000000 0.500000
O O16 0.500000 0.000000 0.000000
#
# Coordination Sequence:
#
# PCOD9030115 Si02
#       7
#     2   2   2   2   2   2   2
#     4  11  22  39  66 101 137 176 223 294 344 399
#     4  10  23  44  64  96 143 185 225 286 343 409
#     4  11  24  40  66 103 138 179 233 276 350 415
#     4  10  22  42  69  97 135 185 228 282 348 411
#     4  11  22  41  68  99 136 180 235 285 348 402
#     4   9  21  42  71  97 128 180 236 283 347 410
#     4  12  26  39  64 104 138 187 231 274 351 422
#
# _framework density 26.414874000000001
#
# number of rings (size 3 to 8) (size 9 to 14) (size 15 to 20)
#    0.000    1.429    2.857    1.714    4.000    2.857 
#    0.000    7.143    0.000   18.000    0.000    0.000 
#    0.000    0.000    0.000    0.000    0.000    0.000 
#
# Total GULP energy -78060.835460 kJ/mol
# GULP energy per Si atom -5575.773961 kJ/mol
# Density = 2.635475 g / cm^3
# Si number density = 26.414874 Si / 1000 Ang^3
#
#
#
# Elastic Constant Matrix: (Units=GPa)
#
#
# Indices 1 2 3 4 5 6 
#
# 1 100.5899 24.5634 48.9483 3.8035 -18.4475 -5.1311
# 2 24.5634 65.5214 16.8311 -9.0029 -3.9814 -22.0133
# 3 48.9483 16.8311 121.1122 -9.5705 -8.6926 -22.1814
# 4 3.8035 -9.0029 -9.5705 55.6939 -26.5775 -9.9324
# 5 -18.4475 -3.9814 -8.6926 -26.5775 59.6313 14.3082
# 6 -5.1311 -22.0133 -22.1814 -9.9324 14.3082 44.2281
#
#
#
# Elastic Compliance Matrix: (Units=1/GPa)
#
#
# Indices 1 2 3 4 5 6 
#
# 1 0.014952 -0.006205 -0.006249 -0.002440 0.003709 -0.006236
# 2 -0.006205 0.022295 0.002315 0.006628 -0.000287 0.013119
# 3 -0.006249 0.002315 0.012172 0.004276 0.000113 0.007456
# 4 -0.002440 0.006628 0.004276 0.026130 0.010094 0.007763
# 5 0.003709 -0.000287 0.000113 0.010094 0.023620 -0.005031
# 6 -0.006236 0.013119 0.007456 0.007763 -0.005031 0.035527
#
#
# Mechanical properties :
#
#
# Convention : Reuss Voigt Hill
#
# Bulk Modulus (GPa) = 34.31595 51.98991 43.15293
# Shear Modulus (GPa) = 30.36069 45.03606 37.69837
#
# Velocity S-wave (km/s) = 3.39393 4.13358 3.78188
# Velocity P-wave (km/s) = 5.32707 6.51972 5.95334
#
# Compressibility (1/GPa) = 0.02914097
#
# Stress axis : x y z
#
# Youngs Moduli (GPa) = 66.88101 44.85399 82.15405
#
# Poissons Ratio (x) = 0.27832 0.51341
# Poissons Ratio (y) = 0.41500 -0.19022
# Poissons Ratio (z) = 0.41796 -0.10385
#
# Static dielectric constant tensor:
#      x y z
#    x 2.141750 -0.116660 -0.058970 
#    y -0.116660 2.205840 0.114860 
#    z -0.058970 0.114860 2.300930 
# 
# From -- ./inp_files/370991.got.cif
#   From: 2010.05.17/outbox.cif.g08.bks.cpg/sg2_186_cif.got.tgz:370991.got - 2010.06.03 11:33:40.
