data_PCOD9030851
_publ_section_title
;
Structure prediction by ZEFSAII (Michael W. Deem and Ramdas Pophale) SiO2 
 PCOD9030851
Probable space group: P -1
;
_chemical_formula_sum "Si O2"
_cell_formula_units_Z 14
_cell_length_a 10.549349
_cell_length_b 7.242660
_cell_length_c 14.816756
_cell_angle_alpha 38.500981
_cell_angle_beta 47.372873
_cell_angle_gamma 53.389994
_cell_volume 513.066742
_symmetry_space_group_name_H-M "P -1"
_symmetry_group_IT_number 2
_symmetry_cell_setting 'triclinic'
loop_
_space_group_symop_operation_xyz
x,y,z
-x,-y,-z
loop_
_atom_site_type_symbol
_atom_site_label
_atom_site_fract_x
_atom_site_fract_y
_atom_site_fract_z
Si Si1 0.739430 0.750758 0.645956
Si Si2 0.429477 0.437308 0.959145
Si Si3 0.951947 0.124426 0.754183
Si Si4 0.557445 0.262925 0.430852
Si Si5 0.344517 0.121804 0.891494
Si Si6 0.232204 0.259092 0.699546
Si Si7 0.912727 0.691094 0.777416
O O1 0.877236 0.477856 0.645680
O O2 0.700908 0.074004 0.497159
O O3 0.558674 0.611427 0.774404
O O4 0.805303 0.797841 0.697773
O O5 0.222435 0.487914 0.034678
O O6 0.489798 0.078471 0.067202
O O7 0.500000 0.500000 0.000000
O O8 0.133333 0.101560 0.729214
O O9 0.951763 0.949221 0.727461
O O10 0.819484 0.982905 0.939245
O O11 0.634178 0.532070 0.243047
O O12 0.385927 0.392213 0.522255
O O13 0.500000 0.000000 0.500000
O O14 0.324304 0.076188 0.810567
O O15 0.077759 0.473861 0.742582
#
# Coordination Sequence:
#
# PCOD9030851 Si02
#       7
#     2   2   2   2   2   2   2
#     4   9  22  47  73 105 145 198 246 306 354 443
#     4   9  19  40  74 105 137 188 250 295 352 433
#     4  10  24  46  81 110 141 191 255 306 359 443
#     4  12  29  49  75 105 155 195 250 302 375 447
#     4  11  25  47  76 111 147 197 243 309 371 430
#     4  11  25  48  72 111 151 191 242 311 375 436
#     4  10  22  42  76 107 143 186 250 301 371 422
#
# _framework density 27.286898000000001
#
# number of rings (size 3 to 8) (size 9 to 14) (size 15 to 20)
#    0.000    1.714    0.000    3.429    6.000    2.857 
#    0.000    9.286    0.000    0.000    0.000    0.000 
#    0.000    0.000    0.000    0.000    0.000    0.000 
#
# Total GULP energy -78425.831066 kJ/mol
# GULP energy per Si atom -5601.845076 kJ/mol
# Density = 2.722479 g / cm^3
# Si number density = 27.286898 Si / 1000 Ang^3
#
#
#
# Elastic Constant Matrix: (Units=GPa)
#
#
# Indices 1 2 3 4 5 6 
#
# 1 133.7385 64.5159 12.9647 -0.8746 -18.5397 37.3623
# 2 64.5159 122.1324 53.7300 -4.6563 -7.9498 14.8077
# 3 12.9647 53.7300 134.4843 -7.3063 -21.6733 -20.5251
# 4 -0.8746 -4.6563 -7.3063 52.9236 -6.7515 -9.2226
# 5 -18.5397 -7.9498 -21.6733 -6.7515 39.1139 -3.3639
# 6 37.3623 14.8077 -20.5251 -9.2226 -3.3639 53.9623
#
#
#
# Elastic Compliance Matrix: (Units=1/GPa)
#
#
# Indices 1 2 3 4 5 6 
#
# 1 0.012843 -0.006075 0.000860 -0.000791 0.004613 -0.006746
# 2 -0.006075 0.014043 -0.005981 -0.000544 -0.003626 -0.002241
# 3 0.000860 -0.005981 0.012052 0.003196 0.006990 0.006612
# 4 -0.000791 -0.000544 0.003196 0.020982 0.005409 0.005835
# 5 0.004613 -0.003626 0.006990 0.005409 0.032114 0.003386
# 6 -0.006746 -0.002241 0.006612 0.005835 0.003386 0.027541
#
#
# Mechanical properties :
#
#
# Convention : Reuss Voigt Hill
#
# Bulk Modulus (GPa) = 60.43652 72.53071 66.48361
# Shear Modulus (GPa) = 33.90253 46.47628 40.18941
#
# Velocity S-wave (km/s) = 3.52866 4.13152 3.84193
# Velocity P-wave (km/s) = 6.22885 7.02835 6.64064
#
# Compressibility (1/GPa) = 0.01654629
#
# Stress axis : x y z
#
# Youngs Moduli (GPa) = 77.86204 71.21048 82.97605
#
# Poissons Ratio (x) = 0.43257 -0.07133
# Poissons Ratio (y) = 0.47298 0.49627
# Poissons Ratio (z) = -0.06693 0.42590
#
# Static dielectric constant tensor:
#      x y z
#    x 2.112000 0.028840 0.046990 
#    y 0.028840 2.249930 0.048730 
#    z 0.046990 0.048730 2.186470 
# 
# From -- ./inp_files/243745.got.cif
#   From: 2010.05.17/outbox.cif.g08.bks.cpg/sg2_122_cif.got.tgz:243745.got - 2010.06.03 11:33:40.
