data_PCOD9030427
_publ_section_title
;
Structure prediction by ZEFSAII (Michael W. Deem and Ramdas Pophale) SiO2 
 PCOD9030427
Probable space group: P -1
;
_chemical_formula_sum "Si O2"
_cell_formula_units_Z 10
_cell_length_a 8.332360
_cell_length_b 4.985916
_cell_length_c 9.380964
_cell_angle_alpha 92.927755
_cell_angle_beta 114.841558
_cell_angle_gamma 81.904112
_cell_volume 350.127785
_symmetry_space_group_name_H-M "P -1"
_symmetry_group_IT_number 2
_symmetry_cell_setting 'triclinic'
loop_
_space_group_symop_operation_xyz
x,y,z
-x,-y,-z
loop_
_atom_site_type_symbol
_atom_site_label
_atom_site_fract_x
_atom_site_fract_y
_atom_site_fract_z
Si Si1 0.995337 0.032678 0.666140
Si Si2 0.625019 0.884098 0.628864
Si Si3 0.451988 0.642568 0.247769
Si Si4 0.775647 0.540066 0.148309
Si Si5 0.797816 0.064506 0.001166
O O1 0.804016 0.970212 0.633751
O O2 0.000000 0.000000 0.500000
O O3 0.036679 0.332443 0.731116
O O4 0.123727 0.803965 0.801973
O O5 0.529267 0.827844 0.427690
O O6 0.611039 0.595136 0.687572
O O7 0.662812 0.045727 0.808069
O O8 0.633092 0.553784 0.226310
O O9 0.294894 0.612840 0.034552
O O10 0.715354 0.840220 0.056556
O O11 0.000000 0.000000 0.000000
#
# Coordination Sequence:
#
# PCOD9030427 Si02
#       5
#     2   2   2   2   2
#     4  10  26  45  69  95 137 176 225 269 327 402
#     4  12  28  45  67 100 135 178 217 277 339 385
#     4  12  24  45  72  98 139 167 225 277 328 395
#     4  10  22  42  70  99 133 172 225 263 328 396
#     4  10  23  42  73 101 128 177 224 268 331 386
#
# _framework density 28.561002999999999
#
# number of rings (size 3 to 8) (size 9 to 14) (size 15 to 20)
#    1.200    0.000    0.000    5.400    5.600    2.400 
#    0.000    0.000    0.000    0.000    0.000    0.000 
#    0.000    0.000    0.000    0.000    0.000    0.000 
#
# Total GULP energy -55827.197908 kJ/mol
# GULP energy per Si atom -5582.719791 kJ/mol
# Density = 2.849600 g / cm^3
# Si number density = 28.561003 Si / 1000 Ang^3
#
#
#
# Elastic Constant Matrix: (Units=GPa)
#
#
# Indices 1 2 3 4 5 6 
#
# 1 193.4299 93.6504 58.6339 13.7932 -21.0558 1.9511
# 2 93.6504 264.4299 108.8529 64.2684 -11.4436 17.7132
# 3 58.6339 108.8529 290.5807 10.5957 11.3711 -5.0624
# 4 13.7932 64.2684 10.5957 96.7478 5.0637 -0.4551
# 5 -21.0558 -11.4436 11.3711 5.0637 78.3734 -0.1494
# 6 1.9511 17.7132 -5.0624 -0.4551 -0.1494 39.9309
#
#
#
# Elastic Compliance Matrix: (Units=1/GPa)
#
#
# Indices 1 2 3 4 5 6 
#
# 1 0.006512 -0.002169 -0.000568 0.000500 0.001484 0.000583
# 2 -0.002169 0.006549 -0.001963 -0.003888 0.000904 -0.003089
# 3 -0.000568 -0.001963 0.004325 0.000977 -0.001127 0.001454
# 4 0.000500 -0.003888 0.000977 0.012823 -0.001400 0.001965
# 5 0.001484 0.000904 -0.001127 -0.001400 0.013543 -0.000582
# 6 0.000583 -0.003089 0.001454 0.001965 -0.000582 0.026590
#
#
# Mechanical properties :
#
#
# Convention : Reuss Voigt Hill
#
# Bulk Modulus (GPa) = 125.20518 141.19055 133.19786
# Shear Modulus (GPa) = 60.67735 75.49729 68.08732
#
# Velocity S-wave (km/s) = 4.61421 5.14695 4.88784
# Velocity P-wave (km/s) = 8.50417 9.21214 8.86522
#
# Compressibility (1/GPa) = 0.00798689
#
# Stress axis : x y z
#
# Youngs Moduli (GPa) = 153.56218 152.69729 231.20928
#
# Poissons Ratio (x) = 0.33118 0.13125
# Poissons Ratio (y) = 0.33306 0.45387
# Poissons Ratio (z) = 0.08717 0.29975
#
# Static dielectric constant tensor:
#      x y z
#    x 3.126900 -0.554670 -0.047680 
#    y -0.554670 2.197200 0.183840 
#    z -0.047680 0.183840 3.030150 
# 
# From -- ./inp_files/147976.got.cif
#   From: 2010.05.17/outbox.cif.g08.bks.cpg/sg2_74_cif.got.tgz:147976.got - 2010.06.03 11:33:40.
