data_PCOD9030599
_publ_section_title
;
Structure prediction by ZEFSAII (Michael W. Deem and Ramdas Pophale) SiO2 
 PCOD9030599
Probable space group: P -1
;
_chemical_formula_sum "Si O2"
_cell_formula_units_Z 13
_cell_length_a 12.425536
_cell_length_b 10.062328
_cell_length_c 8.265874
_cell_angle_alpha 58.618187
_cell_angle_beta 143.510083
_cell_angle_gamma 119.428682
_cell_volume 519.281547
_symmetry_space_group_name_H-M "P -1"
_symmetry_group_IT_number 2
_symmetry_cell_setting 'triclinic'
loop_
_space_group_symop_operation_xyz
x,y,z
-x,-y,-z
loop_
_atom_site_type_symbol
_atom_site_label
_atom_site_fract_x
_atom_site_fract_y
_atom_site_fract_z
Si Si1 0.000000 0.500000 0.500000
Si Si2 0.366715 0.668086 0.710091
Si Si3 0.781108 0.738338 0.228806
Si Si4 0.350197 0.985301 0.629236
Si Si5 0.220157 0.931907 0.843622
Si Si6 0.122108 0.168441 0.063386
Si Si7 0.112891 0.644414 0.141111
O O1 0.784258 0.417140 0.294931
O O2 0.935172 0.625795 0.478815
O O3 0.343906 0.853816 0.566923
O O4 0.300906 0.619855 0.476539
O O5 0.568027 0.660923 0.033648
O O6 0.836075 0.894477 0.302666
O O7 0.778222 0.797947 0.004023
O O8 0.227615 0.906408 0.677422
O O9 0.265681 0.141360 0.388590
O O10 0.561845 0.035172 0.882556
O O11 0.141234 0.795920 0.959841
O O12 0.011950 0.309658 0.886607
O O13 0.000000 0.000000 0.000000
O O14 0.000000 0.500000 0.000000
#
# Coordination Sequence:
#
# PCOD9030599 Si02
#       7
#     1   2   2   2   2   2   2
#     4  12  24  42  68 106 138 178 238 284 348 416
#     4  11  24  44  70 100 141 190 227 284 357 417
#     4  11  23  44  74 100 139 189 234 290 345 426
#     4  10  22  42  72 102 135 181 236 290 338 433
#     4  10  23  43  69 105 138 179 235 288 356 408
#     4  12  21  43  69 100 135 187 234 282 350 415
#     4  12  26  43  66 106 143 183 235 291 350 418
#
# _framework density 25.034586999999998
#
# number of rings (size 3 to 8) (size 9 to 14) (size 15 to 20)
#    0.000    0.923    4.615    1.385    2.154    4.308 
#    0.000    4.615    0.000    0.000    0.000    0.000 
#    0.000    0.000    0.000    0.000    0.000    0.000 
#
# Total GULP energy -72393.925135 kJ/mol
# GULP energy per Si atom -5568.763472 kJ/mol
# Density = 2.497761 g / cm^3
# Si number density = 25.034587 Si / 1000 Ang^3
#
#
#
# Elastic Constant Matrix: (Units=GPa)
#
#
# Indices 1 2 3 4 5 6 
#
# 1 98.8128 29.3809 12.2905 12.0477 19.0937 5.0646
# 2 29.3809 134.8064 25.8208 7.6692 11.8125 -15.2950
# 3 12.2905 25.8208 75.3348 -19.0116 9.5973 -14.8074
# 4 12.0477 7.6692 -19.0116 31.5479 -8.8314 0.3969
# 5 19.0937 11.8125 9.5973 -8.8314 46.8776 1.6134
# 6 5.0646 -15.2950 -14.8074 0.3969 1.6134 46.7179
#
#
#
# Elastic Compliance Matrix: (Units=1/GPa)
#
#
# Indices 1 2 3 4 5 6 
#
# 1 0.013324 -0.001545 -0.003596 -0.008468 -0.005800 -0.002818
# 2 -0.001545 0.009008 -0.003196 -0.004065 -0.001828 0.002201
# 3 -0.003596 -0.003196 0.019452 0.014013 0.000743 0.005364
# 4 -0.008468 -0.004065 0.014013 0.047232 0.010390 0.003269
# 5 -0.005800 -0.001828 0.000743 0.010390 0.025985 -0.000720
# 6 -0.002818 0.002201 0.005364 0.003269 -0.000720 0.024129
#
#
# Mechanical properties :
#
#
# Convention : Reuss Voigt Hill
#
# Bulk Modulus (GPa) = 39.82358 49.32648 44.57503
# Shear Modulus (GPa) = 30.45526 41.12614 35.79070
#
# Velocity S-wave (km/s) = 3.49166 4.05751 3.78517
# Velocity P-wave (km/s) = 5.67429 6.45734 6.07844
#
# Compressibility (1/GPa) = 0.02511075
#
# Stress axis : x y z
#
# Youngs Moduli (GPa) = 75.04974 111.01139 51.40794
#
# Poissons Ratio (x) = 0.17151 0.18488
# Poissons Ratio (y) = 0.11595 0.16429
# Poissons Ratio (z) = 0.26991 0.35476
#
# Static dielectric constant tensor:
#      x y z
#    x 2.029300 -0.029280 -0.051560 
#    y -0.029280 2.095240 -0.012030 
#    z -0.051560 -0.012030 2.136080 
# 
# From -- ./inp_files/216173.got.cif
#   From: 2010.05.17/outbox.cif.g08.bks.cpg/sg2_109_cif.got.tgz:216173.got - 2010.06.03 11:33:40.
