data_PCOD9030208
_publ_section_title
;
Structure prediction by ZEFSAII (Michael W. Deem and Ramdas Pophale) SiO2 
 PCOD9030208
Probable space group: P -1
;
_chemical_formula_sum "Si O2"
_cell_formula_units_Z 14
_cell_length_a 4.994955
_cell_length_b 21.390666
_cell_length_c 9.108956
_cell_angle_alpha 37.154286
_cell_angle_beta 101.512513
_cell_angle_gamma 108.889371
_cell_volume 553.234952
_symmetry_space_group_name_H-M "P -1"
_symmetry_group_IT_number 2
_symmetry_cell_setting 'triclinic'
loop_
_space_group_symop_operation_xyz
x,y,z
-x,-y,-z
loop_
_atom_site_type_symbol
_atom_site_label
_atom_site_fract_x
_atom_site_fract_y
_atom_site_fract_z
Si Si1 0.698012 0.548306 0.793738
Si Si2 0.661721 0.366173 0.891817
Si Si3 0.074278 0.316635 0.825796
Si Si4 0.924977 0.989288 0.761134
Si Si5 0.298474 0.136344 0.292977
Si Si6 0.276374 0.680442 0.511430
Si Si7 0.759294 0.100843 0.799807
O O1 0.659191 0.453528 0.848910
O O2 0.553411 0.644709 0.566797
O O3 0.037196 0.601382 0.736977
O O4 0.500000 0.500000 0.000000
O O5 0.958953 0.382132 0.814633
O O6 0.409912 0.367812 0.747431
O O7 0.556223 0.240475 0.166403
O O8 0.893285 0.314321 0.666622
O O9 0.058318 0.197892 0.108683
O O10 0.183354 0.051956 0.566806
O O11 0.856172 0.079036 0.689384
O O12 0.681424 0.925742 0.740493
O O13 0.003306 0.906748 0.039027
O O14 0.341938 0.794139 0.385061
O O15 0.500000 0.000000 0.000000
#
# Coordination Sequence:
#
# PCOD9030208 Si02
#       7
#     2   2   2   2   2   2   2
#     4  12  29  47  71 101 139 185 234 283 356 414
#     4  10  23  43  71  98 138 176 231 283 343 416
#     4  10  22  42  70 101 137 175 230 281 350 402
#     4  10  22  44  65 103 135 184 230 286 342 411
#     4   9  22  40  71  99 142 175 235 287 338 406
#     4  12  27  46  73 101 142 180 231 298 335 422
#     4  11  26  40  71  99 143 186 232 273 361 410
#
# _framework density 25.305703999999999
#
# number of rings (size 3 to 8) (size 9 to 14) (size 15 to 20)
#    0.857    0.571    1.429    2.143    8.000    5.714 
#    0.000    2.857    0.000    0.000    0.000    0.000 
#    0.000    0.000    0.000    0.000    0.000    0.000 
#
# Total GULP energy -78316.130079 kJ/mol
# GULP energy per Si atom -5594.009291 kJ/mol
# Density = 2.524811 g / cm^3
# Si number density = 25.305704 Si / 1000 Ang^3
#
#
#
# Elastic Constant Matrix: (Units=GPa)
#
#
# Indices 1 2 3 4 5 6 
#
# 1 94.1051 19.9334 13.7274 0.4828 3.0552 -21.2044
# 2 19.9334 168.7202 49.0059 -13.7469 -0.1384 -36.9510
# 3 13.7274 49.0059 81.0521 -8.7021 -6.6775 -12.8391
# 4 0.4828 -13.7469 -8.7021 38.0860 6.5295 -12.1298
# 5 3.0552 -0.1384 -6.6775 6.5295 35.8663 -3.9395
# 6 -21.2044 -36.9510 -12.8391 -12.1298 -3.9395 38.4374
#
#
#
# Elastic Compliance Matrix: (Units=1/GPa)
#
#
# Indices 1 2 3 4 5 6 
#
# 1 0.012433 0.000818 -0.001129 0.002572 -0.000856 0.007992
# 2 0.000818 0.009676 -0.003763 0.006031 -0.000696 0.010328
# 3 -0.001129 -0.003763 0.015607 0.002387 0.002774 0.002011
# 4 0.002572 0.006031 0.002387 0.035662 -0.004174 0.018840
# 5 -0.000856 -0.000696 0.002774 -0.004174 0.029390 0.001480
# 6 0.007992 0.010328 0.002011 0.018840 0.001480 0.047123
#
#
# Mechanical properties :
#
#
# Convention : Reuss Voigt Hill
#
# Bulk Modulus (GPa) = 33.81819 56.57897 45.19858
# Shear Modulus (GPa) = 29.78044 39.89199 34.83622
#
# Velocity S-wave (km/s) = 3.43421 3.97470 3.71430
# Velocity P-wave (km/s) = 5.39611 6.59326 6.02449
#
# Compressibility (1/GPa) = 0.02956989
#
# Stress axis : x y z
#
# Youngs Moduli (GPa) = 80.42939 103.34851 64.07263
#
# Poissons Ratio (x) = -0.08456 0.07233
# Poissons Ratio (y) = -0.06581 0.24109
# Poissons Ratio (z) = 0.09079 0.38887
#
# Static dielectric constant tensor:
#      x y z
#    x 2.016640 0.035090 0.064940 
#    y 0.035090 1.960040 -0.003960 
#    z 0.064940 -0.003960 2.103390 
# 
# From -- ./inp_files/140465.got.cif
#   From: 2010.05.17/outbox.cif.g08.bks.cpg/sg2_71_cif.got.tgz:140465.got - 2010.06.03 11:33:40.
