data_PCOD9030481
_publ_section_title
;
Structure prediction by ZEFSAII (Michael W. Deem and Ramdas Pophale) SiO2 
 PCOD9030481
Probable space group: P -1
;
_chemical_formula_sum "Si O2"
_cell_formula_units_Z 14
_cell_length_a 11.476985
_cell_length_b 19.591408
_cell_length_c 13.835054
_cell_angle_alpha 21.128155
_cell_angle_beta 135.779295
_cell_angle_gamma 146.656890
_cell_volume 584.779634
_symmetry_space_group_name_H-M "P -1"
_symmetry_group_IT_number 2
_symmetry_cell_setting 'triclinic'
loop_
_space_group_symop_operation_xyz
x,y,z
-x,-y,-z
loop_
_atom_site_type_symbol
_atom_site_label
_atom_site_fract_x
_atom_site_fract_y
_atom_site_fract_z
Si Si1 0.808748 0.263390 0.134394
Si Si2 0.067800 0.105126 0.009109
Si Si3 0.386007 0.008056 0.327450
Si Si4 0.723915 0.017689 0.044217
Si Si5 0.597589 0.317194 0.535576
Si Si6 0.060347 0.430318 0.859176
Si Si7 0.760341 0.817671 0.652548
O O1 0.580210 0.194248 0.119193
O O2 0.768547 0.010574 0.468569
O O3 0.000000 0.500000 0.000000
O O4 0.902140 0.335164 0.985676
O O5 0.179364 0.395247 0.700394
O O6 0.850340 0.951072 0.149670
O O7 0.253930 0.095407 0.163560
O O8 0.000000 0.000000 0.000000
O O9 0.500000 0.000000 0.500000
O O10 0.205490 0.727591 0.546234
O O11 0.638983 0.129066 0.782361
O O12 0.899169 0.248877 0.916587
O O13 0.528343 0.788191 0.297360
O O14 0.434895 0.292623 0.394322
O O15 0.236273 0.388100 0.028972
O O16 0.000000 0.000000 0.500000
#
# Coordination Sequence:
#
# PCOD9030481 Si02
#       7
#     2   2   2   2   2   2   2
#     4  11  24  42  68 100 150 172 220 290 343 400
#     4  12  30  47  67 101 147 178 228 290 347 408
#     4  12  27  42  69 105 137 187 225 280 356 400
#     4  11  26  45  75  99 132 184 239 278 335 421
#     4  11  24  47  74 100 136 185 234 277 348 403
#     4  11  24  44  68 104 137 177 237 281 336 411
#     4  10  22  42  71 104 136 179 226 285 340 400
#
# _framework density 23.940645
#
# number of rings (size 3 to 8) (size 9 to 14) (size 15 to 20)
#    0.000    0.857    4.286    2.143    8.000    2.286 
#    0.000    0.000    0.000    0.000    0.000    0.000 
#    0.000    0.000    0.000    0.000    0.000    0.000 
#
# Total GULP energy -78444.147543 kJ/mol
# GULP energy per Si atom -5603.153396 kJ/mol
# Density = 2.388615 g / cm^3
# Si number density = 23.940645 Si / 1000 Ang^3
#
#
#
# Elastic Constant Matrix: (Units=GPa)
#
#
# Indices 1 2 3 4 5 6 
#
# 1 154.6728 19.6989 11.1290 9.8244 -5.5034 17.6071
# 2 19.6989 78.9014 -7.7066 16.3179 -12.4661 -1.4400
# 3 11.1290 -7.7066 60.8488 1.2542 -3.6299 10.4275
# 4 9.8244 16.3179 1.2542 42.8771 10.3873 11.7623
# 5 -5.5034 -12.4661 -3.6299 10.3873 29.5327 2.1436
# 6 17.6071 -1.4400 10.4275 11.7623 2.1436 45.6706
#
#
#
# Elastic Compliance Matrix: (Units=1/GPa)
#
#
# Indices 1 2 3 4 5 6 
#
# 1 0.007095 -0.001687 -0.001029 -0.000477 0.000831 -0.002470
# 2 -0.001687 0.016974 0.002845 -0.009326 0.010302 0.002454
# 3 -0.001029 0.002845 0.017831 -0.001386 0.003936 -0.003413
# 4 -0.000477 -0.009326 -0.001386 0.032760 -0.015172 -0.007519
# 5 0.000831 0.010302 0.003936 -0.015172 0.044116 0.000943
# 6 -0.002470 0.002454 -0.003413 -0.007519 0.000943 0.025597
#
#
# Mechanical properties :
#
#
# Convention : Reuss Voigt Hill
#
# Bulk Modulus (GPa) = 23.72038 37.85175 30.78606
# Shear Modulus (GPa) = 31.61205 41.70286 36.65746
#
# Velocity S-wave (km/s) = 3.63772 4.17817 3.91728
# Velocity P-wave (km/s) = 5.25105 6.25469 5.77471
#
# Compressibility (1/GPa) = 0.04215785
#
# Stress axis : x y z
#
# Youngs Moduli (GPa) = 140.94132 58.91283 56.08290
#
# Poissons Ratio (x) = 0.09938 0.05769
# Poissons Ratio (y) = 0.23776 -0.15953
# Poissons Ratio (z) = 0.14499 -0.16758
#
# Static dielectric constant tensor:
#      x y z
#    x 2.059550 0.080900 -0.110520 
#    y 0.080900 1.934900 0.000040 
#    z -0.110520 0.000040 1.982670 
# 
# From -- ./inp_files/524014.got.cif
#   From: 2010.05.17/outbox.cif.g08.bks.cpg/sg2_263_cif.got.tgz:524014.got - 2010.06.03 11:33:40.
