data_PCOD9030548
_publ_section_title
;
Structure prediction by ZEFSAII (Michael W. Deem and Ramdas Pophale) SiO2 
 PCOD9030548
Probable space group: P -1
;
_chemical_formula_sum "Si O2"
_cell_formula_units_Z 16
_cell_length_a 8.899195
_cell_length_b 19.511398
_cell_length_c 12.806119
_cell_angle_alpha 26.776733
_cell_angle_beta 47.582247
_cell_angle_gamma 55.456430
_cell_volume 735.403593
_symmetry_space_group_name_H-M "P -1"
_symmetry_group_IT_number 2
_symmetry_cell_setting 'triclinic'
loop_
_space_group_symop_operation_xyz
x,y,z
-x,-y,-z
loop_
_atom_site_type_symbol
_atom_site_label
_atom_site_fract_x
_atom_site_fract_y
_atom_site_fract_z
Si Si1 0.953259 0.293301 0.993014
Si Si2 0.154224 0.590512 0.587617
Si Si3 0.285997 0.924231 0.753123
Si Si4 0.788768 0.929946 0.746447
Si Si5 0.404345 0.769705 0.587120
Si Si6 0.442166 0.719611 0.114640
Si Si7 0.364849 0.493308 0.825497
Si Si8 0.218446 0.238676 0.414401
O O1 0.798546 0.220719 0.077986
O O2 0.803898 0.284043 0.177471
O O3 0.129836 0.178900 0.057458
O O4 0.067006 0.460911 0.722435
O O5 0.364290 0.667820 0.334839
O O6 0.200804 0.523984 0.770341
O O7 0.983155 0.705326 0.518354
O O8 0.500000 0.000000 0.500000
O O9 0.164135 0.071031 0.618578
O O10 0.311308 0.847849 0.956665
O O11 0.644047 0.061925 0.657374
O O12 0.668075 0.809236 0.889481
O O13 0.000000 0.000000 0.500000
O O14 0.424419 0.648946 0.649847
O O15 0.597069 0.771590 0.573903
O O16 0.454697 0.576360 0.227805
O O17 0.290304 0.363931 0.121810
#
# Coordination Sequence:
#
# PCOD9030548 Si02
#       8
#     2   2   2   2   2   2   2   2
#     4  11  23  41  69 105 138 177 235 284 344 406
#     4  12  29  44  66 105 148 183 224 285 355 415
#     4  12  23  44  75 103 131 186 237 287 341 401
#     4  10  22  42  71  98 134 175 228 286 332 404
#     4  11  23  43  70 105 135 175 238 296 330 400
#     4  12  25  49  70  99 144 183 230 288 346 414
#     4  12  25  43  72  99 141 185 232 285 343 409
#     4  12  25  44  71 105 138 180 238 290 336 411
#
# _framework density 21.75676
#
# number of rings (size 3 to 8) (size 9 to 14) (size 15 to 20)
#    0.000    0.500    6.250    1.875    3.500    1.000 
#    0.000    0.625    0.000    0.000    0.000    0.000 
#    0.000    0.000    0.000    0.000    0.000    0.000 
#
# Total GULP energy -89261.138545 kJ/mol
# GULP energy per Si atom -5578.821159 kJ/mol
# Density = 2.170724 g / cm^3
# Si number density = 21.756760 Si / 1000 Ang^3
#
#
#
# Elastic Constant Matrix: (Units=GPa)
#
#
# Indices 1 2 3 4 5 6 
#
# 1 70.6119 53.5504 26.9227 -11.7376 6.8438 -0.3760
# 2 53.5504 115.5526 46.9778 -20.9301 -1.3450 -12.6858
# 3 26.9227 46.9778 42.1149 -11.1775 -4.2619 0.0017
# 4 -11.7376 -20.9301 -11.1775 30.0409 0.9714 1.0513
# 5 6.8438 -1.3450 -4.2619 0.9714 23.4352 -14.4832
# 6 -0.3760 -12.6858 0.0017 1.0513 -14.4832 37.4441
#
#
#
# Elastic Compliance Matrix: (Units=1/GPa)
#
#
# Indices 1 2 3 4 5 6 
#
# 1 0.026146 -0.010584 -0.006064 0.001395 -0.015088 -0.009198
# 2 -0.010584 0.022045 -0.015800 0.004745 0.007562 0.010155
# 3 -0.006064 -0.015800 0.047080 0.003981 0.007681 -0.002557
# 4 0.001395 0.004745 0.003981 0.038642 -0.000895 0.000190
# 5 -0.015088 0.007562 0.007681 -0.000895 0.066298 0.028079
# 6 -0.009198 0.010155 -0.002557 0.000190 0.028079 0.040910
#
#
# Mechanical properties :
#
#
# Convention : Reuss Voigt Hill
#
# Bulk Modulus (GPa) = 32.92352 53.68681 43.30516
# Shear Modulus (GPa) = 15.81565 24.90595 20.36080
#
# Velocity S-wave (km/s) = 2.69909 3.38708 3.06247
# Velocity P-wave (km/s) = 4.98787 6.32660 5.69670
#
# Compressibility (1/GPa) = 0.03037342
#
# Stress axis : x y z
#
# Youngs Moduli (GPa) = 38.24645 45.36212 21.24065
#
# Poissons Ratio (x) = 0.48012 0.12881
# Poissons Ratio (y) = 0.40481 0.33560
# Poissons Ratio (z) = 0.23194 0.71672
#
# Static dielectric constant tensor:
#      x y z
#    x 2.042210 0.130950 -0.058210 
#    y 0.130950 1.888250 -0.075600 
#    z -0.058210 -0.075600 1.869620 
# 
# From -- ./inp_files/278099.got.cif
#   From: 2010.05.17/outbox.cif.g08.bks.cpg/sg2_140_cif.got.tgz:278099.got - 2010.06.03 11:33:40.
