data_PCOD9030056
_publ_section_title
;
Structure prediction by ZEFSAII (Michael W. Deem and Ramdas Pophale) SiO2 
 PCOD9030056
Probable space group: P -1
;
_chemical_formula_sum "Si O2"
_cell_formula_units_Z 16
_cell_length_a 8.757558
_cell_length_b 19.470633
_cell_length_c 10.609854
_cell_angle_alpha 133.728356
_cell_angle_beta 78.112223
_cell_angle_gamma 137.810135
_cell_volume 681.230168
_symmetry_space_group_name_H-M "P -1"
_symmetry_group_IT_number 2
_symmetry_cell_setting 'triclinic'
loop_
_space_group_symop_operation_xyz
x,y,z
-x,-y,-z
loop_
_atom_site_type_symbol
_atom_site_label
_atom_site_fract_x
_atom_site_fract_y
_atom_site_fract_z
Si Si1 0.768694 0.902216 0.227605
Si Si2 0.104019 0.779262 0.072752
Si Si3 0.791751 0.633416 0.537144
Si Si4 0.208232 0.022436 0.955596
Si Si5 0.136884 0.501491 0.081805
Si Si6 0.638325 0.891071 0.523521
Si Si7 0.495551 0.573394 0.914748
Si Si8 0.264299 0.792925 0.795450
O O1 0.744807 0.953230 0.172519
O O2 0.687500 0.903979 0.380070
O O3 0.564533 0.705058 0.992214
O O4 0.091619 0.023035 0.345299
O O5 0.348372 0.988702 0.303008
O O6 0.100113 0.735474 0.878915
O O7 0.100272 0.685817 0.045365
O O8 0.801339 0.679537 0.022144
O O9 0.500000 0.500000 0.500000
O O10 0.706823 0.591232 0.351532
O O11 0.003812 0.654039 0.562195
O O12 0.010343 0.830991 0.780971
O O13 0.515933 0.180229 0.177604
O O14 0.000000 0.000000 0.000000
O O15 0.352052 0.684439 0.350618
O O16 0.345292 0.533135 0.015063
O O17 0.000000 0.500000 0.000000
O O18 0.500000 0.000000 0.000000
#
# Coordination Sequence:
#
# PCOD9030056 Si02
#       8
#     2   2   2   2   2   2   2   2
#     4   9  20  41  64  96 126 170 221 272 331 405
#     4  11  23  44  74  93 136 186 221 278 350 404
#     4  11  22  43  68  96 129 176 229 283 341 399
#     4  11  25  41  68  92 132 179 225 281 343 405
#     4  11  26  42  63 108 140 168 229 283 333 415
#     4   9  22  40  68  94 136 171 218 275 337 403
#     4  10  22  42  69  94 134 173 222 281 335 409
#     4  10  25  44  66  98 135 177 234 281 340 416
#
# _framework density 23.486920999999999
#
# number of rings (size 3 to 8) (size 9 to 14) (size 15 to 20)
#    0.000    1.750    1.250    1.875   12.250    2.500 
#    0.000    2.500    0.000    0.000    0.000    0.000 
#    0.000    0.000    0.000    0.000    0.000    0.000 
#
# Total GULP energy -89352.440780 kJ/mol
# GULP energy per Si atom -5584.527549 kJ/mol
# Density = 2.343346 g / cm^3
# Si number density = 23.486921 Si / 1000 Ang^3
#
#
#
# Elastic Constant Matrix: (Units=GPa)
#
#
# Indices 1 2 3 4 5 6 
#
# 1 89.9827 23.6206 20.8645 8.9048 9.3119 -0.0214
# 2 23.6206 73.1815 -6.1270 6.7345 -2.9704 2.5790
# 3 20.8645 -6.1270 75.8699 13.9258 5.4545 4.7123
# 4 8.9048 6.7345 13.9258 25.8022 2.5117 -2.5213
# 5 9.3119 -2.9704 5.4545 2.5117 31.1856 -1.9750
# 6 -0.0214 2.5790 4.7123 -2.5213 -1.9750 30.0495
#
#
#
# Elastic Compliance Matrix: (Units=1/GPa)
#
#
# Indices 1 2 3 4 5 6 
#
# 1 0.013745 -0.004834 -0.003753 -0.001022 -0.003783 0.000679
# 2 -0.004834 0.016150 0.003477 -0.004892 0.002630 -0.002172
# 3 -0.003753 0.003477 0.016390 -0.008725 -0.000944 -0.003666
# 4 -0.001022 -0.004892 -0.008725 0.045825 -0.001977 0.005502
# 5 -0.003783 0.002630 -0.000944 -0.001977 0.033896 0.001982
# 6 0.000679 -0.002172 -0.003666 0.005502 0.001982 0.034632
#
#
# Mechanical properties :
#
#
# Convention : Reuss Voigt Hill
#
# Bulk Modulus (GPa) = 27.72738 35.08336 31.40537
# Shear Modulus (GPa) = 27.34040 30.78587 29.06313
#
# Velocity S-wave (km/s) = 3.41555 3.62438 3.52151
# Velocity P-wave (km/s) = 5.23313 5.69953 5.47130
#
# Compressibility (1/GPa) = 0.03606544
#
# Stress axis : x y z
#
# Youngs Moduli (GPa) = 72.75258 61.92115 61.01156
#
# Poissons Ratio (x) = 0.29934 0.22898
# Poissons Ratio (y) = 0.35170 -0.21216
# Poissons Ratio (z) = 0.27304 -0.21532
#
# Static dielectric constant tensor:
#      x y z
#    x 1.689340 -0.000200 -0.219250 
#    y -0.000200 1.896700 0.037470 
#    z -0.219250 0.037470 1.763720 
# 
# From -- ./inp_files/405576.got.cif
#   From: 2010.05.17/outbox.cif.g08.bks.cpg/sg2_203_cif.got.tgz:405576.got - 2010.06.03 11:33:40.
