data_PCOD9030273
_publ_section_title
;
Structure prediction by ZEFSAII (Michael W. Deem and Ramdas Pophale) SiO2 
 PCOD9030273
Probable space group: P -1
;
_chemical_formula_sum "Si O2"
_cell_formula_units_Z 16
_cell_length_a 12.845012
_cell_length_b 8.879593
_cell_length_c 17.115890
_cell_angle_alpha 139.644190
_cell_angle_beta 41.028210
_cell_angle_gamma 148.230467
_cell_volume 632.242639
_symmetry_space_group_name_H-M "P -1"
_symmetry_group_IT_number 2
_symmetry_cell_setting 'triclinic'
loop_
_space_group_symop_operation_xyz
x,y,z
-x,-y,-z
loop_
_atom_site_type_symbol
_atom_site_label
_atom_site_fract_x
_atom_site_fract_y
_atom_site_fract_z
Si Si1 0.284697 0.236239 0.855415
Si Si2 0.556604 0.548299 0.299456
Si Si3 0.869437 0.139215 0.439964
Si Si4 0.889098 0.916078 0.834196
Si Si5 0.711327 0.420719 0.861495
Si Si6 0.131832 0.611369 0.748145
Si Si7 0.728321 0.215658 0.101070
Si Si8 0.772619 0.797488 0.514260
O O1 0.478734 0.463517 0.777545
O O2 0.270060 0.953349 0.773707
O O3 0.274718 0.387316 0.997034
O O4 0.078031 0.080398 0.856812
O O5 0.694670 0.445071 0.184804
O O6 0.381161 0.335051 0.378292
O O7 0.674741 0.897339 0.397629
O O8 0.000000 0.500000 0.500000
O O9 0.031230 0.100540 0.300290
O O10 0.781969 0.995482 0.518220
O O11 0.730014 0.587669 0.837648
O O12 0.801653 0.092300 0.950034
O O13 0.907364 0.431301 0.763171
O O14 0.493461 0.084261 0.859375
O O15 0.107593 0.630182 0.860893
O O16 0.250007 0.479939 0.620784
O O17 0.000000 0.000000 0.500000
#
# Coordination Sequence:
#
# PCOD9030273 Si02
#       8
#     2   2   2   2   2   2   2   2
#     4  10  22  43  68 104 144 183 231 300 358 423
#     4  11  27  47  70 105 147 187 241 298 361 423
#     4  11  27  47  74 103 141 189 243 295 352 434
#     4  10  22  42  70 105 140 185 233 295 364 419
#     4  11  22  41  71 107 147 177 236 300 355 426
#     4  11  23  44  72  99 147 187 237 298 357 427
#     4  12  23  41  75 104 139 192 230 294 369 419
#     4  12  28  49  69 102 143 198 238 297 363 419
#
# _framework density 25.306740999999999
#
# number of rings (size 3 to 8) (size 9 to 14) (size 15 to 20)
#    0.000    1.000    3.750    2.250    7.000    5.000 
#    0.000    0.000    0.000    0.000    0.000    0.000 
#    0.000    0.000    0.000    0.000    0.000    0.000 
#
# Total GULP energy -89541.334920 kJ/mol
# GULP energy per Si atom -5596.333433 kJ/mol
# Density = 2.524914 g / cm^3
# Si number density = 25.306741 Si / 1000 Ang^3
#
#
#
# Elastic Constant Matrix: (Units=GPa)
#
#
# Indices 1 2 3 4 5 6 
#
# 1 57.8264 36.6483 4.5710 -3.1250 4.0219 -10.4790
# 2 36.6483 151.2244 61.8822 -4.1681 -2.7348 -33.7867
# 3 4.5710 61.8822 111.8869 -13.0387 -0.4862 -19.2333
# 4 -3.1250 -4.1681 -13.0387 49.7853 -10.5858 5.0789
# 5 4.0219 -2.7348 -0.4862 -10.5858 31.3871 -3.7670
# 6 -10.4790 -33.7867 -19.2333 5.0789 -3.7670 38.0472
#
#
#
# Elastic Compliance Matrix: (Units=1/GPa)
#
#
# Indices 1 2 3 4 5 6 
#
# 1 0.021403 -0.006005 0.002806 0.000828 -0.002751 0.001598
# 2 -0.006005 0.011633 -0.005192 -0.000959 0.002147 0.006392
# 3 0.002806 -0.005192 0.012397 0.002904 0.000612 0.002102
# 4 0.000828 -0.000959 0.002904 0.022512 0.007275 -0.001440
# 5 -0.002751 0.002147 0.000612 0.007275 0.035341 0.003986
# 6 0.001598 0.006392 0.002102 -0.001440 0.003986 0.034049
#
#
# Mechanical properties :
#
#
# Convention : Reuss Voigt Hill
#
# Bulk Modulus (GPa) = 34.90352 58.57119 46.73735
# Shear Modulus (GPa) = 30.54953 38.36634 34.45794
#
# Velocity S-wave (km/s) = 3.47820 3.89788 3.69400
# Velocity P-wave (km/s) = 5.47290 6.59186 6.05827
#
# Compressibility (1/GPa) = 0.02865041
#
# Stress axis : x y z
#
# Youngs Moduli (GPa) = 46.72298 85.96014 80.66421
#
# Poissons Ratio (x) = 0.51619 -0.22634
# Poissons Ratio (y) = 0.28057 0.41883
# Poissons Ratio (z) = -0.13110 0.44633
#
# Static dielectric constant tensor:
#      x y z
#    x 2.024470 0.038030 0.016120 
#    y 0.038030 2.066470 -0.025280 
#    z 0.016120 -0.025280 2.031420 
# 
# From -- ./inp_files/572935.got.cif
#   From: 2010.05.17/outbox.cif.g08.bks.cpg/sg2_287_cif.got.tgz:572935.got - 2010.06.03 11:33:40.
