data_PCOD9030309
_publ_section_title
;
Structure prediction by ZEFSAII (Michael W. Deem and Ramdas Pophale) SiO2 
 PCOD9030309
Probable space group: P -1
;
_chemical_formula_sum "Si O2"
_cell_formula_units_Z 14
_cell_length_a 11.436659
_cell_length_b 12.875636
_cell_length_c 9.137160
_cell_angle_alpha 126.859440
_cell_angle_beta 68.431712
_cell_angle_gamma 69.140733
_cell_volume 632.825301
_symmetry_space_group_name_H-M "P -1"
_symmetry_group_IT_number 2
_symmetry_cell_setting 'triclinic'
loop_
_space_group_symop_operation_xyz
x,y,z
-x,-y,-z
loop_
_atom_site_type_symbol
_atom_site_label
_atom_site_fract_x
_atom_site_fract_y
_atom_site_fract_z
Si Si1 0.738453 0.489542 0.761325
Si Si2 0.165088 0.878633 0.696292
Si Si3 0.962811 0.627765 0.259526
Si Si4 0.880169 0.137337 0.811065
Si Si5 0.643625 0.088108 0.820491
Si Si6 0.555646 0.570162 0.418170
Si Si7 0.725924 0.650331 0.618663
O O1 0.779770 0.305396 0.555854
O O2 0.821715 0.499045 0.586107
O O3 0.843375 0.460208 0.832515
O O4 0.502331 0.712432 0.050166
O O5 0.364720 0.769637 0.586086
O O6 0.045058 0.052765 0.777297
O O7 0.000000 0.000000 0.000000
O O8 0.861012 0.638644 0.455568
O O9 0.804070 0.865276 0.488265
O O10 0.000000 0.500000 0.000000
O O11 0.762362 0.098206 0.873358
O O12 0.713322 0.378295 0.075298
O O13 0.000000 0.000000 0.500000
O O14 0.482617 0.137688 0.032452
O O15 0.500000 0.500000 0.500000
O O16 0.659211 0.596790 0.486735
#
# Coordination Sequence:
#
# PCOD9030309 Si02
#       7
#     2   2   2   2   2   2   2
#     4  10  22  42  70  89 129 174 219 260 323 388
#     4  12  21  39  71  99 129 176 214 268 331 397
#     4  12  26  43  66  96 129 169 224 272 320 379
#     4  12  25  40  66  99 137 170 213 273 336 389
#     4  10  22  45  65  88 130 169 218 261 319 388
#     4  12  20  42  65 102 132 163 221 273 320 398
#     4  10  22  43  68  91 131 173 213 266 317 391
#
# _framework density 22.123009
#
# number of rings (size 3 to 8) (size 9 to 14) (size 15 to 20)
#    0.857    0.000    7.143    0.857    2.000    1.143 
#    2.571    0.000    0.000    0.000    0.000    0.000 
#    0.000    0.000    0.000    0.000    0.000    0.000 
#
# Total GULP energy -78139.231052 kJ/mol
# GULP energy per Si atom -5581.373647 kJ/mol
# Density = 2.207266 g / cm^3
# Si number density = 22.123009 Si / 1000 Ang^3
#
#
#
# Elastic Constant Matrix: (Units=GPa)
#
#
# Indices 1 2 3 4 5 6 
#
# 1 86.8758 33.3781 25.2990 9.1715 6.8652 -27.2157
# 2 33.3781 36.2967 19.0166 -1.7951 -18.9826 -9.9756
# 3 25.2990 19.0166 128.4999 19.9825 10.0263 -28.1376
# 4 9.1715 -1.7951 19.9825 36.6454 -1.6002 0.3631
# 5 6.8652 -18.9826 10.0263 -1.6002 33.7917 -4.2603
# 6 -27.2157 -9.9756 -28.1376 0.3631 -4.2603 36.6109
#
#
#
# Elastic Compliance Matrix: (Units=1/GPa)
#
#
# Indices 1 2 3 4 5 6 
#
# 1 0.060022 -0.096589 0.018535 -0.033180 -0.070412 0.024681
# 2 -0.096589 0.210517 -0.039750 0.062952 0.149093 -0.028265
# 3 0.018535 -0.039750 0.018158 -0.017959 -0.030629 0.013517
# 4 -0.033180 0.062952 -0.017959 0.050717 0.047785 -0.016257
# 5 -0.070412 0.149093 -0.030629 0.047785 0.136500 -0.019848
# 6 0.024681 -0.028265 0.013517 -0.016257 -0.019848 0.046200
#
#
# Mechanical properties :
#
#
# Convention : Reuss Voigt Hill
#
# Bulk Modulus (GPa) = 18.83584 45.22885 32.03234
# Shear Modulus (GPa) = 6.44814 33.00818 19.72816
#
# Velocity S-wave (km/s) = 1.70909 3.86687 2.98946
# Velocity P-wave (km/s) = 3.52524 6.35811 5.14066
#
# Compressibility (1/GPa) = 0.05309028
#
# Stress axis : x y z
#
# Youngs Moduli (GPa) = 16.66061 4.75021 55.07278
#
# Poissons Ratio (x) = 0.45882 -1.02078
# Poissons Ratio (y) = 1.60922 2.18913
# Poissons Ratio (z) = -0.30881 0.18882
#
# Static dielectric constant tensor:
#      x y z
#    x 1.795340 0.091440 -0.060810 
#    y 0.091440 1.885060 -0.022980 
#    z -0.060810 -0.022980 1.824280 
# 
# From -- ./inp_files/177262.got.cif
#   From: 2010.05.17/outbox.cif.g08.bks.cpg/sg2_89_cif.got.tgz:177262.got - 2010.06.03 11:33:40.
