data_PCOD9030863
_publ_section_title
;
Structure prediction by ZEFSAII (Michael W. Deem and Ramdas Pophale) SiO2 
 PCOD9030863
Probable space group: P -1
;
_chemical_formula_sum "Si O2"
_cell_formula_units_Z 11
_cell_length_a 8.777995
_cell_length_b 13.069757
_cell_length_c 9.275075
_cell_angle_alpha 48.628375
_cell_angle_beta 125.232354
_cell_angle_gamma 147.218291
_cell_volume 431.770320
_symmetry_space_group_name_H-M "P -1"
_symmetry_group_IT_number 2
_symmetry_cell_setting 'triclinic'
loop_
_space_group_symop_operation_xyz
x,y,z
-x,-y,-z
loop_
_atom_site_type_symbol
_atom_site_label
_atom_site_fract_x
_atom_site_fract_y
_atom_site_fract_z
Si Si1 0.144352 0.445270 0.312361
Si Si2 0.434022 0.855394 0.222102
Si Si3 0.167522 0.157329 0.126640
Si Si4 0.000000 0.000000 0.500000
Si Si5 0.706439 0.687778 0.233673
Si Si6 0.486784 0.907198 0.722163
O O1 0.215093 0.627856 0.251636
O O2 0.383739 0.534563 0.245780
O O3 0.170337 0.349124 0.545722
O O4 0.836642 0.275058 0.234557
O O5 0.338173 0.904102 0.249766
O O6 0.700763 0.913366 0.371912
O O7 0.500000 0.000000 0.000000
O O8 0.152880 0.152982 0.294867
O O9 0.400627 0.176642 0.182925
O O10 0.236936 0.313191 0.902724
O O11 0.872928 0.919638 0.145913
O O12 0.500000 0.000000 0.500000
#
# Coordination Sequence:
#
# PCOD9030863 Si02
#       6
#     2   2   2   1   2   2
#     4  11  24  48  78 111 153 196 258 315 382 457
#     4  12  28  47  76 112 153 200 254 316 385 456
#     4  11  23  46  73 107 153 200 251 312 388 445
#     4  12  24  48  74 108 154 198 252 318 376 450
#     4  10  22  42  77 106 145 204 250 307 380 461
#     4  12  25  47  74 108 153 196 248 322 382 446
#
# _framework density 25.476507999999999
#
# number of rings (size 3 to 8) (size 9 to 14) (size 15 to 20)
#    0.000    0.727    5.455    1.091    5.091    3.636 
#    0.000    0.909    0.000    0.000    0.000    0.000 
#    0.000    0.000    0.000    0.000    0.000    0.000 
#
# Total GULP energy -61279.279715 kJ/mol
# GULP energy per Si atom -5570.843610 kJ/mol
# Density = 2.541852 g / cm^3
# Si number density = 25.476508 Si / 1000 Ang^3
#
#
#
# Elastic Constant Matrix: (Units=GPa)
#
#
# Indices 1 2 3 4 5 6 
#
# 1 78.3982 50.3569 27.1664 -2.8983 -18.0400 11.6142
# 2 50.3569 95.6167 12.1577 -3.7775 2.0743 21.1181
# 3 27.1664 12.1577 174.0492 -8.2883 -39.1904 7.9040
# 4 -2.8983 -3.7775 -8.2883 27.1460 6.2250 6.4297
# 5 -18.0400 2.0743 -39.1904 6.2250 50.1270 1.0357
# 6 11.6142 21.1181 7.9040 6.4297 1.0357 58.6471
#
#
#
# Elastic Compliance Matrix: (Units=1/GPa)
#
#
# Indices 1 2 3 4 5 6 
#
# 1 0.022604 -0.012012 -0.000937 -0.001392 0.008073 -0.000015
# 2 -0.012012 0.018044 -0.000292 0.003465 -0.005638 -0.004359
# 3 -0.000937 -0.000292 0.007166 0.001073 0.005162 -0.000884
# 4 -0.001392 0.003465 0.001073 0.039843 -0.004642 -0.005403
# 5 0.008073 -0.005638 0.005162 -0.004642 0.027705 -0.000244
# 6 -0.000015 -0.004359 -0.000884 -0.005403 -0.000244 0.019340
#
#
# Mechanical properties :
#
#
# Convention : Reuss Voigt Hill
#
# Bulk Modulus (GPa) = 46.88002 58.60287 52.74145
# Shear Modulus (GPa) = 29.70978 44.40957 37.05967
#
# Velocity S-wave (km/s) = 3.41862 4.17964 3.81814
# Velocity P-wave (km/s) = 5.83299 6.80773 6.33913
#
# Compressibility (1/GPa) = 0.02133105
#
# Stress axis : x y z
#
# Youngs Moduli (GPa) = 44.23972 55.42039 139.55273
#
# Poissons Ratio (x) = 0.66573 0.13076
# Poissons Ratio (y) = 0.53142 0.04076
# Poissons Ratio (z) = 0.04145 0.01619
#
# Static dielectric constant tensor:
#      x y z
#    x 1.943050 0.054660 -0.008580 
#    y 0.054660 2.014820 0.028640 
#    z -0.008580 0.028640 2.064770 
# 
# From -- ./inp_files/148877.got.cif
#   From: 2010.05.17/outbox.cif.g08.bks.cpg/sg2_75_cif.got.tgz:148877.got - 2010.06.03 11:33:40.
