data_PCOD9030092
_publ_section_title
;
Structure prediction by ZEFSAII (Michael W. Deem and Ramdas Pophale) SiO2 
 PCOD9030092
Probable space group: P -1
;
_chemical_formula_sum "Si O2"
_cell_formula_units_Z 16
_cell_length_a 10.975654
_cell_length_b 17.826330
_cell_length_c 9.203677
_cell_angle_alpha 58.483870
_cell_angle_beta 47.844259
_cell_angle_gamma 31.338792
_cell_volume 688.318613
_symmetry_space_group_name_H-M "P -1"
_symmetry_group_IT_number 2
_symmetry_cell_setting 'triclinic'
loop_
_space_group_symop_operation_xyz
x,y,z
-x,-y,-z
loop_
_atom_site_type_symbol
_atom_site_label
_atom_site_fract_x
_atom_site_fract_y
_atom_site_fract_z
Si Si1 0.714754 0.795401 0.838295
Si Si2 0.129071 0.131561 0.936922
Si Si3 0.765675 0.176279 0.006226
Si Si4 0.215764 0.560039 0.519963
Si Si5 0.628001 0.790183 0.225918
Si Si6 0.585905 0.326238 0.701859
Si Si7 0.314771 0.378989 0.408371
Si Si8 0.955924 0.876788 0.673820
O O1 0.874655 0.813108 0.753211
O O2 0.890920 0.690348 0.666982
O O3 0.708208 0.738990 0.045810
O O4 0.415895 0.957148 0.872406
O O5 0.983567 0.153175 0.174164
O O6 0.940208 0.189449 0.894286
O O7 0.201495 0.201074 0.848847
O O8 0.530742 0.266841 0.223225
O O9 0.611520 0.255991 0.895969
O O10 0.000000 0.000000 0.000000
O O11 0.326051 0.461018 0.675203
O O12 0.313047 0.618886 0.389948
O O13 0.332184 0.468470 0.373502
O O14 0.642769 0.703608 0.407586
O O15 0.318681 0.953670 0.300403
O O16 0.803541 0.194670 0.547171
O O17 0.000000 0.500000 0.500000
#
# Coordination Sequence:
#
# PCOD9030092 Si02
#       8
#     2   2   2   2   2   2   2   2
#     4   8  17  35  68  98 120 166 222 267 312 388
#     4   9  19  39  72  95 126 168 220 274 321 384
#     4  12  28  45  65  99 133 170 221 276 329 380
#     4  10  23  43  67  95 133 176 221 264 326 396
#     4   9  19  39  66  95 128 174 216 265 323 390
#     4  10  22  42  69  96 129 176 222 267 320 395
#     4  12  29  44  60  98 141 173 212 268 335 389
#     4   8  15  37  65  98 120 159 227 266 315 376
#
# _framework density 23.245049999999999
#
# number of rings (size 3 to 8) (size 9 to 14) (size 15 to 20)
#    0.000    2.250    0.000    3.000    5.250    4.000 
#    0.000    6.875    0.000    0.000    0.000    0.000 
#    0.000    0.000    0.000    0.000    0.000    0.000 
#
# Total GULP energy -89413.235869 kJ/mol
# GULP energy per Si atom -5588.327242 kJ/mol
# Density = 2.319214 g / cm^3
# Si number density = 23.245050 Si / 1000 Ang^3
#
#
#
# Elastic Constant Matrix: (Units=GPa)
#
#
# Indices 1 2 3 4 5 6 
#
# 1 100.0275 22.6946 15.0432 5.5559 4.4840 -0.0948
# 2 22.6946 59.3791 48.5399 15.5853 10.5719 11.5298
# 3 15.0432 48.5399 98.3897 18.1784 9.5984 3.4370
# 4 5.5559 15.5853 18.1784 44.3905 -1.1025 1.3795
# 5 4.4840 10.5719 9.5984 -1.1025 21.5024 -1.3207
# 6 -0.0948 11.5298 3.4370 1.3795 -1.3207 29.3004
#
#
#
# Elastic Compliance Matrix: (Units=1/GPa)
#
#
# Indices 1 2 3 4 5 6 
#
# 1 0.011081 -0.005373 0.000862 0.000085 0.000077 0.002049
# 2 -0.005373 0.037297 -0.014822 -0.006234 -0.011730 -0.013190
# 3 0.000862 -0.014822 0.017698 -0.002288 -0.000675 0.003836
# 4 0.000085 -0.006234 -0.002288 0.025724 0.005495 0.001758
# 5 0.000077 -0.011730 -0.000675 0.005495 0.053261 0.006837
# 6 0.002049 -0.013190 0.003836 0.001758 0.006837 0.039102
#
#
# Mechanical properties :
#
#
# Convention : Reuss Voigt Hill
#
# Bulk Modulus (GPa) = 36.48330 47.81687 42.15008
# Shear Modulus (GPa) = 21.55504 30.47323 26.01413
#
# Velocity S-wave (km/s) = 3.04846 3.62464 3.34896
# Velocity P-wave (km/s) = 5.30282 6.17518 5.75555
#
# Compressibility (1/GPa) = 0.02740980
#
# Stress axis : x y z
#
# Youngs Moduli (GPa) = 90.24845 26.81215 56.50205
#
# Poissons Ratio (x) = 0.14407 -0.04871
# Poissons Ratio (y) = 0.48494 0.83745
# Poissons Ratio (z) = -0.07780 0.39740
#
# Static dielectric constant tensor:
#      x y z
#    x 1.944450 -0.007470 -0.009970 
#    y -0.007470 1.935150 -0.001460 
#    z -0.009970 -0.001460 1.861660 
# 
# From -- ./inp_files/279195.got.cif
#   From: 2010.05.17/outbox.cif.g08.bks.cpg/sg2_140_cif.got.tgz:279195.got - 2010.06.03 11:33:40.
