data_PCOD9030216
_publ_section_title
;
Structure prediction by ZEFSAII (Michael W. Deem and Ramdas Pophale) SiO2 
 PCOD9030216
Probable space group: P -1
;
_chemical_formula_sum "Si O2"
_cell_formula_units_Z 14
_cell_length_a 8.940080
_cell_length_b 8.876406
_cell_length_c 9.830222
_cell_angle_alpha 90.081365
_cell_angle_beta 118.188007
_cell_angle_gamma 59.602070
_cell_volume 563.342480
_symmetry_space_group_name_H-M "P -1"
_symmetry_group_IT_number 2
_symmetry_cell_setting 'triclinic'
loop_
_space_group_symop_operation_xyz
x,y,z
-x,-y,-z
loop_
_atom_site_type_symbol
_atom_site_label
_atom_site_fract_x
_atom_site_fract_y
_atom_site_fract_z
Si Si1 0.672007 0.302223 0.011685
Si Si2 0.335128 0.360765 0.698685
Si Si3 0.961577 0.733427 0.519350
Si Si4 0.454601 0.698174 0.490110
Si Si5 0.973728 0.915583 0.277138
Si Si6 0.006634 0.311163 0.976967
Si Si7 0.308858 0.168352 0.334380
O O1 0.513304 0.259720 0.883355
O O2 0.832800 0.124826 0.168481
O O3 0.500000 0.500000 0.000000
O O4 0.808024 0.329034 0.961322
O O5 0.152204 0.334615 0.623026
O O6 0.454982 0.285187 0.610761
O O7 0.207027 0.582009 0.635885
O O8 0.913034 0.898718 0.403775
O O9 0.873019 0.750894 0.631355
O O10 0.500000 0.500000 0.500000
O O11 0.597722 0.713214 0.658635
O O12 0.211799 0.846619 0.389381
O O13 0.972909 0.776661 0.164927
O O14 0.207392 0.159719 0.153068
O O15 0.000000 0.500000 0.000000
O O16 0.500000 0.000000 0.500000
#
# Coordination Sequence:
#
# PCOD9030216 Si02
#       7
#     2   2   2   2   2   2   2
#     4  12  28  47  70 107 156 197 249 313 373 437
#     4  10  22  42  70 101 146 189 242 299 372 435
#     4  10  24  44  75 103 143 196 251 297 366 453
#     4  11  21  43  74 104 137 194 244 296 366 446
#     4  12  26  48  80 110 146 200 255 305 374 447
#     4  12  28  47  74 112 148 189 247 314 376 439
#     4  11  26  46  69 102 148 191 241 301 365 442
#
# _framework density 24.851666999999999
#
# number of rings (size 3 to 8) (size 9 to 14) (size 15 to 20)
#    0.000    0.857    2.857    3.000   10.000    1.714 
#    0.000    2.143    0.000    0.000    0.000    0.000 
#    0.000    0.000    0.000    0.000    0.000    0.000 
#
# Total GULP energy -78151.035772 kJ/mol
# GULP energy per Si atom -5582.216841 kJ/mol
# Density = 2.479510 g / cm^3
# Si number density = 24.851667 Si / 1000 Ang^3
#
#
#
# Elastic Constant Matrix: (Units=GPa)
#
#
# Indices 1 2 3 4 5 6 
#
# 1 85.0846 38.6950 55.6928 -6.4895 6.0373 8.0460
# 2 38.6950 125.2056 40.2096 -5.9744 1.7987 6.2060
# 3 55.6928 40.2096 141.7526 -7.0003 27.4092 -2.5425
# 4 -6.4895 -5.9744 -7.0003 46.8309 5.5977 1.2035
# 5 6.0373 1.7987 27.4092 5.5977 42.1203 -5.0906
# 6 8.0460 6.2060 -2.5425 1.2035 -5.0906 34.2382
#
#
#
# Elastic Compliance Matrix: (Units=1/GPa)
#
#
# Indices 1 2 3 4 5 6 
#
# 1 0.017695 -0.003229 -0.006258 0.001079 0.001057 -0.003919
# 2 -0.003229 0.009561 -0.001619 0.000444 0.000932 -0.000972
# 3 -0.006258 -0.001619 0.011299 0.001335 -0.006369 0.001609
# 4 0.001079 0.000444 0.001335 0.022304 -0.004205 -0.001644
# 5 0.001057 0.000932 -0.006369 -0.004205 0.028680 0.003522
# 6 -0.003919 -0.000972 0.001609 -0.001644 0.003522 0.031005
#
#
# Mechanical properties :
#
#
# Convention : Reuss Voigt Hill
#
# Bulk Modulus (GPa) = 61.18539 69.02640 65.10590
# Shear Modulus (GPa) = 33.73767 39.13423 36.43595
#
# Velocity S-wave (km/s) = 3.68851 3.97257 3.83317
# Velocity P-wave (km/s) = 6.54323 6.99124 6.77094
#
# Compressibility (1/GPa) = 0.01634377
#
# Stress axis : x y z
#
# Youngs Moduli (GPa) = 56.51240 104.59606 88.50485
#
# Poissons Ratio (x) = 0.33769 0.55384
# Poissons Ratio (y) = 0.18245 0.14331
# Poissons Ratio (z) = 0.35364 0.16936
#
# Static dielectric constant tensor:
#      x y z
#    x 1.905870 0.223670 -0.168990 
#    y 0.223670 2.211600 0.198140 
#    z -0.168990 0.198140 1.712810 
# 
# From -- ./inp_files/387384.got.cif
#   From: 2010.05.17/outbox.cif.g08.bks.cpg/sg2_194_cif.got.tgz:387384.got - 2010.06.03 11:33:40.
