data_PCOD9030601
_publ_section_title
;
Structure prediction by ZEFSAII (Michael W. Deem and Ramdas Pophale) SiO2 
 PCOD9030601
Probable space group: P -1
;
_chemical_formula_sum "Si O2"
_cell_formula_units_Z 15
_cell_length_a 9.189879
_cell_length_b 11.833349
_cell_length_c 9.280665
_cell_angle_alpha 101.872947
_cell_angle_beta 41.301378
_cell_angle_gamma 99.495905
_cell_volume 651.785976
_symmetry_space_group_name_H-M "P -1"
_symmetry_group_IT_number 2
_symmetry_cell_setting 'triclinic'
loop_
_space_group_symop_operation_xyz
x,y,z
-x,-y,-z
loop_
_atom_site_type_symbol
_atom_site_label
_atom_site_fract_x
_atom_site_fract_y
_atom_site_fract_z
Si Si1 0.000000 0.500000 0.500000
Si Si2 0.483510 0.673721 0.482614
Si Si3 0.478470 0.442261 0.265298
Si Si4 0.701553 0.877294 0.987544
Si Si5 0.294969 0.085124 0.677715
Si Si6 0.952514 0.309799 0.352788
Si Si7 0.921760 0.063265 0.718615
Si Si8 0.713603 0.284934 0.816587
O O1 0.225158 0.450498 0.408457
O O2 0.919961 0.571205 0.729508
O O3 0.548749 0.572451 0.295910
O O4 0.493628 0.628490 0.625340
O O5 0.631411 0.786534 0.386691
O O6 0.237227 0.709466 0.625816
O O7 0.607802 0.375225 0.026796
O O8 0.892986 0.795885 0.764378
O O9 0.710079 0.994647 0.921689
O O10 0.770109 0.907194 0.106094
O O11 0.476038 0.801687 0.130708
O O12 0.108365 0.048153 0.695699
O O13 0.500000 0.000000 0.500000
O O14 0.842875 0.346086 0.601555
O O15 0.871745 0.196075 0.757183
O O16 0.000000 0.000000 0.500000
#
# Coordination Sequence:
#
# PCOD9030601 Si02
#       8
#     1   2   2   2   2   2   2   2
#     4  10  22  42  72 102 140 186 230 296 350 420
#     4  10  24  46  70 104 148 183 240 290 354 433
#     4  10  24  44  73 107 144 190 235 302 354 425
#     4  12  25  47  69 104 144 190 230 301 361 420
#     4  12  27  46  74 104 143 197 236 293 360 432
#     4  11  23  44  69 104 142 182 237 283 359 428
#     4  12  27  45  71 106 142 184 245 300 351 430
#     4  12  25  44  74 107 139 189 238 296 359 425
#
# _framework density 23.013691000000001
#
# number of rings (size 3 to 8) (size 9 to 14) (size 15 to 20)
#    0.000    0.800    4.000    2.400    7.467    3.200 
#    0.000    0.667    0.000    0.000    0.000    0.000 
#    0.000    0.000    0.000    0.000    0.000    0.000 
#
# Total GULP energy -83738.003919 kJ/mol
# GULP energy per Si atom -5582.533595 kJ/mol
# Density = 2.296131 g / cm^3
# Si number density = 23.013691 Si / 1000 Ang^3
#
#
#
# Elastic Constant Matrix: (Units=GPa)
#
#
# Indices 1 2 3 4 5 6 
#
# 1 154.2167 30.4415 46.7722 -3.1629 -4.3834 9.5968
# 2 30.4415 108.2712 34.7527 -5.3542 -4.0502 -1.3325
# 3 46.7722 34.7527 77.5782 10.9151 19.7632 -2.0891
# 4 -3.1629 -5.3542 10.9151 27.0522 -0.1623 -4.1902
# 5 -4.3834 -4.0502 19.7632 -0.1623 24.3194 12.9277
# 6 9.5968 -1.3325 -2.0891 -4.1902 12.9277 44.5510
#
#
#
# Elastic Compliance Matrix: (Units=1/GPa)
#
#
# Indices 1 2 3 4 5 6 
#
# 1 0.010947 0.001731 -0.012490 0.005666 0.016203 -0.007061
# 2 0.001731 0.013360 -0.011765 0.007059 0.014272 -0.004002
# 3 -0.012490 -0.011765 0.040167 -0.017836 -0.045314 0.015694
# 4 0.005666 0.007059 -0.017836 0.045882 0.018546 -0.002912
# 5 0.016203 0.014272 -0.045314 0.018546 0.100734 -0.032675
# 6 -0.007061 -0.004002 0.015694 -0.002912 -0.032675 0.033791
#
#
# Mechanical properties :
#
#
# Convention : Reuss Voigt Hill
#
# Bulk Modulus (GPa) = 51.48194 62.66654 57.07424
# Shear Modulus (GPa) = 16.86885 34.39116 25.63001
#
# Velocity S-wave (km/s) = 2.71032 3.86991 3.34081
# Velocity P-wave (km/s) = 5.67566 6.87441 6.30360
#
# Compressibility (1/GPa) = 0.01942429
#
# Stress axis : x y z
#
# Youngs Moduli (GPa) = 91.34886 74.85305 24.89618
#
# Poissons Ratio (x) = -0.12954 0.31096
# Poissons Ratio (y) = -0.15809 0.29290
# Poissons Ratio (z) = 1.14097 0.88064
#
# Static dielectric constant tensor:
#      x y z
#    x 1.798980 -0.188710 -0.144870 
#    y -0.188710 0.536180 -0.654460 
#    z -0.144870 -0.654460 1.712310 
# 
# From -- ./inp_files/37668.got.cif
#   From: 2010.05.17/outbox.cif.g08.bks.cpg/sg2_19_cif.got.tgz:37668.got - 2010.06.03 11:33:40.
