data_PCOD9030576
_publ_section_title
;
Structure prediction by ZEFSAII (Michael W. Deem and Ramdas Pophale) SiO2 
 PCOD9030576
Probable space group: P -1
;
_chemical_formula_sum "Si O2"
_cell_formula_units_Z 15
_cell_length_a 8.478543
_cell_length_b 8.653997
_cell_length_c 14.077705
_cell_angle_alpha 65.933777
_cell_angle_beta 120.218782
_cell_angle_gamma 76.702516
_cell_volume 679.752122
_symmetry_space_group_name_H-M "P -1"
_symmetry_group_IT_number 2
_symmetry_cell_setting 'triclinic'
loop_
_space_group_symop_operation_xyz
x,y,z
-x,-y,-z
loop_
_atom_site_type_symbol
_atom_site_label
_atom_site_fract_x
_atom_site_fract_y
_atom_site_fract_z
Si Si1 0.018732 0.687120 0.742322
Si Si2 0.541935 0.278576 0.563970
Si Si3 0.788092 0.035185 0.263540
Si Si4 0.994503 0.910761 0.162165
Si Si5 0.715582 0.647485 0.930822
Si Si6 0.500000 0.000000 0.500000
Si Si7 0.088793 0.702239 0.053090
Si Si8 0.898143 0.665230 0.509369
O O1 0.111445 0.829773 0.732814
O O2 0.758800 0.826377 0.647137
O O3 0.033857 0.597096 0.664828
O O4 0.159175 0.515860 0.905868
O O5 0.500000 0.500000 0.500000
O O6 0.345486 0.278859 0.556069
O O7 0.773855 0.138445 0.719373
O O8 0.546863 0.180561 0.489628
O O9 0.528045 0.181549 0.158145
O O10 0.859981 0.925564 0.210058
O O11 0.875626 0.866982 0.413684
O O12 0.051433 0.739934 0.144537
O O13 0.875125 0.128271 0.019244
O O14 0.864366 0.735830 0.936629
O O15 0.728195 0.517310 0.876291
O O16 0.000000 0.500000 0.500000
#
# Coordination Sequence:
#
# PCOD9030576 Si02
#       8
#     2   2   2   2   2   1   2   2
#     4  11  24  44  73 100 143 187 236 294 371 434
#     4  11  23  43  71  99 137 189 241 299 356 432
#     4  12  24  45  74 104 148 185 239 298 371 434
#     4  11  23  44  67 101 137 187 238 297 359 431
#     4  11  24  45  71 107 140 189 237 304 366 440
#     4  10  22  42  72 100 136 186 244 288 352 434
#     4  10  24  42  68  97 142 181 243 289 358 433
#     4  11  27  45  67 106 143 187 242 297 364 443
#
# _framework density 22.066866000000001
#
# number of rings (size 3 to 8) (size 9 to 14) (size 15 to 20)
#    0.000    1.067    2.667    2.400    5.600    4.800 
#    2.400    0.000    0.000    0.000    0.000    0.000 
#    0.000    0.000    0.000    0.000    0.000    0.000 
#
# Total GULP energy -83607.363756 kJ/mol
# GULP energy per Si atom -5573.824250 kJ/mol
# Density = 2.201664 g / cm^3
# Si number density = 22.066866 Si / 1000 Ang^3
#
#
#
# Elastic Constant Matrix: (Units=GPa)
#
#
# Indices 1 2 3 4 5 6 
#
# 1 57.6528 8.1190 13.0928 -2.3852 -14.1746 -11.6725
# 2 8.1190 117.6724 35.8402 18.9646 -24.1282 -4.6126
# 3 13.0928 35.8402 60.2815 -2.7752 -3.3255 -13.3618
# 4 -2.3852 18.9646 -2.7752 32.9043 0.9922 -8.0321
# 5 -14.1746 -24.1282 -3.3255 0.9922 26.1651 -4.3052
# 6 -11.6725 -4.6126 -13.3618 -8.0321 -4.3052 46.6050
#
#
#
# Elastic Compliance Matrix: (Units=1/GPa)
#
#
# Indices 1 2 3 4 5 6 
#
# 1 0.023190 0.003285 -0.004677 0.000461 0.016025 0.006352
# 2 0.003285 0.016320 -0.010236 -0.010724 0.015789 -0.000886
# 3 -0.004677 -0.010236 0.024958 0.009334 -0.008196 0.005823
# 4 0.000461 -0.010724 0.009334 0.039544 -0.008679 0.007744
# 5 0.016025 0.015789 -0.008196 -0.008679 0.061975 0.007456
# 6 0.006352 -0.000886 0.005823 0.007744 0.007456 0.026653
#
#
# Mechanical properties :
#
#
# Convention : Reuss Voigt Hill
#
# Bulk Modulus (GPa) = 24.26365 38.85675 31.56020
# Shear Modulus (GPa) = 21.77393 33.03852 27.40622
#
# Velocity S-wave (km/s) = 3.14463 3.87357 3.52797
# Velocity P-wave (km/s) = 4.91978 6.13619 5.56135
#
# Compressibility (1/GPa) = 0.04121391
#
# Stress axis : x y z
#
# Youngs Moduli (GPa) = 43.12253 61.27415 40.06671
#
# Poissons Ratio (x) = -0.20129 0.18737
# Poissons Ratio (y) = -0.14166 0.41011
# Poissons Ratio (z) = 0.20166 0.62718
#
# Static dielectric constant tensor:
#      x y z
#    x 1.836600 -0.131390 -0.101680 
#    y -0.131390 2.083970 0.162750 
#    z -0.101680 0.162750 1.862690 
# 
# From -- ./inp_files/494730.got.cif
#   From: 2010.05.17/outbox.cif.g08.bks.cpg/sg2_248_cif.got.tgz:494730.got - 2010.06.03 11:33:40.
