data_PCOD9030573
_publ_section_title
;
Structure prediction by ZEFSAII (Michael W. Deem and Ramdas Pophale) SiO2 
 PCOD9030573
Probable space group: P -1
;
_chemical_formula_sum "Si O2"
_cell_formula_units_Z 15
_cell_length_a 24.704220
_cell_length_b 6.394692
_cell_length_c 18.091489
_cell_angle_alpha 113.475303
_cell_angle_beta 161.423168
_cell_angle_gamma 56.962774
_cell_volume 684.140196
_symmetry_space_group_name_H-M "P -1"
_symmetry_group_IT_number 2
_symmetry_cell_setting 'triclinic'
loop_
_space_group_symop_operation_xyz
x,y,z
-x,-y,-z
loop_
_atom_site_type_symbol
_atom_site_label
_atom_site_fract_x
_atom_site_fract_y
_atom_site_fract_z
Si Si1 0.286239 0.792776 0.247123
Si Si2 0.718931 0.780280 0.158893
Si Si3 0.372502 0.922904 0.224287
Si Si4 0.236085 0.189001 0.611573
Si Si5 0.000000 0.000000 0.500000
Si Si6 0.956167 0.456876 0.148190
Si Si7 0.895565 0.190489 0.233770
Si Si8 0.172112 0.296305 0.253212
O O1 0.500000 0.500000 0.500000
O O2 0.333985 0.932911 0.262968
O O3 0.211983 0.996284 0.249433
O O4 0.118404 0.743333 0.992521
O O5 0.752654 0.687777 0.277297
O O6 0.812486 0.504526 0.193272
O O7 0.838778 0.921184 0.314636
O O8 0.471171 0.989886 0.860149
O O9 0.612401 0.747840 0.491552
O O10 0.263923 0.792234 0.027277
O O11 0.250612 0.233140 0.077912
O O12 0.087769 0.392644 0.383707
O O13 0.120679 0.044520 0.466222
O O14 0.906022 0.039729 0.301052
O O15 0.094840 0.413990 0.251148
O O16 0.000000 0.500000 0.000000
#
# Coordination Sequence:
#
# PCOD9030573 Si02
#       8
#     2   2   2   2   1   2   2   2
#     4  12  24  48  73  99 141 189 229 298 362 414
#     4  10  24  46  69 103 144 179 236 281 349 422
#     4  12  27  45  70 107 142 182 236 305 336 430
#     4  10  23  46  68 102 140 184 229 290 341 420
#     4  10  22  42  72 100 132 188 218 280 354 408
#     4  12  26  44  72 103 142 183 243 286 358 420
#     4  11  25  43  69 101 144 178 233 285 352 413
#     4  12  26  47  72 103 143 184 239 295 360 423
#
# _framework density 21.925332000000001
#
# number of rings (size 3 to 8) (size 9 to 14) (size 15 to 20)
#    0.000    0.800    4.000    3.200    5.600    3.200 
#    0.000    4.000    0.000    0.000    0.000    0.000 
#    0.000    0.000    0.000    0.000    0.000    0.000 
#
# Total GULP energy -83616.618038 kJ/mol
# GULP energy per Si atom -5574.441203 kJ/mol
# Density = 2.187543 g / cm^3
# Si number density = 21.925332 Si / 1000 Ang^3
#
#
#
# Elastic Constant Matrix: (Units=GPa)
#
#
# Indices 1 2 3 4 5 6 
#
# 1 115.0415 1.3122 40.8760 -4.0722 -3.5703 15.8466
# 2 1.3122 47.6124 21.7927 9.7699 5.9932 -10.1549
# 3 40.8760 21.7927 141.5461 4.7611 10.6430 0.9544
# 4 -4.0722 9.7699 4.7611 37.1867 6.9116 -2.8808
# 5 -3.5703 5.9932 10.6430 6.9116 49.8094 -0.5243
# 6 15.8466 -10.1549 0.9544 -2.8808 -0.5243 24.6112
#
#
#
# Elastic Compliance Matrix: (Units=1/GPa)
#
#
# Indices 1 2 3 4 5 6 
#
# 1 0.010848 -0.000747 -0.003103 0.000992 0.001319 -0.007028
# 2 -0.000747 0.026282 -0.003603 -0.005395 -0.001584 0.010800
# 3 -0.003103 -0.003603 0.008642 -0.000192 -0.001608 0.000119
# 4 0.000992 -0.005395 -0.000192 0.029087 -0.003270 0.000478
# 5 0.001319 -0.001584 -0.001608 -0.003270 0.021144 -0.001373
# 6 -0.007028 0.010800 0.000119 0.000478 -0.001373 0.049636
#
#
# Mechanical properties :
#
#
# Convention : Reuss Voigt Hill
#
# Bulk Modulus (GPa) = 32.39799 48.01799 40.20799
# Shear Modulus (GPa) = 29.26824 38.33606 33.80215
#
# Velocity S-wave (km/s) = 3.65760 4.18602 3.93070
# Velocity P-wave (km/s) = 5.71367 6.73141 6.24331
#
# Compressibility (1/GPa) = 0.03086611
#
# Stress axis : x y z
#
# Youngs Moduli (GPa) = 92.18584 38.04822 115.71306
#
# Poissons Ratio (x) = 0.02844 0.35902
# Poissons Ratio (y) = 0.06890 0.41691
# Poissons Ratio (z) = 0.28602 0.13708
#
# Static dielectric constant tensor:
#      x y z
#    x 1.811260 0.013290 -0.000990 
#    y 0.013290 1.870750 0.004920 
#    z -0.000990 0.004920 1.807450 
# 
# From -- ./inp_files/578653.got.cif
#   From: 2010.05.17/outbox.cif.g08.bks.cpg/sg2_290_cif.got.tgz:578653.got - 2010.06.03 11:33:40.
