data_PCOD9030834
_publ_section_title
;
Structure prediction by ZEFSAII (Michael W. Deem and Ramdas Pophale) SiO2 
 PCOD9030834
Probable space group: P -1
;
_chemical_formula_sum "Si O2"
_cell_formula_units_Z 16
_cell_length_a 9.945728
_cell_length_b 5.562337
_cell_length_c 13.218479
_cell_angle_alpha 90.385745
_cell_angle_beta 71.242548
_cell_angle_gamma 66.743443
_cell_volume 628.606702
_symmetry_space_group_name_H-M "P -1"
_symmetry_group_IT_number 2
_symmetry_cell_setting 'triclinic'
loop_
_space_group_symop_operation_xyz
x,y,z
-x,-y,-z
loop_
_atom_site_type_symbol
_atom_site_label
_atom_site_fract_x
_atom_site_fract_y
_atom_site_fract_z
Si Si1 0.458439 0.938577 0.783556
Si Si2 0.063328 0.148672 0.204570
Si Si3 0.142486 0.445459 0.040416
Si Si4 0.600411 0.586104 0.557456
Si Si5 0.886165 0.645378 0.383385
Si Si6 0.129496 0.810288 0.388989
Si Si7 0.877460 0.902955 0.198322
Si Si8 0.458972 0.437971 0.897117
O O1 0.512254 0.834091 0.655759
O O2 0.493758 0.657754 0.827879
O O3 0.268578 0.087918 0.827066
O O4 0.514258 0.146223 0.826414
O O5 0.186999 0.183218 0.098336
O O6 0.942356 0.401038 0.294409
O O7 0.134519 0.944366 0.280369
O O8 0.933691 0.126211 0.159908
O O9 0.048597 0.665660 0.146443
O O10 0.278328 0.497571 0.958273
O O11 0.000000 0.500000 0.000000
O O12 0.500000 0.500000 0.500000
O O13 0.735531 0.653393 0.474928
O O14 0.702931 0.327223 0.599700
O O15 0.837087 0.907308 0.326664
O O16 0.051124 0.603740 0.392705
O O17 0.000000 0.000000 0.500000
O O18 0.500000 0.500000 0.000000
#
# Coordination Sequence:
#
# PCOD9030834 Si02
#       8
#     2   2   2   2   2   2   2   2
#     4  12  29  52  80 115 170 210 276 336 416 495
#     4  10  22  42  75 112 149 196 273 333 397 484
#     4  11  23  45  81 111 147 204 270 342 412 472
#     4  12  28  48  78 118 167 222 266 333 422 491
#     4  10  23  46  72 110 153 203 261 327 392 488
#     4  11  24  47  75 108 153 211 270 330 397 487
#     4  10  23  43  77 115 148 202 268 332 399 490
#     4  12  30  57  78 114 163 216 272 347 414 488
#
# _framework density 25.453116000000001
#
# number of rings (size 3 to 8) (size 9 to 14) (size 15 to 20)
#    0.000    1.000    2.500    2.250    7.000    5.500 
#    4.500    0.000    0.000    0.000    0.000    0.000 
#    0.000    0.000    0.000    0.000    0.000    0.000 
#
# Total GULP energy -89077.715282 kJ/mol
# GULP energy per Si atom -5567.357205 kJ/mol
# Density = 2.539518 g / cm^3
# Si number density = 25.453116 Si / 1000 Ang^3
#
#
#
# Elastic Constant Matrix: (Units=GPa)
#
#
# Indices 1 2 3 4 5 6 
#
# 1 126.4738 45.5630 34.7498 7.7583 23.2013 6.5247
# 2 45.5630 87.8870 43.5252 -7.1814 8.2104 15.7655
# 3 34.7498 43.5252 100.7166 -2.1883 2.5656 10.8895
# 4 7.7583 -7.1814 -2.1883 50.2498 3.4822 0.9758
# 5 23.2013 8.2104 2.5656 3.4822 40.6364 0.7241
# 6 6.5247 15.7655 10.8895 0.9758 0.7241 36.3264
#
#
#
# Elastic Compliance Matrix: (Units=1/GPa)
#
#
# Indices 1 2 3 4 5 6 
#
# 1 0.011129 -0.004706 -0.001802 -0.002129 -0.005120 0.000743
# 2 -0.004706 0.017773 -0.005394 0.003187 -0.000742 -0.005322
# 3 -0.001802 -0.005394 0.012984 0.000006 0.001321 -0.001254
# 4 -0.002129 0.003187 0.000006 0.020797 -0.001183 -0.001537
# 5 -0.005120 -0.000742 0.001321 -0.001183 0.027694 0.000325
# 6 0.000743 -0.005322 -0.001254 -0.001537 0.000325 0.030115
#
#
# Mechanical properties :
#
#
# Convention : Reuss Voigt Hill
#
# Bulk Modulus (GPa) = 55.30225 62.52815 58.91520
# Shear Modulus (GPa) = 33.26173 38.19182 35.72677
#
# Velocity S-wave (km/s) = 3.61887 3.87780 3.75057
# Velocity P-wave (km/s) = 6.26386 6.68350 6.47708
#
# Compressibility (1/GPa) = 0.01808245
#
# Stress axis : x y z
#
# Youngs Moduli (GPa) = 89.85687 56.26360 77.02008
#
# Poissons Ratio (x) = 0.26477 0.13881
# Poissons Ratio (y) = 0.42285 0.41542
# Poissons Ratio (z) = 0.16194 0.30347
#
# Static dielectric constant tensor:
#      x y z
#    x 1.523390 -1.264480 -0.127080 
#    y -1.264480 -3.155800 -0.748000 
#    z -0.127080 -0.748000 2.043520 
# 
# From -- ./inp_files/488548.got.cif
#   From: 2010.05.17/outbox.cif.g08.bks.cpg/sg2_245_cif.got.tgz:488548.got - 2010.06.03 11:33:40.
