data_PCOD9030800
_publ_section_title
;
Structure prediction by ZEFSAII (Michael W. Deem and Ramdas Pophale) SiO2 
 PCOD9030800
Probable space group: P -1
;
_chemical_formula_sum "Si O2"
_cell_formula_units_Z 13
_cell_length_a 13.172860
_cell_length_b 13.789314
_cell_length_c 22.168458
_cell_angle_alpha 158.580268
_cell_angle_beta 20.942152
_cell_angle_gamma 149.384263
_cell_volume 524.414352
_symmetry_space_group_name_H-M "P -1"
_symmetry_group_IT_number 2
_symmetry_cell_setting 'triclinic'
loop_
_space_group_symop_operation_xyz
x,y,z
-x,-y,-z
loop_
_atom_site_type_symbol
_atom_site_label
_atom_site_fract_x
_atom_site_fract_y
_atom_site_fract_z
Si Si1 0.020390 0.538322 0.267341
Si Si2 0.585508 0.718350 0.819049
Si Si3 0.500000 0.500000 0.500000
Si Si4 0.637638 0.721606 0.236683
Si Si5 0.171036 0.971017 0.028268
Si Si6 0.725297 0.306486 0.399275
Si Si7 0.580065 0.194585 0.717290
O O1 0.143953 0.745895 0.363974
O O2 0.820728 0.625222 0.373886
O O3 0.754900 0.390178 0.361195
O O4 0.291593 0.335319 0.988638
O O5 0.364924 0.523172 0.858080
O O6 0.709707 0.543641 0.592903
O O7 0.762460 0.811767 0.832386
O O8 0.500000 0.000000 0.000000
O O9 0.414479 0.782254 0.753632
O O10 0.435325 0.673895 0.263844
O O11 0.942434 0.792221 0.083906
O O12 0.500000 0.000000 0.500000
O O13 0.010825 0.131734 0.156103
O O14 0.473556 0.114265 0.436942
#
# Coordination Sequence:
#
# PCOD9030800 Si02
#       7
#     2   2   1   2   2   2   2
#     4  11  23  42  72 105 148 189 249 303 371 437
#     4  12  26  44  71 113 148 188 245 318 381 429
#     4  12  24  48  64 110 162 188 238 316 378 432
#     4  11  22  46  77 108 141 193 259 302 359 452
#     4  11  25  45  74 106 147 203 242 304 375 444
#     4  11  22  44  76 104 140 196 253 302 364 454
#     4  10  22  42  74 110 132 199 256 294 355 452
#
# _framework density 24.789556999999999
#
# number of rings (size 3 to 8) (size 9 to 14) (size 15 to 20)
#    0.000    0.923    6.154    2.769    2.154    0.615 
#    0.000    6.154    0.000    0.000    0.000    0.000 
#    0.000    0.000    0.000    0.000    0.000    0.000 
#
# Total GULP energy -72436.136664 kJ/mol
# GULP energy per Si atom -5572.010513 kJ/mol
# Density = 2.473313 g / cm^3
# Si number density = 24.789557 Si / 1000 Ang^3
#
#
#
# Elastic Constant Matrix: (Units=GPa)
#
#
# Indices 1 2 3 4 5 6 
#
# 1 115.4299 46.4230 30.4094 9.0106 14.6194 19.6922
# 2 46.4230 111.7105 58.4452 9.3263 -2.7480 1.3050
# 3 30.4094 58.4452 125.0681 6.0434 17.8876 2.5141
# 4 9.0106 9.3263 6.0434 31.9579 1.7056 -3.0453
# 5 14.6194 -2.7480 17.8876 1.7056 45.0143 8.0263
# 6 19.6922 1.3050 2.5141 -3.0453 8.0263 71.3061
#
#
#
# Elastic Compliance Matrix: (Units=1/GPa)
#
#
# Indices 1 2 3 4 5 6 
#
# 1 0.011642 -0.004748 0.000043 -0.001986 -0.003510 -0.002820
# 2 -0.004748 0.014444 -0.006210 -0.001900 0.004850 0.000639
# 3 0.000043 -0.006210 0.011609 -0.000101 -0.005048 0.000256
# 4 -0.001986 -0.001900 -0.000101 0.032681 -0.001043 0.002100
# 5 -0.003510 0.004850 -0.005048 -0.001043 0.026038 -0.001917
# 6 -0.002820 0.000639 0.000256 0.002100 -0.001917 0.015087
#
#
# Mechanical properties :
#
#
# Convention : Reuss Voigt Hill
#
# Bulk Modulus (GPa) = 63.03311 69.19593 66.11452
# Shear Modulus (GPa) = 36.06959 44.11773 40.09366
#
# Velocity S-wave (km/s) = 3.81863 4.22321 4.02601
# Velocity P-wave (km/s) = 6.70261 7.19407 6.95269
#
# Compressibility (1/GPa) = 0.01586468
#
# Stress axis : x y z
#
# Youngs Moduli (GPa) = 85.89503 69.23141 86.13999
#
# Poissons Ratio (x) = 0.32871 -0.00368
# Poissons Ratio (y) = 0.40783 0.53494
# Poissons Ratio (z) = -0.00367 0.42994
#
# Static dielectric constant tensor:
#      x y z
#    x 2.269330 0.011640 -0.103430 
#    y 0.011640 2.003170 0.009840 
#    z -0.103430 0.009840 2.012890 
# 
# From -- ./inp_files/612138.got.cif
#   From: 2010.05.17/outbox.cif.g08.bks.cpg/sg2_307_cif.got.tgz:612138.got - 2010.06.03 11:33:40.
