data_PCOD9030877
_publ_section_title
;
Structure prediction by ZEFSAII (Michael W. Deem and Ramdas Pophale) SiO2 
 PCOD9030877
Probable space group: P -1
;
_chemical_formula_sum "Si O2"
_cell_formula_units_Z 14
_cell_length_a 5.204184
_cell_length_b 23.584294
_cell_length_c 22.827140
_cell_angle_alpha 167.793016
_cell_angle_beta 109.547422
_cell_angle_gamma 70.679197
_cell_volume 558.162815
_symmetry_space_group_name_H-M "P -1"
_symmetry_group_IT_number 2
_symmetry_cell_setting 'triclinic'
loop_
_space_group_symop_operation_xyz
x,y,z
-x,-y,-z
loop_
_atom_site_type_symbol
_atom_site_label
_atom_site_fract_x
_atom_site_fract_y
_atom_site_fract_z
Si Si1 0.534949 0.370804 0.309293
Si Si2 0.619067 0.101593 0.678135
Si Si3 0.365334 0.800252 0.453467
Si Si4 0.867821 0.599418 0.150524
Si Si5 0.298566 0.734979 0.029995
Si Si6 0.327171 0.135649 0.252176
Si Si7 0.102924 0.102620 0.935871
O O1 0.500000 0.500000 0.500000
O O2 0.238802 0.320447 0.208296
O O3 0.684831 0.573133 0.482049
O O4 0.680798 0.080580 0.020400
O O5 0.382888 0.948279 0.539824
O O6 0.741152 0.895084 0.432440
O O7 0.642206 0.397234 0.953369
O O8 0.805873 0.135356 0.785584
O O9 0.579368 0.560273 0.244757
O O10 0.088843 0.639415 0.259673
O O11 0.458067 0.057037 0.757817
O O12 0.000000 0.500000 0.000000
O O13 0.066192 0.756892 0.986557
O O14 0.629790 0.074792 0.240632
O O15 0.100907 0.072118 0.217884
#
# Coordination Sequence:
#
# PCOD9030877 Si02
#       7
#     2   2   2   2   2   2   2
#     4  10  24  44  69 100 138 180 227 279 335 397
#     4  10  22  43  58  93 124 162 206 259 323 376
#     4  10  23  42  60  91 120 165 207 257 321 378
#     4  12  24  40  67  94 123 165 212 262 324 391
#     4  10  22  44  64  86 130 169 212 266 328 391
#     4  10  25  41  67  99 136 172 231 270 345 388
#     4  10  26  43  67 102 132 181 225 278 339 393
#
# _framework density 25.082287000000001
#
# number of rings (size 3 to 8) (size 9 to 14) (size 15 to 20)
#    1.714    0.000    1.429    1.714    4.000    4.571 
#    2.571    0.000    0.000    0.000    0.000    0.000 
#    0.000    0.000    0.000    0.000    0.000    0.000 
#
# Total GULP energy -78091.904786 kJ/mol
# GULP energy per Si atom -5577.993199 kJ/mol
# Density = 2.502520 g / cm^3
# Si number density = 25.082287 Si / 1000 Ang^3
#
#
#
# Elastic Constant Matrix: (Units=GPa)
#
#
# Indices 1 2 3 4 5 6 
#
# 1 47.5272 -0.8215 74.9131 -28.8776 15.7008 44.8121
# 2 -0.8215 76.6499 41.3657 -17.6767 18.9541 8.5142
# 3 74.9131 41.3657 84.3272 45.6690 33.9917 -46.3591
# 4 -28.8776 -17.6767 45.6690 -0.5261 -3.7664 38.5219
# 5 15.7008 18.9541 33.9917 -3.7664 33.6425 11.0571
# 6 44.8121 8.5142 -46.3591 38.5219 11.0571 -5.8357
#
#
#
# Elastic Compliance Matrix: (Units=1/GPa)
#
#
# Indices 1 2 3 4 5 6 
#
# 1 0.011568 -0.000885 0.001350 -0.008182 -0.009044 0.005669
# 2 -0.000885 0.015151 -0.000225 0.001026 -0.009631 0.005629
# 3 0.001350 -0.000225 0.005801 0.005571 -0.003686 -0.006253
# 4 -0.008182 0.001026 0.005571 0.019377 -0.004657 0.013502
# 5 -0.009044 -0.009631 -0.003686 -0.004657 0.043443 -0.002645
# 6 0.005669 0.005629 -0.006253 0.013502 -0.002645 0.014171
#
#
# Mechanical properties :
#
#
# Convention : Reuss Voigt Hill
#
# Bulk Modulus (GPa) = 30.30273 48.82433 39.56353
# Shear Modulus (GPa) = 41.65573 11.65926 26.65750
#
# Velocity S-wave (km/s) = 4.07967 2.15836 3.26360
# Velocity P-wave (km/s) = 5.85655 5.07141 5.47806
#
# Compressibility (1/GPa) = 0.03300032
#
# Stress axis : x y z
#
# Youngs Moduli (GPa) = 86.44447 66.00042 172.38706
#
# Poissons Ratio (x) = 0.05841 -0.23279
# Poissons Ratio (y) = 0.07650 0.03887
# Poissons Ratio (z) = -0.11673 0.01488
#
# Static dielectric constant tensor:
#      x y z
#    x 2.019720 -0.057090 -0.030920 
#    y -0.057090 2.050190 -0.015120 
#    z -0.030920 -0.015120 1.933510 
# 
# From -- ./inp_files/121243.got.cif
#   From: 2010.05.17/outbox.cif.g08.bks.cpg/sg2_61_cif.got.tgz:121243.got - 2010.06.03 11:33:40.
