data_PCOD9030824
_publ_section_title
;
Structure prediction by ZEFSAII (Michael W. Deem and Ramdas Pophale) SiO2 
 PCOD9030824
Probable space group: P -1
;
_chemical_formula_sum "Si O2"
_cell_formula_units_Z 16
_cell_length_a 7.947234
_cell_length_b 12.054811
_cell_length_c 17.399010
_cell_angle_alpha 150.313790
_cell_angle_beta 127.968570
_cell_angle_gamma 48.905983
_cell_volume 617.756376
_symmetry_space_group_name_H-M "P -1"
_symmetry_group_IT_number 2
_symmetry_cell_setting 'triclinic'
loop_
_space_group_symop_operation_xyz
x,y,z
-x,-y,-z
loop_
_atom_site_type_symbol
_atom_site_label
_atom_site_fract_x
_atom_site_fract_y
_atom_site_fract_z
Si Si1 0.107409 0.267704 0.941855
Si Si2 0.110971 0.410741 0.197735
Si Si3 0.136063 0.158083 0.530626
Si Si4 0.531488 0.889259 0.757081
Si Si5 0.997767 0.827353 0.664490
Si Si6 0.379256 0.647487 0.979697
Si Si7 0.441863 0.698236 0.306542
Si Si8 0.635419 0.602896 0.472923
O O1 0.299429 0.063061 0.829867
O O2 0.946805 0.107552 0.824276
O O3 0.184530 0.346585 0.092426
O O4 0.000000 0.500000 0.000000
O O5 0.294132 0.261717 0.220655
O O6 0.026589 0.693137 0.360941
O O7 0.873784 0.357532 0.107881
O O8 0.384626 0.190706 0.624092
O O9 0.029434 0.263364 0.483464
O O10 0.196678 0.882558 0.363384
O O11 0.492971 0.716798 0.575903
O O12 0.624555 0.085048 0.861665
O O13 0.250788 0.677220 0.665453
O O14 0.832860 0.723593 0.603405
O O15 0.525672 0.526071 0.872716
O O16 0.500000 0.500000 0.000000
O O17 0.524980 0.656359 0.391488
#
# Coordination Sequence:
#
# PCOD9030824 Si02
#       8
#     2   2   2   2   2   2   2   2
#     4  12  29  46  67  95 146 192 231 280 353 422
#     4  11  24  47  68  98 136 183 239 288 341 413
#     4   9  19  39  65  96 135 169 223 287 339 402
#     4  12  26  44  67 101 139 187 233 285 349 418
#     4  10  22  44  71 100 136 176 225 290 345 414
#     4  11  25  41  72 105 139 180 233 291 346 405
#     4   9  21  35  65 105 135 166 222 285 352 397
#     4  10  22  42  75 105 131 174 231 296 347 398
#
# _framework density 25.900176999999999
#
# number of rings (size 3 to 8) (size 9 to 14) (size 15 to 20)
#    0.000    1.500    1.250    2.250   15.750    0.500 
#    0.000    0.625    0.000    0.000    0.000    0.000 
#    0.000    0.000    0.000    0.000    0.000    0.000 
#
# Total GULP energy -89444.007822 kJ/mol
# GULP energy per Si atom -5590.250489 kJ/mol
# Density = 2.584123 g / cm^3
# Si number density = 25.900177 Si / 1000 Ang^3
#
#
#
# Elastic Constant Matrix: (Units=GPa)
#
#
# Indices 1 2 3 4 5 6 
#
# 1 110.5529 42.3076 46.3238 8.1122 -16.6786 -3.6495
# 2 42.3076 172.8436 63.6566 16.6930 -22.7866 4.5150
# 3 46.3238 63.6566 157.1111 15.5959 -34.2545 15.6140
# 4 8.1122 16.6930 15.5959 39.4952 4.9278 -1.6060
# 5 -16.6786 -22.7866 -34.2545 4.9278 66.5824 -5.6161
# 6 -3.6495 4.5150 15.6140 -1.6060 -5.6161 37.0810
#
#
#
# Elastic Compliance Matrix: (Units=1/GPa)
#
#
# Indices 1 2 3 4 5 6 
#
# 1 0.011028 -0.001620 -0.002527 -0.000626 0.001165 0.002496
# 2 -0.001620 0.007281 -0.001987 -0.002116 0.001211 -0.000118
# 3 -0.002527 -0.001987 0.009288 -0.002874 0.003380 -0.003530
# 4 -0.000626 -0.002116 -0.002874 0.028091 -0.004272 0.001976
# 5 0.001165 0.001211 0.003380 -0.004272 0.017870 0.001065
# 6 0.002496 -0.000118 -0.003530 0.001976 0.001065 0.028961
#
#
# Mechanical properties :
#
#
# Convention : Reuss Voigt Hill
#
# Bulk Modulus (GPa) = 65.23226 82.78707 74.00966
# Shear Modulus (GPa) = 41.70223 47.84634 44.77428
#
# Velocity S-wave (km/s) = 4.01698 4.30273 4.16230
# Velocity P-wave (km/s) = 6.83780 7.53113 7.19282
#
# Compressibility (1/GPa) = 0.01532984
#
# Stress axis : x y z
#
# Youngs Moduli (GPa) = 90.67467 137.34832 107.66289
#
# Poissons Ratio (x) = 0.22248 0.27210
# Poissons Ratio (y) = 0.14688 0.21389
# Poissons Ratio (z) = 0.22916 0.27287
#
# Static dielectric constant tensor:
#      x y z
#    x 2.186530 0.000410 0.065530 
#    y 0.000410 2.010890 -0.028370 
#    z 0.065530 -0.028370 2.074550 
# 
# From -- ./inp_files/560172.got.cif
#   From: 2010.05.17/outbox.cif.g08.bks.cpg/sg2_281_cif.got.tgz:560172.got - 2010.06.03 11:33:40.
