data_PCOD9030038
_publ_section_title
;
Structure prediction by ZEFSAII (Michael W. Deem and Ramdas Pophale) SiO2 
 PCOD9030038
Probable space group: P -1
;
_chemical_formula_sum "Si O2"
_cell_formula_units_Z 14
_cell_length_a 9.224760
_cell_length_b 11.817274
_cell_length_c 6.609578
_cell_angle_alpha 86.592526
_cell_angle_beta 82.292065
_cell_angle_gamma 75.354848
_cell_volume 690.567063
_symmetry_space_group_name_H-M "P -1"
_symmetry_group_IT_number 2
_symmetry_cell_setting 'triclinic'
loop_
_space_group_symop_operation_xyz
x,y,z
-x,-y,-z
loop_
_atom_site_type_symbol
_atom_site_label
_atom_site_fract_x
_atom_site_fract_y
_atom_site_fract_z
Si Si1 0.370055 0.389307 0.974908
Si Si2 0.875591 0.928421 0.505063
Si Si3 0.599799 0.017791 0.286492
Si Si4 0.669858 0.850910 0.901091
Si Si5 0.907371 0.492882 0.213980
Si Si6 0.037419 0.667070 0.441384
Si Si7 0.604824 0.445505 0.679373
O O1 0.290242 0.285148 0.038759
O O2 0.394600 0.449697 0.173816
O O3 0.262260 0.481477 0.835645
O O4 0.525036 0.357010 0.823174
O O5 0.783227 0.898804 0.725067
O O6 0.960317 0.802267 0.411170
O O7 0.758314 0.007937 0.363087
O O8 0.000000 0.000000 0.500000
O O9 0.491480 0.128943 0.187438
O O10 0.500000 0.000000 0.500000
O O11 0.635528 0.921910 0.110116
O O12 0.967421 0.368675 0.320481
O O13 0.940527 0.591176 0.347746
O O14 0.000000 0.500000 0.000000
O O15 0.217696 0.618570 0.374263
O O16 0.500000 0.500000 0.500000
#
# Coordination Sequence:
#
# PCOD9030038 Si02
#       7
#     2   2   2   2   2   2   2
#     4  11  23  40  65  95 128 168 212 268 325 389
#     4  11  25  42  62  97 132 171 217 268 326 376
#     4   9  21  43  66  92 123 167 220 265 314 381
#     4  10  22  42  69  93 125 169 219 266 320 386
#     4  11  21  39  64  93 126 164 216 259 323 384
#     4  11  24  39  64  92 129 173 213 268 315 386
#     4  11  24  41  59  94 134 166 214 262 323 387
#
# _framework density 20.273195999999999
#
# number of rings (size 3 to 8) (size 9 to 14) (size 15 to 20)
#    0.000    1.429    2.857    1.714    2.000    7.429 
#    0.000    0.000    0.000    0.000    0.000    0.000 
#    0.000    0.000    0.000    0.000    0.000    0.000 
#
# Total GULP energy -77961.154443 kJ/mol
# GULP energy per Si atom -5568.653889 kJ/mol
# Density = 2.022705 g / cm^3
# Si number density = 20.273196 Si / 1000 Ang^3
#
#
#
# Elastic Constant Matrix: (Units=GPa)
#
#
# Indices 1 2 3 4 5 6 
#
# 1 118.4028 7.9830 40.0536 -0.6446 11.1777 -6.3584
# 2 7.9830 36.2689 -0.2252 -2.7422 -0.0709 3.4898
# 3 40.0536 -0.2252 98.3530 -0.7311 1.1017 -0.9693
# 4 -0.6446 -2.7422 -0.7311 19.4496 -1.6163 -3.3206
# 5 11.1777 -0.0709 1.1017 -1.6163 48.5308 -3.7186
# 6 -6.3584 3.4898 -0.9693 -3.3206 -3.7186 28.3974
#
#
#
# Elastic Compliance Matrix: (Units=1/GPa)
#
#
# Indices 1 2 3 4 5 6 
#
# 1 0.010346 -0.002518 -0.004173 0.000032 -0.002122 0.002209
# 2 -0.002518 0.028739 0.001076 0.003430 0.000436 -0.003601
# 3 -0.004173 0.001076 0.011860 0.000425 0.000668 -0.000525
# 4 0.000032 0.003430 0.000425 0.053143 0.002226 0.006106
# 5 -0.002122 0.000436 0.000668 0.002226 0.021349 0.002550
# 6 0.002209 -0.003601 -0.000525 0.006106 0.002550 0.037182
#
#
# Mechanical properties :
#
#
# Convention : Reuss Voigt Hill
#
# Bulk Modulus (GPa) = 25.17868 38.73859 31.95863
# Shear Modulus (GPa) = 26.72536 32.95644 29.84090
#
# Velocity S-wave (km/s) = 3.63473 4.03627 3.84075
# Velocity P-wave (km/s) = 5.48285 6.39310 5.95539
#
# Compressibility (1/GPa) = 0.03971614
#
# Stress axis : x y z
#
# Youngs Moduli (GPa) = 96.65183 34.79551 84.31658
#
# Poissons Ratio (x) = 0.08760 0.35189
# Poissons Ratio (y) = 0.24332 -0.09074
# Poissons Ratio (z) = 0.40338 -0.03745
#
# Static dielectric constant tensor:
#      x y z
#    x 1.837270 -0.046890 -0.014970 
#    y -0.046890 1.681990 -0.010850 
#    z -0.014970 -0.010850 1.756130 
# 
# From -- ./inp_files/27688.got.cif
#   From: 2010.05.17/outbox.cif.g08.bks.cpg/sg2_14_cif.got.tgz:27688.got - 2010.06.03 11:33:40.
