data_PCOD9030507
_publ_section_title
;
Structure prediction by ZEFSAII (Michael W. Deem and Ramdas Pophale) SiO2 
 PCOD9030507
Probable space group: P -1
;
_chemical_formula_sum "Si O2"
_cell_formula_units_Z 13
_cell_length_a 8.666882
_cell_length_b 7.371668
_cell_length_c 11.064662
_cell_angle_alpha 72.088818
_cell_angle_beta 102.454876
_cell_angle_gamma 60.335837
_cell_volume 523.455372
_symmetry_space_group_name_H-M "P -1"
_symmetry_group_IT_number 2
_symmetry_cell_setting 'triclinic'
loop_
_space_group_symop_operation_xyz
x,y,z
-x,-y,-z
loop_
_atom_site_type_symbol
_atom_site_label
_atom_site_fract_x
_atom_site_fract_y
_atom_site_fract_z
Si Si1 0.202275 0.455192 0.085446
Si Si2 0.500000 0.000000 0.500000
Si Si3 0.235265 0.838460 0.564006
Si Si4 0.794988 0.205384 0.166135
Si Si5 0.851967 0.176335 0.828969
Si Si6 0.431781 0.337352 0.637969
Si Si7 0.571965 0.987031 0.147806
O O1 0.180892 0.578170 0.185941
O O2 0.384718 0.176544 0.164618
O O3 0.252842 0.580952 0.969700
O O4 0.000000 0.500000 0.000000
O O5 0.677030 0.016100 0.469217
O O6 0.453097 0.201790 0.548235
O O7 0.292257 0.714663 0.732021
O O8 0.320651 0.614550 0.537171
O O9 0.000000 0.000000 0.500000
O O10 0.705663 0.072321 0.135852
O O11 0.028011 0.991251 0.232081
O O12 0.637377 0.239310 0.762646
O O13 0.000000 0.000000 0.000000
O O14 0.321426 0.272792 0.724277
O O15 0.500000 0.000000 0.000000
#
# Coordination Sequence:
#
# PCOD9030507 Si02
#       7
#     2   1   2   2   2   2   2
#     4  11  22  39  68 109 157 200 245 306 400 479
#     4  12  28  54  80 114 152 216 272 324 402 448
#     4  12  28  53  79 111 152 206 280 332 384 459
#     4  11  22  43  66 109 147 196 253 316 384 470
#     4  10  22  42  71 110 155 195 247 314 393 473
#     4  12  26  50  77 111 157 204 258 328 391 474
#     4  12  22  40  70 108 149 194 244 313 395 471
#
# _framework density 24.834972
#
# number of rings (size 3 to 8) (size 9 to 14) (size 15 to 20)
#    0.000    0.615    1.538    8.308    0.000    0.615 
#    2.769    0.000    0.000    0.000    0.000    0.000 
#    0.000    0.000    0.000    0.000    0.000    0.000 
#
# Total GULP energy -72452.841138 kJ/mol
# GULP energy per Si atom -5573.295472 kJ/mol
# Density = 2.477845 g / cm^3
# Si number density = 24.834972 Si / 1000 Ang^3
#
#
#
# Elastic Constant Matrix: (Units=GPa)
#
#
# Indices 1 2 3 4 5 6 
#
# 1 163.8308 46.1357 21.3838 -26.7199 -6.8368 26.4145
# 2 46.1357 153.6232 17.2814 8.6590 9.5961 19.3539
# 3 21.3838 17.2814 45.0479 -8.3093 -0.8046 9.7360
# 4 -26.7199 8.6590 -8.3093 39.5477 -0.8908 0.8320
# 5 -6.8368 9.5961 -0.8046 -0.8908 34.1540 2.6058
# 6 26.4145 19.3539 9.7360 0.8320 2.6058 52.1369
#
#
#
# Elastic Compliance Matrix: (Units=1/GPa)
#
#
# Indices 1 2 3 4 5 6 
#
# 1 0.008695 -0.002578 -0.001168 0.006331 0.002867 -0.003474
# 2 -0.002578 0.008100 -0.002464 -0.004076 -0.002878 -0.001032
# 3 -0.001168 -0.002464 0.025416 0.005194 0.001452 -0.003395
# 4 0.006331 -0.004076 0.005194 0.031699 0.003617 -0.003351
# 5 0.002867 -0.002878 0.001452 0.003617 0.030963 -0.002261
# 6 -0.003474 -0.001032 -0.003395 -0.003351 -0.002261 0.022124
#
#
# Mechanical properties :
#
#
# Convention : Reuss Voigt Hill
#
# Bulk Modulus (GPa) = 33.56771 59.12263 46.34517
# Shear Modulus (GPa) = 33.47878 43.68112 38.57995
#
# Velocity S-wave (km/s) = 3.67556 4.19842 3.94566
# Velocity P-wave (km/s) = 5.61771 6.88187 6.28167
#
# Compressibility (1/GPa) = 0.02979054
#
# Stress axis : x y z
#
# Youngs Moduli (GPa) = 115.01209 123.45175 39.34483
#
# Poissons Ratio (x) = 0.31826 0.04597
# Poissons Ratio (y) = 0.29650 0.09695
# Poissons Ratio (z) = 0.13438 0.30418
#
# Static dielectric constant tensor:
#      x y z
#    x 1.951730 -0.033280 0.026740 
#    y -0.033280 2.060430 0.037650 
#    z 0.026740 0.037650 2.086880 
# 
# From -- ./inp_files/198288.got.cif
#   From: 2010.05.17/outbox.cif.g08.bks.cpg/sg2_100_cif.got.tgz:198288.got - 2010.06.03 11:33:40.
