data_PCOD9030520
_publ_section_title
;
Structure prediction by ZEFSAII (Michael W. Deem and Ramdas Pophale) SiO2 
 PCOD9030520
Probable space group: P -1
;
_chemical_formula_sum "Si O2"
_cell_formula_units_Z 16
_cell_length_a 8.120846
_cell_length_b 12.655054
_cell_length_c 8.768140
_cell_angle_alpha 49.821932
_cell_angle_beta 93.118250
_cell_angle_gamma 105.009921
_cell_volume 657.189538
_symmetry_space_group_name_H-M "P -1"
_symmetry_group_IT_number 2
_symmetry_cell_setting 'triclinic'
loop_
_space_group_symop_operation_xyz
x,y,z
-x,-y,-z
loop_
_atom_site_type_symbol
_atom_site_label
_atom_site_fract_x
_atom_site_fract_y
_atom_site_fract_z
Si Si1 0.110187 0.849293 0.002641
Si Si2 0.714052 0.575739 0.627607
Si Si3 0.143601 0.453809 0.647392
Si Si4 0.724083 0.297588 0.076177
Si Si5 0.410970 0.698197 0.611148
Si Si6 0.157327 0.064740 0.267979
Si Si7 0.632477 0.040377 0.831068
Si Si8 0.012729 0.237369 0.323837
O O1 0.188469 0.886619 0.137883
O O2 0.958966 0.698297 0.143910
O O3 0.260868 0.830746 0.915391
O O4 0.015554 0.955686 0.823620
O O5 0.720929 0.563635 0.457474
O O6 0.567440 0.640813 0.620114
O O7 0.893754 0.681603 0.599849
O O8 0.700068 0.423386 0.849916
O O9 0.241156 0.573106 0.662210
O O10 0.000000 0.500000 0.500000
O O11 0.596588 0.275730 0.233144
O O12 0.910502 0.328399 0.140993
O O13 0.415098 0.843349 0.386330
O O14 0.149785 0.190345 0.267504
O O15 0.322945 0.083226 0.152846
O O16 0.126024 0.914641 0.497117
O O17 0.500000 0.000000 0.000000
#
# Coordination Sequence:
#
# PCOD9030520 Si02
#       8
#     2   2   2   2   2   2   2   2
#     4  11  25  43  73  98 124 175 227 270 321 386
#     4  12  25  41  67 101 134 171 215 273 338 387
#     4  12  23  45  70  97 131 171 222 273 324 390
#     4  11  23  45  68  96 130 172 225 269 324 394
#     4  12  27  43  66  99 138 173 212 273 335 388
#     4  10  23  43  67  97 127 173 229 266 316 387
#     4  12  26  45  65  97 137 175 213 269 332 390
#     4  10  22  42  71  96 129 171 225 276 316 385
#
# _framework density 24.346094000000001
#
# number of rings (size 3 to 8) (size 9 to 14) (size 15 to 20)
#    0.000    0.750    3.750    3.000    7.000    1.000 
#    0.000    1.250    0.000    0.000    0.000    0.000 
#    0.000    0.000    0.000    0.000    0.000    0.000 
#
# Total GULP energy -89580.040549 kJ/mol
# GULP energy per Si atom -5598.752534 kJ/mol
# Density = 2.429068 g / cm^3
# Si number density = 24.346094 Si / 1000 Ang^3
#
#
#
# Elastic Constant Matrix: (Units=GPa)
#
#
# Indices 1 2 3 4 5 6 
#
# 1 88.4028 34.9654 10.2799 11.4627 -1.4528 -41.5327
# 2 34.9654 99.8394 26.4990 31.7673 -9.1467 -33.4472
# 3 10.2799 26.4990 102.2448 22.4872 -5.6257 -21.4271
# 4 11.4627 31.7673 22.4872 31.3007 -13.6691 -8.1167
# 5 -1.4528 -9.1467 -5.6257 -13.6691 38.0894 9.5112
# 6 -41.5327 -33.4472 -21.4271 -8.1167 9.5112 61.6394
#
#
#
# Elastic Compliance Matrix: (Units=1/GPa)
#
#
# Indices 1 2 3 4 5 6 
#
# 1 0.017866 -0.001559 0.001995 -0.005158 -0.004210 0.011856
# 2 -0.001559 0.018307 0.000780 -0.018406 -0.003988 0.007346
# 3 0.001995 0.000780 0.012626 -0.010529 -0.002955 0.005226
# 4 -0.005158 -0.018406 -0.010529 0.065988 0.020401 -0.011582
# 5 -0.004210 -0.003988 -0.002955 0.020401 0.034172 -0.008614
# 6 0.011856 0.007346 0.005226 -0.011582 -0.008614 0.029819
#
#
# Mechanical properties :
#
#
# Convention : Reuss Voigt Hill
#
# Bulk Modulus (GPa) = 19.51891 48.21951 33.86921
# Shear Modulus (GPa) = 25.84998 40.78875 33.31936
#
# Velocity S-wave (km/s) = 3.26202 4.09757 3.70343
# Velocity P-wave (km/s) = 4.71406 6.49889 5.67706
#
# Compressibility (1/GPa) = 0.05123238
#
# Stress axis : x y z
#
# Youngs Moduli (GPa) = 55.97104 54.62262 79.20214
#
# Poissons Ratio (x) = 0.08517 -0.15803
# Poissons Ratio (y) = 0.08727 -0.06181
# Poissons Ratio (z) = -0.11167 -0.04262
#
# Static dielectric constant tensor:
#      x y z
#    x 1.989370 -0.001270 -0.021150 
#    y -0.001270 1.926980 0.024430 
#    z -0.021150 0.024430 1.924650 
# 
# From -- ./inp_files/184150.got.cif
#   From: 2010.05.17/outbox.cif.g08.bks.cpg/sg2_93_cif.got.tgz:184150.got - 2010.06.03 11:33:40.
