data_PCOD9030392
_publ_section_title
;
Structure prediction by ZEFSAII (Michael W. Deem and Ramdas Pophale) SiO2 
 PCOD9030392
Probable space group: P -1
;
_chemical_formula_sum "Si O2"
_cell_formula_units_Z 16
_cell_length_a 8.260937
_cell_length_b 6.606766
_cell_length_c 18.813615
_cell_angle_alpha 90.214321
_cell_angle_beta 135.587012
_cell_angle_gamma 86.935168
_cell_volume 716.687960
_symmetry_space_group_name_H-M "P -1"
_symmetry_group_IT_number 2
_symmetry_cell_setting 'triclinic'
loop_
_space_group_symop_operation_xyz
x,y,z
-x,-y,-z
loop_
_atom_site_type_symbol
_atom_site_label
_atom_site_fract_x
_atom_site_fract_y
_atom_site_fract_z
Si Si1 0.047596 0.148733 0.579081
Si Si2 0.237182 0.085991 0.396781
Si Si3 0.727630 0.855568 0.054029
Si Si4 0.064409 0.558097 0.632663
Si Si5 0.100104 0.159818 0.186465
Si Si6 0.182515 0.536245 0.995424
Si Si7 0.365840 0.245781 0.826612
Si Si8 0.425862 0.900215 0.743131
O O1 0.980739 0.385671 0.552797
O O2 0.924221 0.065161 0.611020
O O3 0.000000 0.000000 0.500000
O O4 0.325301 0.100977 0.668986
O O5 0.174066 0.114925 0.292478
O O6 0.155450 0.305975 0.405244
O O7 0.500000 0.000000 0.500000
O O8 0.697845 0.682159 0.987779
O O9 0.766925 0.747481 0.141337
O O10 0.948174 0.981582 0.110318
O O11 0.500000 0.000000 0.000000
O O12 0.210014 0.404589 0.730831
O O13 0.252596 0.723284 0.676406
O O14 0.327183 0.166828 0.209559
O O15 0.940893 0.360216 0.113096
O O16 0.380079 0.675040 0.084635
O O17 0.000000 0.500000 0.000000
O O18 0.405022 0.010104 0.813079
#
# Coordination Sequence:
#
# PCOD9030392 Si02
#       8
#     2   2   2   2   2   2   2   2
#     4  10  22  45  71 101 131 179 236 288 353 420
#     4  11  25  44  70 104 139 183 234 288 356 421
#     4  12  26  41  67 100 139 186 234 291 357 424
#     4  10  22  42  70  97 137 179 229 290 347 420
#     4  12  25  44  67 100 148 179 233 299 344 417
#     4  12  27  42  68 103 138 188 239 285 355 421
#     4  11  23  42  67  96 137 182 236 280 350 429
#     4  10  23  40  67  98 134 182 229 286 349 413
#
# _framework density 22.324916000000002
#
# number of rings (size 3 to 8) (size 9 to 14) (size 15 to 20)
#    0.000    1.000    1.250    5.625    5.250    4.500 
#    0.000    2.500    0.000    0.000    0.000    0.000 
#    0.000    0.000    0.000    0.000    0.000    0.000 
#
# Total GULP energy -89145.630670 kJ/mol
# GULP energy per Si atom -5571.601917 kJ/mol
# Density = 2.227410 g / cm^3
# Si number density = 22.324916 Si / 1000 Ang^3
#
#
#
# Elastic Constant Matrix: (Units=GPa)
#
#
# Indices 1 2 3 4 5 6 
#
# 1 73.0348 47.8081 26.1034 4.9714 5.6098 -0.0838
# 2 47.8081 157.8079 49.3267 6.7825 -0.6450 -18.2154
# 3 26.1034 49.3267 97.0638 -16.6462 6.4416 -6.2356
# 4 4.9714 6.7825 -16.6462 56.5595 1.8371 -4.2773
# 5 5.6098 -0.6450 6.4416 1.8371 41.6594 -6.3476
# 6 -0.0838 -18.2154 -6.2356 -4.2773 -6.3476 39.1478
#
#
#
# Elastic Compliance Matrix: (Units=1/GPa)
#
#
# Indices 1 2 3 4 5 6 
#
# 1 0.018268 -0.004979 -0.002772 -0.001995 -0.002531 -0.003347
# 2 -0.004979 0.009521 -0.003643 -0.001540 0.002059 0.004005
# 3 -0.002772 -0.003643 0.013915 0.004894 -0.001938 0.000736
# 4 -0.001995 -0.001540 0.004894 0.019670 -0.001069 0.002034
# 5 -0.002531 0.002059 -0.001938 -0.001069 0.025432 0.004651
# 6 -0.003347 0.004005 0.000736 0.002034 0.004651 0.028494
#
#
# Mechanical properties :
#
#
# Convention : Reuss Voigt Hill
#
# Bulk Modulus (GPa) = 52.86537 63.82034 58.34286
# Shear Modulus (GPa) = 34.62779 41.11789 37.87284
#
# Velocity S-wave (km/s) = 3.94265 4.29627 4.12325
# Velocity P-wave (km/s) = 6.66764 7.29792 6.98989
#
# Compressibility (1/GPa) = 0.01891597
#
# Stress axis : x y z
#
# Youngs Moduli (GPa) = 54.73935 105.03387 71.86728
#
# Poissons Ratio (x) = 0.52296 0.19922
# Poissons Ratio (y) = 0.27254 0.26180
# Poissons Ratio (z) = 0.15174 0.38263
#
# Static dielectric constant tensor:
#      x y z
#    x 1.874400 -0.045830 -0.238650 
#    y -0.045830 1.918250 0.127460 
#    z -0.238650 0.127460 2.358490 
# 
# From -- ./inp_files/582189.got.cif
#   From: 2010.05.17/outbox.cif.g08.bks.cpg/sg2_292_cif.got.tgz:582189.got - 2010.06.03 11:33:40.
