data_PCOD9030797
_publ_section_title
;
Structure prediction by ZEFSAII (Michael W. Deem and Ramdas Pophale) SiO2 
 PCOD9030797
Probable space group: P -1
;
_chemical_formula_sum "Si O2"
_cell_formula_units_Z 13
_cell_length_a 11.225778
_cell_length_b 9.246043
_cell_length_c 15.963751
_cell_angle_alpha 133.564165
_cell_angle_beta 37.011728
_cell_angle_gamma 104.016907
_cell_volume 511.619643
_symmetry_space_group_name_H-M "P -1"
_symmetry_group_IT_number 2
_symmetry_cell_setting 'triclinic'
loop_
_space_group_symop_operation_xyz
x,y,z
-x,-y,-z
loop_
_atom_site_type_symbol
_atom_site_label
_atom_site_fract_x
_atom_site_fract_y
_atom_site_fract_z
Si Si1 0.170972 0.679724 0.627056
Si Si2 0.484915 0.175898 0.003268
Si Si3 0.802745 0.255078 0.775720
Si Si4 0.404535 0.294452 0.659233
Si Si5 0.000000 0.500000 0.500000
Si Si6 0.602041 0.061249 0.191850
Si Si7 0.127955 0.420878 0.031076
O O1 0.345820 0.743180 0.523666
O O2 0.375040 0.395951 0.455351
O O3 0.094160 0.599157 0.557583
O O4 0.890783 0.931625 0.935589
O O5 0.187663 0.479978 0.312974
O O6 0.728300 0.161649 0.857801
O O7 0.500000 0.000000 0.000000
O O8 0.498463 0.037404 0.856693
O O9 0.922387 0.380250 0.788934
O O10 0.500000 0.500000 0.000000
O O11 0.000000 0.000000 0.500000
O O12 0.150248 0.475153 0.808947
O O13 0.500000 0.000000 0.500000
O O14 0.279197 0.432706 0.876108
O O15 0.321617 0.108536 0.834648
#
# Coordination Sequence:
#
# PCOD9030797 Si02
#       7
#     2   2   2   2   1   2   2
#     4  11  26  47  77 112 151 203 260 320 390 461
#     4  11  23  41  70 107 154 193 252 308 392 460
#     4  12  29  47  77 117 158 206 256 328 400 466
#     4  11  29  52  79 110 154 217 263 324 386 480
#     4  10  22  42  74 108 152 194 258 320 384 456
#     4  11  26  45  75 111 148 199 254 326 387 459
#     4  11  28  51  76 111 159 206 269 320 398 468
#
# _framework density 25.409502
#
# number of rings (size 3 to 8) (size 9 to 14) (size 15 to 20)
#    0.000    0.923    3.077    0.923   12.923    2.462 
#    0.000    0.000    0.000    0.000    0.000    0.000 
#    0.000    0.000    0.000    0.000    0.000    0.000 
#
# Total GULP energy -72657.465012 kJ/mol
# GULP energy per Si atom -5589.035770 kJ/mol
# Density = 2.535167 g / cm^3
# Si number density = 25.409502 Si / 1000 Ang^3
#
#
#
# Elastic Constant Matrix: (Units=GPa)
#
#
# Indices 1 2 3 4 5 6 
#
# 1 117.6100 42.8129 18.1416 9.7750 -5.6960 -7.6980
# 2 42.8129 142.8939 26.2661 -24.0145 -10.7838 3.6057
# 3 18.1416 26.2661 84.3628 -1.5332 1.4016 10.0734
# 4 9.7750 -24.0145 -1.5332 45.5238 -6.2436 -6.7992
# 5 -5.6960 -10.7838 1.4016 -6.2436 40.2866 5.2114
# 6 -7.6980 3.6057 10.0734 -6.7992 5.2114 26.9951
#
#
#
# Elastic Compliance Matrix: (Units=1/GPa)
#
#
# Indices 1 2 3 4 5 6 
#
# 1 0.010577 -0.003632 -0.001590 -0.003819 -0.000429 0.003216
# 2 -0.003632 0.009782 -0.002133 0.006220 0.003221 -0.000602
# 3 -0.001590 -0.002133 0.013491 -0.001236 -0.000762 -0.005367
# 4 -0.003819 0.006220 -0.001236 0.027360 0.004826 0.004501
# 5 -0.000429 0.003221 -0.000762 0.004826 0.026949 -0.004255
# 6 0.003216 -0.000602 -0.005367 0.004501 -0.004255 0.041999
#
#
# Mechanical properties :
#
#
# Convention : Reuss Voigt Hill
#
# Bulk Modulus (GPa) = 52.24836 57.70088 54.97462
# Shear Modulus (GPa) = 33.05819 39.73749 36.39784
#
# Velocity S-wave (km/s) = 3.61087 3.95889 3.78888
# Velocity P-wave (km/s) = 6.16374 6.60717 6.38931
#
# Compressibility (1/GPa) = 0.01913936
#
# Stress axis : x y z
#
# Youngs Moduli (GPa) = 94.54212 102.22624 74.12540
#
# Poissons Ratio (x) = 0.37132 0.11785
# Poissons Ratio (y) = 0.34340 0.15812
# Poissons Ratio (z) = 0.15031 0.21807
#
# Static dielectric constant tensor:
#      x y z
#    x 2.012300 -0.068360 -0.038570 
#    y -0.068360 2.006370 0.001090 
#    z -0.038570 0.001090 2.057590 
# 
# From -- ./inp_files/594831.got.cif
#   From: 2010.05.17/outbox.cif.g08.bks.cpg/sg2_298_cif.got.tgz:594831.got - 2010.06.03 11:33:40.
