data_PCOD9030857
_publ_section_title
;
Structure prediction by ZEFSAII (Michael W. Deem and Ramdas Pophale) SiO2 
 PCOD9030857
Probable space group: P -1
;
_chemical_formula_sum "Si O2"
_cell_formula_units_Z 13
_cell_length_a 8.334837
_cell_length_b 11.681884
_cell_length_c 9.273149
_cell_angle_alpha 42.590267
_cell_angle_beta 72.619126
_cell_angle_gamma 90.473354
_cell_volume 545.527019
_symmetry_space_group_name_H-M "P -1"
_symmetry_group_IT_number 2
_symmetry_cell_setting 'triclinic'
loop_
_space_group_symop_operation_xyz
x,y,z
-x,-y,-z
loop_
_atom_site_type_symbol
_atom_site_label
_atom_site_fract_x
_atom_site_fract_y
_atom_site_fract_z
Si Si1 0.807029 0.999921 0.300538
Si Si2 0.629798 0.504510 0.591600
Si Si3 0.632869 0.128963 0.964158
Si Si4 0.519762 0.671658 0.739843
Si Si5 0.035812 0.758444 0.438912
Si Si6 0.864048 0.296882 0.224698
Si Si7 0.000000 0.500000 0.500000
O O1 0.592294 0.630990 0.604341
O O2 0.673104 0.854715 0.580585
O O3 0.943904 0.904042 0.301230
O O4 0.682999 0.034852 0.175185
O O5 0.500000 0.500000 0.500000
O O6 0.572606 0.297441 0.857059
O O7 0.833491 0.563104 0.422204
O O8 0.830230 0.233138 0.740062
O O9 0.500000 0.000000 0.000000
O O10 0.334583 0.702554 0.745316
O O11 0.500000 0.500000 0.000000
O O12 0.904809 0.179006 0.197386
O O13 0.124062 0.787437 0.543483
O O14 0.928140 0.545203 0.641600
O O15 0.000000 0.500000 0.000000
#
# Coordination Sequence:
#
# PCOD9030857 Si02
#       7
#     2   2   2   2   2   2   1
#     4  12  25  48  72 104 149 192 246 307 374 446
#     4  11  23  44  72 103 139 193 244 306 369 440
#     4  11  25  43  70 107 142 184 246 310 374 440
#     4  12  25  46  73 103 141 197 245 300 380 445
#     4  11  24  44  71 100 140 192 241 306 371 438
#     4  12  28  45  69 108 150 196 248 303 372 455
#     4  10  22  42  76  96 142 178 258 300 364 430
#
# _framework density 23.830169999999999
#
# number of rings (size 3 to 8) (size 9 to 14) (size 15 to 20)
#    0.000    0.615    1.538    6.923    4.308    2.462 
#    0.000    0.000    0.000    0.000    0.000    0.000 
#    0.000    0.000    0.000    0.000    0.000    0.000 
#
# Total GULP energy -72499.434572 kJ/mol
# GULP energy per Si atom -5576.879582 kJ/mol
# Density = 2.377593 g / cm^3
# Si number density = 23.830170 Si / 1000 Ang^3
#
#
#
# Elastic Constant Matrix: (Units=GPa)
#
#
# Indices 1 2 3 4 5 6 
#
# 1 68.8408 22.0531 -0.5512 -4.7063 25.3064 -9.9064
# 2 22.0531 143.4364 22.6369 -27.0811 23.5977 -0.5204
# 3 -0.5512 22.6369 105.8827 -6.2082 22.6262 5.9460
# 4 -4.7063 -27.0811 -6.2082 36.6880 4.1889 6.3075
# 5 25.3064 23.5977 22.6262 4.1889 52.7047 -3.4703
# 6 -9.9064 -0.5204 5.9460 6.3075 -3.4703 46.5023
#
#
#
# Elastic Compliance Matrix: (Units=1/GPa)
#
#
# Indices 1 2 3 4 5 6 
#
# 1 0.019055 -0.001220 0.002432 0.002603 -0.009679 0.002659
# 2 -0.001220 0.009280 -0.000642 0.007270 -0.003961 -0.001356
# 3 0.002432 -0.000642 0.011129 0.002702 -0.005986 -0.001725
# 4 0.002603 0.007270 0.002702 0.035307 -0.008810 -0.005156
# 5 -0.009679 -0.003961 -0.005986 -0.008810 0.028796 0.002003
# 6 0.002659 -0.001356 -0.001725 -0.005156 0.002003 0.023125
#
#
# Mechanical properties :
#
#
# Convention : Reuss Voigt Hill
#
# Bulk Modulus (GPa) = 24.62804 45.15970 34.89387
# Shear Modulus (GPa) = 35.94880 45.44706 40.69793
#
# Velocity S-wave (km/s) = 3.88821 4.37180 4.13708
# Velocity P-wave (km/s) = 5.52402 6.66898 6.12332
#
# Compressibility (1/GPa) = 0.04060413
#
# Stress axis : x y z
#
# Youngs Moduli (GPa) = 52.47895 107.76008 89.85748
#
# Poissons Ratio (x) = 0.13146 -0.21850
# Poissons Ratio (y) = 0.06402 0.05764
# Poissons Ratio (z) = -0.12761 0.06913
#
# Static dielectric constant tensor:
#      x y z
#    x 1.946670 -0.041740 0.108530 
#    y -0.041740 1.821760 0.128020 
#    z 0.108530 0.128020 1.806880 
# 
# From -- ./inp_files/353982.got.cif
#   From: 2010.05.17/outbox.cif.g08.bks.cpg/sg2_177_cif.got.tgz:353982.got - 2010.06.03 11:33:40.
