data_PCOD9030587
_publ_section_title
;
Structure prediction by ZEFSAII (Michael W. Deem and Ramdas Pophale) SiO2 
 PCOD9030587
Probable space group: P -1
;
_chemical_formula_sum "Si O2"
_cell_formula_units_Z 13
_cell_length_a 8.908426
_cell_length_b 9.341940
_cell_length_c 12.043103
_cell_angle_alpha 71.453063
_cell_angle_beta 136.803342
_cell_angle_gamma 130.396312
_cell_volume 499.045976
_symmetry_space_group_name_H-M "P -1"
_symmetry_group_IT_number 2
_symmetry_cell_setting 'triclinic'
loop_
_space_group_symop_operation_xyz
x,y,z
-x,-y,-z
loop_
_atom_site_type_symbol
_atom_site_label
_atom_site_fract_x
_atom_site_fract_y
_atom_site_fract_z
Si Si1 0.449947 0.468099 0.285224
Si Si2 0.954439 0.385860 0.391639
Si Si3 0.000000 0.500000 0.000000
Si Si4 0.067399 0.682124 0.217717
Si Si5 0.255249 0.153340 0.765228
Si Si6 0.651774 0.959637 0.377594
Si Si7 0.964833 0.986626 0.853149
O O1 0.751619 0.576745 0.486254
O O2 0.586200 0.615158 0.213666
O O3 0.304056 0.240786 0.255236
O O4 0.206083 0.476062 0.194494
O O5 0.899741 0.482391 0.243639
O O6 0.000000 0.500000 0.500000
O O7 0.703241 0.158525 0.336240
O O8 0.008043 0.373057 0.938303
O O9 0.407782 0.814152 0.368245
O O10 0.036062 0.834115 0.214851
O O11 0.941582 0.027807 0.572685
O O12 0.418286 0.133555 0.760988
O O13 0.216872 0.053685 0.885913
O O14 0.000000 0.000000 0.000000
#
# Coordination Sequence:
#
# PCOD9030587 Si02
#       7
#     2   2   1   2   2   2   2
#     4  11  24  48  70 102 146 179 238 290 347 420
#     4  11  25  45  76 108 135 186 242 295 351 408
#     4  12  26  46  68 108 146 190 228 284 364 420
#     4  12  25  47  71 102 146 181 238 295 343 428
#     4  10  23  43  70 102 133 178 239 290 340 414
#     4  10  22  42  72 101 131 179 234 294 349 396
#     4  12  26  44  68 101 143 191 226 282 363 418
#
# _framework density 26.049704999999999
#
# number of rings (size 3 to 8) (size 9 to 14) (size 15 to 20)
#    0.000    0.923    3.077    3.692    2.154    3.077 
#    5.538    2.308    0.000    0.000    0.000    0.000 
#    0.000    0.000    0.000    0.000    0.000    0.000 
#
# Total GULP energy -72372.970927 kJ/mol
# GULP energy per Si atom -5567.151610 kJ/mol
# Density = 2.599041 g / cm^3
# Si number density = 26.049705 Si / 1000 Ang^3
#
#
#
# Elastic Constant Matrix: (Units=GPa)
#
#
# Indices 1 2 3 4 5 6 
#
# 1 68.1672 6.4391 14.9771 -5.8115 -14.2173 -4.4542
# 2 6.4391 148.4774 12.7608 -3.1776 -27.5660 -2.6227
# 3 14.9771 12.7608 45.8953 -10.2719 -4.7696 4.3365
# 4 -5.8115 -3.1776 -10.2719 25.5078 0.1716 -8.6685
# 5 -14.2173 -27.5660 -4.7696 0.1716 43.4189 -10.1089
# 6 -4.4542 -2.6227 4.3365 -8.6685 -10.1089 46.2555
#
#
#
# Elastic Compliance Matrix: (Units=1/GPa)
#
#
# Indices 1 2 3 4 5 6 
#
# 1 0.017712 0.001111 -0.004970 0.003635 0.006979 0.004441
# 2 0.001111 0.007981 -0.001930 0.001184 0.005730 0.002215
# 3 -0.004970 -0.001930 0.025969 0.008578 -0.000383 -0.001499
# 4 0.003635 0.001184 0.008578 0.046814 0.004901 0.009457
# 5 0.006979 0.005730 -0.000383 0.004901 0.030920 0.008709
# 6 0.004441 0.002215 -0.001499 0.009457 0.008709 0.025988
#
#
# Mechanical properties :
#
#
# Convention : Reuss Voigt Hill
#
# Bulk Modulus (GPa) = 24.94786 36.76598 30.85692
# Shear Modulus (GPa) = 27.72767 38.26064 32.99416
#
# Velocity S-wave (km/s) = 3.26608 3.83659 3.56277
# Velocity P-wave (km/s) = 4.88066 5.81123 5.36615
#
# Compressibility (1/GPa) = 0.04008360
#
# Stress axis : x y z
#
# Youngs Moduli (GPa) = 56.45778 125.29823 38.50757
#
# Poissons Ratio (x) = -0.13919 0.19138
# Poissons Ratio (y) = -0.06272 0.07433
# Poissons Ratio (z) = 0.28059 0.24187
#
# Static dielectric constant tensor:
#      x y z
#    x 2.190680 0.055310 0.095670 
#    y 0.055310 2.086350 0.007730 
#    z 0.095670 0.007730 2.187490 
# 
# From -- ./inp_files/378493.got.cif
#   From: 2010.05.17/outbox.cif.g08.bks.cpg/sg2_190_cif.got.tgz:378493.got - 2010.06.03 11:33:40.
