data_PCOD9030549
_publ_section_title
;
Structure prediction by ZEFSAII (Michael W. Deem and Ramdas Pophale) SiO2 
 PCOD9030549
Probable space group: P -1
;
_chemical_formula_sum "Si O2"
_cell_formula_units_Z 16
_cell_length_a 24.615764
_cell_length_b 8.030493
_cell_length_c 10.545917
_cell_angle_alpha 44.237372
_cell_angle_beta 32.647640
_cell_angle_gamma 33.721906
_cell_volume 623.444370
_symmetry_space_group_name_H-M "P -1"
_symmetry_group_IT_number 2
_symmetry_cell_setting 'triclinic'
loop_
_space_group_symop_operation_xyz
x,y,z
-x,-y,-z
loop_
_atom_site_type_symbol
_atom_site_label
_atom_site_fract_x
_atom_site_fract_y
_atom_site_fract_z
Si Si1 0.075646 0.364352 0.238999
Si Si2 0.689510 0.911208 0.442934
Si Si3 0.113498 0.982317 0.032997
Si Si4 0.471217 0.289525 0.467050
Si Si5 0.425284 0.865202 0.188231
Si Si6 0.824325 0.298589 0.204057
Si Si7 0.159065 0.767565 0.506639
Si Si8 0.819827 0.615485 0.710454
O O1 0.110204 0.429934 0.271416
O O2 0.924083 0.539803 0.440733
O O3 0.144526 0.009310 0.307378
O O4 0.131918 0.490555 0.972253
O O5 0.727117 0.578922 0.550754
O O6 0.563607 0.150525 0.481187
O O7 0.660609 0.039548 0.570077
O O8 0.808161 0.892464 0.172416
O O9 0.190343 0.655410 0.125563
O O10 0.102858 0.928360 0.932847
O O11 0.975832 0.174087 0.261907
O O12 0.493543 0.512503 0.230477
O O13 0.320583 0.490093 0.672935
O O14 0.500000 0.000000 0.500000
O O15 0.319658 0.075129 0.177590
O O16 0.500000 0.000000 0.000000
O O17 0.830634 0.163392 0.403041
#
# Coordination Sequence:
#
# PCOD9030549 Si02
#       8
#     2   2   2   2   2   2   2   2
#     4   9  21  38  68 100 132 168 226 287 333 405
#     4  12  26  43  65  97 140 179 227 282 352 413
#     4  10  22  42  71  98 134 176 223 284 344 420
#     4  12  26  47  67  97 134 184 237 288 337 415
#     4  12  27  44  71  98 136 187 233 284 351 415
#     4  11  22  41  73  96 134 182 231 279 348 408
#     4  11  23  43  66 106 138 176 224 283 350 416
#     4   9  20  41  64  98 130 168 225 283 339 402
#
# _framework density 25.663878
#
# number of rings (size 3 to 8) (size 9 to 14) (size 15 to 20)
#    0.000    1.250    2.500    3.375    5.250    1.000 
#    2.250    2.500    0.000    0.000    0.000    0.000 
#    0.000    0.000    0.000    0.000    0.000    0.000 
#
# Total GULP energy -89527.325525 kJ/mol
# GULP energy per Si atom -5595.457845 kJ/mol
# Density = 2.560547 g / cm^3
# Si number density = 25.663878 Si / 1000 Ang^3
#
#
#
# Elastic Constant Matrix: (Units=GPa)
#
#
# Indices 1 2 3 4 5 6 
#
# 1 49.1965 16.5721 11.3255 3.3230 -3.2051 4.6631
# 2 16.5721 167.7848 40.0879 -28.6394 -13.6572 -6.9338
# 3 11.3255 40.0879 89.6286 -34.0858 -31.3696 3.5203
# 4 3.3230 -28.6394 -34.0858 40.5667 3.6600 -5.4187
# 5 -3.2051 -13.6572 -31.3696 3.6600 30.0178 3.3977
# 6 4.6631 -6.9338 3.5203 -5.4187 3.3977 45.8106
#
#
#
# Elastic Compliance Matrix: (Units=1/GPa)
#
#
# Indices 1 2 3 4 5 6 
#
# 1 0.023498 -0.002830 -0.006743 -0.009618 -0.004300 -0.003121
# 2 -0.002830 0.007463 -0.000456 0.005218 0.001761 0.001939
# 3 -0.006743 -0.000456 0.031693 0.024055 0.029390 -0.001153
# 4 -0.009618 0.005218 0.024055 0.048064 0.020159 0.004110
# 5 -0.004300 0.001761 0.029390 0.020159 0.062341 -0.003793
# 6 -0.003121 0.001939 -0.001153 0.004110 -0.003793 0.023296
#
#
# Mechanical properties :
#
#
# Convention : Reuss Voigt Hill
#
# Bulk Modulus (GPa) = 23.47723 49.17566 36.32645
# Shear Modulus (GPa) = 21.68152 39.18731 30.43441
#
# Velocity S-wave (km/s) = 2.90974 3.91185 3.44740
# Velocity P-wave (km/s) = 4.52290 6.29337 5.48011
#
# Compressibility (1/GPa) = 0.04259446
#
# Stress axis : x y z
#
# Youngs Moduli (GPa) = 42.55721 134.00310 31.55296
#
# Poissons Ratio (x) = 0.37928 0.21277
# Poissons Ratio (y) = 0.12045 0.01437
# Poissons Ratio (z) = 0.28698 0.06105
#
# Static dielectric constant tensor:
#      x y z
#    x 1.957050 0.197810 0.048930 
#    y 0.197810 1.620410 -0.179680 
#    z 0.048930 -0.179680 2.066250 
# 
# From -- ./inp_files/429070.got.cif
#   From: 2010.05.17/outbox.cif.g08.bks.cpg/sg2_215_cif.got.tgz:429070.got - 2010.06.03 11:33:40.
