data_PCOD9030186
_publ_section_title
;
Structure prediction by ZEFSAII (Michael W. Deem and Ramdas Pophale) SiO2 
 PCOD9030186
Probable space group: P -1
;
_chemical_formula_sum "Si O2"
_cell_formula_units_Z 16
_cell_length_a 8.789820
_cell_length_b 9.435218
_cell_length_c 17.552809
_cell_angle_alpha 46.708439
_cell_angle_beta 56.162178
_cell_angle_gamma 43.063815
_cell_volume 718.910340
_symmetry_space_group_name_H-M "P -1"
_symmetry_group_IT_number 2
_symmetry_cell_setting 'triclinic'
loop_
_space_group_symop_operation_xyz
x,y,z
-x,-y,-z
loop_
_atom_site_type_symbol
_atom_site_label
_atom_site_fract_x
_atom_site_fract_y
_atom_site_fract_z
Si Si1 0.741354 0.148136 0.704178
Si Si2 0.350215 0.246364 0.676788
Si Si3 0.436787 0.101590 0.395007
Si Si4 0.950461 0.225056 0.478059
Si Si5 0.317790 0.985479 0.012786
Si Si6 0.516039 0.467119 0.787063
Si Si7 0.173676 0.006179 0.892347
Si Si8 0.079037 0.769134 0.876836
O O1 0.584189 0.112882 0.707295
O O2 0.883797 0.200790 0.590573
O O3 0.563817 0.373275 0.722620
O O4 0.913831 0.941600 0.791208
O O5 0.251347 0.521737 0.591764
O O6 0.161598 0.228984 0.777337
O O7 0.413680 0.110380 0.628640
O O8 0.468501 0.311681 0.295655
O O9 0.176343 0.210380 0.417971
O O10 0.500000 0.000000 0.500000
O O11 0.000000 0.000000 0.500000
O O12 0.307800 0.769217 0.126788
O O13 0.084411 0.226921 0.016341
O O14 0.500000 0.000000 0.000000
O O15 0.363457 0.932517 0.930570
O O16 0.280735 0.544551 0.859582
O O17 0.200025 0.854111 0.867363
O O18 0.000000 0.000000 0.000000
#
# Coordination Sequence:
#
# PCOD9030186 Si02
#       8
#     2   2   2   2   2   2   2   2
#     4  11  25  44  71 101 148 183 234 297 347 438
#     4  12  26  47  71 104 146 186 236 299 355 426
#     4  12  27  45  73 109 142 185 237 289 366 432
#     4  12  28  45  72 106 141 190 237 290 366 434
#     4  10  23  45  68 105 144 185 240 296 350 414
#     4  11  24  42  74 103 141 188 236 289 352 423
#     4  10  22  43  70 101 141 182 235 297 348 413
#     4  10  22  42  70 100 139 182 237 283 358 413
#
# _framework density 22.255904999999998
#
# number of rings (size 3 to 8) (size 9 to 14) (size 15 to 20)
#    0.000    1.000    2.500    3.375    8.750    2.000 
#    0.000    0.000    0.000    0.000    0.000    0.000 
#    0.000    0.000    0.000    0.000    0.000    0.000 
#
# Total GULP energy -89194.728502 kJ/mol
# GULP energy per Si atom -5574.670531 kJ/mol
# Density = 2.220525 g / cm^3
# Si number density = 22.255905 Si / 1000 Ang^3
#
#
#
# Elastic Constant Matrix: (Units=GPa)
#
#
# Indices 1 2 3 4 5 6 
#
# 1 91.1244 24.3427 24.0547 5.9172 14.2865 18.1506
# 2 24.3427 113.4793 38.7551 17.2501 7.2887 13.7523
# 3 24.0547 38.7551 111.8574 6.4832 5.0519 15.5079
# 4 5.9172 17.2501 6.4832 31.8220 1.7081 -4.2728
# 5 14.2865 7.2887 5.0519 1.7081 41.1420 8.1058
# 6 18.1506 13.7523 15.5079 -4.2728 8.1058 34.3474
#
#
#
# Elastic Compliance Matrix: (Units=1/GPa)
#
#
# Indices 1 2 3 4 5 6 
#
# 1 0.013388 -0.001195 -0.001443 -0.002117 -0.003093 -0.005478
# 2 -0.001195 0.011341 -0.002873 -0.005756 -0.000364 -0.003243
# 3 -0.001443 -0.002873 0.010706 -0.000790 0.000339 -0.003099
# 4 -0.002117 -0.005756 -0.000790 0.036330 -0.001355 0.008619
# 5 -0.003093 -0.000364 0.000339 -0.001355 0.026399 -0.004772
# 6 -0.005478 -0.003243 -0.003099 0.008619 -0.004772 0.036905
#
#
# Mechanical properties :
#
#
# Convention : Reuss Voigt Hill
#
# Bulk Modulus (GPa) = 40.96134 54.52956 47.74545
# Shear Modulus (GPa) = 32.41974 36.74952 34.58463
#
# Velocity S-wave (km/s) = 3.82079 4.06794 3.94630
# Velocity P-wave (km/s) = 6.15705 6.82777 6.50107
#
# Compressibility (1/GPa) = 0.02441326
#
# Stress axis : x y z
#
# Youngs Moduli (GPa) = 74.69578 88.17687 93.40777
#
# Poissons Ratio (x) = 0.10533 0.13481
# Poissons Ratio (y) = 0.08923 0.26834
# Poissons Ratio (z) = 0.10780 0.25331
#
# Static dielectric constant tensor:
#      x y z
#    x 1.917820 -0.029690 -0.024140 
#    y -0.029690 1.827720 0.007680 
#    z -0.024140 0.007680 1.833510 
# 
# From -- ./inp_files/555892.got.cif
#   From: 2010.05.17/outbox.cif.g08.bks.cpg/sg2_278_cif.got.tgz:555892.got - 2010.06.03 11:33:40.
