data_PCOD9030906
_publ_section_title
;
Structure prediction by ZEFSAII (Michael W. Deem and Ramdas Pophale) SiO2 
 PCOD9030906
Probable space group: P -1
;
_chemical_formula_sum "Si O2"
_cell_formula_units_Z 15
_cell_length_a 15.178100
_cell_length_b 5.384862
_cell_length_c 23.594052
_cell_angle_alpha 82.228817
_cell_angle_beta 161.697977
_cell_angle_gamma 92.333955
_cell_volume 575.701370
_symmetry_space_group_name_H-M "P -1"
_symmetry_group_IT_number 2
_symmetry_cell_setting 'triclinic'
loop_
_space_group_symop_operation_xyz
x,y,z
-x,-y,-z
loop_
_atom_site_type_symbol
_atom_site_label
_atom_site_fract_x
_atom_site_fract_y
_atom_site_fract_z
Si Si1 0.360371 0.803990 0.387515
Si Si2 0.282321 0.283324 0.089149
Si Si3 0.401435 0.429004 0.656120
Si Si4 0.697056 0.032884 0.172749
Si Si5 0.771192 0.851633 0.342430
Si Si6 0.000000 0.000000 0.000000
Si Si7 0.173932 0.384722 0.907603
Si Si8 0.807286 0.742625 0.575170
O O1 0.500000 0.500000 0.500000
O O2 0.477489 0.853911 0.394744
O O3 0.024844 0.819969 0.197333
O O4 0.500000 0.000000 0.500000
O O5 0.480386 0.334314 0.259523
O O6 0.469059 0.064682 0.168294
O O7 0.184474 0.505135 0.973537
O O8 0.010425 0.238815 0.956377
O O9 0.687316 0.179107 0.830930
O O10 0.223061 0.443037 0.489389
O O11 0.227657 0.379920 0.606930
O O12 0.764515 0.822752 0.271638
O O13 0.001953 0.075451 0.337300
O O14 0.484928 0.280203 0.069027
O O15 0.500000 0.000000 0.000000
O O16 0.000000 0.000000 0.500000
O O17 0.990376 0.592428 0.744223
#
# Coordination Sequence:
#
# PCOD9030906 Si02
#       8
#     2   2   2   2   2   1   2   2
#     4  10  22  44  67  98 139 183 232 292 357 426
#     4  10  23  42  68  93 132 178 220 276 351 415
#     4  11  23  43  68  97 131 177 226 278 352 411
#     4  11  23  40  67  95 136 180 226 286 347 416
#     4  10  22  43  61  96 132 169 226 278 338 411
#     4  10  22  44  66  98 130 164 224 284 328 420
#     4  10  23  44  62 101 134 180 228 286 351 421
#     4  11  23  42  66 102 133 177 236 287 342 426
#
# _framework density 26.055174999999998
#
# number of rings (size 3 to 8) (size 9 to 14) (size 15 to 20)
#    0.000    1.600    1.333    2.400    1.867    1.600 
#   26.400    0.000    0.000    0.000    0.000    0.000 
#    0.000    0.000    0.000    0.000    0.000    0.000 
#
# Total GULP energy -83504.976569 kJ/mol
# GULP energy per Si atom -5566.998438 kJ/mol
# Density = 2.599587 g / cm^3
# Si number density = 26.055175 Si / 1000 Ang^3
#
#
#
# Elastic Constant Matrix: (Units=GPa)
#
#
# Indices 1 2 3 4 5 6 
#
# 1 219.9248 34.2697 49.0403 29.8161 -4.4597 25.1857
# 2 34.2697 54.0873 32.8069 16.3851 5.7215 0.8414
# 3 49.0403 32.8069 125.8212 23.4798 -0.9340 7.3098
# 4 29.8161 16.3851 23.4798 34.5349 1.9389 -1.6119
# 5 -4.4597 5.7215 -0.9340 1.9389 68.6172 8.5498
# 6 25.1857 0.8414 7.3098 -1.6119 8.5498 36.3781
#
#
#
# Elastic Compliance Matrix: (Units=1/GPa)
#
#
# Indices 1 2 3 4 5 6 
#
# 1 0.006163 -0.002280 -0.000792 -0.003982 0.001256 -0.004526
# 2 -0.002280 0.024869 -0.004523 -0.006520 -0.002371 0.002181
# 3 -0.000792 -0.004523 0.010358 -0.004343 0.000815 -0.001812
# 4 -0.003982 -0.006520 -0.004343 0.038804 -0.001603 0.005876
# 5 0.001256 -0.002371 0.000815 -0.001603 0.015494 -0.004691
# 6 -0.004526 0.002181 -0.001812 0.005876 -0.004691 0.032300
#
#
# Mechanical properties :
#
#
# Convention : Reuss Voigt Hill
#
# Bulk Modulus (GPa) = 38.17054 70.22969 54.20011
# Shear Modulus (GPa) = 32.91397 46.82046 39.86722
#
# Velocity S-wave (km/s) = 3.55807 4.24367 3.91590
# Velocity P-wave (km/s) = 5.61796 7.14314 6.42596
#
# Compressibility (1/GPa) = 0.02619822
#
# Stress axis : x y z
#
# Youngs Moduli (GPa) = 162.26754 40.21038 96.54787
#
# Poissons Ratio (x) = 0.09170 0.07646
# Poissons Ratio (y) = 0.37005 0.43670
# Poissons Ratio (z) = 0.12851 0.18188
#
# Static dielectric constant tensor:
#      x y z
#    x 2.235310 -0.567130 0.459320 
#    y -0.567130 4.080610 -1.668080 
#    z 0.459320 -1.668080 3.503540 
# 
# From -- ./inp_files/109147.got.cif
#   From: 2010.05.17/outbox.cif.g08.bks.cpg/sg2_55_cif.got.tgz:109147.got - 2010.06.03 11:33:40.
