data_PCOD9030557
_publ_section_title
;
Structure prediction by ZEFSAII (Michael W. Deem and Ramdas Pophale) SiO2 
 PCOD9030557
Probable space group: P -1
;
_chemical_formula_sum "Si O2"
_cell_formula_units_Z 16
_cell_length_a 9.875348
_cell_length_b 22.350792
_cell_length_c 5.682519
_cell_angle_alpha 55.889023
_cell_angle_beta 71.286968
_cell_angle_gamma 40.520030
_cell_volume 661.607560
_symmetry_space_group_name_H-M "P -1"
_symmetry_group_IT_number 2
_symmetry_cell_setting 'triclinic'
loop_
_space_group_symop_operation_xyz
x,y,z
-x,-y,-z
loop_
_atom_site_type_symbol
_atom_site_label
_atom_site_fract_x
_atom_site_fract_y
_atom_site_fract_z
Si Si1 0.899008 0.974203 0.264118
Si Si2 0.264365 0.080292 0.852239
Si Si3 0.411635 0.806465 0.872714
Si Si4 0.891235 0.469720 0.834385
Si Si5 0.821206 0.728041 0.588460
Si Si6 0.283144 0.325876 0.620699
Si Si7 0.373424 0.546020 0.219759
Si Si8 0.863381 0.215503 0.125656
O O1 0.739684 0.985278 0.176931
O O2 0.070558 0.853866 0.528383
O O3 0.770737 0.065101 0.334261
O O4 0.000000 0.000000 0.000000
O O5 0.201381 0.179760 0.546582
O O6 0.076615 0.138336 0.018553
O O7 0.500000 0.000000 0.000000
O O8 0.612979 0.764470 0.720213
O O9 0.318303 0.765341 0.935479
O O10 0.488598 0.768731 0.183443
O O11 0.757718 0.590478 0.712006
O O12 0.761380 0.476551 0.690795
O O13 0.120739 0.405663 0.745223
O O14 0.961593 0.387860 0.179156
O O15 0.798563 0.717885 0.348735
O O16 0.500000 0.500000 0.500000
O O17 0.500000 0.500000 0.000000
O O18 0.223796 0.672365 0.028084
#
# Coordination Sequence:
#
# PCOD9030557 Si02
#       8
#     2   2   2   2   2   2   2   2
#     4  12  27  46  75 103 148 196 255 315 397 463
#     4  12  27  46  76 109 150 198 253 321 397 471
#     4  11  25  43  71 109 141 197 253 312 386 472
#     4  10  23  43  67 102 142 197 251 319 382 456
#     4  11  24  41  72 103 146 190 252 315 385 464
#     4  10  22  42  71  98 145 190 253 311 387 459
#     4  12  30  48  78 114 159 206 265 321 395 475
#     4  12  28  48  77 107 157 200 259 324 396 465
#
# _framework density 24.183520000000001
#
# number of rings (size 3 to 8) (size 9 to 14) (size 15 to 20)
#    0.000    0.750    1.250    4.500   10.500    4.000 
#    0.000    0.000    0.000    0.000    0.000    0.000 
#    0.000    0.000    0.000    0.000    0.000    0.000 
#
# Total GULP energy -89484.570461 kJ/mol
# GULP energy per Si atom -5592.785654 kJ/mol
# Density = 2.412848 g / cm^3
# Si number density = 24.183520 Si / 1000 Ang^3
#
#
#
# Elastic Constant Matrix: (Units=GPa)
#
#
# Indices 1 2 3 4 5 6 
#
# 1 136.7370 9.8239 22.9662 -2.8916 -3.8201 9.9944
# 2 9.8239 82.9751 14.5534 -9.7420 -17.7775 4.0453
# 3 22.9662 14.5534 80.1324 -21.3331 5.2991 -9.6687
# 4 -2.8916 -9.7420 -21.3331 39.1963 0.5207 -10.9535
# 5 -3.8201 -17.7775 5.2991 0.5207 44.0061 -2.7232
# 6 9.9944 4.0453 -9.6687 -10.9535 -2.7232 42.8830
#
#
#
# Elastic Compliance Matrix: (Units=1/GPa)
#
#
# Indices 1 2 3 4 5 6 
#
# 1 0.008084 -0.000315 -0.003249 -0.002121 0.000800 -0.003078
# 2 -0.000315 0.014038 -0.002502 0.001748 0.005863 -0.000996
# 3 -0.003249 -0.002502 0.017950 0.011095 -0.003110 0.007677
# 4 -0.002121 0.001748 0.011095 0.035125 -0.000501 0.011771
# 5 0.000800 0.005863 -0.003110 -0.000501 0.025546 0.000053
# 6 -0.003078 -0.000996 0.007677 0.011771 0.000053 0.028871
#
#
# Mechanical properties :
#
#
# Convention : Reuss Voigt Hill
#
# Bulk Modulus (GPa) = 35.78868 43.83684 39.81276
# Shear Modulus (GPa) = 33.09967 42.05047 37.57507
#
# Velocity S-wave (km/s) = 3.70359 4.17442 3.94604
# Velocity P-wave (km/s) = 5.75497 6.43432 6.10411
#
# Compressibility (1/GPa) = 0.02794180
#
# Stress axis : x y z
#
# Youngs Moduli (GPa) = 123.70083 71.23666 55.70887
#
# Poissons Ratio (x) = 0.02242 0.18097
# Poissons Ratio (y) = 0.03894 0.13938
# Poissons Ratio (z) = 0.40185 0.17822
#
# Static dielectric constant tensor:
#      x y z
#    x 2.020310 -0.178050 -0.051820 
#    y -0.178050 2.073350 0.118640 
#    z -0.051820 0.118640 2.121330 
# 
# From -- ./inp_files/52460.got.cif
#   From: 2010.05.17/outbox.cif.g08.bks.cpg/sg2_27_cif.got.tgz:52460.got - 2010.06.03 11:33:40.
