data_PCOD9030614
_publ_section_title
;
Structure prediction by ZEFSAII (Michael W. Deem and Ramdas Pophale) SiO2 
 PCOD9030614
Probable space group: P -1
;
_chemical_formula_sum "Si O2"
_cell_formula_units_Z 16
_cell_length_a 17.074672
_cell_length_b 7.865660
_cell_length_c 11.341332
_cell_angle_alpha 133.427284
_cell_angle_beta 133.061689
_cell_angle_gamma 36.703416
_cell_volume 630.009897
_symmetry_space_group_name_H-M "P -1"
_symmetry_group_IT_number 2
_symmetry_cell_setting 'triclinic'
loop_
_space_group_symop_operation_xyz
x,y,z
-x,-y,-z
loop_
_atom_site_type_symbol
_atom_site_label
_atom_site_fract_x
_atom_site_fract_y
_atom_site_fract_z
Si Si1 0.430641 0.953994 0.665523
Si Si2 0.314906 0.924470 0.775341
Si Si3 0.765673 0.149502 0.918564
Si Si4 0.040717 0.140879 0.482771
Si Si5 0.506104 0.766784 0.306519
Si Si6 0.987387 0.238570 0.860350
Si Si7 0.706090 0.596824 0.878515
Si Si8 0.838083 0.805508 0.606363
O O1 0.373185 0.982245 0.749020
O O2 0.590611 0.666834 0.701472
O O3 0.432990 0.214058 0.743082
O O4 0.325049 0.966250 0.477088
O O5 0.399546 0.571368 0.710731
O O6 0.157521 0.077822 0.658689
O O7 0.323874 0.093621 0.972158
O O8 0.645144 0.134762 0.820315
O O9 0.702942 0.453297 0.927759
O O10 0.861899 0.893110 0.796989
O O11 0.869448 0.063365 0.088542
O O12 0.088752 0.167302 0.414440
O O13 0.896284 0.464596 0.508655
O O14 0.039367 0.863563 0.337169
O O15 0.500000 0.000000 0.500000
O O16 0.855738 0.370286 0.869445
O O17 0.000000 0.500000 0.000000
#
# Coordination Sequence:
#
# PCOD9030614 Si02
#       8
#     2   2   2   2   2   2   2   2
#     4  11  25  45  76 103 149 183 248 291 365 421
#     4  11  27  48  74 106 145 195 242 296 364 425
#     4  12  25  45  72 101 145 188 243 290 365 428
#     4  10  24  43  73 101 139 185 243 289 359 428
#     4  12  27  45  75 110 143 190 240 299 359 433
#     4  12  28  44  69 106 146 189 236 303 358 427
#     4  12  26  48  73 105 145 193 239 304 359 430
#     4  10  22  42  72 104 135 191 234 297 352 430
#
# _framework density 25.396426999999999
#
# number of rings (size 3 to 8) (size 9 to 14) (size 15 to 20)
#    0.000    0.750    3.750    2.250    8.750    2.500 
#    0.000    1.875    0.000    0.000    0.000    0.000 
#    0.000    0.000    0.000    0.000    0.000    0.000 
#
# Total GULP energy -89655.926445 kJ/mol
# GULP energy per Si atom -5603.495403 kJ/mol
# Density = 2.533862 g / cm^3
# Si number density = 25.396427 Si / 1000 Ang^3
#
#
#
# Elastic Constant Matrix: (Units=GPa)
#
#
# Indices 1 2 3 4 5 6 
#
# 1 110.8729 40.3732 10.6153 -1.5583 24.9549 15.6479
# 2 40.3732 125.3959 65.1193 1.4071 15.5259 3.2086
# 3 10.6153 65.1193 108.7161 7.8251 15.9365 -5.1427
# 4 -1.5583 1.4071 7.8251 58.2503 -3.8617 11.6214
# 5 24.9549 15.5259 15.9365 -3.8617 28.2177 -8.2156
# 6 15.6479 3.2086 -5.1427 11.6214 -8.2156 30.8049
#
#
#
# Elastic Compliance Matrix: (Units=1/GPa)
#
#
# Indices 1 2 3 4 5 6 
#
# 1 0.015665 -0.004103 0.002657 0.001471 -0.016393 -0.012013
# 2 -0.004103 0.013232 -0.007703 0.000788 0.000597 -0.000718
# 3 0.002657 -0.007703 0.014717 -0.002363 -0.006430 0.001086
# 4 0.001471 0.000788 -0.002363 0.019190 -0.000258 -0.008533
# 5 -0.016393 0.000597 -0.006430 -0.000258 0.059983 0.023286
# 6 -0.012013 -0.000718 0.001086 -0.008533 0.023286 0.048250
#
#
# Mechanical properties :
#
#
# Convention : Reuss Voigt Hill
#
# Bulk Modulus (GPa) = 39.50229 64.13337 51.81783
# Shear Modulus (GPa) = 25.28147 38.71306 31.99726
#
# Velocity S-wave (km/s) = 3.15854 3.90853 3.55337
# Velocity P-wave (km/s) = 5.37493 6.75844 6.10600
#
# Compressibility (1/GPa) = 0.02531499
#
# Stress axis : x y z
#
# Youngs Moduli (GPa) = 63.83794 75.57698 67.94884
#
# Poissons Ratio (x) = 0.31006 -0.18052
# Poissons Ratio (y) = 0.26190 0.52342
# Poissons Ratio (z) = -0.16959 0.58218
#
# Static dielectric constant tensor:
#      x y z
#    x 2.017810 0.030050 0.021390 
#    y 0.030050 1.944360 0.024040 
#    z 0.021390 0.024040 1.951020 
# 
# From -- ./inp_files/540586.got.cif
#   From: 2010.05.17/outbox.cif.g08.bks.cpg/sg2_271_cif.got.tgz:540586.got - 2010.06.03 11:33:40.
