data_PCOD9030975
_publ_section_title
;
Structure prediction by ZEFSAII (Michael W. Deem and Ramdas Pophale) SiO2 
 PCOD9030975
Probable space group: P -1
;
_chemical_formula_sum "Si O2"
_cell_formula_units_Z 14
_cell_length_a 18.398257
_cell_length_b 6.426296
_cell_length_c 5.208326
_cell_angle_alpha 73.812797
_cell_angle_beta 96.851473
_cell_angle_gamma 69.281192
_cell_volume 536.610480
_symmetry_space_group_name_H-M "P -1"
_symmetry_group_IT_number 2
_symmetry_cell_setting 'triclinic'
loop_
_space_group_symop_operation_xyz
x,y,z
-x,-y,-z
loop_
_atom_site_type_symbol
_atom_site_label
_atom_site_fract_x
_atom_site_fract_y
_atom_site_fract_z
Si Si1 0.315646 0.800756 0.196537
Si Si2 0.920957 0.784837 0.601140
Si Si3 0.199179 0.691512 0.532828
Si Si4 0.896831 0.528853 0.174161
Si Si5 0.563315 0.210531 0.408785
Si Si6 0.598234 0.603696 0.977572
Si Si7 0.303420 0.194761 0.696429
O O1 0.266638 0.784528 0.432149
O O2 0.407373 0.772201 0.298394
O O3 0.331661 0.573746 0.108386
O O4 0.275262 0.032508 0.925710
O O5 0.896381 0.711874 0.339479
O O6 0.016909 0.690318 0.673450
O O7 0.876554 0.056396 0.580553
O O8 0.899676 0.638028 0.863673
O O9 0.234477 0.437086 0.483831
O O10 0.171933 0.571720 0.802992
O O11 0.476974 0.230329 0.281629
O O12 0.637099 0.974605 0.429334
O O13 0.570921 0.435291 0.198768
O O14 0.637509 0.731956 0.130385
#
# Coordination Sequence:
#
# PCOD9030975 Si02
#       7
#     2   2   2   2   2   2   2
#     4  11  25  40  63  96 130 173 230 283 341 414
#     4  10  24  47  74 106 140 180 233 277 334 415
#     4  12  25  42  68  98 141 175 221 278 350 409
#     4  10  24  47  74 105 140 183 228 280 337 407
#     4  10  22  43  63  92 128 171 231 288 338 412
#     4  10  22  43  67  89 125 177 232 286 343 400
#     4  11  25  40  63  96 130 175 227 282 348 406
#
# _framework density 26.089689
#
# number of rings (size 3 to 8) (size 9 to 14) (size 15 to 20)
#    0.000    1.429    1.429    2.143    4.000    4.000 
#    0.000    4.286    0.000    0.000    0.000    0.000 
#    0.000    0.000    0.000    0.000    0.000    0.000 
#
# Total GULP energy -78103.412412 kJ/mol
# GULP energy per Si atom -5578.815172 kJ/mol
# Density = 2.603031 g / cm^3
# Si number density = 26.089689 Si / 1000 Ang^3
#
#
#
# Elastic Constant Matrix: (Units=GPa)
#
#
# Indices 1 2 3 4 5 6 
#
# 1 121.6995 41.6302 31.2932 7.4082 -4.4548 -5.4303
# 2 41.6302 142.4891 30.2826 -29.1361 11.7824 -24.7135
# 3 31.2932 30.2826 68.9806 3.1835 1.4986 -10.1559
# 4 7.4082 -29.1361 3.1835 38.9646 -3.7505 15.7083
# 5 -4.4548 11.7824 1.4986 -3.7505 32.5293 -0.8966
# 6 -5.4303 -24.7135 -10.1559 15.7083 -0.8966 22.4509
#
#
#
# Elastic Compliance Matrix: (Units=1/GPa)
#
#
# Indices 1 2 3 4 5 6 
#
# 1 0.010540 -0.003410 -0.003065 -0.004278 0.002340 0.000496
# 2 -0.003410 0.011217 -0.002823 0.006767 -0.003472 0.005372
# 3 -0.003065 -0.002823 0.018874 -0.007000 -0.000810 0.009554
# 4 -0.004278 0.006767 -0.007000 0.043070 0.001512 -0.026828
# 5 0.002340 -0.003472 -0.000810 0.001512 0.032438 -0.003385
# 6 0.000496 0.005372 0.009554 -0.026828 -0.003385 0.073533
#
#
# Mechanical properties :
#
#
# Convention : Reuss Voigt Hill
#
# Bulk Modulus (GPa) = 45.38364 59.95346 52.66855
# Shear Modulus (GPa) = 23.18977 34.11984 28.65480
#
# Velocity S-wave (km/s) = 2.98459 3.62026 3.31769
# Velocity P-wave (km/s) = 5.41387 6.36433 5.90825
#
# Compressibility (1/GPa) = 0.02203437
#
# Stress axis : x y z
#
# Youngs Moduli (GPa) = 94.87838 89.15089 52.98361
#
# Poissons Ratio (x) = 0.30404 0.16238
# Poissons Ratio (y) = 0.32357 0.14957
# Poissons Ratio (z) = 0.29077 0.25168
#
# Static dielectric constant tensor:
#      x y z
#    x 2.071300 -0.012070 0.033330 
#    y -0.012070 2.050590 0.011950 
#    z 0.033330 0.011950 2.062560 
# 
# From -- ./inp_files/12320.got.cif
#   From: 2010.05.17/outbox.cif.g08.bks.cpg/sg2_7_cif.got.tgz:12320.got - 2010.06.03 11:33:40.
