data_PCOD9030104
_publ_section_title
;
Structure prediction by ZEFSAII (Michael W. Deem and Ramdas Pophale) SiO2 
 PCOD9030104
Probable space group: P -1
;
_chemical_formula_sum "Si O2"
_cell_formula_units_Z 14
_cell_length_a 11.404002
_cell_length_b 9.406324
_cell_length_c 8.795687
_cell_angle_alpha 46.844642
_cell_angle_beta 91.943877
_cell_angle_gamma 109.733575
_cell_volume 620.629665
_symmetry_space_group_name_H-M "P -1"
_symmetry_group_IT_number 2
_symmetry_cell_setting 'triclinic'
loop_
_space_group_symop_operation_xyz
x,y,z
-x,-y,-z
loop_
_atom_site_type_symbol
_atom_site_label
_atom_site_fract_x
_atom_site_fract_y
_atom_site_fract_z
Si Si1 0.336594 0.712354 0.142029
Si Si2 0.428758 0.192025 0.709438
Si Si3 0.091406 0.984077 0.250672
Si Si4 0.854541 0.385786 0.512341
Si Si5 0.490859 0.759863 0.656665
Si Si6 0.709848 0.617625 0.873808
Si Si7 0.824713 0.790959 0.221201
O O1 0.475477 0.741181 0.191512
O O2 0.276185 0.504925 0.184879
O O3 0.247217 0.696112 0.294054
O O4 0.363706 0.931116 0.893137
O O5 0.506317 0.278181 0.495142
O O6 0.313728 0.261914 0.675396
O O7 0.142292 0.810789 0.438304
O O8 0.937227 0.885160 0.285422
O O9 0.155456 0.199449 0.193678
O O10 0.146454 0.042280 0.037613
O O11 0.831419 0.581696 0.300225
O O12 0.000000 0.500000 0.500000
O O13 0.614836 0.733357 0.750957
O O14 0.500000 0.000000 0.500000
O O15 0.367630 0.574455 0.869612
#
# Coordination Sequence:
#
# PCOD9030104 Si02
#       7
#     2   2   2   2   2   2   2
#     4  11  24  43  70 102 136 174 228 278 337 400
#     4  11  24  43  71  97 136 180 228 278 327 412
#     4  10  23  43  67  98 136 170 227 277 332 397
#     4  10  22  42  69  97 129 176 225 272 323 405
#     4  11  25  42  64  99 140 177 220 272 343 399
#     4  11  26  42  66 103 140 172 216 289 339 392
#     4  10  22  42  71  95 126 184 226 269 332 404
#
# _framework density 22.557735999999998
#
# number of rings (size 3 to 8) (size 9 to 14) (size 15 to 20)
#    0.000    1.429    2.857    0.857    8.000    1.143 
#    0.000    7.143    0.000    0.000    0.000    0.000 
#    0.000    0.000    0.000    0.000    0.000    0.000 
#
# Total GULP energy -78315.682244 kJ/mol
# GULP energy per Si atom -5593.977303 kJ/mol
# Density = 2.250639 g / cm^3
# Si number density = 22.557736 Si / 1000 Ang^3
#
#
#
# Elastic Constant Matrix: (Units=GPa)
#
#
# Indices 1 2 3 4 5 6 
#
# 1 89.3950 42.8155 10.2355 -13.9565 16.2193 -3.2902
# 2 42.8155 121.1150 5.9701 -30.7783 20.1952 14.9781
# 3 10.2355 5.9701 75.0771 -22.8426 17.9628 -1.9783
# 4 -13.9565 -30.7783 -22.8426 36.7433 -9.3459 2.1278
# 5 16.2193 20.1952 17.9628 -9.3459 30.6775 -5.9086
# 6 -3.2902 14.9781 -1.9783 2.1278 -5.9086 25.9947
#
#
#
# Elastic Compliance Matrix: (Units=1/GPa)
#
#
# Indices 1 2 3 4 5 6 
#
# 1 0.014385 -0.005118 -0.000815 -0.000349 -0.003089 0.004034
# 2 -0.005118 0.016478 0.005499 0.013555 -0.009746 -0.013048
# 3 -0.000815 0.005499 0.019900 0.014030 -0.011636 -0.005551
# 4 -0.000349 0.013555 0.014030 0.046560 -0.005031 -0.011741
# 5 -0.003089 -0.009746 -0.011636 -0.005031 0.048986 0.015885
# 6 0.004034 -0.013048 -0.005551 -0.011741 0.015885 0.050648
#
#
# Mechanical properties :
#
#
# Convention : Reuss Voigt Hill
#
# Bulk Modulus (GPa) = 20.04149 44.84768 32.44459
# Shear Modulus (GPa) = 23.31480 33.78750 28.55115
#
# Velocity S-wave (km/s) = 3.21839 3.87437 3.56152
# Velocity P-wave (km/s) = 4.76598 6.31971 5.59702
#
# Compressibility (1/GPa) = 0.04989648
#
# Stress axis : x y z
#
# Youngs Moduli (GPa) = 69.51641 60.68710 50.25113
#
# Poissons Ratio (x) = 0.31057 0.04096
# Poissons Ratio (y) = 0.35576 -0.27635
# Poissons Ratio (z) = 0.05666 -0.33374
#
# Static dielectric constant tensor:
#      x y z
#    x 1.802980 0.008380 0.021740 
#    y 0.008380 1.836680 -0.040960 
#    z 0.021740 -0.040960 1.868940 
# 
# From -- ./inp_files/291603.got.cif
#   From: 2010.05.17/outbox.cif.g08.bks.cpg/sg2_146_cif.got.tgz:291603.got - 2010.06.03 11:33:40.
