data_PCOD9030501
_publ_section_title
;
Structure prediction by ZEFSAII (Michael W. Deem and Ramdas Pophale) SiO2 
 PCOD9030501
Probable space group: P -1
;
_chemical_formula_sum "Si O2"
_cell_formula_units_Z 16
_cell_length_a 17.652061
_cell_length_b 19.951285
_cell_length_c 8.620096
_cell_angle_alpha 31.494394
_cell_angle_beta 135.196914
_cell_angle_gamma 156.688365
_cell_volume 586.555858
_symmetry_space_group_name_H-M "P -1"
_symmetry_group_IT_number 2
_symmetry_cell_setting 'triclinic'
loop_
_space_group_symop_operation_xyz
x,y,z
-x,-y,-z
loop_
_atom_site_type_symbol
_atom_site_label
_atom_site_fract_x
_atom_site_fract_y
_atom_site_fract_z
Si Si1 0.515046 0.279728 0.170087
Si Si2 0.068502 0.531536 0.207960
Si Si3 0.144132 0.816699 0.977769
Si Si4 0.062647 0.879814 0.238574
Si Si5 0.315828 0.521606 0.305146
Si Si6 0.117999 0.248909 0.077656
Si Si7 0.471984 0.939780 0.832597
Si Si8 0.386389 0.295875 0.363339
O O1 0.472114 0.084270 0.486909
O O2 0.641441 0.459829 0.848691
O O3 0.661700 0.452078 0.189819
O O4 0.296394 0.128100 0.138227
O O5 0.971958 0.294325 0.550350
O O6 0.014471 0.589819 0.131256
O O7 0.316310 0.777272 0.074343
O O8 0.000000 0.500000 0.000000
O O9 0.014130 0.778706 0.970319
O O10 0.287091 0.064918 0.606570
O O11 0.300559 0.881498 0.163993
O O12 0.909163 0.730932 0.454512
O O13 0.980773 0.883186 0.972570
O O14 0.468106 0.601696 0.486438
O O15 0.371510 0.728079 0.998412
O O16 0.202938 0.197492 0.360415
O O17 0.500000 0.500000 0.000000
#
# Coordination Sequence:
#
# PCOD9030501 Si02
#       8
#     2   2   2   2   2   2   2   2
#     4  12  26  43  76 113 155 191 248 304 383 445
#     4  11  23  41  72 110 155 192 240 301 382 457
#     4  11  26  45  74 108 147 196 251 310 373 443
#     4  11  24  48  71 111 159 193 246 308 373 463
#     4  10  24  45  73 108 150 194 248 312 374 447
#     4  12  28  47  77 109 146 200 259 306 372 444
#     4  10  22  42  71 108 152 193 237 297 381 454
#     4  11  24  50  77 101 144 199 261 310 367 438
#
# _framework density 27.27788
#
# number of rings (size 3 to 8) (size 9 to 14) (size 15 to 20)
#    0.000    1.000    2.500    3.375    5.250    3.500 
#    0.000    0.625    0.000    0.000    0.000    0.000 
#    0.000    0.000    0.000    0.000    0.000    0.000 
#
# Total GULP energy -89624.429112 kJ/mol
# GULP energy per Si atom -5601.526820 kJ/mol
# Density = 2.721579 g / cm^3
# Si number density = 27.277880 Si / 1000 Ang^3
#
#
#
# Elastic Constant Matrix: (Units=GPa)
#
#
# Indices 1 2 3 4 5 6 
#
# 1 114.6707 35.1185 25.3574 -13.2099 8.6454 16.7675
# 2 35.1185 175.2046 16.3104 12.7942 -2.0702 27.8576
# 3 25.3574 16.3104 68.9966 7.6375 12.2551 -4.6850
# 4 -13.2099 12.7942 7.6375 26.7078 6.4851 2.0957
# 5 8.6454 -2.0702 12.2551 6.4851 41.0477 -2.0266
# 6 16.7675 27.8576 -4.6850 2.0957 -2.0266 39.1585
#
#
#
# Elastic Compliance Matrix: (Units=1/GPa)
#
#
# Indices 1 2 3 4 5 6 
#
# 1 0.012558 -0.001957 -0.005050 0.009743 -0.003035 -0.005268
# 2 -0.001957 0.007171 -0.001069 -0.004152 0.001547 -0.004089
# 3 -0.005050 -0.001069 0.018274 -0.006877 -0.003097 0.005317
# 4 0.009743 -0.004152 -0.006877 0.048589 -0.008135 -0.005062
# 5 -0.003035 0.001547 -0.003097 -0.008135 0.027372 0.001681
# 6 -0.005268 -0.004089 0.005317 -0.005062 0.001681 0.031696
#
#
# Mechanical properties :
#
#
# Convention : Reuss Voigt Hill
#
# Bulk Modulus (GPa) = 45.76119 56.93830 51.34975
# Shear Modulus (GPa) = 29.56895 40.18850 34.87873
#
# Velocity S-wave (km/s) = 3.29597 3.84252 3.57969
# Velocity P-wave (km/s) = 5.59437 6.37224 5.99593
#
# Compressibility (1/GPa) = 0.02185258
#
# Stress axis : x y z
#
# Youngs Moduli (GPa) = 79.62959 139.45001 54.72143
#
# Poissons Ratio (x) = 0.27288 0.27633
# Poissons Ratio (y) = 0.15582 0.05849
# Poissons Ratio (z) = 0.40211 0.14905
#
# Static dielectric constant tensor:
#      x y z
#    x 2.186590 0.040210 -0.064630 
#    y 0.040210 2.144740 -0.054350 
#    z -0.064630 -0.054350 2.242150 
# 
# From -- ./inp_files/349969.got.cif
#   From: 2010.05.17/outbox.cif.g08.bks.cpg/sg2_175_cif.got.tgz:349969.got - 2010.06.03 11:33:40.
