data_PCOD9030055
_publ_section_title
;
Structure prediction by ZEFSAII (Michael W. Deem and Ramdas Pophale) SiO2 
 PCOD9030055
Probable space group: P -1
;
_chemical_formula_sum "Si O2"
_cell_formula_units_Z 14
_cell_length_a 9.172814
_cell_length_b 9.240694
_cell_length_c 10.883758
_cell_angle_alpha 115.892515
_cell_angle_beta 52.754426
_cell_angle_gamma 126.353435
_cell_volume 587.073510
_symmetry_space_group_name_H-M "P -1"
_symmetry_group_IT_number 2
_symmetry_cell_setting 'triclinic'
loop_
_space_group_symop_operation_xyz
x,y,z
-x,-y,-z
loop_
_atom_site_type_symbol
_atom_site_label
_atom_site_fract_x
_atom_site_fract_y
_atom_site_fract_z
Si Si1 0.755850 0.902126 0.538102
Si Si2 0.301968 0.628588 0.621530
Si Si3 0.308492 0.872679 0.134029
Si Si4 0.448029 0.570179 0.928814
Si Si5 0.751485 0.106150 0.397769
Si Si6 0.835790 0.677154 0.604980
Si Si7 0.096719 0.373711 0.855835
O O1 0.536038 0.723154 0.578131
O O2 0.882644 0.830538 0.532992
O O3 0.704835 0.039370 0.697809
O O4 0.795655 0.955684 0.393079
O O5 0.234045 0.788904 0.700001
O O6 0.267700 0.523368 0.472320
O O7 0.185704 0.469851 0.717269
O O8 0.098476 0.816224 0.143541
O O9 0.344233 0.697036 0.066923
O O10 0.500000 0.000000 0.000000
O O11 0.662459 0.679592 0.785490
O O12 0.282185 0.410118 0.867952
O O13 0.500000 0.500000 0.000000
O O14 0.944401 0.272898 0.428818
O O15 0.500000 0.000000 0.500000
O O16 0.000000 0.500000 0.000000
#
# Coordination Sequence:
#
# PCOD9030055 Si02
#       7
#     2   2   2   2   2   2   2
#     4  11  22  43  66 100 133 180 219 283 335 399
#     4  11  23  43  69  98 132 179 228 275 339 400
#     4  11  22  45  68  95 138 178 224 273 345 395
#     4  11  26  44  69 103 133 179 229 278 330 409
#     4  10  25  41  65  99 137 173 220 284 337 392
#     4  12  23  43  69  98 141 176 230 277 333 405
#     4  10  22  42  69  94 133 182 221 271 339 407
#
# _framework density 23.847100999999999
#
# number of rings (size 3 to 8) (size 9 to 14) (size 15 to 20)
#    0.000    1.143    2.857    3.000    6.000    0.000 
#    2.571    0.714    0.000    0.000    0.000    0.000 
#    0.000    0.000    0.000    0.000    0.000    0.000 
#
# Total GULP energy -77968.299187 kJ/mol
# GULP energy per Si atom -5569.164228 kJ/mol
# Density = 2.379282 g / cm^3
# Si number density = 23.847101 Si / 1000 Ang^3
#
#
#
# Elastic Constant Matrix: (Units=GPa)
#
#
# Indices 1 2 3 4 5 6 
#
# 1 195.5651 40.6687 30.8497 -5.8641 5.6930 -0.8976
# 2 40.6687 71.8963 34.0946 -0.1294 -0.6292 15.9144
# 3 30.8497 34.0946 95.5397 7.4453 -10.5189 1.0050
# 4 -5.8641 -0.1294 7.4453 39.0722 -9.6592 10.7162
# 5 5.6930 -0.6292 -10.5189 -9.6592 22.6046 -2.0764
# 6 -0.8976 15.9144 1.0050 10.7162 -2.0764 50.3031
#
#
#
# Elastic Compliance Matrix: (Units=1/GPa)
#
#
# Indices 1 2 3 4 5 6 
#
# 1 0.005999 -0.003114 -0.001068 0.000374 -0.001847 0.000958
# 2 -0.003114 0.020266 -0.006482 0.002414 -0.001270 -0.006904
# 3 -0.001068 -0.006482 0.013909 -0.002037 0.005914 0.002432
# 4 0.000374 0.002414 -0.002037 0.030764 0.011547 -0.006794
# 5 -0.001847 -0.001270 0.005914 0.011547 0.052350 -0.000048
# 6 0.000958 -0.006904 0.002432 -0.006794 -0.000048 0.023478
#
#
# Mechanical properties :
#
#
# Convention : Reuss Voigt Hill
#
# Bulk Modulus (GPa) = 53.06393 63.80300 58.43347
# Shear Modulus (GPa) = 28.67364 39.55518 34.11441
#
# Velocity S-wave (km/s) = 3.47132 4.07713 3.78636
# Velocity P-wave (km/s) = 6.19409 6.99837 6.60848
#
# Compressibility (1/GPa) = 0.01884519
#
# Stress axis : x y z
#
# Youngs Moduli (GPa) = 166.69747 49.34406 71.89441
#
# Poissons Ratio (x) = 0.15367 0.07680
# Poissons Ratio (y) = 0.51913 0.46602
# Poissons Ratio (z) = 0.17808 0.31985
#
# Static dielectric constant tensor:
#      x y z
#    x 1.760840 0.159160 0.655410 
#    y 0.159160 1.904560 -0.546110 
#    z 0.655410 -0.546110 -0.867460 
# 
# From -- ./inp_files/236564.got.cif
#   From: 2010.05.17/outbox.cif.g08.bks.cpg/sg2_119_cif.got.tgz:236564.got - 2010.06.03 11:33:40.
