data_PCOD9030767
_publ_section_title
;
Structure prediction by ZEFSAII (Michael W. Deem and Ramdas Pophale) SiO2 
 PCOD9030767
Probable space group: P -1
;
_chemical_formula_sum "Si O2"
_cell_formula_units_Z 15
_cell_length_a 8.681895
_cell_length_b 14.000219
_cell_length_c 14.114205
_cell_angle_alpha 129.235287
_cell_angle_beta 28.399724
_cell_angle_gamma 129.953403
_cell_volume 614.629950
_symmetry_space_group_name_H-M "P -1"
_symmetry_group_IT_number 2
_symmetry_cell_setting 'triclinic'
loop_
_space_group_symop_operation_xyz
x,y,z
-x,-y,-z
loop_
_atom_site_type_symbol
_atom_site_label
_atom_site_fract_x
_atom_site_fract_y
_atom_site_fract_z
Si Si1 0.825774 0.359926 0.982524
Si Si2 0.845793 0.183030 0.721959
Si Si3 0.786240 0.129366 0.410819
Si Si4 0.824873 0.939910 0.691241
Si Si5 0.886193 0.599456 0.553452
Si Si6 0.180491 0.738916 0.878635
Si Si7 0.091356 0.147438 0.066807
Si Si8 0.500000 0.500000 0.500000
O O1 0.433841 0.357968 0.199489
O O2 0.916968 0.280936 0.971679
O O3 0.988568 0.323003 0.773608
O O4 0.000000 0.500000 0.000000
O O5 0.949556 0.135889 0.537547
O O6 0.917704 0.082693 0.695889
O O7 0.459077 0.176063 0.926031
O O8 0.104146 0.082572 0.252764
O O9 0.823521 0.269190 0.524630
O O10 0.825732 0.160759 0.298466
O O11 0.500000 0.000000 0.500000
O O12 0.462438 0.869863 0.809053
O O13 0.752324 0.541328 0.487089
O O14 0.000000 0.500000 0.500000
O O15 0.334369 0.622282 0.689563
O O16 0.915535 0.763790 0.963302
O O17 0.000000 0.000000 0.000000
#
# Coordination Sequence:
#
# PCOD9030767 Si02
#       8
#     2   2   2   2   2   2   2   1
#     4  11  26  48  71 108 144 191 251 310 382 454
#     4  11  25  44  70 104 146 187 248 304 377 451
#     4  12  26  45  73 111 149 193 254 310 383 457
#     4  11  24  46  71 102 142 197 245 310 375 453
#     4  11  24  48  74 108 147 200 249 314 384 456
#     4  11  24  45  73 106 141 196 244 307 383 448
#     4  12  24  45  70 108 148 189 241 314 382 454
#     4  10  22  42  74 100 142 192 256 294 368 466
#
# _framework density 24.404928999999999
#
# number of rings (size 3 to 8) (size 9 to 14) (size 15 to 20)
#    0.000    0.800    5.333    1.600    7.467    2.133 
#    2.400    0.667    0.000    0.000    0.000    0.000 
#    0.000    0.000    0.000    0.000    0.000    0.000 
#
# Total GULP energy -83573.607641 kJ/mol
# GULP energy per Si atom -5571.573843 kJ/mol
# Density = 2.434938 g / cm^3
# Si number density = 24.404929 Si / 1000 Ang^3
#
#
#
# Elastic Constant Matrix: (Units=GPa)
#
#
# Indices 1 2 3 4 5 6 
#
# 1 129.3910 36.8319 40.5443 27.0530 4.0624 -18.7351
# 2 36.8319 115.6793 16.9807 22.7633 0.0897 14.2659
# 3 40.5443 16.9807 65.6558 8.3073 14.4921 7.2052
# 4 27.0530 22.7633 8.3073 37.4820 5.3836 4.6719
# 5 4.0624 0.0897 14.4921 5.3836 25.7307 10.6089
# 6 -18.7351 14.2659 7.2052 4.6719 10.6089 58.8809
#
#
#
# Elastic Compliance Matrix: (Units=1/GPa)
#
#
# Indices 1 2 3 4 5 6 
#
# 1 0.013109 -0.002389 -0.007481 -0.007275 0.001189 0.006028
# 2 -0.002389 0.010928 -0.001121 -0.004716 0.003404 -0.003510
# 3 -0.007481 -0.001121 0.022489 0.003043 -0.010818 -0.003153
# 4 -0.007275 -0.004716 0.003043 0.035471 -0.006668 -0.003158
# 5 0.001189 0.003404 -0.010818 -0.006668 0.049230 -0.007464
# 6 0.006028 -0.003510 -0.003153 -0.003158 -0.007464 0.021733
#
#
# Mechanical properties :
#
#
# Convention : Reuss Voigt Hill
#
# Bulk Modulus (GPa) = 40.74024 55.49333 48.11679
# Shear Modulus (GPa) = 27.30399 38.84333 33.07366
#
# Velocity S-wave (km/s) = 3.34846 3.99384 3.68530
# Velocity P-wave (km/s) = 5.62843 6.63744 6.15365
#
# Compressibility (1/GPa) = 0.02454575
#
# Stress axis : x y z
#
# Youngs Moduli (GPa) = 76.28214 91.51027 44.46524
#
# Poissons Ratio (x) = 0.21857 0.33264
# Poissons Ratio (y) = 0.18220 0.04984
# Poissons Ratio (z) = 0.57067 0.10257
#
# Static dielectric constant tensor:
#      x y z
#    x 1.751730 -0.036670 0.022870 
#    y -0.036670 1.992260 -0.061800 
#    z 0.022870 -0.061800 2.021510 
# 
# From -- ./inp_files/505461.got.cif
#   From: 2010.05.17/outbox.cif.g08.bks.cpg/sg2_253_cif.got.tgz:505461.got - 2010.06.03 11:33:40.
