data_PCOD9030647
_publ_section_title
;
Structure prediction by ZEFSAII (Michael W. Deem and Ramdas Pophale) SiO2 
 PCOD9030647
Probable space group: P -1
;
_chemical_formula_sum "Si O2"
_cell_formula_units_Z 15
_cell_length_a 11.760316
_cell_length_b 9.590764
_cell_length_c 11.263411
_cell_angle_alpha 127.373263
_cell_angle_beta 44.597682
_cell_angle_gamma 137.640741
_cell_volume 592.156583
_symmetry_space_group_name_H-M "P -1"
_symmetry_group_IT_number 2
_symmetry_cell_setting 'triclinic'
loop_
_space_group_symop_operation_xyz
x,y,z
-x,-y,-z
loop_
_atom_site_type_symbol
_atom_site_label
_atom_site_fract_x
_atom_site_fract_y
_atom_site_fract_z
Si Si1 0.500000 0.500000 0.000000
Si Si2 0.954299 0.635684 0.745299
Si Si3 0.323183 0.755164 0.375840
Si Si4 0.153961 0.057734 0.069357
Si Si5 0.907158 0.386433 0.134300
Si Si6 0.495101 0.603569 0.324150
Si Si7 0.189091 0.153412 0.363413
Si Si8 0.542143 0.812647 0.621535
O O1 0.627917 0.755538 0.023109
O O2 0.435707 0.466399 0.876382
O O3 0.126004 0.691819 0.556331
O O4 0.973585 0.518036 0.782678
O O5 0.738342 0.465994 0.762035
O O6 0.963986 0.852011 0.854618
O O7 0.470236 0.783876 0.382788
O O8 0.389107 0.955340 0.352014
O O9 0.134697 0.059380 0.225491
O O10 0.109531 0.833538 0.958138
O O11 0.689647 0.328743 0.272760
O O12 0.000000 0.500000 0.000000
O O13 0.279305 0.400897 0.408622
O O14 0.602434 0.701213 0.419845
O O15 0.364440 0.166431 0.310007
O O16 0.000000 0.000000 0.500000
#
# Coordination Sequence:
#
# PCOD9030647 Si02
#       8
#     1   2   2   2   2   2   2   2
#     4  10  22  42  72 108 138 180 248 304 364 434
#     4  11  24  47  75 105 146 192 252 310 366 444
#     4  11  23  44  76 108 137 192 253 306 364 440
#     4  11  25  47  73 104 145 199 248 312 365 436
#     4  12  30  47  71 112 154 199 246 310 378 441
#     4  11  23  47  70 108 143 188 248 305 365 447
#     4  11  26  47  73 105 144 197 244 301 379 451
#     4  12  27  45  74 105 151 196 244 314 370 447
#
# _framework density 25.331137999999999
#
# number of rings (size 3 to 8) (size 9 to 14) (size 15 to 20)
#    0.000    0.800    4.000    2.800    7.467    2.667 
#    4.800    0.000    0.000    0.000    0.000    0.000 
#    0.000    0.000    0.000    0.000    0.000    0.000 
#
# Total GULP energy -83682.818182 kJ/mol
# GULP energy per Si atom -5578.854545 kJ/mol
# Density = 2.527348 g / cm^3
# Si number density = 25.331138 Si / 1000 Ang^3
#
#
#
# Elastic Constant Matrix: (Units=GPa)
#
#
# Indices 1 2 3 4 5 6 
#
# 1 121.4869 3.7605 22.5226 -19.1330 23.7990 -19.4491
# 2 3.7605 71.5425 42.2083 -12.9439 6.4064 -12.5264
# 3 22.5226 42.2083 95.2872 -23.6782 15.2050 -9.1360
# 4 -19.1330 -12.9439 -23.6782 57.3696 -10.1567 -1.2191
# 5 23.7990 6.4064 15.2050 -10.1567 31.4775 -2.6327
# 6 -19.4491 -12.5264 -9.1360 -1.2191 -2.6327 28.4347
#
#
#
# Elastic Compliance Matrix: (Units=1/GPa)
#
#
# Indices 1 2 3 4 5 6 
#
# 1 0.011520 0.002748 -0.001333 0.002840 -0.007028 0.008133
# 2 0.002748 0.020677 -0.008334 0.002166 -0.000865 0.008324
# 3 -0.001333 -0.008334 0.016053 0.003627 -0.003848 0.000373
# 4 0.002840 0.002166 0.003627 0.020982 0.002867 0.005227
# 5 -0.007028 -0.000865 -0.003848 0.002867 0.039824 -0.002615
# 6 0.008133 0.008324 0.000373 0.005227 -0.002615 0.044500
#
#
# Mechanical properties :
#
#
# Convention : Reuss Voigt Hill
#
# Bulk Modulus (GPa) = 29.06091 47.25550 38.15820
# Shear Modulus (GPa) = 27.95416 38.11136 33.03276
#
# Velocity S-wave (km/s) = 3.32558 3.88303 3.61506
# Velocity P-wave (km/s) = 5.12282 6.22892 5.70275
#
# Compressibility (1/GPa) = 0.03441049
#
# Stress axis : x y z
#
# Youngs Moduli (GPa) = 86.80926 48.36285 62.29491
#
# Poissons Ratio (x) = -0.13291 0.08305
# Poissons Ratio (y) = -0.23857 0.51919
# Poissons Ratio (z) = 0.11573 0.40308
#
# Static dielectric constant tensor:
#      x y z
#    x 1.866680 0.007880 0.220110 
#    y 0.007880 1.944470 0.119530 
#    z 0.220110 0.119530 2.087950 
# 
# From -- ./inp_files/244934.got.cif
#   From: 2010.05.17/outbox.cif.g08.bks.cpg/sg2_123_cif.got.tgz:244934.got - 2010.06.03 11:33:40.
