data_PCOD9030867
_publ_section_title
;
Structure prediction by ZEFSAII (Michael W. Deem and Ramdas Pophale) SiO2 
 PCOD9030867
Probable space group: P -1
;
_chemical_formula_sum "Si O2"
_cell_formula_units_Z 14
_cell_length_a 9.232166
_cell_length_b 7.929630
_cell_length_c 7.957457
_cell_angle_alpha 80.651855
_cell_angle_beta 115.119870
_cell_angle_gamma 94.714544
_cell_volume 520.388593
_symmetry_space_group_name_H-M "P -1"
_symmetry_group_IT_number 2
_symmetry_cell_setting 'triclinic'
loop_
_space_group_symop_operation_xyz
x,y,z
-x,-y,-z
loop_
_atom_site_type_symbol
_atom_site_label
_atom_site_fract_x
_atom_site_fract_y
_atom_site_fract_z
Si Si1 0.805236 0.887854 0.896019
Si Si2 0.596793 0.674371 0.015212
Si Si3 0.819614 0.550682 0.431006
Si Si4 0.701793 0.877032 0.495974
Si Si5 0.709529 0.111049 0.134843
Si Si6 0.389054 0.665420 0.424514
Si Si7 0.102538 0.672753 0.018076
O O1 0.775633 0.961785 0.685582
O O2 0.677255 0.728646 0.871603
O O3 0.981191 0.813575 0.006302
O O4 0.754941 0.996405 0.014401
O O5 0.740571 0.643992 0.218875
O O6 0.500000 0.500000 0.000000
O O7 0.467202 0.813646 0.980379
O O8 0.795545 0.699445 0.535715
O O9 0.716457 0.379912 0.455666
O O10 0.000000 0.500000 0.500000
O O11 0.515650 0.821113 0.440586
O O12 0.721270 0.003236 0.327615
O O13 0.834194 0.269132 0.143427
O O14 0.500000 0.500000 0.500000
O O15 0.259847 0.663352 0.211873
O O16 0.000000 0.500000 0.000000
#
# Coordination Sequence:
#
# PCOD9030867 Si02
#       7
#     2   2   2   2   2   2   2
#     4  12  27  50  80 120 162 209 267 334 410 476
#     4  12  26  49  81 112 156 214 266 324 399 480
#     4  11  23  46  77 117 163 209 267 330 394 475
#     4  11  26  51  82 120 160 213 269 329 409 478
#     4  12  28  53  83 116 167 207 271 340 403 486
#     4  10  22  42  77 114 160 211 269 332 391 478
#     4  12  26  49  81 113 164 214 266 333 407 480
#
# _framework density 26.902975000000001
#
# number of rings (size 3 to 8) (size 9 to 14) (size 15 to 20)
#    0.000    0.571    1.429    6.857    2.000    2.286 
#    2.571    0.000    0.000    0.000    0.000    0.000 
#    0.000    0.000    0.000    0.000    0.000    0.000 
#
# Total GULP energy -78587.887594 kJ/mol
# GULP energy per Si atom -5613.420542 kJ/mol
# Density = 2.684174 g / cm^3
# Si number density = 26.902975 Si / 1000 Ang^3
#
#
#
# Elastic Constant Matrix: (Units=GPa)
#
#
# Indices 1 2 3 4 5 6 
#
# 1 230.2874 64.1535 105.7314 -18.8266 20.0513 9.2537
# 2 64.1535 118.0100 65.9956 -13.3991 1.7793 6.8906
# 3 105.7314 65.9956 212.5346 -7.5211 -5.5702 -0.3591
# 4 -18.8266 -13.3991 -7.5211 43.1008 5.5635 -3.5601
# 5 20.0513 1.7793 -5.5702 5.5635 68.6497 -15.2158
# 6 9.2537 6.8906 -0.3591 -3.5601 -15.2158 59.2584
#
#
#
# Elastic Compliance Matrix: (Units=1/GPa)
#
#
# Indices 1 2 3 4 5 6 
#
# 1 0.006495 -0.001663 -0.002711 0.002063 -0.002544 -0.001367
# 2 -0.001663 0.011133 -0.002563 0.002257 -0.000421 -0.001023
# 3 -0.002711 -0.002563 0.006865 -0.000913 0.001746 0.001156
# 4 0.002063 0.002257 -0.000913 0.025013 -0.002714 0.000216
# 5 -0.002544 -0.000421 0.001746 -0.002714 0.016698 0.004581
# 6 -0.001367 -0.001023 0.001156 0.000216 0.004581 0.018404
#
#
# Mechanical properties :
#
#
# Convention : Reuss Voigt Hill
#
# Bulk Modulus (GPa) = 94.15527 114.73257 104.44392
# Shear Modulus (GPa) = 49.00926 55.86521 52.43723
#
# Velocity S-wave (km/s) = 4.27277 4.56185 4.41968
# Velocity P-wave (km/s) = 7.70819 8.39564 8.05925
#
# Compressibility (1/GPa) = 0.01062075
#
# Stress axis : x y z
#
# Youngs Moduli (GPa) = 153.95633 89.82063 145.66621
#
# Poissons Ratio (x) = 0.14933 0.39491
# Poissons Ratio (y) = 0.25596 0.37332
# Poissons Ratio (z) = 0.41738 0.23020
#
# Static dielectric constant tensor:
#      x y z
#    x 2.064990 0.034290 -0.042940 
#    y 0.034290 2.377680 0.061620 
#    z -0.042940 0.061620 2.100590 
# 
# From -- ./inp_files/378065.got.cif
#   From: 2010.05.17/outbox.cif.g08.bks.cpg/sg2_190_cif.got.tgz:378065.got - 2010.06.03 11:33:40.
