data_PCOD9030999
_publ_section_title
;
Structure prediction by ZEFSAII (Michael W. Deem and Ramdas Pophale) SiO2 
 PCOD9030999
Probable space group: P -1
;
_chemical_formula_sum "Si O2"
_cell_formula_units_Z 14
_cell_length_a 14.305267
_cell_length_b 13.765509
_cell_length_c 7.434634
_cell_angle_alpha 114.263267
_cell_angle_beta 98.191057
_cell_angle_gamma 29.106069
_cell_volume 566.554524
_symmetry_space_group_name_H-M "P -1"
_symmetry_group_IT_number 2
_symmetry_cell_setting 'triclinic'
loop_
_space_group_symop_operation_xyz
x,y,z
-x,-y,-z
loop_
_atom_site_type_symbol
_atom_site_label
_atom_site_fract_x
_atom_site_fract_y
_atom_site_fract_z
Si Si1 0.994641 0.344598 0.825677
Si Si2 0.511080 0.878400 0.163029
Si Si3 0.505289 0.652646 0.601579
Si Si4 0.139039 0.118641 0.057144
Si Si5 0.178804 0.726900 0.880300
Si Si6 0.132773 0.757910 0.312267
Si Si7 0.469346 0.908719 0.578916
O O1 0.008262 0.206255 0.670032
O O2 0.204031 0.192861 0.691657
O O3 0.745772 0.632686 0.939728
O O4 0.039455 0.298350 0.017216
O O5 0.322580 0.994254 0.123301
O O6 0.556662 0.797987 0.320075
O O7 0.441733 0.072288 0.301731
O O8 0.594193 0.494144 0.336380
O O9 0.670522 0.457099 0.657785
O O10 0.505002 0.773966 0.617897
O O11 0.265795 0.894832 0.811289
O O12 0.943784 0.256689 0.208814
O O13 0.214007 0.678616 0.066978
O O14 0.000000 0.000000 0.000000
O O15 0.000000 0.000000 0.500000
#
# Coordination Sequence:
#
# PCOD9030999 Si02
#       7
#     2   2   2   2   2   2   2
#     4  10  22  43  63  95 136 170 221 278 323 400
#     4  11  22  44  67  98 137 170 230 272 327 408
#     4  11  23  44  67  97 137 173 220 281 325 396
#     4  10  24  41  69  99 130 180 221 273 335 399
#     4  11  24  44  68 100 137 172 227 279 330 399
#     4  11  22  42  68  98 133 175 223 274 330 398
#     4  10  24  41  65 101 130 178 222 273 337 393
#
# _framework density 24.710771000000001
#
# number of rings (size 3 to 8) (size 9 to 14) (size 15 to 20)
#    0.000    1.429    2.857    2.143    2.000    2.857 
#    5.143    2.857    0.000    0.000    0.000    0.000 
#    0.000    0.000    0.000    0.000    0.000    0.000 
#
# Total GULP energy -78294.881444 kJ/mol
# GULP energy per Si atom -5592.491532 kJ/mol
# Density = 2.465453 g / cm^3
# Si number density = 24.710771 Si / 1000 Ang^3
#
#
#
# Elastic Constant Matrix: (Units=GPa)
#
#
# Indices 1 2 3 4 5 6 
#
# 1 89.0995 16.0942 26.7328 -7.6175 3.0097 -4.3771
# 2 16.0942 106.4373 30.0835 -1.1427 -2.1326 5.9504
# 3 26.7328 30.0835 89.8985 -9.4033 -5.8931 -17.0636
# 4 -7.6175 -1.1427 -9.4033 22.5951 -4.8341 -7.6868
# 5 3.0097 -2.1326 -5.8931 -4.8341 36.3954 3.3840
# 6 -4.3771 5.9504 -17.0636 -7.6868 3.3840 38.8715
#
#
#
# Elastic Compliance Matrix: (Units=1/GPa)
#
#
# Indices 1 2 3 4 5 6 
#
# 1 0.012670 -0.001128 -0.002962 0.003052 -0.001282 0.001014
# 2 -0.001128 0.011067 -0.004553 -0.003235 -0.000011 -0.004459
# 3 -0.002962 -0.004553 0.016451 0.009389 0.003036 0.009178
# 4 0.003052 -0.003235 0.009389 0.055770 0.007056 0.015375
# 5 -0.001282 -0.000011 0.003036 0.007056 0.029005 0.000060
# 6 0.001014 -0.004459 0.009178 0.015375 0.000060 0.033586
#
#
# Mechanical properties :
#
#
# Convention : Reuss Voigt Hill
#
# Bulk Modulus (GPa) = 43.66676 47.91738 45.79207
# Shear Modulus (GPa) = 27.25220 33.74072 30.49646
#
# Velocity S-wave (km/s) = 3.32452 3.69918 3.51684
# Velocity P-wave (km/s) = 5.69614 6.13829 5.92134
#
# Compressibility (1/GPa) = 0.02290072
#
# Stress axis : x y z
#
# Youngs Moduli (GPa) = 78.92588 90.35806 60.78491
#
# Poissons Ratio (x) = 0.10194 0.18007
# Poissons Ratio (y) = 0.08904 0.27678
# Poissons Ratio (z) = 0.23382 0.41143
#
# Static dielectric constant tensor:
#      x y z
#    x 1.935820 -0.008700 0.025940 
#    y -0.008700 1.945840 0.018340 
#    z 0.025940 0.018340 2.038360 
# 
# From -- ./inp_files/313945.got.cif
#   From: 2010.05.17/outbox.cif.g08.bks.cpg/sg2_157_cif.got.tgz:313945.got - 2010.06.03 11:33:40.
