data_PCOD9030807
_publ_section_title
;
Structure prediction by ZEFSAII (Michael W. Deem and Ramdas Pophale) SiO2 
 PCOD9030807
Probable space group: P -1
;
_chemical_formula_sum "Si O2"
_cell_formula_units_Z 15
_cell_length_a 7.888238
_cell_length_b 9.182283
_cell_length_c 25.290222
_cell_angle_alpha 33.842432
_cell_angle_beta 36.893060
_cell_angle_gamma 47.344701
_cell_volume 611.939930
_symmetry_space_group_name_H-M "P -1"
_symmetry_group_IT_number 2
_symmetry_cell_setting 'triclinic'
loop_
_space_group_symop_operation_xyz
x,y,z
-x,-y,-z
loop_
_atom_site_type_symbol
_atom_site_label
_atom_site_fract_x
_atom_site_fract_y
_atom_site_fract_z
Si Si1 0.157804 0.188526 0.296269
Si Si2 0.553739 0.132228 0.118567
Si Si3 0.879433 0.352175 0.497870
Si Si4 0.751154 0.612147 0.975407
Si Si5 0.462173 0.557373 0.288967
Si Si6 0.500000 0.000000 0.500000
Si Si7 0.680444 0.374841 0.420347
Si Si8 0.633251 0.378907 0.184642
O O1 0.281624 0.200977 0.203560
O O2 0.420020 0.173290 0.276041
O O3 0.958383 0.412537 0.304108
O O4 0.993882 0.916812 0.425313
O O5 0.484159 0.241441 0.045070
O O6 0.591476 0.822753 0.197339
O O7 0.781967 0.314578 0.033603
O O8 0.813141 0.333256 0.458151
O O9 0.573076 0.409238 0.582012
O O10 0.121217 0.559501 0.382534
O O11 0.049303 0.739980 0.853899
O O12 0.663258 0.582894 0.066755
O O13 0.525876 0.509928 0.225656
O O14 0.566500 0.295501 0.371975
O O15 0.483689 0.881001 0.478831
#
# Coordination Sequence:
#
# PCOD9030807 Si02
#       8
#     2   2   2   2   2   1   2   2
#     4  11  21  43  64  96 138 183 213 274 337 409
#     4  10  24  42  70  99 135 173 229 288 350 389
#     4  11  24  43  63  97 145 174 234 258 325 429
#     4   9  22  47  69  97 126 178 231 298 337 398
#     4  12  25  41  66 104 138 185 221 275 337 418
#     4  12  26  40  64 100 142 180 218 274 334 400
#     4  11  24  39  63  92 139 186 215 274 317 398
#     4  10  22  42  74  92 131 182 230 276 353 393
#
# _framework density 24.51221
#
# number of rings (size 3 to 8) (size 9 to 14) (size 15 to 20)
#    0.000    1.333    2.667    2.000    3.733    4.267 
#    0.000    1.333    5.867    0.000    0.000    0.000 
#    0.000    0.000    0.000    0.000    0.000    0.000 
#
# Total GULP energy -83597.116657 kJ/mol
# GULP energy per Si atom -5573.141110 kJ/mol
# Density = 2.445642 g / cm^3
# Si number density = 24.512210 Si / 1000 Ang^3
#
#
#
# Elastic Constant Matrix: (Units=GPa)
#
#
# Indices 1 2 3 4 5 6 
#
# 1 83.8636 4.2646 18.3265 -7.1996 12.9764 21.1807
# 2 4.2646 86.9563 26.3812 -2.6947 16.7072 2.9579
# 3 18.3265 26.3812 75.7173 -15.9544 0.9249 3.4586
# 4 -7.1996 -2.6947 -15.9544 43.1116 1.6413 -4.6835
# 5 12.9764 16.7072 0.9249 1.6413 39.5748 -2.7378
# 6 21.1807 2.9579 3.4586 -4.6835 -2.7378 26.5476
#
#
#
# Elastic Compliance Matrix: (Units=1/GPa)
#
#
# Indices 1 2 3 4 5 6 
#
# 1 0.017624 0.002426 -0.004307 0.000216 -0.007716 -0.014528
# 2 0.002426 0.014520 -0.005578 -0.000887 -0.007014 -0.003706
# 3 -0.004307 -0.005578 0.017167 0.005498 0.003355 0.003138
# 4 0.000216 -0.000887 0.005498 0.025634 -0.000634 0.003667
# 5 -0.007716 -0.007014 0.003355 -0.000634 0.031374 0.009624
# 6 -0.014528 -0.003706 0.003138 0.003667 0.009624 0.050902
#
#
# Mechanical properties :
#
#
# Convention : Reuss Voigt Hill
#
# Bulk Modulus (GPa) = 29.07693 38.27577 33.67635
# Shear Modulus (GPa) = 27.23263 35.01780 31.12522
#
# Velocity S-wave (km/s) = 3.33676 3.78376 3.56727
# Velocity P-wave (km/s) = 5.17042 5.89390 5.54397
#
# Compressibility (1/GPa) = 0.03439152
#
# Stress axis : x y z
#
# Youngs Moduli (GPa) = 56.74178 68.87233 58.25031
#
# Poissons Ratio (x) = -0.16708 0.25091
# Poissons Ratio (y) = -0.13765 0.32492
# Poissons Ratio (z) = 0.24441 0.38417
#
# Static dielectric constant tensor:
#      x y z
#    x 1.939980 0.051750 0.035900 
#    y 0.051750 1.961320 -0.015320 
#    z 0.035900 -0.015320 1.908580 
# 
# From -- ./inp_files/616577.got.cif
#   From: 2010.05.17/outbox.cif.g08.bks.cpg/sg2_309_cif.got.tgz:616577.got - 2010.06.03 11:33:40.
