data_PCOD9030546
_publ_section_title
;
Structure prediction by ZEFSAII (Michael W. Deem and Ramdas Pophale) SiO2 
 PCOD9030546
Probable space group: P -1
;
_chemical_formula_sum "Si O2"
_cell_formula_units_Z 16
_cell_length_a 22.411742
_cell_length_b 8.946352
_cell_length_c 13.481586
_cell_angle_alpha 55.266206
_cell_angle_beta 30.986800
_cell_angle_gamma 34.144697
_cell_volume 683.710171
_symmetry_space_group_name_H-M "P -1"
_symmetry_group_IT_number 2
_symmetry_cell_setting 'triclinic'
loop_
_space_group_symop_operation_xyz
x,y,z
-x,-y,-z
loop_
_atom_site_type_symbol
_atom_site_label
_atom_site_fract_x
_atom_site_fract_y
_atom_site_fract_z
Si Si1 0.918378 0.515697 0.375153
Si Si2 0.499243 0.630102 0.811579
Si Si3 0.801090 0.489920 0.351425
Si Si4 0.750363 0.013611 0.787637
Si Si5 0.730000 0.733963 0.762887
Si Si6 0.189255 0.764054 0.095297
Si Si7 0.910624 0.393894 0.022142
Si Si8 0.702793 0.327456 0.243786
O O1 0.812606 0.590571 0.397634
O O2 0.782026 0.737606 0.577092
O O3 0.067676 0.482889 0.139395
O O4 0.059177 0.184411 0.344670
O O5 0.597078 0.642563 0.589745
O O6 0.667411 0.284758 0.741214
O O7 0.416708 0.825319 0.955365
O O8 0.329549 0.721782 0.972385
O O9 0.839830 0.548992 0.172185
O O10 0.980560 0.120874 0.241599
O O11 0.793764 0.796837 0.731822
O O12 0.820634 0.421709 0.771879
O O13 0.500000 0.000000 0.000000
O O14 0.290676 0.614093 0.900557
O O15 0.767310 0.413225 0.188123
O O16 0.125720 0.037287 0.856167
O O17 0.500000 0.500000 0.500000
#
# Coordination Sequence:
#
# PCOD9030546 Si02
#       8
#     2   2   2   2   2   2   2   2
#     4  12  25  43  67  94 142 177 219 285 336 393
#     4  11  23  43  70  94 138 177 222 277 325 407
#     4  11  24  44  69  95 130 183 226 271 339 393
#     4  11  24  42  65 100 135 173 224 269 342 400
#     4  12  25  40  64 100 135 174 220 275 339 396
#     4  11  23  43  68  98 135 172 225 276 331 408
#     4  10  24  44  66  98 134 173 226 278 332 397
#     4  10  22  42  71  98 130 177 224 273 335 395
#
# _framework density 23.401730000000001
#
# number of rings (size 3 to 8) (size 9 to 14) (size 15 to 20)
#    0.000    1.000    2.500    3.750    3.500    4.000 
#    2.250    0.625    0.000    0.000    0.000    0.000 
#    0.000    0.000    0.000    0.000    0.000    0.000 
#
# Total GULP energy -89556.121672 kJ/mol
# GULP energy per Si atom -5597.257605 kJ/mol
# Density = 2.334847 g / cm^3
# Si number density = 23.401730 Si / 1000 Ang^3
#
#
#
# Elastic Constant Matrix: (Units=GPa)
#
#
# Indices 1 2 3 4 5 6 
#
# 1 111.5714 6.8723 59.8685 -0.3122 24.5509 7.6487
# 2 6.8723 45.5756 25.8516 -7.8536 1.5313 -1.9675
# 3 59.8685 25.8516 163.1479 -26.8792 22.4679 1.5927
# 4 -0.3122 -7.8536 -26.8792 23.5019 -6.6520 2.5221
# 5 24.5509 1.5313 22.4679 -6.6520 41.8953 -2.6241
# 6 7.6487 -1.9675 1.5927 2.5221 -2.6241 27.2425
#
#
#
# Elastic Compliance Matrix: (Units=1/GPa)
#
#
# Indices 1 2 3 4 5 6 
#
# 1 0.013365 -0.000283 -0.005133 -0.007241 -0.006433 -0.003422
# 2 -0.000283 0.024698 -0.003294 0.004830 0.001909 0.001793
# 3 -0.005133 -0.003294 0.010384 0.010531 -0.000797 -0.000456
# 4 -0.007241 0.004830 0.010531 0.058559 0.007534 -0.002929
# 5 -0.006433 0.001909 -0.000797 0.007534 0.029451 0.004130
# 6 -0.003422 0.001793 -0.000456 -0.002929 0.004130 0.038493
#
#
# Mechanical properties :
#
#
# Convention : Reuss Voigt Hill
#
# Bulk Modulus (GPa) = 32.23095 56.16443 44.19769
# Shear Modulus (GPa) = 24.66541 33.70808 29.18675
#
# Velocity S-wave (km/s) = 3.25006 3.79939 3.53541
# Velocity P-wave (km/s) = 5.28078 6.58023 5.96599
#
# Compressibility (1/GPa) = 0.03102608
#
# Stress axis : x y z
#
# Youngs Moduli (GPa) = 74.82507 40.48840 96.29960
#
# Poissons Ratio (x) = 0.01146 0.49432
# Poissons Ratio (y) = 0.02118 0.31725
# Poissons Ratio (z) = 0.38409 0.13339
#
# Static dielectric constant tensor:
#      x y z
#    x 1.895560 -0.010110 0.006320 
#    y -0.010110 1.904830 -0.010380 
#    z 0.006320 -0.010380 1.878920 
# 
# From -- ./inp_files/469943.got.cif
#   From: 2010.05.17/outbox.cif.g08.bks.cpg/sg2_235_cif.got.tgz:469943.got - 2010.06.03 11:33:40.
