data_PCOD9030308
_publ_section_title
;
Structure prediction by ZEFSAII (Michael W. Deem and Ramdas Pophale) SiO2 
 PCOD9030308
Probable space group: P -1
;
_chemical_formula_sum "Si O2"
_cell_formula_units_Z 14
_cell_length_a 8.192194
_cell_length_b 16.488203
_cell_length_c 6.546825
_cell_angle_alpha 135.379549
_cell_angle_beta 90.161817
_cell_angle_gamma 92.636101
_cell_volume 619.690642
_symmetry_space_group_name_H-M "P -1"
_symmetry_group_IT_number 2
_symmetry_cell_setting 'triclinic'
loop_
_space_group_symop_operation_xyz
x,y,z
-x,-y,-z
loop_
_atom_site_type_symbol
_atom_site_label
_atom_site_fract_x
_atom_site_fract_y
_atom_site_fract_z
Si Si1 0.810764 0.768704 0.494195
Si Si2 0.441759 0.181006 0.767876
Si Si3 0.258542 0.947145 0.448436
Si Si4 0.028650 0.320999 0.036894
Si Si5 0.429371 0.375254 0.461581
Si Si6 0.254743 0.551640 0.546124
Si Si7 0.983500 0.904541 0.091650
O O1 0.676082 0.810176 0.409825
O O2 0.698097 0.682730 0.483161
O O3 0.909542 0.864115 0.803266
O O4 0.946199 0.709380 0.252990
O O5 0.628395 0.154044 0.669696
O O6 0.371359 0.065691 0.677208
O O7 0.431146 0.289363 0.111635
O O8 0.176053 0.925378 0.185006
O O9 0.102876 0.979433 0.638085
O O10 0.146144 0.436851 0.275433
O O11 0.858844 0.356781 0.193781
O O12 0.068050 0.206702 0.960870
O O13 0.366055 0.499463 0.628398
O O14 0.623805 0.398802 0.542671
#
# Coordination Sequence:
#
# PCOD9030308 Si02
#       7
#     2   2   2   2   2   2   2
#     4  12  22  40  70  94 142 162 218 276 324 368
#     4  11  22  44  63  97 132 172 214 276 319 390
#     4  10  22  42  70  88 132 180 214 256 340 384
#     4  11  22  44  63  97 132 172 214 276 319 390
#     4  11  22  44  63  97 132 172 214 276 319 390
#     4  10  22  42  70  88 132 180 214 256 340 384
#     4  11  22  44  63  97 132 172 214 276 319 390
#
# _framework density 22.591919999999998
#
# number of rings (size 3 to 8) (size 9 to 14) (size 15 to 20)
#    0.000    1.143    5.714    0.857    0.000    2.286 
#    0.000    2.857    0.000    0.000    0.000    0.000 
#    0.000    0.000    0.000    0.000    0.000    0.000 
#
# Total GULP energy -78075.604667 kJ/mol
# GULP energy per Si atom -5576.828905 kJ/mol
# Density = 2.254050 g / cm^3
# Si number density = 22.591920 Si / 1000 Ang^3
#
#
#
# Elastic Constant Matrix: (Units=GPa)
#
#
# Indices 1 2 3 4 5 6 
#
# 1 62.2579 -7.0649 23.7765 14.0380 -10.5262 -6.5281
# 2 -7.0649 53.9403 24.3599 11.1892 -4.9881 8.6604
# 3 23.7765 24.3599 90.8319 6.0149 -6.6436 -8.3601
# 4 14.0380 11.1892 6.0149 27.6252 3.8859 3.1001
# 5 -10.5262 -4.9881 -6.6436 3.8859 42.8200 12.9984
# 6 -6.5281 8.6604 -8.3601 3.1001 12.9984 39.8019
#
#
#
# Elastic Compliance Matrix: (Units=1/GPa)
#
#
# Indices 1 2 3 4 5 6 
#
# 1 0.025575 0.011563 -0.008200 -0.016904 0.008336 -0.001449
# 2 0.011563 0.030171 -0.010179 -0.016173 0.008802 -0.008421
# 3 -0.008200 -0.010179 0.015816 0.004686 -0.002591 0.004673
# 4 -0.016904 -0.016173 0.004686 0.051651 -0.010328 0.001081
# 5 0.008336 0.008802 -0.002591 -0.010328 0.030027 -0.010094
# 6 -0.001449 -0.008421 0.004673 0.001081 -0.010094 0.030913
#
#
# Mechanical properties :
#
#
# Convention : Reuss Voigt Hill
#
# Bulk Modulus (GPa) = 17.26206 32.13036 24.69621
# Shear Modulus (GPa) = 23.03151 33.11333 28.07242
#
# Velocity S-wave (km/s) = 3.19636 3.83262 3.52886
# Velocity P-wave (km/s) = 4.61299 5.81706 5.24966
#
# Compressibility (1/GPa) = 0.05793051
#
# Stress axis : x y z
#
# Youngs Moduli (GPa) = 39.10098 33.14430 63.22786
#
# Poissons Ratio (x) = -0.38324 0.51846
# Poissons Ratio (y) = -0.45212 0.64357
# Poissons Ratio (z) = 0.32062 0.33736
#
# Static dielectric constant tensor:
#      x y z
#    x 1.974960 0.041160 0.004870 
#    y 0.041160 1.863560 -0.017850 
#    z 0.004870 -0.017850 1.827550 
# 
# From -- ./inp_files/45970.got.cif
#   From: 2010.05.17/outbox.cif.g08.bks.cpg/sg2_23_cif.got.tgz:45970.got - 2010.06.03 11:33:40.
