data_PCOD9030385
_publ_section_title
;
Structure prediction by ZEFSAII (Michael W. Deem and Ramdas Pophale) SiO2 
 PCOD9030385
Probable space group: P -1
;
_chemical_formula_sum "Si O2"
_cell_formula_units_Z 14
_cell_length_a 8.355265
_cell_length_b 14.329201
_cell_length_c 7.836168
_cell_angle_alpha 112.380561
_cell_angle_beta 83.360283
_cell_angle_gamma 136.386433
_cell_volume 579.257285
_symmetry_space_group_name_H-M "P -1"
_symmetry_group_IT_number 2
_symmetry_cell_setting 'triclinic'
loop_
_space_group_symop_operation_xyz
x,y,z
-x,-y,-z
loop_
_atom_site_type_symbol
_atom_site_label
_atom_site_fract_x
_atom_site_fract_y
_atom_site_fract_z
Si Si1 0.990816 0.578487 0.409861
Si Si2 0.271082 0.017006 0.404497
Si Si3 0.273889 0.402660 0.339461
Si Si4 0.726872 0.360391 0.007937
Si Si5 0.444204 0.679766 0.324476
Si Si6 0.412401 0.022249 0.774514
Si Si7 0.019221 0.896626 0.004490
O O1 0.244324 0.677609 0.358280
O O2 0.000000 0.500000 0.500000
O O3 0.944667 0.664735 0.556659
O O4 0.761863 0.437344 0.230707
O O5 0.468202 0.030139 0.314957
O O6 0.339578 0.168100 0.498736
O O7 0.276890 0.994167 0.593119
O O8 0.061693 0.911038 0.214022
O O9 0.500000 0.500000 0.500000
O O10 0.334938 0.527514 0.302840
O O11 0.200274 0.273208 0.149942
O O12 0.535781 0.323818 0.881661
O O13 0.631219 0.202170 0.918079
O O14 0.000000 0.500000 0.000000
O O15 0.244052 0.952790 0.911804
O O16 0.000000 0.000000 0.000000
#
# Coordination Sequence:
#
# PCOD9030385 Si02
#       7
#     2   2   2   2   2   2   2
#     4   9  19  32  61  88 119 153 202 254 310 362
#     4  10  22  42  70  97 132 160 218 275 328 380
#     4  11  24  41  60  87 125 166 216 254 307 377
#     4   9  19  35  63  95 127 155 204 261 322 372
#     4   9  19  39  62  92 121 157 201 264 321 371
#     4  10  23  41  70  99 130 169 215 271 329 382
#     4  12  27  42  66  93 133 181 214 261 326 390
#
# _framework density 24.168879
#
# number of rings (size 3 to 8) (size 9 to 14) (size 15 to 20)
#    0.000    2.000    0.000    2.143   12.000    1.714 
#    0.000    0.714    0.000    0.000    0.000    0.000 
#    0.000    0.000    0.000    0.000    0.000    0.000 
#
# Total GULP energy -78065.967357 kJ/mol
# GULP energy per Si atom -5576.140525 kJ/mol
# Density = 2.411387 g / cm^3
# Si number density = 24.168879 Si / 1000 Ang^3
#
#
#
# Elastic Constant Matrix: (Units=GPa)
#
#
# Indices 1 2 3 4 5 6 
#
# 1 65.3074 10.1564 38.5348 6.0517 -0.2320 -5.9294
# 2 10.1564 67.0967 45.5103 27.0083 -9.5028 -9.6872
# 3 38.5348 45.5103 220.3267 33.1189 13.8239 -14.9686
# 4 6.0517 27.0083 33.1189 44.5755 -0.4557 -10.6035
# 5 -0.2320 -9.5028 13.8239 -0.4557 34.9378 1.9204
# 6 -5.9294 -9.6872 -14.9686 -10.6035 1.9204 30.6545
#
#
#
# Elastic Compliance Matrix: (Units=1/GPa)
#
#
# Indices 1 2 3 4 5 6 
#
# 1 0.017243 -0.000406 -0.002955 0.000562 0.001077 0.001891
# 2 -0.000406 0.022881 -0.003390 -0.010915 0.007351 0.001261
# 3 -0.002955 -0.003390 0.006355 -0.002073 -0.003536 0.000965
# 4 0.000562 -0.010915 -0.002073 0.032129 -0.002105 0.006893
# 5 0.001077 0.007351 -0.003536 -0.002105 0.032107 -0.001935
# 6 0.001891 0.001261 0.000965 0.006893 -0.001935 0.036362
#
#
# Mechanical properties :
#
#
# Convention : Reuss Voigt Hill
#
# Bulk Modulus (GPa) = 30.32535 60.12599 45.22567
# Shear Modulus (GPa) = 29.14224 39.26882 34.20553
#
# Velocity S-wave (km/s) = 3.47620 4.03521 3.76609
# Velocity P-wave (km/s) = 5.35597 6.82950 6.13712
#
# Compressibility (1/GPa) = 0.03297571
#
# Stress axis : x y z
#
# Youngs Moduli (GPa) = 57.99582 43.70361 157.35936
#
# Poissons Ratio (x) = 0.01775 0.46506
# Poissons Ratio (y) = 0.02355 0.53348
# Poissons Ratio (z) = 0.17140 0.14816
#
# Static dielectric constant tensor:
#      x y z
#    x 2.135440 0.156100 -0.049390 
#    y 0.156100 2.769930 -0.127520 
#    z -0.049390 -0.127520 2.051650 
# 
# From -- ./inp_files/187593.got.cif
#   From: 2010.05.17/outbox.cif.g08.bks.cpg/sg2_94_cif.got.tgz:187593.got - 2010.06.03 11:33:40.
