data_PCOD9030184
_publ_section_title
;
Structure prediction by ZEFSAII (Michael W. Deem and Ramdas Pophale) SiO2 
 PCOD9030184
Probable space group: P -1
;
_chemical_formula_sum "Si O2"
_cell_formula_units_Z 11
_cell_length_a 9.480188
_cell_length_b 9.274929
_cell_length_c 8.618419
_cell_angle_alpha 67.367217
_cell_angle_beta 85.923753
_cell_angle_gamma 135.080952
_cell_volume 419.677376
_symmetry_space_group_name_H-M "P -1"
_symmetry_group_IT_number 2
_symmetry_cell_setting 'triclinic'
loop_
_space_group_symop_operation_xyz
x,y,z
-x,-y,-z
loop_
_atom_site_type_symbol
_atom_site_label
_atom_site_fract_x
_atom_site_fract_y
_atom_site_fract_z
Si Si1 0.280106 0.782196 0.719798
Si Si2 0.867566 0.011000 0.334170
Si Si3 0.063403 0.368899 0.686478
Si Si4 0.300611 0.440081 0.351909
Si Si5 0.466650 0.121854 0.059955
Si Si6 0.000000 0.000000 0.000000
O O1 0.225127 0.902620 0.743549
O O2 0.087372 0.544857 0.715315
O O3 0.348934 0.728407 0.876904
O O4 0.500000 0.000000 0.500000
O O5 0.063876 0.219448 0.360542
O O6 0.670136 0.714430 0.534494
O O7 0.980017 0.019660 0.179751
O O8 0.240642 0.500547 0.475592
O O9 0.795691 0.116862 0.754300
O O10 0.100352 0.263836 0.849094
O O11 0.502985 0.696106 0.124420
O O12 0.500000 0.000000 0.000000
#
# Coordination Sequence:
#
# PCOD9030184 Si02
#       6
#     2   2   2   2   2   1
#     4  12  26  45  73 106 141 185 231 288 356 417
#     4  10  22  44  70 102 143 183 236 290 343 419
#     4  11  25  46  70 104 144 179 235 293 344 418
#     4  10  23  45  72 101 139 188 233 288 351 411
#     4  12  25  42  71 104 138 184 230 283 352 413
#     4  10  22  42  70 100 138 188 228 286 348 402
#
# _framework density 26.210609000000002
#
# number of rings (size 3 to 8) (size 9 to 14) (size 15 to 20)
#    0.000    1.091    0.000    5.455    0.000    5.818 
#    0.000   18.182    0.000    6.545    0.000    0.000 
#    0.000    0.000    0.000    0.000    0.000    0.000 
#
# Total GULP energy -61447.778976 kJ/mol
# GULP energy per Si atom -5586.161725 kJ/mol
# Density = 2.615095 g / cm^3
# Si number density = 26.210609 Si / 1000 Ang^3
#
#
#
# Elastic Constant Matrix: (Units=GPa)
#
#
# Indices 1 2 3 4 5 6 
#
# 1 66.3607 41.8859 22.2056 2.6847 7.7386 -12.7207
# 2 41.8859 136.7752 26.2784 6.5655 0.9012 -13.5478
# 3 22.2056 26.2784 100.6974 0.3564 13.9769 -6.5378
# 4 2.6847 6.5655 0.3564 34.7170 -2.0175 -2.1557
# 5 7.7386 0.9012 13.9769 -2.0175 42.6845 -2.7684
# 6 -12.7207 -13.5478 -6.5378 -2.1557 -2.7684 41.3365
#
#
#
# Elastic Compliance Matrix: (Units=1/GPa)
#
#
# Indices 1 2 3 4 5 6 
#
# 1 0.020324 -0.005319 -0.002487 -0.000443 -0.002524 0.003925
# 2 -0.005319 0.009374 -0.001360 -0.001199 0.001236 0.001240
# 3 -0.002487 -0.001360 0.011300 0.000171 -0.003188 0.000372
# 4 -0.000443 -0.001199 0.000171 0.029221 0.001503 0.001122
# 5 -0.002524 0.001236 -0.003188 0.001503 0.025031 0.000879
# 6 0.003925 0.001240 0.000372 0.001122 0.000879 0.025982
#
#
# Mechanical properties :
#
#
# Convention : Reuss Voigt Hill
#
# Bulk Modulus (GPa) = 44.12020 53.84146 48.98083
# Shear Modulus (GPa) = 33.98613 37.97851 35.98232
#
# Velocity S-wave (km/s) = 3.60482 3.81067 3.70917
# Velocity P-wave (km/s) = 5.84771 6.32045 6.08867
#
# Compressibility (1/GPa) = 0.02266536
#
# Stress axis : x y z
#
# Youngs Moduli (GPa) = 49.20407 106.68024 88.49489
#
# Poissons Ratio (x) = 0.56747 0.22006
# Poissons Ratio (y) = 0.26173 0.12035
# Poissons Ratio (z) = 0.12236 0.14508
#
# Static dielectric constant tensor:
#      x y z
#    x 2.223180 0.043340 0.024630 
#    y 0.043340 2.011490 -0.058080 
#    z 0.024630 -0.058080 1.994940 
# 
# From -- ./inp_files/151859.got.cif
#   From: 2010.05.17/outbox.cif.g08.bks.cpg/sg2_76_cif.got.tgz:151859.got - 2010.06.03 11:33:40.
