data_PCOD9030743
_publ_section_title
;
Structure prediction by ZEFSAII (Michael W. Deem and Ramdas Pophale) SiO2 
 PCOD9030743
Probable space group: P -1
;
_chemical_formula_sum "Si O2"
_cell_formula_units_Z 12
_cell_length_a 7.931147
_cell_length_b 9.819557
_cell_length_c 6.695341
_cell_angle_alpha 71.482737
_cell_angle_beta 72.646182
_cell_angle_gamma 105.130886
_cell_volume 433.947008
_symmetry_space_group_name_H-M "P -1"
_symmetry_group_IT_number 2
_symmetry_cell_setting 'triclinic'
loop_
_space_group_symop_operation_xyz
x,y,z
-x,-y,-z
loop_
_atom_site_type_symbol
_atom_site_label
_atom_site_fract_x
_atom_site_fract_y
_atom_site_fract_z
Si Si1 0.157384 0.062632 0.613486
Si Si2 0.253764 0.580734 0.560782
Si Si3 0.886643 0.267458 0.157236
Si Si4 0.209810 0.161453 0.009409
Si Si5 0.607042 0.183269 0.918533
Si Si6 0.398303 0.403142 0.279783
O O1 0.074917 0.009380 0.254219
O O2 0.259792 0.220613 0.383350
O O3 0.200170 0.908686 0.632680
O O4 0.211714 0.107971 0.805419
O O5 0.097745 0.592459 0.766209
O O6 0.276727 0.731783 0.352854
O O7 0.262294 0.464272 0.436267
O O8 0.433121 0.598362 0.631547
O O9 0.093009 0.273830 0.005367
O O10 0.740926 0.241734 0.036250
O O11 0.428132 0.234546 0.957923
O O12 0.500000 0.000000 0.000000
O O13 0.500000 0.500000 0.000000
#
# Coordination Sequence:
#
# PCOD9030743 Si02
#       6
#     2   2   2   2   2   2
#     4   9  18  42  71 103 146 184 237 303 352 429
#     4  11  25  41  66 110 143 183 253 296 348 445
#     4  10  22  42  73 112 140 180 243 312 361 410
#     4   9  19  42  73 108 148 176 241 312 350 429
#     4  12  20  40  76 106 139 191 240 297 372 419
#     4  11  23  43  71 100 146 203 237 284 368 444
#
# _framework density 27.653146
#
# number of rings (size 3 to 8) (size 9 to 14) (size 15 to 20)
#    1.000    0.667    3.333    1.000    0.000    4.000 
#    0.000    3.333    0.000    5.000    4.333    0.000 
#    0.000    0.000    0.000    0.000    0.000    0.000 
#
# Total GULP energy -67105.816614 kJ/mol
# GULP energy per Si atom -5592.151384 kJ/mol
# Density = 2.759021 g / cm^3
# Si number density = 27.653146 Si / 1000 Ang^3
#
#
#
# Elastic Constant Matrix: (Units=GPa)
#
#
# Indices 1 2 3 4 5 6 
#
# 1 151.0309 21.3759 29.8922 22.7875 24.0526 6.4690
# 2 21.3759 142.7559 56.3446 29.0859 0.4784 -6.7428
# 3 29.8922 56.3446 181.0005 6.2363 0.8490 14.2563
# 4 22.7875 29.0859 6.2363 45.0905 -10.6592 -22.7081
# 5 24.0526 0.4784 0.8490 -10.6592 48.3335 -1.2157
# 6 6.4690 -6.7428 14.2563 -22.7081 -1.2157 40.0024
#
#
#
# Elastic Compliance Matrix: (Units=1/GPa)
#
#
# Indices 1 2 3 4 5 6 
#
# 1 0.009858 0.000759 -0.000852 -0.010964 -0.007508 -0.007615
# 2 0.000759 0.009382 -0.002620 -0.007574 -0.002145 -0.001972
# 3 -0.000852 -0.002620 0.006703 -0.000147 0.000230 -0.002769
# 4 -0.010964 -0.007574 -0.000147 0.052366 0.017857 0.030818
# 5 -0.007508 -0.002145 0.000230 0.017857 0.028677 0.011779
# 6 -0.007615 -0.001972 -0.002769 0.030818 0.011779 0.044737
#
#
# Mechanical properties :
#
#
# Convention : Reuss Voigt Hill
#
# Bulk Modulus (GPa) = 48.73409 76.66808 62.70109
# Shear Modulus (GPa) = 30.49005 51.16359 40.82682
#
# Velocity S-wave (km/s) = 3.32413 4.30605 3.84655
# Velocity P-wave (km/s) = 5.69163 7.24623 6.51546
#
# Compressibility (1/GPa) = 0.02051952
#
# Stress axis : x y z
#
# Youngs Moduli (GPa) = 101.43735 106.58230 149.18411
#
# Poissons Ratio (x) = -0.08093 0.12707
# Poissons Ratio (y) = -0.07702 0.39083
# Poissons Ratio (z) = 0.08640 0.27922
#
# Static dielectric constant tensor:
#      x y z
#    x 2.010260 -0.157190 0.145370 
#    y -0.157190 2.064550 0.237210 
#    z 0.145370 0.237210 2.074890 
# 
# From -- ./inp_files/23032.got.cif
#   From: 2010.05.17/outbox.cif.g08.bks.cpg/sg2_12_cif.got.tgz:23032.got - 2010.06.03 11:33:40.
