data_PCOD9030976
_publ_section_title
;
Structure prediction by ZEFSAII (Michael W. Deem and Ramdas Pophale) SiO2 
 PCOD9030976
Probable space group: P -1
;
_chemical_formula_sum "Si O2"
_cell_formula_units_Z 16
_cell_length_a 15.357768
_cell_length_b 9.198301
_cell_length_c 11.737628
_cell_angle_alpha 140.540963
_cell_angle_beta 145.866155
_cell_angle_gamma 48.107491
_cell_volume 589.392009
_symmetry_space_group_name_H-M "P -1"
_symmetry_group_IT_number 2
_symmetry_cell_setting 'triclinic'
loop_
_space_group_symop_operation_xyz
x,y,z
-x,-y,-z
loop_
_atom_site_type_symbol
_atom_site_label
_atom_site_fract_x
_atom_site_fract_y
_atom_site_fract_z
Si Si1 0.037679 0.846992 0.311743
Si Si2 0.630879 0.494701 0.787274
Si Si3 0.543955 0.640272 0.022505
Si Si4 0.838153 0.174174 0.809155
Si Si5 0.155047 0.338401 0.506777
Si Si6 0.325765 0.105040 0.092158
Si Si7 0.321655 0.087555 0.341612
Si Si8 0.948145 0.655231 0.317621
O O1 0.085713 0.738424 0.177661
O O2 0.060756 0.682422 0.347228
O O3 0.115254 0.083958 0.567241
O O4 0.852150 0.918592 0.153273
O O5 0.535625 0.545601 0.827773
O O6 0.821116 0.483837 0.027212
O O7 0.652477 0.236724 0.610211
O O8 0.616243 0.687427 0.794440
O O9 0.729137 0.641880 0.250229
O O10 0.438030 0.877355 0.055492
O O11 0.500000 0.500000 0.000000
O O12 0.790389 0.104487 0.851714
O O13 0.910949 0.909264 0.705624
O O14 0.035496 0.540061 0.451563
O O15 0.269506 0.295357 0.494654
O O16 0.306308 0.150784 0.232364
O O17 0.500000 0.000000 0.500000
#
# Coordination Sequence:
#
# PCOD9030976 Si02
#       8
#     2   2   2   2   2   2   2   2
#     4  10  23  42  65  95 130 168 214 262 322 375
#     4  11  26  40  67  97 128 170 213 263 321 378
#     4  12  24  44  67  94 128 169 218 263 317 380
#     4  10  24  39  63  97 127 165 213 265 314 377
#     4  10  24  41  65  91 127 170 208 266 313 378
#     4  11  23  43  67  92 131 169 214 264 316 384
#     4  10  22  43  63  92 129 168 212 259 320 374
#     4  10  23  43  64  95 129 171 213 261 320 382
#
# _framework density 27.146615000000001
#
# number of rings (size 3 to 8) (size 9 to 14) (size 15 to 20)
#    0.750    0.750    1.250    2.625    3.500    6.000 
#    0.000    5.000    0.000    0.000    0.000    0.000 
#    0.000    0.000    0.000    0.000    0.000    0.000 
#
# Total GULP energy -89211.242039 kJ/mol
# GULP energy per Si atom -5575.702627 kJ/mol
# Density = 2.708483 g / cm^3
# Si number density = 27.146615 Si / 1000 Ang^3
#
#
#
# Elastic Constant Matrix: (Units=GPa)
#
#
# Indices 1 2 3 4 5 6 
#
# 1 165.5401 34.2254 22.1215 1.5455 -27.5589 37.0611
# 2 34.2254 141.1377 16.8412 -6.2390 -15.9207 21.5588
# 3 22.1215 16.8412 81.9282 -9.6597 -11.8952 9.1831
# 4 1.5455 -6.2390 -9.6597 46.9929 3.5233 -5.2067
# 5 -27.5589 -15.9207 -11.8952 3.5233 40.2632 2.4433
# 6 37.0611 21.5588 9.1831 -5.2067 2.4433 69.7014
#
#
#
# Elastic Compliance Matrix: (Units=1/GPa)
#
#
# Indices 1 2 3 4 5 6 
#
# 1 0.008196 -0.000660 -0.000972 -0.001445 0.005451 -0.004325
# 2 -0.000660 0.007964 -0.000801 0.000496 0.002542 -0.002059
# 3 -0.000972 -0.000801 0.013428 0.002371 0.002834 -0.000927
# 4 -0.001445 0.000496 0.002371 0.022269 -0.002165 0.002042
# 5 0.005451 0.002542 0.002834 -0.002165 0.030922 -0.005304
# 6 -0.004325 -0.002059 -0.000927 0.002042 -0.005304 0.017744
#
#
# Mechanical properties :
#
#
# Convention : Reuss Voigt Hill
#
# Bulk Modulus (GPa) = 40.44671 59.44247 49.94459
# Shear Modulus (GPa) = 44.00320 52.41937 48.21128
#
# Velocity S-wave (km/s) = 4.03047 4.39905 4.21878
# Velocity P-wave (km/s) = 6.04907 6.90989 6.49376
#
# Compressibility (1/GPa) = 0.02472389
#
# Stress axis : x y z
#
# Youngs Moduli (GPa) = 122.00543 125.56393 74.47324
#
# Poissons Ratio (x) = 0.08287 0.07236
# Poissons Ratio (y) = 0.08052 0.05962
# Poissons Ratio (z) = 0.11854 0.10052
#
# Static dielectric constant tensor:
#      x y z
#    x 2.161080 -0.011540 0.055250 
#    y -0.011540 2.174230 0.024030 
#    z 0.055250 0.024030 2.357910 
# 
# From -- ./inp_files/448248.got.cif
#   From: 2010.05.17/outbox.cif.g08.bks.cpg/sg2_225_cif.got.tgz:448248.got - 2010.06.03 11:33:40.
