data_PCOD9030802
_publ_section_title
;
Structure prediction by ZEFSAII (Michael W. Deem and Ramdas Pophale) SiO2 
 PCOD9030802
Probable space group: P -1
;
_chemical_formula_sum "Si O2"
_cell_formula_units_Z 16
_cell_length_a 12.104127
_cell_length_b 11.170226
_cell_length_c 8.206364
_cell_angle_alpha 68.190070
_cell_angle_beta 46.649619
_cell_angle_gamma 49.651277
_cell_volume 609.554629
_symmetry_space_group_name_H-M "P -1"
_symmetry_group_IT_number 2
_symmetry_cell_setting 'triclinic'
loop_
_space_group_symop_operation_xyz
x,y,z
-x,-y,-z
loop_
_atom_site_type_symbol
_atom_site_label
_atom_site_fract_x
_atom_site_fract_y
_atom_site_fract_z
Si Si1 0.598904 0.976688 0.120513
Si Si2 0.813904 0.025687 0.299014
Si Si3 0.689531 0.163051 0.713741
Si Si4 0.671493 0.539598 0.199083
Si Si5 0.912418 0.216315 0.256386
Si Si6 0.406372 0.250829 0.521164
Si Si7 0.135601 0.317855 0.167001
Si Si8 0.180255 0.254409 0.507139
O O1 0.394249 0.120502 0.304332
O O2 0.641300 0.864883 0.290969
O O3 0.696270 0.058454 0.906974
O O4 0.652822 0.845253 0.992899
O O5 0.715074 0.076229 0.557349
O O6 0.958400 0.072258 0.163073
O O7 0.630053 0.139253 0.314609
O O8 0.893524 0.842782 0.292933
O O9 0.501894 0.342318 0.803187
O O10 0.856517 0.181781 0.505613
O O11 0.736889 0.364322 0.261618
O O12 0.622067 0.625583 0.379564
O O13 0.842327 0.542665 0.960408
O O14 0.031489 0.280580 0.158858
O O15 0.236748 0.345733 0.517836
O O16 0.077295 0.327808 0.405770
#
# Coordination Sequence:
#
# PCOD9030802 Si02
#       8
#     2   2   2   2   2   2   2   2
#     4  10  17  32  52  80 103 127 182 217 260 300
#     4   8  17  29  51  77 102 132 163 221 261 298
#     4   9  17  30  55  80 100 131 166 234 253 297
#     4  10  19  36  55  79 101 143 187 211 247 311
#     4  10  21  33  51  84 109 137 172 220 268 303
#     4   9  20  30  56  79 104 143 171 220 253 318
#     4  11  20  31  57  81 107 136 172 227 260 308
#     4  11  18  33  52  83 109 133 180 211 271 313
#
# _framework density 26.248674000000001
#
# number of rings (size 3 to 8) (size 9 to 14) (size 15 to 20)
#    0.750    1.500    2.500    3.375    0.000    2.000 
#    0.000    0.625    0.000   18.000    0.000    0.000 
#    0.000    0.000    0.000    0.000    0.000    0.000 
#
# Total GULP energy -89081.481926 kJ/mol
# GULP energy per Si atom -5567.592620 kJ/mol
# Density = 2.618893 g / cm^3
# Si number density = 26.248674 Si / 1000 Ang^3
#
#
#
# Elastic Constant Matrix: (Units=GPa)
#
#
# Indices 1 2 3 4 5 6 
#
# 1 116.7453 10.3239 5.2286 -7.8450 -5.1657 3.0088
# 2 10.3239 65.0022 -7.0882 -21.7840 2.5497 -19.3851
# 3 5.2286 -7.0882 86.0482 -25.1360 -19.4388 -5.7511
# 4 -7.8450 -21.7840 -25.1360 30.8831 2.6558 -3.9706
# 5 -5.1657 2.5497 -19.4388 2.6558 29.6655 -3.1268
# 6 3.0088 -19.3851 -5.7511 -3.9706 -3.1268 25.9364
#
#
#
# Elastic Compliance Matrix: (Units=1/GPa)
#
#
# Indices 1 2 3 4 5 6 
#
# 1 0.008965 -0.004072 -0.001959 -0.002852 0.000365 -0.004911
# 2 -0.004072 0.094544 0.058008 0.124043 0.029298 0.106520
# 3 -0.001959 0.058008 0.055244 0.092236 0.030375 0.073615
# 4 -0.002852 0.124043 0.092236 0.209668 0.046446 0.151191
# 5 0.000365 0.029298 0.030375 0.046446 0.051416 0.041900
# 6 -0.004911 0.106520 0.073615 0.151191 0.041900 0.163260
#
#
# Mechanical properties :
#
#
# Convention : Reuss Voigt Hill
#
# Bulk Modulus (GPa) = 3.80652 31.63603 17.72128
# Shear Modulus (GPa) = 8.82283 34.58575 21.70429
#
# Velocity S-wave (km/s) = 1.83536 3.63384 2.87866
# Velocity P-wave (km/s) = 2.43818 5.44839 4.22076
#
# Compressibility (1/GPa) = 0.26270716
#
# Stress axis : x y z
#
# Youngs Moduli (GPa) = 111.55076 10.57710 18.10137
#
# Poissons Ratio (x) = 0.04307 0.03546
# Poissons Ratio (y) = 0.45424 -1.05003
# Poissons Ratio (z) = 0.21854 -0.61356
#
# Static dielectric constant tensor:
#      x y z
#    x 2.271320 -0.077180 -0.072800 
#    y -0.077180 2.134740 0.074630 
#    z -0.072800 0.074630 2.178910 
# 
# From -- ./inp_files/256614.got.cif
#   From: 2010.05.17/outbox.cif.g08.bks.cpg/sg2_129_cif.got.tgz:256614.got - 2010.06.03 11:33:40.
