data_PCOD9030490
_publ_section_title
;
Structure prediction by ZEFSAII (Michael W. Deem and Ramdas Pophale) SiO2 
 PCOD9030490
Probable space group: P -1
;
_chemical_formula_sum "Si O2"
_cell_formula_units_Z 11
_cell_length_a 9.170778
_cell_length_b 16.169524
_cell_length_c 15.086067
_cell_angle_alpha 26.930850
_cell_angle_beta 150.259920
_cell_angle_gamma 142.369070
_cell_volume 501.028627
_symmetry_space_group_name_H-M "P -1"
_symmetry_group_IT_number 2
_symmetry_cell_setting 'triclinic'
loop_
_space_group_symop_operation_xyz
x,y,z
-x,-y,-z
loop_
_atom_site_type_symbol
_atom_site_label
_atom_site_fract_x
_atom_site_fract_y
_atom_site_fract_z
Si Si1 0.302331 0.624664 0.030126
Si Si2 0.000000 0.000000 0.500000
Si Si3 0.210386 0.339525 0.598495
Si Si4 0.319951 0.411518 0.907343
Si Si5 0.386877 0.129420 0.739014
Si Si6 0.031978 0.952209 0.959475
O O1 0.505342 0.622135 0.226404
O O2 0.490598 0.558734 0.110294
O O3 0.000000 0.500000 0.000000
O O4 0.213705 0.829409 0.772619
O O5 0.112391 0.045694 0.618368
O O6 0.303578 0.308887 0.575442
O O7 0.979651 0.487660 0.350118
O O8 0.053646 0.143632 0.735771
O O9 0.500000 0.500000 0.000000
O O10 0.224383 0.194587 0.068974
O O11 0.661168 0.141942 0.804309
O O12 0.500000 0.000000 0.000000
O O13 0.000000 0.000000 0.000000
#
# Coordination Sequence:
#
# PCOD9030490 Si02
#       6
#     2   1   2   2   2   2
#     4  12  28  43  72 108 140 190 243 297 361 433
#     4  12  22  46  72 102 144 182 244 288 364 424
#     4  11  25  48  72 103 148 187 243 300 357 430
#     4  12  28  46  69 108 142 189 244 296 364 428
#     4  10  22  42  71 105 137 189 237 289 355 429
#     4  11  23  44  73 101 142 190 236 291 365 421
#
# _framework density 21.954834999999999
#
# number of rings (size 3 to 8) (size 9 to 14) (size 15 to 20)
#    0.000    0.727    5.455    1.636    5.091    2.909 
#    0.000    0.000    0.000    0.000    0.000    0.000 
#    0.000    0.000    0.000    0.000    0.000    0.000 
#
# Total GULP energy -61272.229779 kJ/mol
# GULP energy per Si atom -5570.202707 kJ/mol
# Density = 2.190486 g / cm^3
# Si number density = 21.954835 Si / 1000 Ang^3
#
#
#
# Elastic Constant Matrix: (Units=GPa)
#
#
# Indices 1 2 3 4 5 6 
#
# 1 140.5000 54.9779 39.3287 -4.6360 30.2581 -37.2867
# 2 54.9779 174.7118 45.8157 10.5123 -10.6675 -21.7798
# 3 39.3287 45.8157 131.3189 15.0466 16.4380 -20.2696
# 4 -4.6360 10.5123 15.0466 37.6674 -12.9693 -6.7707
# 5 30.2581 -10.6675 16.4380 -12.9693 40.1204 -1.6219
# 6 -37.2867 -21.7798 -20.2696 -6.7707 -1.6219 51.0239
#
#
#
# Elastic Compliance Matrix: (Units=1/GPa)
#
#
# Indices 1 2 3 4 5 6 
#
# 1 0.012772 -0.003688 -0.000196 0.000555 -0.010053 0.007435
# 2 -0.003688 0.007859 -0.002441 0.000378 0.005991 -0.000070
# 3 -0.000196 -0.002441 0.010220 -0.005240 -0.006302 0.001979
# 4 0.000555 0.000378 -0.005240 0.033626 0.012835 0.003355
# 5 -0.010053 0.005991 -0.006302 0.012835 0.040657 -0.004297
# 6 0.007435 -0.000070 0.001979 0.003355 -0.004297 0.026097
#
#
# Mechanical properties :
#
#
# Convention : Reuss Voigt Hill
#
# Bulk Modulus (GPa) = 54.94322 80.75282 67.84802
# Shear Modulus (GPa) = 33.34490 46.18958 39.76724
#
# Velocity S-wave (km/s) = 3.90140 4.59175 4.26058
# Velocity P-wave (km/s) = 6.73606 8.06061 7.42791
#
# Compressibility (1/GPa) = 0.01820061
#
# Stress axis : x y z
#
# Youngs Moduli (GPa) = 78.29725 127.24682 97.84514
#
# Poissons Ratio (x) = 0.46928 0.01917
# Poissons Ratio (y) = 0.28875 0.23887
# Poissons Ratio (z) = 0.01534 0.31065
#
# Static dielectric constant tensor:
#      x y z
#    x 2.343460 0.338440 -0.136810 
#    y 0.338440 2.007580 -0.118420 
#    z -0.136810 -0.118420 1.820710 
# 
# From -- ./inp_files/152657.got.cif
#   From: 2010.05.17/outbox.cif.g08.bks.cpg/sg2_77_cif.got.tgz:152657.got - 2010.06.03 11:33:40.
