data_PCOD9030473
_publ_section_title
;
Structure prediction by ZEFSAII (Michael W. Deem and Ramdas Pophale) SiO2 
 PCOD9030473
Probable space group: P -1
;
_chemical_formula_sum "Si O2"
_cell_formula_units_Z 13
_cell_length_a 9.377120
_cell_length_b 16.294346
_cell_length_c 21.867321
_cell_angle_alpha 17.823606
_cell_angle_beta 32.562491
_cell_angle_gamma 34.482937
_cell_volume 545.532020
_symmetry_space_group_name_H-M "P -1"
_symmetry_group_IT_number 2
_symmetry_cell_setting 'triclinic'
loop_
_space_group_symop_operation_xyz
x,y,z
-x,-y,-z
loop_
_atom_site_type_symbol
_atom_site_label
_atom_site_fract_x
_atom_site_fract_y
_atom_site_fract_z
Si Si1 0.203530 0.402811 0.796077
Si Si2 0.680944 0.132095 0.164806
Si Si3 0.953127 0.194400 0.238757
Si Si4 0.737524 0.534529 0.528826
Si Si5 0.469827 0.320644 0.235381
Si Si6 0.865190 0.343383 0.483391
Si Si7 0.000000 0.000000 0.500000
O O1 0.493246 0.362196 0.753166
O O2 0.278570 0.473958 0.648316
O O3 0.050489 0.677667 0.685375
O O4 0.989666 0.188414 0.022193
O O5 0.552166 0.149171 0.266270
O O6 0.630043 0.852020 0.351513
O O7 0.530385 0.372249 0.007409
O O8 0.673604 0.216685 0.288078
O O9 0.169548 0.972972 0.283773
O O10 0.957403 0.104993 0.370440
O O11 0.000000 0.500000 0.000000
O O12 0.832463 0.465838 0.474830
O O13 0.000000 0.500000 0.500000
O O14 0.173173 0.330239 0.360641
#
# Coordination Sequence:
#
# PCOD9030473 Si02
#       7
#     2   2   2   2   2   2   1
#     4  10  24  44  70  99 146 186 240 301 364 430
#     4  10  24  44  71 106 138 194 247 299 366 434
#     4  11  23  40  70 107 140 187 243 298 369 427
#     4  12  27  43  70  99 145 197 235 297 370 441
#     4  10  22  42  71 102 143 182 245 306 354 439
#     4  10  24  45  65 103 143 185 234 303 365 435
#     4  10  24  40  72 108 140 188 240 314 360 420
#
# _framework density 23.82995
#
# number of rings (size 3 to 8) (size 9 to 14) (size 15 to 20)
#    0.000    1.538    0.000    2.769   15.077    3.077 
#    2.769    0.000    0.000    0.000    0.000    0.000 
#    0.000    0.000    0.000    0.000    0.000    0.000 
#
# Total GULP energy -72448.092205 kJ/mol
# GULP energy per Si atom -5572.930170 kJ/mol
# Density = 2.377571 g / cm^3
# Si number density = 23.829950 Si / 1000 Ang^3
#
#
#
# Elastic Constant Matrix: (Units=GPa)
#
#
# Indices 1 2 3 4 5 6 
#
# 1 151.5635 63.0303 36.5323 8.4205 3.7492 6.0113
# 2 63.0303 90.5158 35.8423 5.0620 -8.3383 30.7059
# 3 36.5323 35.8423 96.5647 -2.0348 -15.8170 6.4266
# 4 8.4205 5.0620 -2.0348 36.0624 -4.6452 -18.3067
# 5 3.7492 -8.3383 -15.8170 -4.6452 43.3881 1.5975
# 6 6.0113 30.7059 6.4266 -18.3067 1.5975 55.7091
#
#
#
# Elastic Compliance Matrix: (Units=1/GPa)
#
#
# Indices 1 2 3 4 5 6 
#
# 1 0.010259 -0.008000 -0.001668 0.000056 -0.003159 0.003604
# 2 -0.008000 0.024416 -0.004687 -0.009086 0.003260 -0.015133
# 3 -0.001668 -0.004687 0.013373 0.003511 0.004412 0.002248
# 4 0.000056 -0.009086 0.003511 0.038246 0.002995 0.017079
# 5 -0.003159 0.003260 0.004412 0.002995 0.025940 -0.001724
# 6 0.003604 -0.015133 0.002248 0.017079 -0.001724 0.031305
#
#
# Mechanical properties :
#
#
# Convention : Reuss Voigt Hill
#
# Bulk Modulus (GPa) = 51.70661 67.71707 59.71184
# Shear Modulus (GPa) = 27.98067 40.58119 34.28093
#
# Velocity S-wave (km/s) = 3.43035 4.13116 3.79696
# Velocity P-wave (km/s) = 6.11841 7.15778 6.65841
#
# Compressibility (1/GPa) = 0.01933989
#
# Stress axis : x y z
#
# Youngs Moduli (GPa) = 97.47632 40.95605 74.77587
#
# Poissons Ratio (x) = 0.32765 0.12471
# Poissons Ratio (y) = 0.77981 0.35045
# Poissons Ratio (z) = 0.16257 0.19195
#
# Static dielectric constant tensor:
#      x y z
#    x 2.018650 -0.035990 -0.189750 
#    y -0.035990 2.059110 -0.127600 
#    z -0.189750 -0.127600 2.288240 
# 
# From -- ./inp_files/589794.got.cif
#   From: 2010.05.17/outbox.cif.g08.bks.cpg/sg2_295_cif.got.tgz:589794.got - 2010.06.03 11:33:40.
