data_PCOD9030219
_publ_section_title
;
Structure prediction by ZEFSAII (Michael W. Deem and Ramdas Pophale) SiO2 
 PCOD9030219
Probable space group: P -1
;
_chemical_formula_sum "Si O2"
_cell_formula_units_Z 16
_cell_length_a 8.110980
_cell_length_b 7.595358
_cell_length_c 14.209378
_cell_angle_alpha 59.227255
_cell_angle_beta 117.237566
_cell_angle_gamma 81.930641
_cell_volume 582.844024
_symmetry_space_group_name_H-M "P -1"
_symmetry_group_IT_number 2
_symmetry_cell_setting 'triclinic'
loop_
_space_group_symop_operation_xyz
x,y,z
-x,-y,-z
loop_
_atom_site_type_symbol
_atom_site_label
_atom_site_fract_x
_atom_site_fract_y
_atom_site_fract_z
Si Si1 0.697725 0.275603 0.321468
Si Si2 0.230935 0.720536 0.070679
Si Si3 0.514937 0.840812 0.851940
Si Si4 0.619867 0.201143 0.721931
Si Si5 0.776947 0.451338 0.552206
Si Si6 0.192888 0.127270 0.825273
Si Si7 0.061117 0.469163 0.879400
Si Si8 0.152512 0.183119 0.416317
O O1 0.476745 0.514913 0.190220
O O2 0.679580 0.164026 0.247534
O O3 0.923023 0.266658 0.383337
O O4 0.708351 0.093467 0.453536
O O5 0.231257 0.835804 0.140146
O O6 0.073639 0.614020 0.069932
O O7 0.178683 0.905503 0.923573
O O8 0.425245 0.011202 0.872140
O O9 0.603484 0.968057 0.771845
O O10 0.713167 0.593294 0.000114
O O11 0.702302 0.290907 0.632880
O O12 0.377384 0.420431 0.609829
O O13 0.747222 0.668776 0.551035
O O14 0.027106 0.279635 0.658216
O O15 0.132258 0.305829 0.847894
O O16 0.910313 0.728825 0.730579
#
# Coordination Sequence:
#
# PCOD9030219 Si02
#       8
#     2   2   2   2   2   2   2   2
#     4  11  27  44  65  98 139 178 214 261 339 403
#     4  12  24  43  70  98 133 180 215 273 333 391
#     4  12  25  42  68 101 136 173 218 276 326 395
#     4  11  22  41  70 101 127 170 221 277 323 382
#     4  10  22  42  70 102 129 166 225 277 326 380
#     4  11  23  40  67 103 130 171 220 276 335 376
#     4  11  23  43  69  98 130 170 228 276 326 383
#     4  10  22  46  65  94 137 175 215 265 331 401
#
# _framework density 27.451598000000001
#
# number of rings (size 3 to 8) (size 9 to 14) (size 15 to 20)
#    0.000    1.000    5.000    2.250    3.500    5.500 
#    0.000    1.250    0.000    0.000    0.000    0.000 
#    0.000    0.000    0.000    0.000    0.000    0.000 
#
# Total GULP energy -89650.865910 kJ/mol
# GULP energy per Si atom -5603.179119 kJ/mol
# Density = 2.738912 g / cm^3
# Si number density = 27.451598 Si / 1000 Ang^3
#
#
#
# Elastic Constant Matrix: (Units=GPa)
#
#
# Indices 1 2 3 4 5 6 
#
# 1 76.0892 21.4271 11.8208 0.7090 -4.2466 8.7234
# 2 21.4271 62.0005 25.1278 -2.9682 -2.1355 0.3299
# 3 11.8208 25.1278 190.2779 -7.0282 1.3581 16.8922
# 4 0.7090 -2.9682 -7.0282 46.2560 12.7665 4.9014
# 5 -4.2466 -2.1355 1.3581 12.7665 48.3811 -10.7797
# 6 8.7234 0.3299 16.8922 4.9014 -10.7797 38.9332
#
#
#
# Elastic Compliance Matrix: (Units=1/GPa)
#
#
# Indices 1 2 3 4 5 6 
#
# 1 0.014986 -0.005169 0.000014 -0.000359 0.000482 -0.003141
# 2 -0.005169 0.018910 -0.002358 0.000480 0.000807 0.002184
# 3 0.000014 -0.002358 0.005904 0.001443 -0.001340 -0.003097
# 4 -0.000359 0.000480 0.001443 0.024661 -0.007857 -0.005830
# 5 0.000482 0.000807 -0.001340 -0.007857 0.024707 0.008296
# 6 -0.003141 0.002184 -0.003097 -0.005830 0.008296 0.030745
#
#
# Mechanical properties :
#
#
# Convention : Reuss Voigt Hill
#
# Bulk Modulus (GPa) = 40.36460 49.45767 44.91114
# Shear Modulus (GPa) = 34.91704 44.71351 39.81528
#
# Velocity S-wave (km/s) = 3.57031 4.04023 3.81252
# Velocity P-wave (km/s) = 5.63311 6.31032 5.98131
#
# Compressibility (1/GPa) = 0.02477418
#
# Stress axis : x y z
#
# Youngs Moduli (GPa) = 66.72788 52.88208 169.38069
#
# Poissons Ratio (x) = 0.27333 -0.00232
# Poissons Ratio (y) = 0.34489 0.39941
# Poissons Ratio (z) = -0.00092 0.12470
#
# Static dielectric constant tensor:
#      x y z
#    x 2.109190 -0.020190 0.021950 
#    y -0.020190 2.214220 0.013280 
#    z 0.021950 0.013280 2.116000 
# 
# From -- ./inp_files/556913.got.cif
#   From: 2010.05.17/outbox.cif.g08.bks.cpg/sg2_279_cif.got.tgz:556913.got - 2010.06.03 11:33:40.
