data_PCOD9030953
_publ_section_title
;
Structure prediction by ZEFSAII (Michael W. Deem and Ramdas Pophale) SiO2 
 PCOD9030953
Probable space group: P -1
;
_chemical_formula_sum "Si O2"
_cell_formula_units_Z 14
_cell_length_a 17.067127
_cell_length_b 8.750408
_cell_length_c 6.547301
_cell_angle_alpha 74.794818
_cell_angle_beta 103.219378
_cell_angle_gamma 141.332531
_cell_volume 589.080023
_symmetry_space_group_name_H-M "P -1"
_symmetry_group_IT_number 2
_symmetry_cell_setting 'triclinic'
loop_
_space_group_symop_operation_xyz
x,y,z
-x,-y,-z
loop_
_atom_site_type_symbol
_atom_site_label
_atom_site_fract_x
_atom_site_fract_y
_atom_site_fract_z
Si Si1 0.781538 0.400386 0.836046
Si Si2 0.389742 0.269681 0.366934
Si Si3 0.994382 0.710191 0.089376
Si Si4 0.295329 0.436227 0.014281
Si Si5 0.515558 0.898743 0.731217
Si Si6 0.053921 0.068266 0.729669
Si Si7 0.141043 0.709255 0.408511
O O1 0.822965 0.405410 0.629322
O O2 0.639353 0.128552 0.847063
O O3 0.856150 0.434701 0.062731
O O4 0.769465 0.566942 0.834984
O O5 0.500000 0.500000 0.500000
O O6 0.458215 0.234307 0.297895
O O7 0.261230 0.985887 0.474269
O O8 0.345200 0.347536 0.168548
O O9 0.996435 0.852789 0.206829
O O10 0.105030 0.758267 0.171090
O O11 0.006225 0.822417 0.848950
O O12 0.400900 0.705336 0.883502
O O13 0.195555 0.270121 0.827913
O O14 0.500000 0.000000 0.500000
O O15 0.000000 0.000000 0.500000
O O16 0.000000 0.500000 0.500000
#
# Coordination Sequence:
#
# PCOD9030953 Si02
#       7
#     2   2   2   2   2   2   2
#     4  10  24  42  69  99 146 190 241 301 372 441
#     4  11  25  47  73 108 149 193 254 307 369 448
#     4  10  22  43  63 101 141 180 244 295 364 439
#     4  11  23  47  73 104 145 197 253 307 367 445
#     4  11  25  43  71 107 145 193 246 306 382 443
#     4  10  23  39  72 101 137 187 242 300 364 429
#     4  11  25  45  69 109 148 195 242 310 381 447
#
# _framework density 23.765872999999999
#
# number of rings (size 3 to 8) (size 9 to 14) (size 15 to 20)
#    0.000    1.429    1.429    2.143    4.000    5.714 
#    0.000    0.714    0.000    0.000    0.000    0.000 
#    0.000    0.000    0.000    0.000    0.000    0.000 
#
# Total GULP energy -78012.420879 kJ/mol
# GULP energy per Si atom -5572.315777 kJ/mol
# Density = 2.371178 g / cm^3
# Si number density = 23.765873 Si / 1000 Ang^3
#
#
#
# Elastic Constant Matrix: (Units=GPa)
#
#
# Indices 1 2 3 4 5 6 
#
# 1 110.1608 44.9231 35.6913 9.8778 3.8982 -6.4366
# 2 44.9231 139.2660 62.9826 29.0326 -6.3983 12.1559
# 3 35.6913 62.9826 98.5712 15.2060 8.8536 -6.0596
# 4 9.8778 29.0326 15.2060 50.9893 13.6667 -2.9421
# 5 3.8982 -6.3983 8.8536 13.6667 27.8131 -3.7143
# 6 -6.4366 12.1559 -6.0596 -2.9421 -3.7143 39.4122
#
#
#
# Elastic Compliance Matrix: (Units=1/GPa)
#
#
# Indices 1 2 3 4 5 6 
#
# 1 0.011109 -0.003273 -0.001749 0.000871 -0.001855 0.002445
# 2 -0.003273 0.014555 -0.008085 -0.008158 0.009592 -0.005972
# 3 -0.001749 -0.008085 0.016523 0.002246 -0.007415 0.004217
# 4 0.000871 -0.008158 0.002246 0.027899 -0.015944 0.003584
# 5 -0.001855 0.009592 -0.007415 -0.015944 0.048479 -0.001023
# 6 0.002445 -0.005972 0.004217 0.003584 -0.001023 0.028434
#
#
# Mechanical properties :
#
#
# Convention : Reuss Voigt Hill
#
# Bulk Modulus (GPa) = 62.60249 70.57688 66.58969
# Shear Modulus (GPa) = 28.00520 37.26965 32.63742
#
# Velocity S-wave (km/s) = 3.43648 3.96435 3.70981
# Velocity P-wave (km/s) = 6.49187 7.12151 6.81397
#
# Compressibility (1/GPa) = 0.01597381
#
# Stress axis : x y z
#
# Youngs Moduli (GPa) = 90.01475 68.70258 60.52097
#
# Poissons Ratio (x) = 0.22486 0.10584
# Poissons Ratio (y) = 0.29461 0.48934
# Poissons Ratio (z) = 0.15741 0.55549
#
# Static dielectric constant tensor:
#      x y z
#    x 1.949030 0.074390 0.036560 
#    y 0.074390 2.108310 -0.008150 
#    z 0.036560 -0.008150 2.065410 
# 
# From -- ./inp_files/106753.got.cif
#   From: 2010.05.17/outbox.cif.g08.bks.cpg/sg2_54_cif.got.tgz:106753.got - 2010.06.03 11:33:40.
