data_PCOD9030645
_publ_section_title
;
Structure prediction by ZEFSAII (Michael W. Deem and Ramdas Pophale) SiO2 
 PCOD9030645
Probable space group: P -1
;
_chemical_formula_sum "Si O2"
_cell_formula_units_Z 16
_cell_length_a 22.874687
_cell_length_b 13.153758
_cell_length_c 11.252937
_cell_angle_alpha 145.945897
_cell_angle_beta 21.378638
_cell_angle_gamma 145.897428
_cell_volume 664.114823
_symmetry_space_group_name_H-M "P -1"
_symmetry_group_IT_number 2
_symmetry_cell_setting 'triclinic'
loop_
_space_group_symop_operation_xyz
x,y,z
-x,-y,-z
loop_
_atom_site_type_symbol
_atom_site_label
_atom_site_fract_x
_atom_site_fract_y
_atom_site_fract_z
Si Si1 0.732375 0.775284 0.058136
Si Si2 0.825861 0.841096 0.203560
Si Si3 0.641861 0.347016 0.793129
Si Si4 0.467457 0.975030 0.675008
Si Si5 0.786284 0.250235 0.909415
Si Si6 0.935997 0.913807 0.304055
Si Si7 0.548303 0.303328 0.198981
Si Si8 0.980995 0.407438 0.075206
O O1 0.795431 0.738476 0.034508
O O2 0.600216 0.896738 0.421710
O O3 0.650380 0.565101 0.961794
O O4 0.890358 0.925179 0.847007
O O5 0.888366 0.774175 0.143286
O O6 0.634057 0.851196 0.597761
O O7 0.000000 0.000000 0.000000
O O8 0.479278 0.184983 0.902107
O O9 0.797554 0.316922 0.392898
O O10 0.636599 0.310761 0.910568
O O11 0.500000 0.000000 0.500000
O O12 0.303919 0.808913 0.850754
O O13 0.938735 0.427253 0.822070
O O14 0.828318 0.055508 0.613853
O O15 0.670148 0.287379 0.060100
O O16 0.926540 0.758183 0.269966
O O17 0.500000 0.500000 0.500000
O O18 0.000000 0.500000 0.000000
#
# Coordination Sequence:
#
# PCOD9030645 Si02
#       8
#     2   2   2   2   2   2   2   2
#     4  11  23  47  72 107 155 193 252 318 379 464
#     4  10  22  42  72 107 154 194 238 312 379 456
#     4  12  26  46  78 107 150 214 249 316 402 448
#     4  12  27  47  73 109 151 200 263 320 383 465
#     4  12  27  45  77 114 149 204 256 320 397 451
#     4  11  25  45  75 110 144 198 259 312 380 462
#     4  12  24  45  75 117 162 193 257 322 388 475
#     4  12  28  50  75 110 155 207 265 321 382 465
#
# _framework density 24.092220999999999
#
# number of rings (size 3 to 8) (size 9 to 14) (size 15 to 20)
#    0.000    0.500    5.000    2.250    1.750    5.500 
#    0.000    0.000    0.000    0.000    0.000    0.000 
#    0.000    0.000    0.000    0.000    0.000    0.000 
#
# Total GULP energy -89074.860930 kJ/mol
# GULP energy per Si atom -5567.178808 kJ/mol
# Density = 2.403739 g / cm^3
# Si number density = 24.092221 Si / 1000 Ang^3
#
#
#
# Elastic Constant Matrix: (Units=GPa)
#
#
# Indices 1 2 3 4 5 6 
#
# 1 85.5607 58.4038 16.1277 1.8330 10.5704 -20.7199
# 2 58.4038 126.6543 35.7915 19.8168 -14.7589 -10.1564
# 3 16.1277 35.7915 61.0245 -3.0718 -2.9976 -13.1989
# 4 1.8330 19.8168 -3.0718 51.0277 -1.8446 -1.4256
# 5 10.5704 -14.7589 -2.9976 -1.8446 27.1315 -5.4579
# 6 -20.7199 -10.1564 -13.1989 -1.4256 -5.4579 48.0359
#
#
#
# Elastic Compliance Matrix: (Units=1/GPa)
#
#
# Indices 1 2 3 4 5 6 
#
# 1 0.023749 -0.013523 0.002558 0.004203 -0.014725 0.006539
# 2 -0.013523 0.018743 -0.007663 -0.006835 0.013624 -0.002631
# 3 0.002558 -0.007663 0.021510 0.004277 -0.001420 0.005359
# 4 0.004203 -0.006835 0.004277 0.022302 -0.002992 0.001865
# 5 -0.014725 0.013624 -0.001420 -0.002992 0.049993 0.001730
# 6 0.006539 -0.002631 0.005359 0.001865 0.001730 0.024807
#
#
# Mechanical properties :
#
#
# Convention : Reuss Voigt Hill
#
# Bulk Modulus (GPa) = 37.38989 54.87616 46.13302
# Shear Modulus (GPa) = 24.12231 36.10012 30.11122
#
# Velocity S-wave (km/s) = 3.16768 3.87513 3.53913
# Velocity P-wave (km/s) = 5.37886 6.54593 5.99088
#
# Compressibility (1/GPa) = 0.02674520
#
# Stress axis : x y z
#
# Youngs Moduli (GPa) = 42.10641 53.35292 46.49009
#
# Poissons Ratio (x) = 0.72151 -0.11891
# Poissons Ratio (y) = 0.56942 0.35625
# Poissons Ratio (z) = -0.10770 0.40884
#
# Static dielectric constant tensor:
#      x y z
#    x 2.029460 0.159850 0.246130 
#    y 0.159850 2.052050 0.216910 
#    z 0.246130 0.216910 2.372390 
# 
# From -- ./inp_files/474866.got.cif
#   From: 2010.05.17/outbox.cif.g08.bks.cpg/sg2_238_cif.got.tgz:474866.got - 2010.06.03 11:33:40.
