data_PCOD9030313
_publ_section_title
;
Structure prediction by ZEFSAII (Michael W. Deem and Ramdas Pophale) SiO2 
 PCOD9030313
Probable space group: P -1
;
_chemical_formula_sum "Si O2"
_cell_formula_units_Z 15
_cell_length_a 20.016557
_cell_length_b 16.926335
_cell_length_c 17.238674
_cell_angle_alpha 22.660584
_cell_angle_beta 20.459779
_cell_angle_gamma 19.881128
_cell_volume 650.100654
_symmetry_space_group_name_H-M "P -1"
_symmetry_group_IT_number 2
_symmetry_cell_setting 'triclinic'
loop_
_space_group_symop_operation_xyz
x,y,z
-x,-y,-z
loop_
_atom_site_type_symbol
_atom_site_label
_atom_site_fract_x
_atom_site_fract_y
_atom_site_fract_z
Si Si1 0.500000 0.500000 0.000000
Si Si2 0.097901 0.110006 0.089082
Si Si3 0.224991 0.985685 0.239464
Si Si4 0.871916 0.496873 0.504091
Si Si5 0.725500 0.690806 0.991649
Si Si6 0.553477 0.846415 0.408996
Si Si7 0.250244 0.044891 0.423981
Si Si8 0.214061 0.020914 0.759585
O O1 0.242135 0.596573 0.229351
O O2 0.595493 0.221671 0.180378
O O3 0.212405 0.001435 0.146266
O O4 0.938172 0.017721 0.323801
O O5 0.927168 0.408723 0.010828
O O6 0.296582 0.041412 0.873104
O O7 0.222509 0.213680 0.073704
O O8 0.469822 0.745132 0.220340
O O9 0.000000 0.000000 0.500000
O O10 0.861019 0.728573 0.342632
O O11 0.131456 0.289078 0.385491
O O12 0.723870 0.588632 0.501824
O O13 0.705773 0.874289 0.778966
O O14 0.464661 0.833087 0.432922
O O15 0.340501 0.998268 0.561733
O O16 0.000000 0.000000 0.000000
#
# Coordination Sequence:
#
# PCOD9030313 Si02
#       8
#     1   2   2   2   2   2   2   2
#     4  10  22  42  70  90 136 184 222 292 342 406
#     4  12  26  45  72 104 143 183 232 287 349 413
#     4  11  24  48  74 103 141 184 227 282 350 416
#     4  11  26  45  68 101 141 181 242 285 353 414
#     4  11  25  46  71 106 140 180 232 282 343 428
#     4  11  25  45  70 100 142 183 234 290 347 412
#     4  12  26  44  70 104 140 185 229 289 353 409
#     4  11  26  46  69 104 136 188 243 287 353 416
#
# _framework density 23.073350999999999
#
# number of rings (size 3 to 8) (size 9 to 14) (size 15 to 20)
#    0.000    0.800    4.000    2.800    5.600    5.867 
#    2.400    0.000    0.000    0.000    0.000    0.000 
#    0.000    0.000    0.000    0.000    0.000    0.000 
#
# Total GULP energy -83690.947161 kJ/mol
# GULP energy per Si atom -5579.396477 kJ/mol
# Density = 2.302083 g / cm^3
# Si number density = 23.073351 Si / 1000 Ang^3
#
#
#
# Elastic Constant Matrix: (Units=GPa)
#
#
# Indices 1 2 3 4 5 6 
#
# 1 67.3540 7.4935 20.8665 -12.5620 -4.8215 -16.0039
# 2 7.4935 58.2903 5.3505 7.9249 -6.6134 2.8700
# 3 20.8665 5.3505 101.7142 22.3259 -5.4926 2.1439
# 4 -12.5620 7.9249 22.3259 43.3251 -4.6551 -0.4920
# 5 -4.8215 -6.6134 -5.4926 -4.6551 37.7302 8.0431
# 6 -16.0039 2.8700 2.1439 -0.4920 8.0431 31.8278
#
#
#
# Elastic Compliance Matrix: (Units=1/GPa)
#
#
# Indices 1 2 3 4 5 6 
#
# 1 0.022556 -0.004395 -0.007112 0.011129 -0.000202 0.012440
# 2 -0.004395 0.018919 0.001313 -0.005106 0.003368 -0.004934
# 3 -0.007112 0.001313 0.013398 -0.009133 0.001221 -0.005047
# 4 0.011129 -0.005106 -0.009133 0.032211 0.001737 0.006730
# 5 -0.000202 0.003368 0.001221 0.001737 0.029128 -0.007822
# 6 0.012440 -0.004934 -0.005047 0.006730 -0.007822 0.040540
#
#
# Mechanical properties :
#
#
# Convention : Reuss Voigt Hill
#
# Bulk Modulus (GPa) = 28.99786 32.75326 30.87556
# Shear Modulus (GPa) = 26.50603 35.48648 30.99626
#
# Velocity S-wave (km/s) = 3.39303 3.92597 3.66919
# Velocity P-wave (km/s) = 5.28632 5.89721 5.60010
#
# Compressibility (1/GPa) = 0.03448531
#
# Stress axis : x y z
#
# Youngs Moduli (GPa) = 44.33360 52.85626 74.63632
#
# Poissons Ratio (x) = 0.23232 0.53081
# Poissons Ratio (y) = 0.19486 -0.09800
# Poissons Ratio (z) = 0.31530 -0.06940
#
# Static dielectric constant tensor:
#      x y z
#    x 1.880010 -0.014000 -0.002380 
#    y -0.014000 1.880440 0.037120 
#    z -0.002380 0.037120 1.841820 
# 
# From -- ./inp_files/578402.got.cif
#   From: 2010.05.17/outbox.cif.g08.bks.cpg/sg2_290_cif.got.tgz:578402.got - 2010.06.03 11:33:40.
