data_PCOD9030405
_publ_section_title
;
Structure prediction by ZEFSAII (Michael W. Deem and Ramdas Pophale) SiO2 
 PCOD9030405
Probable space group: P -1
;
_chemical_formula_sum "Si O2"
_cell_formula_units_Z 12
_cell_length_a 10.469843
_cell_length_b 19.718787
_cell_length_c 7.658813
_cell_angle_alpha 41.841798
_cell_angle_beta 121.027380
_cell_angle_gamma 148.394928
_cell_volume 519.726792
_symmetry_space_group_name_H-M "P -1"
_symmetry_group_IT_number 2
_symmetry_cell_setting 'triclinic'
loop_
_space_group_symop_operation_xyz
x,y,z
-x,-y,-z
loop_
_atom_site_type_symbol
_atom_site_label
_atom_site_fract_x
_atom_site_fract_y
_atom_site_fract_z
Si Si1 0.892615 0.168503 0.309241
Si Si2 0.190572 0.676447 0.190960
Si Si3 0.888971 0.271690 0.454203
Si Si4 0.282045 0.980683 0.897963
Si Si5 0.643362 0.336213 0.024665
Si Si6 0.033672 0.005657 0.220185
O O1 0.781848 0.139387 0.476300
O O2 0.055592 0.158189 0.477122
O O3 0.983947 0.327616 0.995482
O O4 0.712056 0.037818 0.268573
O O5 0.436016 0.846282 0.153442
O O6 0.314907 0.689387 0.088130
O O7 0.000000 0.500000 0.500000
O O8 0.857550 0.187712 0.766998
O O9 0.185978 0.465979 0.241004
O O10 0.762882 0.314379 0.275232
O O11 0.120862 0.993125 0.793247
O O12 0.340730 0.183874 0.134627
O O13 0.000000 0.000000 0.000000
#
# Coordination Sequence:
#
# PCOD9030405 Si02
#       6
#     2   2   2   2   2   2
#     4  11  24  42  66  98 130 174 221 266 328 386
#     4  11  23  42  69  99 131 169 227 278 321 386
#     4  10  22  43  69  98 130 173 220 278 319 386
#     4  12  24  43  69  96 135 173 219 271 333 389
#     4  10  22  42  70  98 133 173 221 269 333 384
#     4  12  23  44  67  95 138 179 213 265 332 398
#
# _framework density 23.089051000000001
#
# number of rings (size 3 to 8) (size 9 to 14) (size 15 to 20)
#    0.000    1.000    3.333    3.000    0.000    7.333 
#    0.000    1.667    0.000    0.000    0.000    0.000 
#    0.000    0.000    0.000    0.000    0.000    0.000 
#
# Total GULP energy -67047.900654 kJ/mol
# GULP energy per Si atom -5587.325054 kJ/mol
# Density = 2.303650 g / cm^3
# Si number density = 23.089051 Si / 1000 Ang^3
#
#
#
# Elastic Constant Matrix: (Units=GPa)
#
#
# Indices 1 2 3 4 5 6 
#
# 1 112.1145 31.8079 34.8122 -2.2873 24.0204 5.9333
# 2 31.8079 74.9089 29.5820 8.9596 3.8375 -7.0320
# 3 34.8122 29.5820 166.1429 0.5996 20.4108 12.3187
# 4 -2.2873 8.9596 0.5996 35.5516 0.9355 -6.2224
# 5 24.0204 3.8375 20.4108 0.9355 34.8543 17.1646
# 6 5.9333 -7.0320 12.3187 -6.2224 17.1646 51.6963
#
#
#
# Elastic Compliance Matrix: (Units=1/GPa)
#
#
# Indices 1 2 3 4 5 6 
#
# 1 0.012197 -0.004615 -0.000840 0.002369 -0.008021 0.001121
# 2 -0.004615 0.016888 -0.002406 -0.004147 0.001688 0.002340
# 3 -0.000840 -0.002406 0.007039 0.000346 -0.002831 -0.000927
# 4 0.002369 -0.004147 0.000346 0.030150 -0.004211 0.004109
# 5 -0.008021 0.001688 -0.002831 -0.004211 0.042027 -0.012636
# 6 0.001121 0.002340 -0.000927 0.004109 -0.012636 0.024444
#
#
# Mechanical properties :
#
#
# Convention : Reuss Voigt Hill
#
# Bulk Modulus (GPa) = 49.01409 60.61894 54.81652
# Shear Modulus (GPa) = 32.20244 41.55136 36.87690
#
# Velocity S-wave (km/s) = 3.73863 4.24679 4.00078
# Velocity P-wave (km/s) = 6.31750 7.09636 6.71823
#
# Compressibility (1/GPa) = 0.02040230
#
# Stress axis : x y z
#
# Youngs Moduli (GPa) = 81.98650 59.21223 142.07334
#
# Poissons Ratio (x) = 0.27324 0.11938
# Poissons Ratio (y) = 0.37833 0.34185
# Poissons Ratio (z) = 0.06889 0.14247
#
# Static dielectric constant tensor:
#      x y z
#    x 1.879960 -0.056260 0.026250 
#    y -0.056260 1.914690 -0.002980 
#    z 0.026250 -0.002980 1.879590 
# 
# From -- ./inp_files/175255.got.cif
#   From: 2010.05.17/outbox.cif.g08.bks.cpg/sg2_88_cif.got.tgz:175255.got - 2010.06.03 11:33:40.
