data_PCOD9030193
_publ_section_title
;
Structure prediction by ZEFSAII (Michael W. Deem and Ramdas Pophale) SiO2 
 PCOD9030193
Probable space group: P -1
;
_chemical_formula_sum "Si O2"
_cell_formula_units_Z 14
_cell_length_a 9.820966
_cell_length_b 15.388577
_cell_length_c 8.902129
_cell_angle_alpha 146.008437
_cell_angle_beta 120.683190
_cell_angle_gamma 70.771180
_cell_volume 634.447697
_symmetry_space_group_name_H-M "P -1"
_symmetry_group_IT_number 2
_symmetry_cell_setting 'triclinic'
loop_
_space_group_symop_operation_xyz
x,y,z
-x,-y,-z
loop_
_atom_site_type_symbol
_atom_site_label
_atom_site_fract_x
_atom_site_fract_y
_atom_site_fract_z
Si Si1 0.618388 0.224727 0.772375
Si Si2 0.614231 0.647941 0.697963
Si Si3 0.172258 0.964753 0.502618
Si Si4 0.192428 0.795179 0.559238
Si Si5 0.815744 0.725109 0.189678
Si Si6 0.406232 0.560459 0.197343
Si Si7 0.579337 0.117815 0.928850
O O1 0.796655 0.194053 0.786356
O O2 0.588901 0.374466 0.875893
O O3 0.603824 0.216903 0.930711
O O4 0.500307 0.064490 0.412851
O O5 0.500000 0.500000 0.500000
O O6 0.579167 0.613221 0.454077
O O7 0.780274 0.665600 0.910206
O O8 0.540979 0.800428 0.921529
O O9 0.235848 0.937101 0.666503
O O10 0.222800 0.098759 0.594738
O O11 0.000000 0.000000 0.500000
O O12 0.288528 0.661726 0.364936
O O13 0.999687 0.732927 0.352489
O O14 0.258018 0.857434 0.847294
O O15 0.687971 0.616372 0.070065
#
# Coordination Sequence:
#
# PCOD9030193 Si02
#       7
#     2   2   2   2   2   2   2
#     4  10  20  35  56  76 109 145 179 214 262 321
#     4   9  18  32  55  80 103 136 177 222 263 304
#     4   9  18  32  55  80 103 136 177 222 263 304
#     4   9  19  32  54  79 100 141 181 217 260 319
#     4  10  17  32  51  78 110 128 172 230 266 296
#     4   9  19  32  54  79 100 141 181 217 260 319
#     4  10  20  35  56  76 109 145 179 214 262 321
#
# _framework density 22.066437000000001
#
# number of rings (size 3 to 8) (size 9 to 14) (size 15 to 20)
#    0.000    2.571    1.429    0.429    2.000    1.714 
#    0.000    6.429    0.000    0.000    0.000    0.000 
#    0.000    0.000    0.000    0.000    0.000    0.000 
#
# Total GULP energy -77963.516409 kJ/mol
# GULP energy per Si atom -5568.822601 kJ/mol
# Density = 2.201621 g / cm^3
# Si number density = 22.066437 Si / 1000 Ang^3
#
#
#
# Elastic Constant Matrix: (Units=GPa)
#
#
# Indices 1 2 3 4 5 6 
#
# 1 69.1091 31.7818 30.6337 -13.2221 11.4188 13.9626
# 2 31.7818 169.4081 49.9598 1.0570 4.4177 25.2366
# 3 30.6337 49.9598 93.5002 -22.0239 10.4500 6.1180
# 4 -13.2221 1.0570 -22.0239 46.5748 -2.9572 2.1025
# 5 11.4188 4.4177 10.4500 -2.9572 28.8243 -7.7705
# 6 13.9626 25.2366 6.1180 2.1025 -7.7705 40.5338
#
#
#
# Elastic Compliance Matrix: (Units=1/GPa)
#
#
# Indices 1 2 3 4 5 6 
#
# 1 0.020284 -0.001490 -0.003544 0.003932 -0.008081 -0.007278
# 2 -0.001490 0.007961 -0.004025 -0.002363 -0.000437 -0.003797
# 3 -0.003544 -0.004025 0.015802 0.006351 -0.002935 0.000450
# 4 0.003932 -0.002363 0.006351 0.025658 -0.001530 -0.002466
# 5 -0.008081 -0.000437 -0.002935 -0.001530 0.042003 0.011630
# 6 -0.007278 -0.003797 0.000450 -0.002466 0.011630 0.031831
#
#
# Mechanical properties :
#
#
# Convention : Reuss Voigt Hill
#
# Bulk Modulus (GPa) = 38.56794 61.86311 50.21553
# Shear Modulus (GPa) = 29.35991 37.82940 33.59466
#
# Velocity S-wave (km/s) = 3.65159 4.14495 3.90607
# Velocity P-wave (km/s) = 5.94095 7.14166 6.56880
#
# Compressibility (1/GPa) = 0.02592827
#
# Stress axis : x y z
#
# Youngs Moduli (GPa) = 49.30064 125.60818 63.28463
#
# Poissons Ratio (x) = 0.18713 0.22429
# Poissons Ratio (y) = 0.07345 0.25474
# Poissons Ratio (z) = 0.17473 0.50560
#
# Static dielectric constant tensor:
#      x y z
#    x 1.874170 -0.001610 0.047590 
#    y -0.001610 1.857410 0.033180 
#    z 0.047590 0.033180 1.967930 
# 
# From -- ./inp_files/252266.got.cif
#   From: 2010.05.17/outbox.cif.g08.bks.cpg/sg2_127_cif.got.tgz:252266.got - 2010.06.03 11:33:40.
