data_PCOD9030966
_publ_section_title
;
Structure prediction by ZEFSAII (Michael W. Deem and Ramdas Pophale) SiO2 
 PCOD9030966
Probable space group: P -1
;
_chemical_formula_sum "Si O2"
_cell_formula_units_Z 16
_cell_length_a 14.524171
_cell_length_b 13.487204
_cell_length_c 10.655714
_cell_angle_alpha 44.682489
_cell_angle_beta 28.933616
_cell_angle_gamma 42.372618
_cell_volume 667.160938
_symmetry_space_group_name_H-M "P -1"
_symmetry_group_IT_number 2
_symmetry_cell_setting 'triclinic'
loop_
_space_group_symop_operation_xyz
x,y,z
-x,-y,-z
loop_
_atom_site_type_symbol
_atom_site_label
_atom_site_fract_x
_atom_site_fract_y
_atom_site_fract_z
Si Si1 0.814583 0.159524 0.080251
Si Si2 0.267145 0.518714 0.231681
Si Si3 0.061013 0.707011 0.505916
Si Si4 0.117089 0.327162 0.995904
Si Si5 0.098154 0.828220 0.757048
Si Si6 0.511343 0.666179 0.314932
Si Si7 0.306299 0.894670 0.980298
Si Si8 0.688916 0.745785 0.776547
O O1 0.786450 0.187771 0.235060
O O2 0.824085 0.320120 0.875871
O O3 0.666840 0.126391 0.182633
O O4 0.000000 0.000000 0.000000
O O5 0.142253 0.542238 0.491192
O O6 0.500000 0.500000 0.000000
O O7 0.258566 0.381039 0.280666
O O8 0.259262 0.751061 0.218359
O O9 0.968298 0.740068 0.723786
O O10 0.874755 0.793192 0.559115
O O11 0.350507 0.299311 0.771240
O O12 0.000000 0.500000 0.000000
O O13 0.027398 0.283088 0.017609
O O14 0.284807 0.786038 0.476228
O O15 0.906929 0.980433 0.844388
O O16 0.500000 0.500000 0.500000
O O17 0.621260 0.676471 0.043891
O O18 0.508134 0.890028 0.812040
#
# Coordination Sequence:
#
# PCOD9030966 Si02
#       8
#     2   2   2   2   2   2   2   2
#     4   9  20  39  62  90 124 162 209 257 311 376
#     4  11  20  37  66  91 120 167 209 260 319 366
#     4  10  23  39  60  91 128 156 210 265 308 372
#     4  11  24  40  59  94 127 161 209 261 310 386
#     4  11  23  41  66  86 128 172 203 259 326 369
#     4  11  23  39  62  91 124 163 207 258 314 375
#     4  10  22  43  63  91 123 167 212 259 315 378
#     4  11  22  39  62  92 126 159 213 265 307 375
#
# _framework density 23.982218
#
# number of rings (size 3 to 8) (size 9 to 14) (size 15 to 20)
#    0.000    1.500    3.750    1.875    1.750    4.000 
#    0.000    2.500    0.000    9.000    0.000    0.000 
#    0.000    0.000    0.000    0.000    0.000    0.000 
#
# Total GULP energy -89161.450815 kJ/mol
# GULP energy per Si atom -5572.590676 kJ/mol
# Density = 2.392763 g / cm^3
# Si number density = 23.982218 Si / 1000 Ang^3
#
#
#
# Elastic Constant Matrix: (Units=GPa)
#
#
# Indices 1 2 3 4 5 6 
#
# 1 77.9247 3.2924 31.0188 13.1060 -26.6051 -5.9079
# 2 3.2924 71.4686 14.2965 15.5854 3.6065 0.4067
# 3 31.0188 14.2965 66.8575 20.9372 -13.6397 -2.6670
# 4 13.1060 15.5854 20.9372 27.6846 -6.2028 -4.3071
# 5 -26.6051 3.6065 -13.6397 -6.2028 37.8841 7.6082
# 6 -5.9079 0.4067 -2.6670 -4.3071 7.6082 35.5147
#
#
#
# Elastic Compliance Matrix: (Units=1/GPa)
#
#
# Indices 1 2 3 4 5 6 
#
# 1 0.019394 0.000256 -0.006107 -0.002220 0.011006 0.000138
# 2 0.000256 0.016426 -0.001480 -0.009085 -0.003272 -0.000657
# 3 -0.006107 -0.001480 0.022583 -0.013091 0.002109 -0.001343
# 4 -0.002220 -0.009085 -0.013091 0.053459 0.002397 0.004721
# 5 0.011006 -0.003272 0.002109 0.002397 0.036703 -0.005545
# 6 0.000138 -0.000657 -0.001343 0.004721 -0.005545 0.029848
#
#
# Mechanical properties :
#
#
# Convention : Reuss Voigt Hill
#
# Bulk Modulus (GPa) = 22.86117 34.82958 28.84537
# Shear Modulus (GPa) = 24.07825 31.39288 27.73557
#
# Velocity S-wave (km/s) = 3.17204 3.62194 3.40443
# Velocity P-wave (km/s) = 4.79260 5.66091 5.24476
#
# Compressibility (1/GPa) = 0.04374230
#
# Stress axis : x y z
#
# Youngs Moduli (GPa) = 51.56104 60.87735 44.28019
#
# Poissons Ratio (x) = -0.01559 0.27041
# Poissons Ratio (y) = -0.01320 0.06554
# Poissons Ratio (z) = 0.31488 0.09011
#
# Static dielectric constant tensor:
#      x y z
#    x 3.464360 2.185110 -0.247810 
#    y 2.185110 5.080380 -0.321540 
#    z -0.247810 -0.321540 1.870250 
# 
# From -- ./inp_files/454602.got.cif
#   From: 2010.05.17/outbox.cif.g08.bks.cpg/sg2_228_cif.got.tgz:454602.got - 2010.06.03 11:33:40.
