data_PCOD9030580
_publ_section_title
;
Structure prediction by ZEFSAII (Michael W. Deem and Ramdas Pophale) SiO2 
 PCOD9030580
Probable space group: P -1
;
_chemical_formula_sum "Si O2"
_cell_formula_units_Z 13
_cell_length_a 11.623683
_cell_length_b 22.816503
_cell_length_c 4.881097
_cell_angle_alpha 85.658651
_cell_angle_beta 89.318376
_cell_angle_gamma 23.070577
_cell_volume 500.268334
_symmetry_space_group_name_H-M "P -1"
_symmetry_group_IT_number 2
_symmetry_cell_setting 'triclinic'
loop_
_space_group_symop_operation_xyz
x,y,z
-x,-y,-z
loop_
_atom_site_type_symbol
_atom_site_label
_atom_site_fract_x
_atom_site_fract_y
_atom_site_fract_z
Si Si1 0.484093 0.452297 0.812515
Si Si2 0.221714 0.432160 0.323091
Si Si3 0.500000 0.000000 0.000000
Si Si4 0.690090 0.012736 0.817532
Si Si5 0.281052 0.719987 0.614865
Si Si6 0.194701 0.220253 0.397934
Si Si7 0.333690 0.266161 0.055330
O O1 0.680746 0.352076 0.569260
O O2 0.151904 0.606006 0.647368
O O3 0.500000 0.500000 0.000000
O O4 0.577979 0.358245 0.061047
O O5 0.497755 0.334149 0.489474
O O6 0.000000 0.500000 0.500000
O O7 0.988361 0.586267 0.132780
O O8 0.351376 0.323374 0.145652
O O9 0.728104 0.864327 0.796075
O O10 0.752306 0.936059 0.077556
O O11 0.385225 0.117257 0.704322
O O12 0.584781 0.124316 0.895489
O O13 0.947592 0.895018 0.633805
O O14 0.330094 0.219900 0.312175
#
# Coordination Sequence:
#
# PCOD9030580 Si02
#       7
#     2   2   1   2   2   2   2
#     4  12  27  47  73 107 147 195 244 306 363 438
#     4  11  23  45  74 105 139 194 243 304 365 441
#     4  10  24  40  70  96 142 188 242 288 360 434
#     4  11  25  44  71 104 147 193 241 305 366 437
#     4  12  28  47  72 111 150 185 249 309 362 433
#     4  11  23  44  71 101 143 193 245 290 374 435
#     4  10  22  42  72 100 138 189 244 293 370 438
#
# _framework density 25.986052999999998
#
# number of rings (size 3 to 8) (size 9 to 14) (size 15 to 20)
#    0.000    0.923    1.538    4.615   10.769    0.615 
#    0.000    3.077    0.000    0.000    0.000    0.000 
#    0.000    0.000    0.000    0.000    0.000    0.000 
#
# Total GULP energy -72556.744949 kJ/mol
# GULP energy per Si atom -5581.288073 kJ/mol
# Density = 2.592691 g / cm^3
# Si number density = 25.986053 Si / 1000 Ang^3
#
#
#
# Elastic Constant Matrix: (Units=GPa)
#
#
# Indices 1 2 3 4 5 6 
#
# 1 73.4825 44.2649 22.0883 14.4699 10.3477 5.5610
# 2 44.2649 191.9946 82.7726 28.0160 22.1172 5.3513
# 3 22.0883 82.7726 138.1722 14.8333 10.1167 4.2958
# 4 14.4699 28.0160 14.8333 59.2535 10.2254 9.3056
# 5 10.3477 22.1172 10.1167 10.2254 38.4141 4.2955
# 6 5.5610 5.3513 4.2958 9.3056 4.2955 36.8618
#
#
#
# Elastic Compliance Matrix: (Units=1/GPa)
#
#
# Indices 1 2 3 4 5 6 
#
# 1 0.016307 -0.003060 -0.000391 -0.001914 -0.001876 -0.001268
# 2 -0.003060 0.008188 -0.004065 -0.001766 -0.002402 0.000472
# 3 -0.000391 -0.004065 0.009786 -0.000372 0.000012 -0.000399
# 4 -0.001914 -0.001766 -0.000372 0.019428 -0.003099 -0.003955
# 5 -0.001876 -0.002402 0.000012 -0.003099 0.028962 -0.001962
# 6 -0.001268 0.000472 -0.000399 -0.003955 -0.001962 0.028525
#
#
# Mechanical properties :
#
#
# Convention : Reuss Voigt Hill
#
# Bulk Modulus (GPa) = 51.95247 77.98898 64.97073
# Shear Modulus (GPa) = 37.69486 43.87411 40.78449
#
# Velocity S-wave (km/s) = 3.81278 4.11344 3.96596
# Velocity P-wave (km/s) = 6.27845 7.25517 6.78441
#
# Compressibility (1/GPa) = 0.01924836
#
# Stress axis : x y z
#
# Youngs Moduli (GPa) = 61.32405 122.13472 102.18217
#
# Poissons Ratio (x) = 0.37373 0.03999
# Poissons Ratio (y) = 0.18765 0.41536
# Poissons Ratio (z) = 0.02400 0.49647
#
# Static dielectric constant tensor:
#      x y z
#    x 2.281490 0.115880 -0.279020 
#    y 0.115880 2.252780 -0.276180 
#    z -0.279020 -0.276180 2.457530 
# 
# From -- ./inp_files/39157.got.cif
#   From: 2010.05.17/outbox.cif.g08.bks.cpg/sg2_20_cif.got.tgz:39157.got - 2010.06.03 11:33:40.
