data_PCOD9030084
_publ_section_title
;
Structure prediction by ZEFSAII (Michael W. Deem and Ramdas Pophale) SiO2 
 PCOD9030084
Probable space group: P -1
;
_chemical_formula_sum "Si O2"
_cell_formula_units_Z 16
_cell_length_a 9.795830
_cell_length_b 14.058948
_cell_length_c 11.653570
_cell_angle_alpha 31.495467
_cell_angle_beta 98.115919
_cell_angle_gamma 84.311536
_cell_volume 751.601097
_symmetry_space_group_name_H-M "P -1"
_symmetry_group_IT_number 2
_symmetry_cell_setting 'triclinic'
loop_
_space_group_symop_operation_xyz
x,y,z
-x,-y,-z
loop_
_atom_site_type_symbol
_atom_site_label
_atom_site_fract_x
_atom_site_fract_y
_atom_site_fract_z
Si Si1 0.609536 0.932562 0.691753
Si Si2 0.572716 0.268067 0.999404
Si Si3 0.654236 0.294186 0.732615
Si Si4 0.018267 0.702744 0.261973
Si Si5 0.024862 0.771637 0.441222
Si Si6 0.107418 0.892174 0.728692
Si Si7 0.056411 0.333927 0.954194
Si Si8 0.638303 0.264694 0.508955
O O1 0.609720 0.124207 0.559312
O O2 0.500000 0.000000 0.500000
O O3 0.546368 0.817224 0.890946
O O4 0.784347 0.780294 0.844274
O O5 0.714108 0.183914 0.190068
O O6 0.639742 0.201766 0.947427
O O7 0.491779 0.508900 0.745188
O O8 0.500000 0.500000 0.500000
O O9 0.806934 0.333959 0.704524
O O10 0.649505 0.189100 0.719946
O O11 0.968370 0.829309 0.243515
O O12 0.000000 0.500000 0.500000
O O13 0.928642 0.771232 0.061600
O O14 0.202409 0.724788 0.508706
O O15 0.942541 0.946127 0.341392
O O16 0.014135 0.566689 0.687849
O O17 0.000000 0.000000 0.500000
O O18 0.072806 0.705689 0.955206
#
# Coordination Sequence:
#
# PCOD9030084 Si02
#       8
#     2   2   2   2   2   2   2   2
#     4  12  26  42  65  94 124 174 230 256 303 388
#     4  11  24  43  64  96 135 162 206 277 323 361
#     4   9  19  38  64  96 130 159 202 264 328 378
#     4   9  19  37  66  97 124 163 211 253 317 398
#     4  10  22  42  69  96 124 167 213 258 319 390
#     4  12  26  42  63  94 131 166 217 269 313 371
#     4  11  22  43  68  93 128 168 211 264 320 376
#     4  10  22  43  69  93 126 169 212 258 320 387
#
# _framework density 21.287890000000001
#
# number of rings (size 3 to 8) (size 9 to 14) (size 15 to 20)
#    0.000    1.500    3.750    0.750    1.750    5.000 
#    2.250    0.000    0.000    0.000    0.000    0.000 
#    0.000    0.000    0.000    0.000    0.000    0.000 
#
# Total GULP energy -89418.890034 kJ/mol
# GULP energy per Si atom -5588.680627 kJ/mol
# Density = 2.123944 g / cm^3
# Si number density = 21.287890 Si / 1000 Ang^3
#
#
#
# Elastic Constant Matrix: (Units=GPa)
#
#
# Indices 1 2 3 4 5 6 
#
# 1 58.1081 14.1714 -2.1374 -13.0915 1.4778 7.6720
# 2 14.1714 63.2723 24.7615 2.8855 -8.4351 17.2932
# 3 -2.1374 24.7615 69.6965 4.0193 2.7097 8.7042
# 4 -13.0915 2.8855 4.0193 28.7428 11.0166 6.3471
# 5 1.4778 -8.4351 2.7097 11.0166 44.5176 0.6384
# 6 7.6720 17.2932 8.7042 6.3471 0.6384 25.6869
#
#
#
# Elastic Compliance Matrix: (Units=1/GPa)
#
#
# Indices 1 2 3 4 5 6 
#
# 1 0.023098 -0.005704 0.003056 0.014434 -0.005498 -0.007524
# 2 -0.005704 0.024029 -0.007335 -0.003942 0.006324 -0.011171
# 3 0.003056 -0.007335 0.017347 0.001247 -0.002826 -0.002090
# 4 0.014434 -0.003942 0.001247 0.049841 -0.013434 -0.014062
# 5 -0.005498 0.006324 -0.002826 -0.013434 0.027326 0.000982
# 6 -0.007524 -0.011171 -0.002090 -0.014062 0.000982 0.052857
#
#
# Mechanical properties :
#
#
# Convention : Reuss Voigt Hill
#
# Bulk Modulus (GPa) = 22.46849 29.40755 25.93802
# Shear Modulus (GPa) = 21.80543 30.07489 25.94016
#
# Velocity S-wave (km/s) = 3.20396 3.76276 3.49455
# Velocity P-wave (km/s) = 4.92592 5.72032 5.33791
#
# Compressibility (1/GPa) = 0.04450677
#
# Stress axis : x y z
#
# Youngs Moduli (GPa) = 43.29369 41.61641 57.64791
#
# Poissons Ratio (x) = 0.23738 -0.17616
# Poissons Ratio (y) = 0.24695 0.42286
# Poissons Ratio (z) = -0.13230 0.30527
#
# Static dielectric constant tensor:
#      x y z
#    x 1.747440 -0.004860 0.012440 
#    y -0.004860 1.772740 0.033660 
#    z 0.012440 0.033660 1.806770 
# 
# From -- ./inp_files/355272.got.cif
#   From: 2010.05.17/outbox.cif.g08.bks.cpg/sg2_178_cif.got.tgz:355272.got - 2010.06.03 11:33:40.
