data_PCOD9030070
_publ_section_title
;
Structure prediction by ZEFSAII (Michael W. Deem and Ramdas Pophale) SiO2 
 PCOD9030070
Probable space group: P -1
;
_chemical_formula_sum "Si O2"
_cell_formula_units_Z 15
_cell_length_a 13.131941
_cell_length_b 11.480724
_cell_length_c 8.063336
_cell_angle_alpha 135.533556
_cell_angle_beta 117.118011
_cell_angle_gamma 52.933768
_cell_volume 678.776811
_symmetry_space_group_name_H-M "P -1"
_symmetry_group_IT_number 2
_symmetry_cell_setting 'triclinic'
loop_
_space_group_symop_operation_xyz
x,y,z
-x,-y,-z
loop_
_atom_site_type_symbol
_atom_site_label
_atom_site_fract_x
_atom_site_fract_y
_atom_site_fract_z
Si Si1 0.280272 0.712416 0.812243
Si Si2 0.474427 0.281509 0.849335
Si Si3 0.724361 0.638223 0.711335
Si Si4 0.769080 0.088317 0.377786
Si Si5 0.000000 0.000000 0.000000
Si Si6 0.050710 0.249094 0.019818
Si Si7 0.473879 0.929882 0.672905
Si Si8 0.777311 0.437948 0.900688
O O1 0.273280 0.523813 0.569076
O O2 0.276290 0.811360 0.732009
O O3 0.153600 0.847151 0.952468
O O4 0.410841 0.676642 0.962168
O O5 0.499461 0.201501 0.602162
O O6 0.475319 0.116375 0.797929
O O7 0.337899 0.455484 0.951191
O O8 0.590002 0.817492 0.769236
O O9 0.742114 0.556267 0.825731
O O10 0.840339 0.685667 0.803888
O O11 0.660806 0.040429 0.323379
O O12 0.789771 0.234511 0.658305
O O13 0.896124 0.900453 0.243710
O O14 0.967621 0.858732 0.947709
O O15 0.914020 0.412455 0.038201
#
# Coordination Sequence:
#
# PCOD9030070 Si02
#       8
#     2   2   2   2   1   2   2   2
#     4  10  23  44  66  99 129 176 219 271 327 396
#     4  11  25  43  66 100 138 169 226 267 340 386
#     4  11  24  43  69  97 133 173 228 266 332 388
#     4  10  22  42  69  95 131 174 222 268 330 390
#     4  10  24  42  66  96 134 172 214 268 334 384
#     4  11  24  44  68 100 133 178 217 276 327 397
#     4  11  24  42  67 100 131 179 215 282 323 396
#     4  11  24  43  68 102 131 177 218 277 323 400
#
# _framework density 22.098573999999999
#
# number of rings (size 3 to 8) (size 9 to 14) (size 15 to 20)
#    0.000    1.333    0.000    4.800    3.733    5.333 
#    4.800    0.000    0.000    0.000    0.000    0.000 
#    0.000    0.000    0.000    0.000    0.000    0.000 
#
# Total GULP energy -83773.994911 kJ/mol
# GULP energy per Si atom -5584.932994 kJ/mol
# Density = 2.204828 g / cm^3
# Si number density = 22.098574 Si / 1000 Ang^3
#
#
#
# Elastic Constant Matrix: (Units=GPa)
#
#
# Indices 1 2 3 4 5 6 
#
# 1 164.4032 25.2952 52.7204 7.2668 2.1750 -13.8333
# 2 25.2952 69.3578 20.9541 12.7459 -7.9321 -20.8251
# 3 52.7204 20.9541 90.2802 8.9672 7.4609 -8.4846
# 4 7.2668 12.7459 8.9672 22.6529 -6.1061 -5.5291
# 5 2.1750 -7.9321 7.4609 -6.1061 19.3612 5.7154
# 6 -13.8333 -20.8251 -8.4846 -5.5291 5.7154 48.6999
#
#
#
# Elastic Compliance Matrix: (Units=1/GPa)
#
#
# Indices 1 2 3 4 5 6 
#
# 1 0.007671 -0.001309 -0.004094 0.000106 -0.000060 0.000925
# 2 -0.001309 0.019408 -0.002990 -0.006370 0.005458 0.006043
# 3 -0.004094 -0.002990 0.015456 -0.005274 -0.008579 0.000659
# 4 0.000106 -0.006370 -0.005274 0.054349 0.016363 0.000637
# 5 -0.000060 0.005458 -0.008579 0.016363 0.063777 -0.004805
# 6 0.000925 0.006043 0.000659 0.000637 -0.004805 0.024132
#
#
# Mechanical properties :
#
#
# Convention : Reuss Voigt Hill
#
# Bulk Modulus (GPa) = 38.83899 57.99784 48.41842
# Shear Modulus (GPa) = 23.79091 33.14756 28.46923
#
# Velocity S-wave (km/s) = 3.28469 3.87717 3.59316
# Velocity P-wave (km/s) = 5.65677 6.80774 6.25877
#
# Compressibility (1/GPa) = 0.02574732
#
# Stress axis : x y z
#
# Youngs Moduli (GPa) = 130.36210 51.52455 64.69772
#
# Poissons Ratio (x) = 0.06747 0.26490
# Poissons Ratio (y) = 0.17069 0.19347
# Poissons Ratio (z) = 0.53375 0.15408
#
# Static dielectric constant tensor:
#      x y z
#    x 1.749870 0.027990 -0.025220 
#    y 0.027990 1.806940 0.001350 
#    z -0.025220 0.001350 1.825740 
# 
# From -- ./inp_files/259943.got.cif
#   From: 2010.05.17/outbox.cif.g08.bks.cpg/sg2_130_cif.got.tgz:259943.got - 2010.06.03 11:33:40.
