data_PCOD9030929
_publ_section_title
;
Structure prediction by ZEFSAII (Michael W. Deem and Ramdas Pophale) SiO2 
 PCOD9030929
Probable space group: P -1
;
_chemical_formula_sum "Si O2"
_cell_formula_units_Z 14
_cell_length_a 11.513331
_cell_length_b 16.837444
_cell_length_c 9.447455
_cell_angle_alpha 70.457156
_cell_angle_beta 108.544030
_cell_angle_gamma 158.392924
_cell_volume 635.425385
_symmetry_space_group_name_H-M "P -1"
_symmetry_group_IT_number 2
_symmetry_cell_setting 'triclinic'
loop_
_space_group_symop_operation_xyz
x,y,z
-x,-y,-z
loop_
_atom_site_type_symbol
_atom_site_label
_atom_site_fract_x
_atom_site_fract_y
_atom_site_fract_z
Si Si1 0.134184 0.625871 0.333816
Si Si2 0.330896 0.916331 0.630794
Si Si3 0.610157 0.477909 0.512131
Si Si4 0.296750 0.486595 0.806155
Si Si5 0.655187 0.773764 0.187497
Si Si6 0.021108 0.434997 0.148712
Si Si7 0.915760 0.828652 0.017854
O O1 0.142672 0.555786 0.267935
O O2 0.000000 0.500000 0.500000
O O3 0.895971 0.548650 0.234604
O O4 0.469221 0.882070 0.342855
O O5 0.969707 0.702277 0.574036
O O6 0.295310 0.815771 0.785942
O O7 0.500000 0.000000 0.500000
O O8 0.500000 0.500000 0.500000
O O9 0.617513 0.467295 0.354421
O O10 0.376853 0.268857 0.634907
O O11 0.093195 0.276497 0.900769
O O12 0.617150 0.675873 0.905288
O O13 0.290110 0.541702 0.134086
O O14 0.868870 0.842060 0.145649
O O15 0.788063 0.947665 0.085789
O O16 0.000000 0.500000 0.000000
#
# Coordination Sequence:
#
# PCOD9030929 Si02
#       7
#     2   2   2   2   2   2   2
#     4  12  24  44  71 100 133 184 229 271 339 412
#     4  11  23  44  69  95 133 180 221 277 334 400
#     4  11  22  40  66  96 131 168 224 280 328 388
#     4  11  23  41  67  96 130 173 227 273 330 409
#     4  10  22  43  62  94 132 171 217 276 332 400
#     4  11  25  42  66 102 135 167 228 280 331 400
#     4  10  23  42  67  92 133 177 217 268 348 404
#
# _framework density 22.032485000000001
#
# number of rings (size 3 to 8) (size 9 to 14) (size 15 to 20)
#    0.000    1.143    4.286    1.714    2.000    3.429 
#    2.571    0.000    0.000    0.000    0.000    0.000 
#    0.000    0.000    0.000    0.000    0.000    0.000 
#
# Total GULP energy -78189.784175 kJ/mol
# GULP energy per Si atom -5584.984584 kJ/mol
# Density = 2.198234 g / cm^3
# Si number density = 22.032485 Si / 1000 Ang^3
#
#
#
# Elastic Constant Matrix: (Units=GPa)
#
#
# Indices 1 2 3 4 5 6 
#
# 1 80.9338 17.2510 12.4926 -10.2457 12.2601 2.7645
# 2 17.2510 107.9723 49.0521 -38.9985 -3.0994 -15.9782
# 3 12.4926 49.0521 115.4033 -29.4206 9.6310 -5.2164
# 4 -10.2457 -38.9985 -29.4206 44.1923 -10.6204 3.8958
# 5 12.2601 -3.0994 9.6310 -10.6204 35.1007 -0.5459
# 6 2.7645 -15.9782 -5.2164 3.8958 -0.5459 38.2362
#
#
#
# Elastic Compliance Matrix: (Units=1/GPa)
#
#
# Indices 1 2 3 4 5 6 
#
# 1 0.013772 -0.002767 -0.000070 -0.000345 -0.005174 -0.002200
# 2 -0.002767 0.017481 -0.004101 0.013424 0.007786 0.005689
# 3 -0.000070 -0.004101 0.011480 0.003466 -0.002447 -0.000531
# 4 -0.000345 0.013424 0.003466 0.039466 0.012331 0.002262
# 5 -0.005174 0.007786 -0.002447 0.012331 0.035426 0.002543
# 6 -0.002200 0.005689 -0.000531 0.002262 0.002543 0.028423
#
#
# Mechanical properties :
#
#
# Convention : Reuss Voigt Hill
#
# Bulk Modulus (GPa) = 34.65573 51.32230 42.98902
# Shear Modulus (GPa) = 29.49094 38.54007 34.01551
#
# Velocity S-wave (km/s) = 3.66255 4.18693 3.93349
# Velocity P-wave (km/s) = 5.80079 6.83508 6.33907
#
# Compressibility (1/GPa) = 0.02885526
#
# Stress axis : x y z
#
# Youngs Moduli (GPa) = 72.61270 57.20534 87.10932
#
# Poissons Ratio (x) = 0.15831 0.00612
# Poissons Ratio (y) = 0.20094 0.35723
# Poissons Ratio (z) = 0.00510 0.23460
#
# Static dielectric constant tensor:
#      x y z
#    x 1.796240 0.017390 0.021570 
#    y 0.017390 1.813820 -0.025200 
#    z 0.021570 -0.025200 1.891150 
# 
# From -- ./inp_files/279324.got.cif
#   From: 2010.05.17/outbox.cif.g08.bks.cpg/sg2_140_cif.got.tgz:279324.got - 2010.06.03 11:33:40.
