data_PCOD9030461
_publ_section_title
;
Structure prediction by ZEFSAII (Michael W. Deem and Ramdas Pophale) SiO2 
 PCOD9030461
Probable space group: P -1
;
_chemical_formula_sum "Si O2"
_cell_formula_units_Z 16
_cell_length_a 6.650266
_cell_length_b 18.044585
_cell_length_c 7.919005
_cell_angle_alpha 54.847543
_cell_angle_beta 96.053668
_cell_angle_gamma 77.376038
_cell_volume 725.639172
_symmetry_space_group_name_H-M "P -1"
_symmetry_group_IT_number 2
_symmetry_cell_setting 'triclinic'
loop_
_space_group_symop_operation_xyz
x,y,z
-x,-y,-z
loop_
_atom_site_type_symbol
_atom_site_label
_atom_site_fract_x
_atom_site_fract_y
_atom_site_fract_z
Si Si1 0.393541 0.776605 0.006399
Si Si2 0.015569 0.898783 0.049512
Si Si3 0.993475 0.255962 0.180492
Si Si4 0.536227 0.583932 0.775190
Si Si5 0.269960 0.372029 0.950402
Si Si6 0.338772 0.093787 0.277002
Si Si7 0.072516 0.450678 0.390452
Si Si8 0.074599 0.709561 0.490438
O O1 0.209454 0.763192 0.888453
O O2 0.522769 0.843334 0.862363
O O3 0.248747 0.837376 0.067446
O O4 0.573292 0.668374 0.142881
O O5 0.997704 0.820405 0.285303
O O6 0.825392 0.917136 0.868186
O O7 0.000000 0.000000 0.000000
O O8 0.948625 0.300299 0.300349
O O9 0.185181 0.154692 0.330550
O O10 0.084636 0.324424 0.988152
O O11 0.326727 0.648837 0.566478
O O12 0.725712 0.544317 0.705252
O O13 0.500000 0.500000 0.000000
O O14 0.598865 0.652175 0.829618
O O15 0.141229 0.484917 0.812681
O O16 0.500000 0.000000 0.500000
O O17 0.073191 0.342566 0.541462
O O18 0.000000 0.500000 0.500000
#
# Coordination Sequence:
#
# PCOD9030461 Si02
#       8
#     2   2   2   2   2   2   2   2
#     4  10  24  44  72 102 139 184 237 293 363 429
#     4  11  29  47  71 107 149 188 235 301 370 430
#     4  10  22  42  71 101 137 180 237 296 350 429
#     4  12  24  44  71 104 139 194 247 292 358 437
#     4  11  22  43  70 101 136 187 240 292 349 432
#     4  10  25  46  73 101 134 184 244 298 361 430
#     4  12  29  42  69 104 153 189 239 302 370 430
#     4  12  26  45  70 104 145 188 243 298 361 429
#
# _framework density 22.049524000000002
#
# number of rings (size 3 to 8) (size 9 to 14) (size 15 to 20)
#    0.000    1.000    3.750    1.125   10.500    2.000 
#    0.000    0.000    0.000    0.000    0.000    0.000 
#    0.000    0.000    0.000    0.000    0.000    0.000 
#
# Total GULP energy -89217.798512 kJ/mol
# GULP energy per Si atom -5576.112407 kJ/mol
# Density = 2.199934 g / cm^3
# Si number density = 22.049524 Si / 1000 Ang^3
#
#
#
# Elastic Constant Matrix: (Units=GPa)
#
#
# Indices 1 2 3 4 5 6 
#
# 1 123.3248 53.4421 32.2223 2.6714 -5.6472 -9.8215
# 2 53.4421 132.9901 25.2620 0.0370 -18.8065 -9.6161
# 3 32.2223 25.2620 72.5245 -15.4809 -3.5121 -3.3491
# 4 2.6714 0.0370 -15.4809 39.7144 -6.8538 -4.7094
# 5 -5.6472 -18.8065 -3.5121 -6.8538 28.2850 -3.9748
# 6 -9.8215 -9.6161 -3.3491 -4.7094 -3.9748 42.2655
#
#
#
# Elastic Compliance Matrix: (Units=1/GPa)
#
#
# Indices 1 2 3 4 5 6 
#
# 1 0.010841 -0.003689 -0.004060 -0.002407 -0.001239 0.000973
# 2 -0.003689 0.010328 -0.001307 0.001109 0.006536 0.002127
# 3 -0.004060 -0.001307 0.017915 0.007867 0.002634 0.001303
# 4 -0.002407 0.001109 0.007867 0.030554 0.009283 0.004594
# 5 -0.001239 0.006536 0.002634 0.009283 0.042940 0.006480
# 6 0.000973 0.002127 0.001303 0.004594 0.006480 0.025595
#
#
# Mechanical properties :
#
#
# Convention : Reuss Voigt Hill
#
# Bulk Modulus (GPa) = 47.68602 61.18801 54.43702
# Shear Modulus (GPa) = 30.62307 36.58051 33.60179
#
# Velocity S-wave (km/s) = 3.73075 4.07752 3.90798
# Velocity P-wave (km/s) = 6.34284 7.06956 6.71604
#
# Compressibility (1/GPa) = 0.02097051
#
# Stress axis : x y z
#
# Youngs Moduli (GPa) = 92.23975 96.82492 55.82042
#
# Poissons Ratio (x) = 0.35723 0.22666
# Poissons Ratio (y) = 0.34032 0.07294
# Poissons Ratio (z) = 0.37454 0.12652
#
# Static dielectric constant tensor:
#      x y z
#    x 1.876680 -0.012380 0.039440 
#    y -0.012380 1.838410 -0.021450 
#    z 0.039440 -0.021450 1.902410 
# 
# From -- ./inp_files/39327.got.cif
#   From: 2010.05.17/outbox.cif.g08.bks.cpg/sg2_20_cif.got.tgz:39327.got - 2010.06.03 11:33:40.
