data_PCOD9030384
_publ_section_title
;
Structure prediction by ZEFSAII (Michael W. Deem and Ramdas Pophale) SiO2 
 PCOD9030384
Probable space group: P -1
;
_chemical_formula_sum "Si O2"
_cell_formula_units_Z 14
_cell_length_a 8.303651
_cell_length_b 12.222607
_cell_length_c 12.023516
_cell_angle_alpha 44.818671
_cell_angle_beta 110.626343
_cell_angle_gamma 132.470079
_cell_volume 615.347129
_symmetry_space_group_name_H-M "P -1"
_symmetry_group_IT_number 2
_symmetry_cell_setting 'triclinic'
loop_
_space_group_symop_operation_xyz
x,y,z
-x,-y,-z
loop_
_atom_site_type_symbol
_atom_site_label
_atom_site_fract_x
_atom_site_fract_y
_atom_site_fract_z
Si Si1 0.248237 0.875830 0.391512
Si Si2 0.378398 0.123849 0.770890
Si Si3 0.867220 0.437508 0.703720
Si Si4 0.803270 0.551976 0.848693
Si Si5 0.153941 0.934853 0.074423
Si Si6 0.331318 0.825969 0.824863
Si Si7 0.069502 0.056247 0.349281
O O1 0.201269 0.914868 0.227793
O O2 0.083358 0.639163 0.551634
O O3 0.516820 0.010215 0.351766
O O4 0.190229 0.977048 0.389170
O O5 0.630753 0.329198 0.658569
O O6 0.388763 0.951640 0.859549
O O7 0.161352 0.061225 0.695889
O O8 0.330631 0.100265 0.906576
O O9 0.816991 0.499814 0.762253
O O10 0.910615 0.275804 0.839834
O O11 0.067615 0.693914 0.840150
O O12 0.759989 0.699309 0.776217
O O13 0.645936 0.343162 0.028812
O O14 0.000000 0.000000 0.000000
O O15 0.000000 0.000000 0.500000
#
# Coordination Sequence:
#
# PCOD9030384 Si02
#       7
#     2   2   2   2   2   2   2
#     4  12  25  44  69 104 145 177 238 290 342 410
#     4  11  23  44  74  96 141 190 228 282 352 418
#     4  12  24  44  71 104 140 189 229 281 358 418
#     4  10  22  43  71  96 134 187 233 272 353 417
#     4  12  24  43  68 107 137 176 234 294 336 408
#     4  10  22  42  70  97 131 190 232 279 340 421
#     4  11  24  47  67 104 144 181 231 297 342 406
#
# _framework density 22.751384999999999
#
# number of rings (size 3 to 8) (size 9 to 14) (size 15 to 20)
#    0.000    0.857    5.714    1.714    0.000    1.714 
#    0.000    1.429    0.000    0.000    0.000    0.000 
#    0.000    0.000    0.000    0.000    0.000    0.000 
#
# Total GULP energy -77992.102067 kJ/mol
# GULP energy per Si atom -5570.864433 kJ/mol
# Density = 2.269960 g / cm^3
# Si number density = 22.751385 Si / 1000 Ang^3
#
#
#
# Elastic Constant Matrix: (Units=GPa)
#
#
# Indices 1 2 3 4 5 6 
#
# 1 90.1574 23.4916 29.0769 -8.4116 -13.9745 -16.9736
# 2 23.4916 96.1213 26.0409 -10.0780 -10.0973 -10.5157
# 3 29.0769 26.0409 108.7724 -21.7871 -27.6921 5.1884
# 4 -8.4116 -10.0780 -21.7871 49.5011 5.1785 -0.8601
# 5 -13.9745 -10.0973 -27.6921 5.1785 37.9695 -2.6118
# 6 -16.9736 -10.5157 5.1884 -0.8601 -2.6118 32.6320
#
#
#
# Elastic Compliance Matrix: (Units=1/GPa)
#
#
# Indices 1 2 3 4 5 6 
#
# 1 0.014448 -0.001478 -0.002922 0.000665 0.003238 0.007780
# 2 -0.001478 0.011972 -0.002097 0.001200 0.001191 0.003549
# 3 -0.002922 -0.002097 0.013326 0.004118 0.007275 -0.003623
# 4 0.000665 0.001200 0.004118 0.022324 0.000571 0.000712
# 5 0.003238 0.001191 0.007275 0.000571 0.033321 0.003593
# 6 0.007780 0.003549 -0.003623 0.000712 0.003593 0.036718
#
#
# Mechanical properties :
#
#
# Convention : Reuss Voigt Hill
#
# Bulk Modulus (GPa) = 37.37988 50.25221 43.81605
# Shear Modulus (GPa) = 32.46325 38.44997 35.45661
#
# Velocity S-wave (km/s) = 3.78149 4.11543 3.95199
# Velocity P-wave (km/s) = 5.96084 6.68714 6.33441
#
# Compressibility (1/GPa) = 0.02675236
#
# Stress axis : x y z
#
# Youngs Moduli (GPa) = 69.21448 83.52730 75.03868
#
# Poissons Ratio (x) = 0.12349 0.21926
# Poissons Ratio (y) = 0.10233 0.15733
# Poissons Ratio (z) = 0.20224 0.17513
#
# Static dielectric constant tensor:
#      x y z
#    x 1.962400 0.042620 0.057160 
#    y 0.042620 1.958300 -0.042900 
#    z 0.057160 -0.042900 1.916060 
# 
# From -- ./inp_files/238019.got.cif
#   From: 2010.05.17/outbox.cif.g08.bks.cpg/sg2_120_cif.got.tgz:238019.got - 2010.06.03 11:33:40.
