data_PCOD9030370
_publ_section_title
;
Structure prediction by ZEFSAII (Michael W. Deem and Ramdas Pophale) SiO2 
 PCOD9030370
Probable space group: P -1
;
_chemical_formula_sum "Si O2"
_cell_formula_units_Z 14
_cell_length_a 6.382109
_cell_length_b 8.091676
_cell_length_c 18.060412
_cell_angle_alpha 39.223089
_cell_angle_beta 92.248962
_cell_angle_gamma 93.016814
_cell_volume 588.950101
_symmetry_space_group_name_H-M "P -1"
_symmetry_group_IT_number 2
_symmetry_cell_setting 'triclinic'
loop_
_space_group_symop_operation_xyz
x,y,z
-x,-y,-z
loop_
_atom_site_type_symbol
_atom_site_label
_atom_site_fract_x
_atom_site_fract_y
_atom_site_fract_z
Si Si1 0.432595 0.910681 0.211141
Si Si2 0.249553 0.841486 0.754529
Si Si3 0.855817 0.730215 0.000218
Si Si4 0.425054 0.099785 0.384796
Si Si5 0.209643 0.127162 0.884266
Si Si6 0.115496 0.469008 0.327150
Si Si7 0.068046 0.764321 0.450666
O O1 0.572653 0.847014 0.163683
O O2 0.277926 0.661200 0.307286
O O3 0.597802 0.989069 0.248826
O O4 0.285669 0.151895 0.106810
O O5 0.170386 0.577963 0.884987
O O6 0.057651 0.010510 0.668479
O O7 0.386910 0.786168 0.702363
O O8 0.774180 0.847961 0.036202
O O9 0.091479 0.851888 0.956732
O O10 0.310435 0.855144 0.426305
O O11 0.500000 0.000000 0.500000
O O12 0.249419 0.310232 0.325524
O O13 0.052216 0.347932 0.777206
O O14 0.004918 0.276918 0.451203
O O15 0.000000 0.500000 0.500000
#
# Coordination Sequence:
#
# PCOD9030370 Si02
#       7
#     2   2   2   2   2   2   2
#     4  11  24  42  69 100 136 180 220 281 333 402
#     4  12  26  43  68  98 141 177 223 279 341 394
#     4  10  23  42  65 100 132 176 229 272 331 404
#     4  12  27  44  70  99 135 181 228 277 327 404
#     4  10  22  42  70  96 135 174 224 281 333 395
#     4  11  24  42  69  99 134 175 229 270 337 399
#     4  12  27  44  68 100 138 176 224 277 344 397
#
# _framework density 23.771115999999999
#
# number of rings (size 3 to 8) (size 9 to 14) (size 15 to 20)
#    0.000    0.857    1.429    4.714    6.000    6.286 
#    0.000    0.000    0.000    0.000    0.000    0.000 
#    0.000    0.000    0.000    0.000    0.000    0.000 
#
# Total GULP energy -78496.965673 kJ/mol
# GULP energy per Si atom -5606.926119 kJ/mol
# Density = 2.371701 g / cm^3
# Si number density = 23.771116 Si / 1000 Ang^3
#
#
#
# Elastic Constant Matrix: (Units=GPa)
#
#
# Indices 1 2 3 4 5 6 
#
# 1 56.4481 10.2314 22.7428 -12.0479 -2.3074 17.0153
# 2 10.2314 81.3321 13.3627 -7.7139 7.2642 21.3484
# 3 22.7428 13.3627 79.5447 -15.9641 1.0871 17.1943
# 4 -12.0479 -7.7139 -15.9641 39.4095 3.7909 1.3070
# 5 -2.3074 7.2642 1.0871 3.7909 35.2333 4.4381
# 6 17.0153 21.3484 17.1943 1.3070 4.4381 47.3629
#
#
#
# Elastic Compliance Matrix: (Units=1/GPa)
#
#
# Indices 1 2 3 4 5 6 
#
# 1 0.022637 -0.000021 -0.003892 0.005389 0.001914 -0.007038
# 2 -0.000021 0.014526 -0.000427 0.003114 -0.002533 -0.006233
# 3 -0.003892 -0.000427 0.015740 0.005309 -0.000694 -0.004205
# 4 0.005389 0.003114 0.005309 0.030262 -0.002975 -0.005823
# 5 0.001914 -0.002533 -0.000694 -0.002975 0.029622 -0.001987
# 6 -0.007038 -0.006233 -0.004205 -0.005823 -0.001987 0.028325
#
#
# Mechanical properties :
#
#
# Convention : Reuss Voigt Hill
#
# Bulk Modulus (GPa) = 22.61247 34.44429 28.52838
# Shear Modulus (GPa) = 30.38919 35.80033 33.09476
#
# Velocity S-wave (km/s) = 3.57936 3.88499 3.73530
# Velocity P-wave (km/s) = 5.15904 5.88605 5.53450
#
# Compressibility (1/GPa) = 0.04422339
#
# Stress axis : x y z
#
# Youngs Moduli (GPa) = 44.17498 68.84275 63.53289
#
# Poissons Ratio (x) = 0.00142 0.24727
# Poissons Ratio (y) = 0.00091 0.02714
# Poissons Ratio (z) = 0.17193 0.02941
#
# Static dielectric constant tensor:
#      x y z
#    x 1.849250 -0.012960 -0.020310 
#    y -0.012960 1.934390 -0.011440 
#    z -0.020310 -0.011440 1.854710 
# 
# From -- ./inp_files/581802.got.cif
#   From: 2010.05.17/outbox.cif.g08.bks.cpg/sg2_291_cif.got.tgz:581802.got - 2010.06.03 11:33:40.
