data_PCOD9030048
_publ_section_title
;
Structure prediction by ZEFSAII (Michael W. Deem and Ramdas Pophale) SiO2 
 PCOD9030048
Probable space group: P -1
;
_chemical_formula_sum "Si O2"
_cell_formula_units_Z 16
_cell_length_a 12.109613
_cell_length_b 11.639443
_cell_length_c 10.137784
_cell_angle_alpha 86.298914
_cell_angle_beta 122.832869
_cell_angle_gamma 52.509835
_cell_volume 767.946167
_symmetry_space_group_name_H-M "P -1"
_symmetry_group_IT_number 2
_symmetry_cell_setting 'triclinic'
loop_
_space_group_symop_operation_xyz
x,y,z
-x,-y,-z
loop_
_atom_site_type_symbol
_atom_site_label
_atom_site_fract_x
_atom_site_fract_y
_atom_site_fract_z
Si Si1 0.134163 0.349055 0.982939
Si Si2 0.099664 0.511731 0.677448
Si Si3 0.971777 0.840848 0.686653
Si Si4 0.164479 0.800500 0.070899
Si Si5 0.345564 0.679277 0.794393
Si Si6 0.482829 0.786232 0.698133
Si Si7 0.235082 0.547679 0.294774
Si Si8 0.598179 0.572816 0.304445
O O1 0.117752 0.428975 0.829497
O O2 0.007663 0.317390 0.883736
O O3 0.374137 0.198060 0.184602
O O4 0.000000 0.500000 0.000000
O O5 0.308779 0.413442 0.752114
O O6 0.000000 0.500000 0.500000
O O7 0.990345 0.704775 0.636618
O O8 0.122918 0.826101 0.706433
O O9 0.736730 0.036814 0.518666
O O10 0.067154 0.780108 0.900041
O O11 0.254923 0.667182 0.260849
O O12 0.354615 0.738819 0.134833
O O13 0.000000 0.000000 0.000000
O O14 0.433880 0.741243 0.799018
O O15 0.334125 0.604671 0.664769
O O16 0.500000 0.500000 0.000000
O O17 0.625424 0.613515 0.708448
O O18 0.310698 0.457551 0.492945
#
# Coordination Sequence:
#
# PCOD9030048 Si02
#       8
#     2   2   2   2   2   2   2   2
#     4  10  22  42  69  94 126 180 222 266 332 401
#     4  11  23  46  71  94 136 175 224 274 334 407
#     4  11  24  40  63 103 127 171 227 271 335 393
#     4  12  25  42  67  99 137 171 226 281 328 397
#     4  11  20  39  65  90 129 173 215 271 336 394
#     4  11  22  40  66  91 133 170 218 279 326 396
#     4  11  22  43  64  94 130 176 224 269 335 396
#     4  11  22  39  68  95 128 174 221 271 341 391
#
# _framework density 20.834793999999999
#
# number of rings (size 3 to 8) (size 9 to 14) (size 15 to 20)
#    0.000    1.000    3.750    4.500    1.750    0.000 
#    2.250    3.750    0.000    0.000    0.000    0.000 
#    0.000    0.000    0.000    0.000    0.000    0.000 
#
# Total GULP energy -89299.381602 kJ/mol
# GULP energy per Si atom -5581.211350 kJ/mol
# Density = 2.078737 g / cm^3
# Si number density = 20.834794 Si / 1000 Ang^3
#
#
#
# Elastic Constant Matrix: (Units=GPa)
#
#
# Indices 1 2 3 4 5 6 
#
# 1 126.2470 28.5533 35.2929 -6.4072 11.2852 -26.4056
# 2 28.5533 65.0867 16.7106 -0.6122 4.5721 -16.1238
# 3 35.2929 16.7106 94.4652 3.4408 6.9156 -16.8433
# 4 -6.4072 -0.6122 3.4408 31.9369 -7.7511 9.6418
# 5 11.2852 4.5721 6.9156 -7.7511 44.3855 -0.9584
# 6 -26.4056 -16.1238 -16.8433 9.6418 -0.9584 25.2059
#
#
#
# Elastic Compliance Matrix: (Units=1/GPa)
#
#
# Indices 1 2 3 4 5 6 
#
# 1 0.010980 -0.001866 -0.001906 -0.000997 -0.002275 0.009330
# 2 -0.001866 0.019226 -0.000371 -0.003899 -0.001880 0.011516
# 3 -0.001906 -0.000371 0.013193 -0.004870 -0.002203 0.008361
# 4 -0.000997 -0.003899 -0.004870 0.040077 0.007941 -0.021820
# 5 -0.002275 -0.001880 -0.002203 0.007941 0.024878 -0.007150
# 6 0.009330 0.011516 0.008361 -0.021820 -0.007150 0.070477
#
#
# Mechanical properties :
#
#
# Convention : Reuss Voigt Hill
#
# Bulk Modulus (GPa) = 28.47843 49.65694 39.06769
# Shear Modulus (GPa) = 25.14843 33.98847 29.56845
#
# Velocity S-wave (km/s) = 3.47802 4.04336 3.77130
# Velocity P-wave (km/s) = 5.46143 6.75897 6.14455
#
# Compressibility (1/GPa) = 0.03511430
#
# Stress axis : x y z
#
# Youngs Moduli (GPa) = 91.07435 52.01252 75.79813
#
# Poissons Ratio (x) = 0.09704 0.14445
# Poissons Ratio (y) = 0.16992 0.02812
# Poissons Ratio (z) = 0.17356 0.01929
#
# Static dielectric constant tensor:
#      x y z
#    x 1.781830 0.019830 0.034040 
#    y 0.019830 1.726190 0.048660 
#    z 0.034040 0.048660 1.790320 
# 
# From -- ./inp_files/262559.got.cif
#   From: 2010.05.17/outbox.cif.g08.bks.cpg/sg2_132_cif.got.tgz:262559.got - 2010.06.03 11:33:40.
