data_PCOD9030725
_publ_section_title
;
Structure prediction by ZEFSAII (Michael W. Deem and Ramdas Pophale) SiO2 
 PCOD9030725
Probable space group: P -1
;
_chemical_formula_sum "Si O2"
_cell_formula_units_Z 12
_cell_length_a 11.864841
_cell_length_b 9.424023
_cell_length_c 9.066551
_cell_angle_alpha 88.478055
_cell_angle_beta 142.113091
_cell_angle_gamma 110.762318
_cell_volume 522.477619
_symmetry_space_group_name_H-M "P -1"
_symmetry_group_IT_number 2
_symmetry_cell_setting 'triclinic'
loop_
_space_group_symop_operation_xyz
x,y,z
-x,-y,-z
loop_
_atom_site_type_symbol
_atom_site_label
_atom_site_fract_x
_atom_site_fract_y
_atom_site_fract_z
Si Si1 0.226526 0.673619 0.182626
Si Si2 0.727078 0.574558 0.925241
Si Si3 0.933793 0.074492 0.297465
Si Si4 0.109016 0.685913 0.543945
Si Si5 0.500357 0.744437 0.753895
Si Si6 0.944167 0.824934 0.876256
O O1 0.313669 0.608500 0.144206
O O2 0.394204 0.736236 0.487747
O O3 0.000000 0.500000 0.000000
O O4 0.149629 0.801890 0.074943
O O5 0.541311 0.592226 0.807336
O O6 0.777024 0.674443 0.817330
O O7 0.945989 0.675579 0.248170
O O8 0.869756 0.193166 0.306870
O O9 0.115820 0.174545 0.356373
O O10 0.000000 0.000000 0.500000
O O11 0.731979 0.914867 0.012593
O O12 0.335589 0.735730 0.704402
O O13 0.000000 0.500000 0.500000
O O14 0.000000 0.000000 0.000000
#
# Coordination Sequence:
#
# PCOD9030725 Si02
#       6
#     2   2   2   2   2   2
#     4  10  22  42  73 104 141 180 239 305 340 414
#     4  11  23  48  72 105 143 183 246 299 345 427
#     4  12  26  47  72 106 150 189 233 297 360 435
#     4  12  26  48  73 103 150 190 238 298 358 433
#     4  12  24  46  78 103 143 196 240 291 370 418
#     4  11  21  44  74 101 142 186 232 301 350 411
#
# _framework density 22.967490999999999
#
# number of rings (size 3 to 8) (size 9 to 14) (size 15 to 20)
#    0.000    0.667    6.667    2.000    2.333    1.333 
#    0.000    0.000    0.000    0.000    0.000    0.000 
#    0.000    0.000    0.000    0.000    0.000    0.000 
#
# Total GULP energy -67129.197400 kJ/mol
# GULP energy per Si atom -5594.099783 kJ/mol
# Density = 2.291522 g / cm^3
# Si number density = 22.967491 Si / 1000 Ang^3
#
#
#
# Elastic Constant Matrix: (Units=GPa)
#
#
# Indices 1 2 3 4 5 6 
#
# 1 128.2819 43.0386 20.6861 -5.8409 -23.5557 -32.1386
# 2 43.0386 126.2064 28.6975 -7.3285 -4.7914 -36.5712
# 3 20.6861 28.6975 103.7517 3.0209 -13.6895 1.4075
# 4 -5.8409 -7.3285 3.0209 33.5730 -9.7244 -8.2242
# 5 -23.5557 -4.7914 -13.6895 -9.7244 28.4153 4.1793
# 6 -32.1386 -36.5712 1.4075 -8.2242 4.1793 58.9105
#
#
#
# Elastic Compliance Matrix: (Units=1/GPa)
#
#
# Indices 1 2 3 4 5 6 
#
# 1 0.012170 -0.001465 -0.000869 0.006434 0.010759 0.005885
# 2 -0.001465 0.011361 -0.003119 0.004080 -0.000424 0.006927
# 3 -0.000869 -0.003119 0.011311 -0.001415 0.004186 -0.003175
# 4 0.006434 0.004080 -0.001415 0.039479 0.017327 0.010359
# 5 0.010759 -0.000424 0.004186 0.017327 0.051356 0.004282
# 6 0.005885 0.006927 -0.003175 0.010359 0.004282 0.025704
#
#
# Mechanical properties :
#
#
# Convention : Reuss Voigt Hill
#
# Bulk Modulus (GPa) = 41.77841 60.34272 51.06057
# Shear Modulus (GPa) = 29.36586 41.90094 35.63340
#
# Velocity S-wave (km/s) = 3.57961 4.27589 3.94315
# Velocity P-wave (km/s) = 5.94260 7.12094 6.55829
#
# Compressibility (1/GPa) = 0.02393581
#
# Stress axis : x y z
#
# Youngs Moduli (GPa) = 82.16862 88.02421 88.41064
#
# Poissons Ratio (x) = 0.12897 0.07681
# Poissons Ratio (y) = 0.12039 0.27575
# Poissons Ratio (z) = 0.07139 0.27454
#
# Static dielectric constant tensor:
#      x y z
#    x 2.163440 -0.035660 0.028750 
#    y -0.035660 1.879320 -0.023530 
#    z 0.028750 -0.023530 1.861700 
# 
# From -- ./inp_files/174244.got.cif
#   From: 2010.05.17/outbox.cif.g08.bks.cpg/sg2_88_cif.got.tgz:174244.got - 2010.06.03 11:33:40.
