data_PCOD9030753
_publ_section_title
;
Structure prediction by ZEFSAII (Michael W. Deem and Ramdas Pophale) SiO2 
 PCOD9030753
Probable space group: P -1
;
_chemical_formula_sum "Si O2"
_cell_formula_units_Z 12
_cell_length_a 14.580918
_cell_length_b 21.079548
_cell_length_c 10.604508
_cell_angle_alpha 23.747358
_cell_angle_beta 146.064067
_cell_angle_gamma 157.059434
_cell_volume 509.776489
_symmetry_space_group_name_H-M "P -1"
_symmetry_group_IT_number 2
_symmetry_cell_setting 'triclinic'
loop_
_space_group_symop_operation_xyz
x,y,z
-x,-y,-z
loop_
_atom_site_type_symbol
_atom_site_label
_atom_site_fract_x
_atom_site_fract_y
_atom_site_fract_z
Si Si1 0.419394 0.802384 0.077925
Si Si2 0.910192 0.197266 0.944143
Si Si3 0.332284 0.480598 0.750752
Si Si4 0.959117 0.675937 0.853565
Si Si5 0.488305 0.805283 0.864624
Si Si6 0.044608 0.003365 0.861231
O O1 0.463220 0.696046 0.423110
O O2 0.407213 0.730617 0.053118
O O3 0.170422 0.706117 0.002088
O O4 0.642610 0.074922 0.848578
O O5 0.123632 0.423776 0.697002
O O6 0.984238 0.228043 0.115514
O O7 0.894480 0.025893 0.155748
O O8 0.500000 0.500000 0.000000
O O9 0.195493 0.258114 0.913137
O O10 0.965470 0.819915 0.496230
O O11 0.707559 0.415929 0.038511
O O12 0.500000 0.000000 0.500000
O O13 0.749512 0.911088 0.966723
#
# Coordination Sequence:
#
# PCOD9030753 Si02
#       6
#     2   2   2   2   2   2
#     4  11  24  44  68  96 139 176 221 275 330 394
#     4   9  23  42  69  97 140 163 223 275 329 387
#     4  10  22  42  73  98 133 175 219 269 342 387
#     4  12  22  41  72 101 132 180 222 269 341 394
#     4  11  25  47  66  92 138 184 222 275 329 391
#     4   9  22  43  64  99 135 171 218 276 328 391
#
# _framework density 23.539726999999999
#
# number of rings (size 3 to 8) (size 9 to 14) (size 15 to 20)
#    1.000    0.667    0.000    4.000    4.667    0.667 
#    6.000    1.667    0.000    0.000    0.000    0.000 
#    0.000    0.000    0.000    0.000    0.000    0.000 
#
# Total GULP energy -67039.897658 kJ/mol
# GULP energy per Si atom -5586.658138 kJ/mol
# Density = 2.348615 g / cm^3
# Si number density = 23.539727 Si / 1000 Ang^3
#
#
#
# Elastic Constant Matrix: (Units=GPa)
#
#
# Indices 1 2 3 4 5 6 
#
# 1 33.2522 16.2265 -6.3536 0.9146 -15.8130 -4.6967
# 2 16.2265 165.5167 13.5037 -6.1670 10.8155 -0.4212
# 3 -6.3536 13.5037 60.2768 5.5223 -1.5110 0.6111
# 4 0.9146 -6.1670 5.5223 35.2085 -0.6222 -4.8408
# 5 -15.8130 10.8155 -1.5110 -0.6222 23.3400 -6.5433
# 6 -4.6967 -0.4212 0.6111 -4.8408 -6.5433 26.5382
#
#
#
# Elastic Compliance Matrix: (Units=1/GPa)
#
#
# Indices 1 2 3 4 5 6 
#
# 1 0.072034 -0.012087 0.011680 -0.000911 0.062881 0.027626
# 2 -0.012087 0.008456 -0.003592 0.001422 -0.013717 -0.005045
# 3 0.011680 -0.003592 0.019176 -0.003195 0.011828 0.003902
# 4 -0.000911 0.001422 -0.003195 0.029965 0.000892 0.005621
# 5 0.062881 -0.013717 0.011828 0.000892 0.102722 0.036128
# 6 0.027626 -0.005045 0.003902 0.005621 0.036128 0.052334
#
#
# Mechanical properties :
#
#
# Convention : Reuss Voigt Hill
#
# Bulk Modulus (GPa) = 10.90886 33.97766 22.44326
# Shear Modulus (GPa) = 15.46843 32.72859 24.09851
#
# Velocity S-wave (km/s) = 2.56622 3.73279 3.20306
# Velocity P-wave (km/s) = 3.66400 5.74838 4.82020
#
# Compressibility (1/GPa) = 0.09166857
#
# Stress axis : x y z
#
# Youngs Moduli (GPa) = 13.88238 118.25695 52.14974
#
# Poissons Ratio (x) = 1.42942 -0.60913
# Poissons Ratio (y) = 0.16780 0.18730
# Poissons Ratio (z) = -0.16215 0.42472
#
# Static dielectric constant tensor:
#      x y z
#    x 1.933770 0.048720 0.011200 
#    y 0.048720 1.900560 -0.017600 
#    z 0.011200 -0.017600 1.842720 
# 
# From -- ./inp_files/467313.got.cif
#   From: 2010.05.17/outbox.cif.g08.bks.cpg/sg2_234_cif.got.tgz:467313.got - 2010.06.03 11:33:40.
