data_PCOD9030543
_publ_section_title
;
Structure prediction by ZEFSAII (Michael W. Deem and Ramdas Pophale) SiO2 
 PCOD9030543
Probable space group: P -1
;
_chemical_formula_sum "Si O2"
_cell_formula_units_Z 14
_cell_length_a 18.791475
_cell_length_b 8.067632
_cell_length_c 6.414947
_cell_angle_alpha 118.990991
_cell_angle_beta 94.697583
_cell_angle_gamma 48.003494
_cell_volume 586.607108
_symmetry_space_group_name_H-M "P -1"
_symmetry_group_IT_number 2
_symmetry_cell_setting 'triclinic'
loop_
_space_group_symop_operation_xyz
x,y,z
-x,-y,-z
loop_
_atom_site_type_symbol
_atom_site_label
_atom_site_fract_x
_atom_site_fract_y
_atom_site_fract_z
Si Si1 0.676416 0.089301 0.159496
Si Si2 0.871813 0.928999 0.200995
Si Si3 0.424994 0.475636 0.897528
Si Si4 0.955492 0.476206 0.277183
Si Si5 0.716095 0.432488 0.770862
Si Si6 0.600791 0.893562 0.728129
Si Si7 0.742695 0.696049 0.272243
O O1 0.607454 0.402189 0.268958
O O2 0.793122 0.937553 0.070976
O O3 0.677027 0.993878 0.330691
O O4 0.644298 0.990138 0.928312
O O5 0.929489 0.696217 0.246861
O O6 0.800354 0.207937 0.485137
O O7 0.957128 0.824924 0.990651
O O8 0.491284 0.161054 0.768583
O O9 0.500000 0.500000 0.000000
O O10 0.324849 0.648088 0.127353
O O11 0.847824 0.570870 0.321665
O O12 0.000000 0.500000 0.500000
O O13 0.616760 0.695761 0.776123
O O14 0.759793 0.517334 0.977685
O O15 0.676711 0.721067 0.447466
#
# Coordination Sequence:
#
# PCOD9030543 Si02
#       7
#     2   2   2   2   2   2   2
#     4   9  21  40  65  93 127 170 230 263 318 383
#     4  10  23  40  66  98 130 169 215 276 324 387
#     4  10  23  41  68  96 127 178 230 268 316 386
#     4  10  22  42  71  98 126 168 223 269 325 394
#     4  11  25  42  62  97 142 169 217 268 334 390
#     4  10  22  43  63  94 136 176 216 269 329 380
#     4  10  23  42  66  96 134 178 209 276 330 386
#
# _framework density 23.866056
#
# number of rings (size 3 to 8) (size 9 to 14) (size 15 to 20)
#    0.000    2.000    0.000    1.286   12.000    2.857 
#    5.143    1.429    0.000    0.000    0.000    0.000 
#    0.000    0.000    0.000    0.000    0.000    0.000 
#
# Total GULP energy -78190.386734 kJ/mol
# GULP energy per Si atom -5585.027624 kJ/mol
# Density = 2.381174 g / cm^3
# Si number density = 23.866056 Si / 1000 Ang^3
#
#
#
# Elastic Constant Matrix: (Units=GPa)
#
#
# Indices 1 2 3 4 5 6 
#
# 1 77.4777 38.5602 44.1693 -24.5129 8.2996 -13.4628
# 2 38.5602 102.5246 19.7103 -11.8119 5.4568 -9.1220
# 3 44.1693 19.7103 111.3037 13.2267 13.5125 -8.8699
# 4 -24.5129 -11.8119 13.2267 21.4961 -2.9257 5.4868
# 5 8.2996 5.4568 13.5125 -2.9257 38.2570 -12.8276
# 6 -13.4628 -9.1220 -8.8699 5.4868 -12.8276 35.3864
#
#
#
# Elastic Compliance Matrix: (Units=1/GPa)
#
#
# Indices 1 2 3 4 5 6 
#
# 1 0.071334 -0.007603 -0.039941 0.102282 0.008317 0.002324
# 2 -0.007603 0.012086 0.001386 -0.003175 -0.000513 0.000877
# 3 -0.039941 0.001386 0.033601 -0.066823 -0.008183 0.000979
# 4 0.102282 -0.003175 -0.066823 0.205928 0.016011 -0.004781
# 5 0.008317 -0.000513 -0.008183 0.016011 0.031896 0.010061
# 6 0.002324 0.000877 0.000979 -0.004781 0.010061 0.034003
#
#
# Mechanical properties :
#
#
# Convention : Reuss Voigt Hill
#
# Bulk Modulus (GPa) = 40.47439 55.13172 47.80306
# Shear Modulus (GPa) = 10.21663 31.61898 20.91780
#
# Velocity S-wave (km/s) = 2.07126 3.64380 2.96373
# Velocity P-wave (km/s) = 4.76612 6.39169 5.63780
#
# Compressibility (1/GPa) = 0.02470698
#
# Stress axis : x y z
#
# Youngs Moduli (GPa) = 14.01857 82.73891 29.76087
#
# Poissons Ratio (x) = 0.62902 1.18867
# Poissons Ratio (y) = 0.10658 -0.04125
# Poissons Ratio (z) = 0.55991 -0.11468
#
# Static dielectric constant tensor:
#      x y z
#    x 1.873980 0.035430 0.011900 
#    y 0.035430 1.960690 0.039590 
#    z 0.011900 0.039590 1.944390 
# 
# From -- ./inp_files/40181.got.cif
#   From: 2010.05.17/outbox.cif.g08.bks.cpg/sg2_21_cif.got.tgz:40181.got - 2010.06.03 11:33:40.
