data_PCOD9030000
_publ_section_title
;
Structure prediction by ZEFSAII (Michael W. Deem and Ramdas Pophale) SiO2 
 PCOD9030000
Probable space group: P -1
;
_chemical_formula_sum "Si O2"
_cell_formula_units_Z 13
_cell_length_a 11.063102
_cell_length_b 5.696518
_cell_length_c 13.746298
_cell_angle_alpha 66.691192
_cell_angle_beta 136.217582
_cell_angle_gamma 124.636459
_cell_volume 493.021733
_symmetry_space_group_name_H-M "P -1"
_symmetry_group_IT_number 2
_symmetry_cell_setting 'triclinic'
loop_
_space_group_symop_operation_xyz
x,y,z
-x,-y,-z
loop_
_atom_site_type_symbol
_atom_site_label
_atom_site_fract_x
_atom_site_fract_y
_atom_site_fract_z
Si Si1 0.866220 0.272887 0.355207
Si Si2 0.500000 0.500000 0.500000
Si Si3 0.134818 0.884223 0.400850
Si Si4 0.523383 0.748945 0.869380
Si Si5 0.850428 0.602315 0.996123
Si Si6 0.216292 0.991305 0.850018
Si Si7 0.752529 0.296364 0.794096
O O1 0.882189 0.129809 0.488043
O O2 0.707696 0.400929 0.254420
O O3 0.775399 0.043491 0.254649
O O4 0.068639 0.544911 0.398927
O O5 0.668808 0.403281 0.640785
O O6 0.661516 0.849592 0.548608
O O7 0.964363 0.942312 0.244852
O O8 0.583119 0.044376 0.796899
O O9 0.669476 0.643924 0.922878
O O10 0.590924 0.806232 0.011714
O O11 0.831110 0.316202 0.084064
O O12 0.079974 0.802781 0.116075
O O13 0.831614 0.546029 0.879581
#
# Coordination Sequence:
#
# PCOD9030000 Si02
#       7
#     2   1   2   2   2   2   2
#     4  11  25  46  69 108 145 188 232 295 356 423
#     4  12  22  50  76 102 132 196 240 286 356 424
#     4  11  25  46  72 101 148 181 243 292 356 420
#     4  11  23  43  73 105 140 186 238 291 357 423
#     4  10  22  42  69 105 140 182 232 301 349 415
#     4  11  23  43  72 100 143 188 236 293 350 420
#     4  10  22  43  70 102 141 179 239 291 355 417
#
# _framework density 26.368006000000001
#
# number of rings (size 3 to 8) (size 9 to 14) (size 15 to 20)
#    0.000    1.231    3.077    2.308    0.000    4.923 
#    8.308    1.538    0.000    0.000    0.000    0.000 
#    0.000    0.000    0.000    0.000    0.000    0.000 
#
# Total GULP energy -72462.228019 kJ/mol
# GULP energy per Si atom -5574.017540 kJ/mol
# Density = 2.630799 g / cm^3
# Si number density = 26.368006 Si / 1000 Ang^3
#
#
#
# Elastic Constant Matrix: (Units=GPa)
#
#
# Indices 1 2 3 4 5 6 
#
# 1 103.5851 21.8205 39.6557 9.2776 4.4881 -1.8632
# 2 21.8205 93.8304 14.9839 22.1898 9.0694 25.7764
# 3 39.6557 14.9839 123.9760 -7.6307 14.1871 4.8330
# 4 9.2776 22.1898 -7.6307 41.2088 4.5027 11.9534
# 5 4.4881 9.0694 14.1871 4.5027 37.7493 10.1423
# 6 -1.8632 25.7764 4.8330 11.9534 10.1423 38.7248
#
#
#
# Elastic Compliance Matrix: (Units=1/GPa)
#
#
# Indices 1 2 3 4 5 6 
#
# 1 0.012002 -0.002424 -0.003885 -0.003177 0.000013 0.003653
# 2 -0.002424 0.014907 -0.001021 -0.005265 -0.000059 -0.008271
# 3 -0.003885 -0.001021 0.010094 0.003981 -0.003254 -0.001144
# 4 -0.003177 -0.005265 0.003981 0.030521 -0.001861 -0.006079
# 5 0.000013 -0.000059 -0.003254 -0.001861 0.029769 -0.006776
# 6 0.003653 -0.008271 -0.001144 -0.006079 -0.006776 0.035298
#
#
# Mechanical properties :
#
#
# Convention : Reuss Voigt Hill
#
# Bulk Modulus (GPa) = 44.75859 52.70130 48.72994
# Shear Modulus (GPa) = 32.32066 39.86535 36.09301
#
# Velocity S-wave (km/s) = 3.50487 3.89251 3.70377
# Velocity P-wave (km/s) = 5.77843 6.34290 6.06724
#
# Compressibility (1/GPa) = 0.02234208
#
# Stress axis : x y z
#
# Youngs Moduli (GPa) = 83.32152 67.08113 99.06568
#
# Poissons Ratio (x) = 0.16260 0.38492
# Poissons Ratio (y) = 0.20197 0.10117
# Poissons Ratio (z) = 0.32374 0.06850
#
# Static dielectric constant tensor:
#      x y z
#    x 2.035060 -0.091210 -0.024420 
#    y -0.091210 2.085030 0.013830 
#    z -0.024420 0.013830 1.992340 
# 
# From -- ./inp_files/510300.got.cif
#   From: 2010.05.17/outbox.cif.g08.bks.cpg/sg2_256_cif.got.tgz:510300.got - 2010.06.03 11:33:40.
