data_PCOD9030159
_publ_section_title
;
Structure prediction by ZEFSAII (Michael W. Deem and Ramdas Pophale) SiO2 
 PCOD9030159
Probable space group: P -1
;
_chemical_formula_sum "Si O2"
_cell_formula_units_Z 14
_cell_length_a 7.951598
_cell_length_b 7.896074
_cell_length_c 14.216037
_cell_angle_alpha 75.320257
_cell_angle_beta 123.861161
_cell_angle_gamma 72.225071
_cell_volume 596.038301
_symmetry_space_group_name_H-M "P -1"
_symmetry_group_IT_number 2
_symmetry_cell_setting 'triclinic'
loop_
_space_group_symop_operation_xyz
x,y,z
-x,-y,-z
loop_
_atom_site_type_symbol
_atom_site_label
_atom_site_fract_x
_atom_site_fract_y
_atom_site_fract_z
Si Si1 0.691712 0.685896 0.877319
Si Si2 0.835704 0.796779 0.722794
Si Si3 0.286146 0.418352 0.613206
Si Si4 0.272468 0.962037 0.076385
Si Si5 0.272663 0.803665 0.609418
Si Si6 0.560772 0.738169 0.512241
Si Si7 0.292774 0.684839 0.970995
O O1 0.825477 0.669328 0.824264
O O2 0.412693 0.824273 0.736642
O O3 0.745559 0.457737 0.948291
O O4 0.742541 0.820173 0.946782
O O5 0.815094 0.695400 0.636207
O O6 0.596899 0.030816 0.615078
O O7 0.061301 0.811243 0.812797
O O8 0.507141 0.199224 0.760723
O O9 0.280305 0.592644 0.650577
O O10 0.378927 0.412703 0.535790
O O11 0.000000 0.500000 0.500000
O O12 0.346221 0.840325 0.017179
O O13 0.000000 0.000000 0.000000
O O14 0.408614 0.768542 0.555663
O O15 0.000000 0.000000 0.500000
O O16 0.500000 0.500000 0.000000
#
# Coordination Sequence:
#
# PCOD9030159 Si02
#       7
#     2   2   2   2   2   2   2
#     4  11  23  46  71 100 139 186 236 285 362 414
#     4  10  22  42  69  99 139 182 231 290 350 425
#     4  12  25  44  71 108 144 185 243 296 354 429
#     4  12  25  46  75 103 139 189 242 293 356 428
#     4  11  25  43  72 103 146 190 233 296 362 427
#     4  10  23  41  70 102 140 185 236 286 359 423
#     4  12  27  43  71 104 141 182 237 293 357 423
#
# _framework density 23.488424999999999
#
# number of rings (size 3 to 8) (size 9 to 14) (size 15 to 20)
#    0.000    0.857    4.286    1.714    8.000    0.571 
#    0.000    1.429    0.000    0.000    0.000    0.000 
#    0.000    0.000    0.000    0.000    0.000    0.000 
#
# Total GULP energy -78001.550058 kJ/mol
# GULP energy per Si atom -5571.539290 kJ/mol
# Density = 2.343496 g / cm^3
# Si number density = 23.488425 Si / 1000 Ang^3
#
#
#
# Elastic Constant Matrix: (Units=GPa)
#
#
# Indices 1 2 3 4 5 6 
#
# 1 64.5982 11.4883 22.7626 3.4294 9.2220 -9.3766
# 2 11.4883 150.0969 27.3388 32.9394 10.3644 3.8943
# 3 22.7626 27.3388 123.8447 22.1714 35.0566 -3.4997
# 4 3.4294 32.9394 22.1714 45.7442 6.1041 -2.2843
# 5 9.2220 10.3644 35.0566 6.1041 31.9738 1.9622
# 6 -9.3766 3.8943 -3.4997 -2.2843 1.9622 33.8693
#
#
#
# Elastic Compliance Matrix: (Units=1/GPa)
#
#
# Indices 1 2 3 4 5 6 
#
# 1 0.017534 -0.001136 -0.002276 0.001221 -0.002733 0.004990
# 2 -0.001136 0.008137 -0.000456 -0.005548 -0.000650 -0.001634
# 3 -0.002276 -0.000456 0.012940 -0.004018 -0.012691 0.001224
# 4 0.001221 -0.005548 -0.004018 0.027778 0.000401 0.002411
# 5 -0.002733 -0.000650 -0.012691 0.000401 0.046399 -0.004654
# 6 0.004990 -0.001634 0.001224 0.002411 -0.004654 0.031653
#
#
# Mechanical properties :
#
#
# Convention : Reuss Voigt Hill
#
# Bulk Modulus (GPa) = 32.38888 51.30215 41.84551
# Shear Modulus (GPa) = 30.77484 40.78081 35.77782
#
# Velocity S-wave (km/s) = 3.62361 4.17130 3.90707
# Velocity P-wave (km/s) = 5.59702 6.71480 6.18123
#
# Compressibility (1/GPa) = 0.03087480
#
# Stress axis : x y z
#
# Youngs Moduli (GPa) = 57.03197 122.89176 77.27901
#
# Poissons Ratio (x) = 0.13962 0.17587
# Poissons Ratio (y) = 0.06480 0.03527
# Poissons Ratio (z) = 0.12979 0.05609
#
# Static dielectric constant tensor:
#      x y z
#    x 2.088790 0.044950 0.027670 
#    y 0.044950 1.849970 0.011200 
#    z 0.027670 0.011200 1.955240 
# 
# From -- ./inp_files/492830.got.cif
#   From: 2010.05.17/outbox.cif.g08.bks.cpg/sg2_247_cif.got.tgz:492830.got - 2010.06.03 11:33:40.
