data_PCOD9030400
_publ_section_title
;
Structure prediction by ZEFSAII (Michael W. Deem and Ramdas Pophale) SiO2 
 PCOD9030400
Probable space group: P -1
;
_chemical_formula_sum "Si O2"
_cell_formula_units_Z 14
_cell_length_a 5.533250
_cell_length_b 16.936494
_cell_length_c 14.029486
_cell_angle_alpha 32.643561
_cell_angle_beta 116.880787
_cell_angle_gamma 121.545722
_cell_volume 604.199626
_symmetry_space_group_name_H-M "P -1"
_symmetry_group_IT_number 2
_symmetry_cell_setting 'triclinic'
loop_
_space_group_symop_operation_xyz
x,y,z
-x,-y,-z
loop_
_atom_site_type_symbol
_atom_site_label
_atom_site_fract_x
_atom_site_fract_y
_atom_site_fract_z
Si Si1 0.219843 0.407474 0.101623
Si Si2 0.126174 0.919523 0.687037
Si Si3 0.582596 0.814977 0.955335
Si Si4 0.399966 0.282512 0.647425
Si Si5 0.484896 0.536448 0.716550
Si Si6 0.082788 0.481417 0.425967
Si Si7 0.779164 0.043880 0.125508
O O1 0.337105 0.368322 0.263258
O O2 0.067539 0.256937 0.167847
O O3 0.500000 0.500000 0.000000
O O4 0.000000 0.500000 0.000000
O O5 0.443894 0.897638 0.763778
O O6 0.120876 0.996734 0.710275
O O7 0.000000 0.000000 0.500000
O O8 0.443237 0.868209 0.969489
O O9 0.474408 0.631514 0.111647
O O10 0.924705 0.866274 0.963439
O O11 0.451338 0.370649 0.464972
O O12 0.107527 0.310743 0.597525
O O13 0.623655 0.383223 0.660527
O O14 0.378319 0.109069 0.803525
O O15 0.148038 0.503001 0.705277
O O16 0.000000 0.500000 0.500000
#
# Coordination Sequence:
#
# PCOD9030400 Si02
#       7
#     2   2   2   2   2   2   2
#     4  12  25  42  65  99 135 173 224 268 317 389
#     4  10  23  42  60  93 131 173 217 269 323 385
#     4  10  24  41  61  93 133 169 214 264 327 387
#     4  10  22  42  70  98 127 170 228 272 331 398
#     4  11  23  42  69  94 133 179 220 274 329 383
#     4   9  22  40  69  98 128 163 226 278 331 392
#     4  10  23  42  64  91 134 169 213 269 330 385
#
# _framework density 23.171147999999999
#
# number of rings (size 3 to 8) (size 9 to 14) (size 15 to 20)
#    0.857    0.857    1.429    1.714    8.000    0.571 
#    0.000    1.429    0.000    0.000    0.000    0.000 
#    0.000    0.000    0.000    0.000    0.000    0.000 
#
# Total GULP energy -78057.705592 kJ/mol
# GULP energy per Si atom -5575.550399 kJ/mol
# Density = 2.311841 g / cm^3
# Si number density = 23.171148 Si / 1000 Ang^3
#
#
#
# Elastic Constant Matrix: (Units=GPa)
#
#
# Indices 1 2 3 4 5 6 
#
# 1 99.3133 -5.7896 8.0901 -10.7870 13.7230 1.6268
# 2 -5.7896 66.5495 -16.1270 -4.4070 9.5831 -0.3439
# 3 8.0901 -16.1270 62.7266 -3.8926 6.7301 -5.8861
# 4 -10.7870 -4.4070 -3.8926 43.0562 -4.0865 3.1766
# 5 13.7230 9.5831 6.7301 -4.0865 32.7725 -0.4660
# 6 1.6268 -0.3439 -5.8861 3.1766 -0.4660 28.1612
#
#
#
# Elastic Compliance Matrix: (Units=1/GPa)
#
#
# Indices 1 2 3 4 5 6 
#
# 1 0.011161 0.001721 -0.000426 0.002559 -0.004785 -0.001081
# 2 0.001721 0.017533 0.005205 0.002001 -0.006654 0.000867
# 3 -0.000426 0.005205 0.018288 0.001345 -0.004879 0.003678
# 4 0.002559 0.002001 0.001345 0.024487 0.001084 -0.002586
# 5 -0.004785 -0.006654 -0.004879 0.001084 0.035595 -0.000358
# 6 -0.001081 0.000867 0.003678 -0.002586 -0.000358 0.036637
#
#
# Mechanical properties :
#
#
# Convention : Reuss Voigt Hill
#
# Bulk Modulus (GPa) = 16.67207 22.32626 19.49917
# Shear Modulus (GPa) = 33.17968 36.95907 35.06938
#
# Velocity S-wave (km/s) = 3.78820 3.99814 3.89458
# Velocity P-wave (km/s) = 5.13272 5.56505 5.35325
#
# Compressibility (1/GPa) = 0.05998056
#
# Stress axis : x y z
#
# Youngs Moduli (GPa) = 89.59693 57.03635 54.68212
#
# Poissons Ratio (x) = -0.09814 0.02331
# Poissons Ratio (y) = -0.15417 -0.28463
# Poissons Ratio (z) = 0.03819 -0.29689
#
# Static dielectric constant tensor:
#      x y z
#    x 2.198430 0.002720 0.055690 
#    y 0.002720 1.830080 0.034880 
#    z 0.055690 0.034880 1.919920 
# 
# From -- ./inp_files/484998.got.cif
#   From: 2010.05.17/outbox.cif.g08.bks.cpg/sg2_243_cif.got.tgz:484998.got - 2010.06.03 11:33:40.
