data_PCOD9030593
_publ_section_title
;
Structure prediction by ZEFSAII (Michael W. Deem and Ramdas Pophale) SiO2 
 PCOD9030593
Probable space group: P -1
;
_chemical_formula_sum "Si O2"
_cell_formula_units_Z 14
_cell_length_a 19.008609
_cell_length_b 9.067881
_cell_length_c 6.871470
_cell_angle_alpha 47.130076
_cell_angle_beta 131.298960
_cell_angle_gamma 120.481721
_cell_volume 648.494386
_symmetry_space_group_name_H-M "P -1"
_symmetry_group_IT_number 2
_symmetry_cell_setting 'triclinic'
loop_
_space_group_symop_operation_xyz
x,y,z
-x,-y,-z
loop_
_atom_site_type_symbol
_atom_site_label
_atom_site_fract_x
_atom_site_fract_y
_atom_site_fract_z
Si Si1 0.683397 0.361642 0.244804
Si Si2 0.062197 0.072438 0.362134
Si Si3 0.592556 0.127352 0.957596
Si Si4 0.176947 0.265481 0.726008
Si Si5 0.998741 0.736987 0.307859
Si Si6 0.523523 0.631139 0.731721
Si Si7 0.654397 0.996824 0.790459
O O1 0.774250 0.510792 0.335819
O O2 0.656819 0.221226 0.508827
O O3 0.672314 0.201088 0.193702
O O4 0.607041 0.512359 0.910092
O O5 0.138900 0.230944 0.465705
O O6 0.009174 0.180341 0.998677
O O7 0.000000 0.000000 0.500000
O O8 0.081505 0.866110 0.467627
O O9 0.555667 0.321344 0.606850
O O10 0.638283 0.999934 0.988780
O O11 0.500000 0.000000 0.000000
O O12 0.094755 0.228020 0.769602
O O13 0.253156 0.103301 0.018404
O O14 0.000000 0.500000 0.500000
O O15 0.567955 0.853359 0.674633
O O16 0.500000 0.500000 0.000000
#
# Coordination Sequence:
#
# PCOD9030593 Si02
#       7
#     2   2   2   2   2   2   2
#     4  11  24  40  61  94 127 171 213 269 328 374
#     4   9  21  43  68  99 131 166 203 256 315 376
#     4  12  23  40  67  90 121 175 224 273 319 374
#     4  10  25  41  61  95 136 168 205 263 321 385
#     4  10  22  42  72 102 125 165 217 251 308 386
#     4  11  21  42  65  88 124 165 223 272 320 381
#     4  11  24  42  60  91 133 167 210 272 332 373
#
# _framework density 21.588467000000001
#
# number of rings (size 3 to 8) (size 9 to 14) (size 15 to 20)
#    0.000    1.429    2.857    1.714    0.000   10.286 
#    0.000    0.000    0.000    0.000    0.000    0.000 
#    0.000    0.000    0.000    0.000    0.000    0.000 
#
# Total GULP energy -78008.722343 kJ/mol
# GULP energy per Si atom -5572.051596 kJ/mol
# Density = 2.153933 g / cm^3
# Si number density = 21.588467 Si / 1000 Ang^3
#
#
#
# Elastic Constant Matrix: (Units=GPa)
#
#
# Indices 1 2 3 4 5 6 
#
# 1 87.1409 35.2937 31.4356 1.7769 -9.9593 -12.1588
# 2 35.2937 166.0064 52.7137 21.6308 -20.2837 -4.3327
# 3 31.4356 52.7137 95.0072 3.5926 -28.5582 -0.5794
# 4 1.7769 21.6308 3.5926 49.7536 -5.8244 -6.4411
# 5 -9.9593 -20.2837 -28.5582 -5.8244 26.3837 -1.4036
# 6 -12.1588 -4.3327 -0.5794 -6.4411 -1.4036 31.3038
#
#
#
# Elastic Compliance Matrix: (Units=1/GPa)
#
#
# Indices 1 2 3 4 5 6 
#
# 1 0.014330 -0.001878 -0.003477 0.001369 0.000800 0.005559
# 2 -0.001878 0.008028 -0.003387 -0.003084 0.001102 -0.000266
# 3 -0.003477 -0.003387 0.018429 0.002158 0.016493 -0.000294
# 4 0.001369 -0.003084 0.002158 0.022559 0.005731 0.005044
# 5 0.000800 0.001102 0.016493 0.005731 0.058412 0.004567
# 6 0.005559 -0.000266 -0.000294 0.005044 0.004567 0.035304
#
#
# Mechanical properties :
#
#
# Convention : Reuss Voigt Hill
#
# Bulk Modulus (GPa) = 42.91072 65.22671 54.06871
# Shear Modulus (GPa) = 27.42538 36.73566 32.08052
#
# Velocity S-wave (km/s) = 3.56809 4.12956 3.85905
# Velocity P-wave (km/s) = 6.07412 7.28128 6.70492
#
# Compressibility (1/GPa) = 0.02330420
#
# Stress axis : x y z
#
# Youngs Moduli (GPa) = 69.78501 124.56202 54.26235
#
# Poissons Ratio (x) = 0.23394 0.18865
# Poissons Ratio (y) = 0.13107 0.18376
# Poissons Ratio (z) = 0.24262 0.42183
#
# Static dielectric constant tensor:
#      x y z
#    x 1.848760 0.007460 0.027790 
#    y 0.007460 1.860920 0.016740 
#    z 0.027790 0.016740 1.779330 
# 
# From -- ./inp_files/11558.got.cif
#   From: 2010.05.17/outbox.cif.g08.bks.cpg/sg2_6_cif.got.tgz:11558.got - 2010.06.03 11:33:40.
