data_PCOD9030412
_publ_section_title
;
Structure prediction by ZEFSAII (Michael W. Deem and Ramdas Pophale) SiO2 
 PCOD9030412
Probable space group: P -1
;
_chemical_formula_sum "Si O2"
_cell_formula_units_Z 16
_cell_length_a 10.574039
_cell_length_b 14.001325
_cell_length_c 13.019251
_cell_angle_alpha 43.104714
_cell_angle_beta 131.286059
_cell_angle_gamma 151.632468
_cell_volume 624.904885
_symmetry_space_group_name_H-M "P -1"
_symmetry_group_IT_number 2
_symmetry_cell_setting 'triclinic'
loop_
_space_group_symop_operation_xyz
x,y,z
-x,-y,-z
loop_
_atom_site_type_symbol
_atom_site_label
_atom_site_fract_x
_atom_site_fract_y
_atom_site_fract_z
Si Si1 0.124658 0.130710 0.184629
Si Si2 0.442402 0.627974 0.377527
Si Si3 0.815017 0.457868 0.353713
Si Si4 0.637705 0.845970 0.522890
Si Si5 0.610709 0.352097 0.117363
Si Si6 0.206245 0.227389 0.864116
Si Si7 0.899251 0.286167 0.234537
Si Si8 0.231667 0.903812 0.897974
O O1 0.202328 0.165119 0.318244
O O2 0.381054 0.265875 0.143013
O O3 0.986366 0.194572 0.054882
O O4 0.898962 0.878263 0.222196
O O5 0.500000 0.500000 0.500000
O O6 0.450064 0.666360 0.473682
O O7 0.178444 0.494923 0.275690
O O8 0.661221 0.878595 0.257061
O O9 0.538259 0.206835 0.437211
O O10 0.836552 0.468304 0.235151
O O11 0.823563 0.628384 0.248278
O O12 0.000000 0.500000 0.500000
O O13 0.824432 0.083400 0.392155
O O14 0.656553 0.232360 0.178881
O O15 0.499671 0.370472 0.945677
O O16 0.000000 0.000000 0.000000
O O17 0.904279 0.276325 0.121719
O O18 0.500000 0.000000 0.000000
#
# Coordination Sequence:
#
# PCOD9030412 Si02
#       8
#     2   2   2   2   2   2   2   2
#     4  10  22  42  70  98 135 183 230 281 348 416
#     4  11  24  44  71  99 139 186 234 287 349 416
#     4  11  24  39  67 103 140 181 239 287 340 424
#     4  10  24  40  66 104 136 178 229 293 345 406
#     4  10  23  44  68 101 143 184 228 290 357 416
#     4  10  23  42  66  98 140 192 223 285 355 418
#     4  11  24  45  71 102 144 182 231 291 355 412
#     4  11  25  47  70 101 137 184 237 287 342 423
#
# _framework density 25.603897
#
# number of rings (size 3 to 8) (size 9 to 14) (size 15 to 20)
#    0.000    1.500    0.000    3.375    8.750    3.500 
#   11.250    0.000    0.000    0.000    0.000    0.000 
#    0.000    0.000    0.000    0.000    0.000    0.000 
#
# Total GULP energy -89161.746684 kJ/mol
# GULP energy per Si atom -5572.609168 kJ/mol
# Density = 2.554562 g / cm^3
# Si number density = 25.603897 Si / 1000 Ang^3
#
#
#
# Elastic Constant Matrix: (Units=GPa)
#
#
# Indices 1 2 3 4 5 6 
#
# 1 126.5687 25.5776 18.2233 5.5420 23.6700 -10.7754
# 2 25.5776 115.1096 38.4767 32.3211 -0.0704 -13.5053
# 3 18.2233 38.4767 100.1202 23.9746 17.3789 3.3051
# 4 5.5420 32.3211 23.9746 48.4275 4.2948 -1.5670
# 5 23.6700 -0.0704 17.3789 4.2948 32.9958 8.9456
# 6 -10.7754 -13.5053 3.3051 -1.5670 8.9456 44.9401
#
#
#
# Elastic Compliance Matrix: (Units=1/GPa)
#
#
# Indices 1 2 3 4 5 6 
#
# 1 0.010156 -0.002192 0.000071 0.001125 -0.008419 0.003486
# 2 -0.002192 0.012509 -0.003547 -0.006582 0.003635 0.002541
# 3 0.000071 -0.003547 0.013365 -0.003721 -0.006371 -0.000893
# 4 0.001125 -0.006582 -0.003721 0.026964 -0.002365 -0.000023
# 5 -0.008419 0.003635 -0.006371 -0.002365 0.042455 -0.008991
# 6 0.003486 0.002541 -0.000893 -0.000023 -0.008991 0.025706
#
#
# Mechanical properties :
#
#
# Convention : Reuss Voigt Hill
#
# Bulk Modulus (GPa) = 40.49924 56.26153 48.38039
# Shear Modulus (GPa) = 33.17370 42.57408 37.87389
#
# Velocity S-wave (km/s) = 3.60342 4.08216 3.85024
# Velocity P-wave (km/s) = 5.75889 6.65134 6.22114
#
# Compressibility (1/GPa) = 0.02469182
#
# Stress axis : x y z
#
# Youngs Moduli (GPa) = 98.46743 79.94535 74.82449
#
# Poissons Ratio (x) = 0.17528 -0.00530
# Poissons Ratio (y) = 0.21589 0.26540
# Poissons Ratio (z) = -0.00698 0.28356
#
# Static dielectric constant tensor:
#      x y z
#    x 2.600510 1.022120 0.188060 
#    y 1.022120 3.999670 0.461910 
#    z 0.188060 0.461910 2.268380 
# 
# From -- ./inp_files/521480.got.cif
#   From: 2010.05.17/outbox.cif.g08.bks.cpg/sg2_261_cif.got.tgz:521480.got - 2010.06.03 11:33:40.
