data_PCOD9030011
_publ_section_title
;
Structure prediction by ZEFSAII (Michael W. Deem and Ramdas Pophale) SiO2 
 PCOD9030011
Probable space group: P -1
;
_chemical_formula_sum "Si O2"
_cell_formula_units_Z 12
_cell_length_a 17.134485
_cell_length_b 10.498539
_cell_length_c 8.318719
_cell_angle_alpha 74.975317
_cell_angle_beta 113.934536
_cell_angle_gamma 158.680638
_cell_volume 464.464031
_symmetry_space_group_name_H-M "P -1"
_symmetry_group_IT_number 2
_symmetry_cell_setting 'triclinic'
loop_
_space_group_symop_operation_xyz
x,y,z
-x,-y,-z
loop_
_atom_site_type_symbol
_atom_site_label
_atom_site_fract_x
_atom_site_fract_y
_atom_site_fract_z
Si Si1 0.970552 0.770664 0.957329
Si Si2 0.351570 0.162906 0.338698
Si Si3 0.445525 0.766901 0.001392
Si Si4 0.750068 0.290767 0.660647
Si Si5 0.826667 0.146690 0.376503
Si Si6 0.220474 0.280139 0.707283
O O1 0.831022 0.451832 0.851657
O O2 0.769411 0.570178 0.938436
O O3 0.124167 0.061838 0.851869
O O4 0.143011 0.958970 0.173381
O O5 0.587685 0.520594 0.307728
O O6 0.279792 0.908209 0.317974
O O7 0.351097 0.165599 0.531131
O O8 0.350565 0.592576 0.802346
O O9 0.500000 0.000000 0.000000
O O10 0.668777 0.996967 0.162698
O O11 0.973668 0.653831 0.610675
O O12 0.500000 0.000000 0.500000
O O13 0.000000 0.500000 0.500000
O O14 0.000000 0.000000 0.500000
#
# Coordination Sequence:
#
# PCOD9030011 Si02
#       6
#     2   2   2   2   2   2
#     4  12  25  43  67 102 143 185 232 292 350 414
#     4  11  24  43  68 102 140 188 235 284 349 422
#     4  12  25  47  75 105 139 185 237 291 347 420
#     4  11  22  42  70 101 138 185 235 289 345 415
#     4  10  22  42  69 106 139 176 234 291 344 410
#     4  12  27  47  69 102 144 189 234 289 354 415
#
# _framework density 25.83623
#
# number of rings (size 3 to 8) (size 9 to 14) (size 15 to 20)
#    0.000    0.667    0.000    9.500    0.000    5.333 
#    0.000    2.500    0.000    0.000    0.000    0.000 
#    0.000    0.000    0.000    0.000    0.000    0.000 
#
# Total GULP energy -67308.672591 kJ/mol
# GULP energy per Si atom -5609.056049 kJ/mol
# Density = 2.577743 g / cm^3
# Si number density = 25.836230 Si / 1000 Ang^3
#
#
#
# Elastic Constant Matrix: (Units=GPa)
#
#
# Indices 1 2 3 4 5 6 
#
# 1 128.8665 34.5282 48.7212 6.9065 -23.5894 19.8793
# 2 34.5282 145.9780 28.9681 -8.2955 5.7136 31.9993
# 3 48.7212 28.9681 183.1048 18.3383 5.3443 9.6221
# 4 6.9065 -8.2955 18.3383 50.2712 6.7361 2.8796
# 5 -23.5894 5.7136 5.3443 6.7361 57.8717 -0.7835
# 6 19.8793 31.9993 9.6221 2.8796 -0.7835 61.5235
#
#
#
# Elastic Compliance Matrix: (Units=1/GPa)
#
#
# Indices 1 2 3 4 5 6 
#
# 1 0.010392 -0.001835 -0.002374 -0.001395 0.004773 -0.001906
# 2 -0.001835 0.008503 -0.000845 0.002430 -0.001844 -0.003835
# 3 -0.002374 -0.000845 0.006450 -0.002016 -0.001242 0.000276
# 4 -0.001395 0.002430 -0.002016 0.021734 -0.003173 -0.001556
# 5 0.004773 -0.001844 -0.001242 -0.003173 0.019891 0.000013
# 6 -0.001906 -0.003835 0.000276 -0.001556 0.000013 0.018894
#
#
# Mechanical properties :
#
#
# Convention : Reuss Voigt Hill
#
# Bulk Modulus (GPa) = 65.63193 75.82046 70.72620
# Shear Modulus (GPa) = 49.47941 56.98207 53.23074
#
# Velocity S-wave (km/s) = 4.38095 4.70138 4.54399
# Velocity P-wave (km/s) = 7.14483 7.67339 7.41382
#
# Compressibility (1/GPa) = 0.01523649
#
# Stress axis : x y z
#
# Youngs Moduli (GPa) = 96.23043 117.60620 155.02998
#
# Poissons Ratio (x) = 0.21582 0.36807
# Poissons Ratio (y) = 0.17659 0.13100
# Poissons Ratio (z) = 0.22847 0.09937
#
# Static dielectric constant tensor:
#      x y z
#    x 2.544680 -0.275590 -0.324700 
#    y -0.275590 2.282960 0.064470 
#    z -0.324700 0.064470 2.056260 
# 
# From -- ./inp_files/146160.got.cif
#   From: 2010.05.17/outbox.cif.g08.bks.cpg/sg2_74_cif.got.tgz:146160.got - 2010.06.03 11:33:40.
