data_PCOD9030937
_publ_section_title
;
Structure prediction by ZEFSAII (Michael W. Deem and Ramdas Pophale) SiO2 
 PCOD9030937
Probable space group: P -1
;
_chemical_formula_sum "Si O2"
_cell_formula_units_Z 16
_cell_length_a 8.478183
_cell_length_b 13.084883
_cell_length_c 7.059172
_cell_angle_alpha 84.322216
_cell_angle_beta 77.853186
_cell_angle_gamma 110.161567
_cell_volume 706.017641
_symmetry_space_group_name_H-M "P -1"
_symmetry_group_IT_number 2
_symmetry_cell_setting 'triclinic'
loop_
_space_group_symop_operation_xyz
x,y,z
-x,-y,-z
loop_
_atom_site_type_symbol
_atom_site_label
_atom_site_fract_x
_atom_site_fract_y
_atom_site_fract_z
Si Si1 0.313280 0.147335 0.424163
Si Si2 0.620890 0.036086 0.777581
Si Si3 0.168878 0.404915 0.603287
Si Si4 0.025623 0.139943 0.758902
Si Si5 0.826605 0.447801 0.752856
Si Si6 0.326347 0.470771 0.923946
Si Si7 0.466096 0.755265 0.324502
Si Si8 0.782916 0.776961 0.957552
O O1 0.150767 0.093580 0.618169
O O2 0.451111 0.247474 0.491139
O O3 0.241048 0.186828 0.251069
O O4 0.399838 0.064329 0.339956
O O5 0.575144 0.134399 0.682935
O O6 0.824447 0.082507 0.773786
O O7 0.500000 0.000000 0.000000
O O8 0.098850 0.271700 0.660442
O O9 0.191384 0.449191 0.375741
O O10 0.329171 0.463890 0.696474
O O11 0.016325 0.444607 0.706977
O O12 0.061095 0.139273 0.974005
O O13 0.703841 0.344560 0.679786
O O14 0.758765 0.448226 0.981759
O O15 0.500000 0.500000 0.000000
O O16 0.206876 0.343145 0.022242
O O17 0.611776 0.764747 0.127461
#
# Coordination Sequence:
#
# PCOD9030937 Si02
#       8
#     2   2   2   2   2   2   2   2
#     4  11  24  43  67  93 129 168 218 261 327 379
#     4  12  24  46  69  95 126 168 216 272 327 373
#     4  10  23  41  62  94 129 170 208 255 317 380
#     4  10  23  45  67  93 134 165 213 268 315 386
#     4  11  22  40  64  91 131 170 209 253 318 374
#     4  11  22  36  62  93 128 165 212 254 306 376
#     4  11  23  42  65  93 131 165 215 273 309 378
#     4  10  22  43  62  97 129 172 210 260 321 380
#
# _framework density 22.662326
#
# number of rings (size 3 to 8) (size 9 to 14) (size 15 to 20)
#    0.000    1.250    3.750    1.875    1.750    1.000 
#    4.500    1.250    0.000    0.000    0.000    0.000 
#    0.000    0.000    0.000    0.000    0.000    0.000 
#
# Total GULP energy -89423.748590 kJ/mol
# GULP energy per Si atom -5588.984287 kJ/mol
# Density = 2.261075 g / cm^3
# Si number density = 22.662326 Si / 1000 Ang^3
#
#
#
# Elastic Constant Matrix: (Units=GPa)
#
#
# Indices 1 2 3 4 5 6 
#
# 1 59.9167 3.1896 27.3499 13.5381 4.1156 7.9629
# 2 3.1896 72.2215 31.3958 17.4261 3.1687 1.5771
# 3 27.3499 31.3958 109.0521 31.2639 6.0405 5.6633
# 4 13.5381 17.4261 31.2639 30.4608 -1.4467 4.0819
# 5 4.1156 3.1687 6.0405 -1.4467 36.3142 9.6964
# 6 7.9629 1.5771 5.6633 4.0819 9.6964 36.5493
#
#
#
# Elastic Compliance Matrix: (Units=1/GPa)
#
#
# Indices 1 2 3 4 5 6 
#
# 1 0.020130 0.002337 -0.003743 -0.006121 -0.001341 -0.002867
# 2 0.002337 0.017053 -0.003250 -0.007611 -0.001662 0.000550
# 3 -0.003743 -0.003250 0.014433 -0.011483 -0.002315 0.000616
# 4 -0.006121 -0.007611 -0.011483 0.052552 0.006468 -0.004144
# 5 -0.001341 -0.001662 -0.002315 0.006468 0.030648 -0.008131
# 6 -0.002867 0.000550 0.000616 -0.004144 -0.008131 0.030486
#
#
# Mechanical properties :
#
#
# Convention : Reuss Voigt Hill
#
# Bulk Modulus (GPa) = 23.63911 40.56231 32.10071
# Shear Modulus (GPa) = 26.49483 32.61520 29.55501
#
# Velocity S-wave (km/s) = 3.42294 3.79777 3.61522
# Velocity P-wave (km/s) = 5.10644 6.09657 5.62334
#
# Compressibility (1/GPa) = 0.04230278
#
# Stress axis : x y z
#
# Youngs Moduli (GPa) = 49.67620 58.63943 69.28765
#
# Poissons Ratio (x) = -0.13702 0.25937
# Poissons Ratio (y) = -0.11607 0.22519
# Poissons Ratio (z) = 0.18596 0.19058
#
# Static dielectric constant tensor:
#      x y z
#    x 1.836370 -0.016010 0.018860 
#    y -0.016010 1.854850 -0.011570 
#    z 0.018860 -0.011570 1.847380 
# 
# From -- ./inp_files/38641.got.cif
#   From: 2010.05.17/outbox.cif.g08.bks.cpg/sg2_20_cif.got.tgz:38641.got - 2010.06.03 11:33:40.
