data_PCOD9030756
_publ_section_title
;
Structure prediction by ZEFSAII (Michael W. Deem and Ramdas Pophale) SiO2 
 PCOD9030756
Probable space group: P -1
;
_chemical_formula_sum "Si O2"
_cell_formula_units_Z 14
_cell_length_a 9.194406
_cell_length_b 14.414592
_cell_length_c 11.679176
_cell_angle_alpha 29.870857
_cell_angle_beta 72.492766
_cell_angle_gamma 87.292157
_cell_volume 656.656714
_symmetry_space_group_name_H-M "P -1"
_symmetry_group_IT_number 2
_symmetry_cell_setting 'triclinic'
loop_
_space_group_symop_operation_xyz
x,y,z
-x,-y,-z
loop_
_atom_site_type_symbol
_atom_site_label
_atom_site_fract_x
_atom_site_fract_y
_atom_site_fract_z
Si Si1 0.313923 0.479258 0.078215
Si Si2 0.170594 0.716849 0.720787
Si Si3 0.726677 0.919144 0.834480
Si Si4 0.357761 0.620962 0.173833
Si Si5 0.100813 0.996056 0.621293
Si Si6 0.859168 0.137223 0.997204
Si Si7 0.755400 0.770486 0.233611
O O1 0.289454 0.524821 0.167561
O O2 0.178821 0.245388 0.325827
O O3 0.500000 0.500000 0.000000
O O4 0.306365 0.651598 0.812086
O O5 0.218269 0.834670 0.461887
O O6 0.152911 0.882795 0.631833
O O7 0.000000 0.500000 0.000000
O O8 0.895303 0.897059 0.781084
O O9 0.553997 0.795812 0.935690
O O10 0.695893 0.833916 0.062404
O O11 0.233414 0.715606 0.147134
O O12 0.358703 0.446746 0.445903
O O13 0.167672 0.952585 0.772005
O O14 0.062949 0.234546 0.824964
O O15 0.783075 0.951154 0.123780
#
# Coordination Sequence:
#
# PCOD9030756 Si02
#       7
#     2   2   2   2   2   2   2
#     4  12  27  43  73 102 137 182 231 285 344 401
#     4  12  26  45  71 100 138 184 229 280 349 408
#     4  11  26  43  68 103 144 178 225 282 343 414
#     4  12  24  44  70 105 135 181 232 283 341 402
#     4  11  23  48  66 100 139 182 228 282 339 414
#     4  10  22  42  73  99 132 181 236 278 330 415
#     4  10  23  46  68  98 142 180 227 284 342 398
#
# _framework density 21.320118999999998
#
# number of rings (size 3 to 8) (size 9 to 14) (size 15 to 20)
#    0.000    0.857    4.286    2.143    4.000    1.714 
#    5.143    0.000    0.000    0.000    0.000    0.000 
#    0.000    0.000    0.000    0.000    0.000    0.000 
#
# Total GULP energy -78249.670550 kJ/mol
# GULP energy per Si atom -5589.262182 kJ/mol
# Density = 2.127159 g / cm^3
# Si number density = 21.320119 Si / 1000 Ang^3
#
#
#
# Elastic Constant Matrix: (Units=GPa)
#
#
# Indices 1 2 3 4 5 6 
#
# 1 76.7566 40.6607 23.3967 -9.0823 18.0689 5.8957
# 2 40.6607 64.0889 8.7620 -16.7395 2.2011 -12.6507
# 3 23.3967 8.7620 115.7436 -5.8693 20.2869 -1.6452
# 4 -9.0823 -16.7395 -5.8693 27.0349 10.8481 -0.3863
# 5 18.0689 2.2011 20.2869 10.8481 44.0005 0.2288
# 6 5.8957 -12.6507 -1.6452 -0.3863 0.2288 19.6795
#
#
#
# Elastic Compliance Matrix: (Units=1/GPa)
#
#
# Indices 1 2 3 4 5 6 
#
# 1 0.030632 -0.024095 -0.003191 -0.001948 -0.009293 -0.024863
# 2 -0.024095 0.042133 0.002796 0.018382 0.001784 0.034877
# 3 -0.003191 0.002796 0.010203 0.004832 -0.004744 0.003757
# 4 -0.001948 0.018382 0.004832 0.055421 -0.016084 0.014079
# 5 -0.009293 0.001784 -0.004744 -0.016084 0.032592 0.002840
# 6 -0.024863 0.034877 0.003757 0.014079 0.002840 0.081240
#
#
# Mechanical properties :
#
#
# Convention : Reuss Voigt Hill
#
# Bulk Modulus (GPa) = 29.42303 44.69199 37.05751
# Shear Modulus (GPa) = 15.99844 30.39431 23.19637
#
# Velocity S-wave (km/s) = 2.74230 3.77983 3.30207
# Velocity P-wave (km/s) = 4.88441 6.32909 5.65309
#
# Compressibility (1/GPa) = 0.03398698
#
# Stress axis : x y z
#
# Youngs Moduli (GPa) = 32.64564 23.73464 98.00830
#
# Poissons Ratio (x) = 0.57189 0.31278
# Poissons Ratio (y) = 0.78661 -0.27406
# Poissons Ratio (z) = 0.10418 -0.06637
#
# Static dielectric constant tensor:
#      x y z
#    x 1.775190 0.032760 0.007460 
#    y 0.032760 1.770030 0.038350 
#    z 0.007460 0.038350 1.804470 
# 
# From -- ./inp_files/398126.got.cif
#   From: 2010.05.17/outbox.cif.g08.bks.cpg/sg2_200_cif.got.tgz:398126.got - 2010.06.03 11:33:40.
