data_PCOD9030394
_publ_section_title
;
Structure prediction by ZEFSAII (Michael W. Deem and Ramdas Pophale) SiO2 
 PCOD9030394
Probable space group: P -1
;
_chemical_formula_sum "Si O2"
_cell_formula_units_Z 14
_cell_length_a 18.529671
_cell_length_b 8.940384
_cell_length_c 5.512756
_cell_angle_alpha 122.007235
_cell_angle_beta 65.352708
_cell_angle_gamma 131.638487
_cell_volume 575.727629
_symmetry_space_group_name_H-M "P -1"
_symmetry_group_IT_number 2
_symmetry_cell_setting 'triclinic'
loop_
_space_group_symop_operation_xyz
x,y,z
-x,-y,-z
loop_
_atom_site_type_symbol
_atom_site_label
_atom_site_fract_x
_atom_site_fract_y
_atom_site_fract_z
Si Si1 0.653842 0.691141 0.641199
Si Si2 0.057214 0.618436 0.274635
Si Si3 0.982885 0.883067 0.673340
Si Si4 0.468506 0.240207 0.455929
Si Si5 0.267074 0.834938 0.986878
Si Si6 0.400704 0.792516 0.128700
Si Si7 0.761283 0.525883 0.589521
O O1 0.552206 0.462848 0.657387
O O2 0.620212 0.745296 0.482836
O O3 0.731792 0.632960 0.517341
O O4 0.697425 0.921118 0.909680
O O5 0.167004 0.697174 0.161059
O O6 0.000000 0.500000 0.500000
O O7 0.060533 0.829384 0.487036
O O8 0.000000 0.500000 0.000000
O O9 0.869943 0.687908 0.665108
O O10 0.000000 0.000000 0.500000
O O11 0.000000 0.000000 0.000000
O O12 0.438908 0.013374 0.416739
O O13 0.520387 0.232884 0.128990
O O14 0.345854 0.825968 0.018887
O O15 0.245361 0.686042 0.661369
O O16 0.322788 0.570549 0.177217
#
# Coordination Sequence:
#
# PCOD9030394 Si02
#       7
#     2   2   2   2   2   2   2
#     4  10  22  43  67 101 139 184 234 301 355 438
#     4  12  25  46  74 104 146 191 242 306 371 443
#     4  12  28  49  77 111 149 197 246 311 378 448
#     4   9  20  44  67  97 144 184 238 293 370 435
#     4  11  24  45  68 101 140 187 241 293 372 434
#     4  10  22  42  70  97 138 193 228 302 365 429
#     4  12  25  44  72 101 144 182 248 301 367 436
#
# _framework density 24.317055
#
# number of rings (size 3 to 8) (size 9 to 14) (size 15 to 20)
#    0.000    1.143    2.857    2.571    2.000    2.286 
#    7.714    0.000    0.000    0.000    0.000    0.000 
#    0.000    0.000    0.000    0.000    0.000    0.000 
#
# Total GULP energy -78095.261864 kJ/mol
# GULP energy per Si atom -5578.232990 kJ/mol
# Density = 2.426171 g / cm^3
# Si number density = 24.317055 Si / 1000 Ang^3
#
#
#
# Elastic Constant Matrix: (Units=GPa)
#
#
# Indices 1 2 3 4 5 6 
#
# 1 58.6269 16.3969 21.1099 6.4799 -3.4575 24.8435
# 2 16.3969 122.8962 52.4743 13.8220 11.2410 18.5907
# 3 21.1099 52.4743 122.7933 16.9080 2.3643 9.9816
# 4 6.4799 13.8220 16.9080 55.6225 5.5516 -2.4490
# 5 -3.4575 11.2410 2.3643 5.5516 36.2803 7.1396
# 6 24.8435 18.5907 9.9816 -2.4490 7.1396 39.9872
#
#
#
# Elastic Compliance Matrix: (Units=1/GPa)
#
#
# Indices 1 2 3 4 5 6 
#
# 1 0.025947 0.000072 -0.002752 -0.003594 0.006495 -0.016847
# 2 0.000072 0.010790 -0.004085 -0.001402 -0.002118 -0.003749
# 3 -0.002752 -0.004085 0.010550 -0.001882 0.000450 0.000780
# 4 -0.003594 -0.001402 -0.001882 0.019936 -0.003873 0.005267
# 5 0.006495 -0.002118 0.000450 -0.003873 0.031166 -0.008965
# 6 -0.016847 -0.003749 0.000780 0.005267 -0.008965 0.038946
#
#
# Mechanical properties :
#
#
# Convention : Reuss Voigt Hill
#
# Bulk Modulus (GPa) = 29.62395 53.80871 41.71633
# Shear Modulus (GPa) = 30.84197 40.66702 35.75450
#
# Velocity S-wave (km/s) = 3.56522 4.09389 3.83867
# Velocity P-wave (km/s) = 5.39968 6.67253 6.06956
#
# Compressibility (1/GPa) = 0.03375647
#
# Stress axis : x y z
#
# Youngs Moduli (GPa) = 38.53991 92.67851 94.79111
#
# Poissons Ratio (x) = -0.00665 0.26087
# Poissons Ratio (y) = -0.00277 0.38720
# Poissons Ratio (z) = 0.10606 0.37857
#
# Static dielectric constant tensor:
#      x y z
#    x 1.824530 -0.062370 0.086330 
#    y -0.062370 1.907460 0.114680 
#    z 0.086330 0.114680 1.908200 
# 
# From -- ./inp_files/107558.got.cif
#   From: 2010.05.17/outbox.cif.g08.bks.cpg/sg2_54_cif.got.tgz:107558.got - 2010.06.03 11:33:40.
