data_PCOD9030734
_publ_section_title
;
Structure prediction by ZEFSAII (Michael W. Deem and Ramdas Pophale) SiO2 
 PCOD9030734
Probable space group: P -1
;
_chemical_formula_sum "Si O2"
_cell_formula_units_Z 10
_cell_length_a 5.806390
_cell_length_b 16.159138
_cell_length_c 9.142187
_cell_angle_alpha 48.218079
_cell_angle_beta 97.807751
_cell_angle_gamma 134.162296
_cell_volume 362.237565
_symmetry_space_group_name_H-M "P -1"
_symmetry_group_IT_number 2
_symmetry_cell_setting 'triclinic'
loop_
_space_group_symop_operation_xyz
x,y,z
-x,-y,-z
loop_
_atom_site_type_symbol
_atom_site_label
_atom_site_fract_x
_atom_site_fract_y
_atom_site_fract_z
Si Si1 0.102055 0.434556 0.182720
Si Si2 0.309838 0.167442 0.585818
Si Si3 0.249455 0.910794 0.931684
Si Si4 0.740559 0.503919 0.418238
Si Si5 0.035737 0.194754 0.258160
O O1 0.059832 0.315202 0.212040
O O2 0.776968 0.308446 0.432428
O O3 0.574287 0.641957 0.011102
O O4 0.000000 0.500000 0.000000
O O5 0.387149 0.309042 0.518470
O O6 0.112231 0.128405 0.461702
O O7 0.079339 0.972074 0.864715
O O8 0.336802 0.959476 0.704632
O O9 0.075214 0.717517 0.130568
O O10 0.500000 0.000000 0.000000
O O11 0.500000 0.500000 0.500000
O O12 0.000000 0.500000 0.500000
#
# Coordination Sequence:
#
# PCOD9030734 Si02
#       5
#     2   2   2   2   2
#     4   9  19  41  74 104 143 190 253 306 376 444
#     4  11  25  48  74 108 147 198 257 315 379 457
#     4  12  26  47  72 113 150 200 252 319 383 457
#     4  12  29  53  79 111 158 205 255 320 390 459
#     4  10  22  42  73 106 145 199 252 313 376 457
#
# _framework density 27.606190999999999
#
# number of rings (size 3 to 8) (size 9 to 14) (size 15 to 20)
#    0.000    1.200    2.000    4.200    5.600    1.600 
#    3.600    0.000    0.000    0.000    0.000    0.000 
#    0.000    0.000    0.000    0.000    0.000    0.000 
#
# Total GULP energy -55733.166221 kJ/mol
# GULP energy per Si atom -5573.316622 kJ/mol
# Density = 2.754336 g / cm^3
# Si number density = 27.606191 Si / 1000 Ang^3
#
#
#
# Elastic Constant Matrix: (Units=GPa)
#
#
# Indices 1 2 3 4 5 6 
#
# 1 142.7362 56.0213 62.0704 5.3654 29.4834 -8.7303
# 2 56.0213 226.4735 67.3694 10.6014 54.4056 -22.4162
# 3 62.0704 67.3694 119.6755 -12.0431 56.5137 6.1503
# 4 5.3654 10.6014 -12.0431 51.8798 7.8539 22.0601
# 5 29.4834 54.4056 56.5137 7.8539 80.0695 0.3173
# 6 -8.7303 -22.4162 6.1503 22.0601 0.3173 52.8338
#
#
#
# Elastic Compliance Matrix: (Units=1/GPa)
#
#
# Indices 1 2 3 4 5 6 
#
# 1 0.010006 -0.000325 -0.006325 -0.004383 0.001414 0.004073
# 2 -0.000325 0.006534 -0.003411 -0.003875 -0.001551 0.004743
# 3 -0.006325 -0.003411 0.020386 0.011879 -0.010868 -0.009760
# 4 -0.004383 -0.003875 0.011879 0.031539 -0.007164 -0.016877
# 5 0.001414 -0.001551 -0.010868 -0.007164 0.021381 0.003703
# 6 0.004073 0.004743 -0.009760 -0.016877 0.003703 0.029773
#
#
# Mechanical properties :
#
#
# Convention : Reuss Voigt Hill
#
# Bulk Modulus (GPa) = 59.50935 95.53417 77.52176
# Shear Modulus (GPa) = 34.40184 57.18488 45.79336
#
# Velocity S-wave (km/s) = 3.53393 4.55626 4.07726
# Velocity P-wave (km/s) = 6.18506 7.89687 7.09279
#
# Compressibility (1/GPa) = 0.01680408
#
# Stress axis : x y z
#
# Youngs Moduli (GPa) = 99.94393 153.04303 49.05437
#
# Poissons Ratio (x) = 0.04975 0.31026
# Poissons Ratio (y) = 0.03249 0.16731
# Poissons Ratio (z) = 0.63212 0.52200
#
# Static dielectric constant tensor:
#      x y z
#    x 2.379950 0.291810 -0.493600 
#    y 0.291810 2.817450 -0.923710 
#    z -0.493600 -0.923710 3.537390 
# 
# From -- ./inp_files/132067.got.cif
#   From: 2010.05.17/outbox.cif.g08.bks.cpg/sg2_67_cif.got.tgz:132067.got - 2010.06.03 11:33:40.
