data_PCOD9030880
_publ_section_title
;
Structure prediction by ZEFSAII (Michael W. Deem and Ramdas Pophale) SiO2 
 PCOD9030880
Probable space group: P -1
;
_chemical_formula_sum "Si O2"
_cell_formula_units_Z 14
_cell_length_a 14.542001
_cell_length_b 14.424370
_cell_length_c 15.252527
_cell_angle_alpha 28.240158
_cell_angle_beta 153.267986
_cell_angle_gamma 151.825122
_cell_volume 609.838870
_symmetry_space_group_name_H-M "P -1"
_symmetry_group_IT_number 2
_symmetry_cell_setting 'triclinic'
loop_
_space_group_symop_operation_xyz
x,y,z
-x,-y,-z
loop_
_atom_site_type_symbol
_atom_site_label
_atom_site_fract_x
_atom_site_fract_y
_atom_site_fract_z
Si Si1 0.981765 0.317036 0.944732
Si Si2 0.127791 0.785385 0.649301
Si Si3 0.660257 0.734839 0.593348
Si Si4 0.839161 0.188645 0.732206
Si Si5 0.844348 0.556215 0.752009
Si Si6 0.729316 0.567505 0.355191
Si Si7 0.676396 0.725124 0.004610
O O1 0.168853 0.570516 0.875125
O O2 0.902615 0.213321 0.869479
O O3 0.788673 0.357834 0.800194
O O4 0.103785 0.212292 0.196637
O O5 0.987799 0.763969 0.638389
O O6 0.956817 0.717979 0.477109
O O7 0.326063 0.026462 0.607747
O O8 0.676637 0.611865 0.621927
O O9 0.461021 0.569028 0.622435
O O10 0.766426 0.378312 0.492723
O O11 0.066885 0.230913 0.838624
O O12 0.655118 0.937572 0.774242
O O13 0.000000 0.500000 0.000000
O O14 0.661311 0.700609 0.116637
O O15 0.500000 0.500000 0.000000
#
# Coordination Sequence:
#
# PCOD9030880 Si02
#       7
#     2   2   2   2   2   2   2
#     4   8  18  36  59  80 116 155 189 236 280 336
#     4   9  20  37  57  82 120 155 188 240 280 330
#     4  11  19  34  61  85 119 156 194 229 286 336
#     4  10  22  43  60  84 120 149 188 244 293 336
#     4   8  17  35  60  83 114 159 193 231 280 333
#     4  11  24  37  59  93 116 149 194 238 286 347
#     4  11  24  41  65  85 112 152 195 237 293 351
#
# _framework density 22.956883999999999
#
# number of rings (size 3 to 8) (size 9 to 14) (size 15 to 20)
#    0.857    1.429    0.000    2.571    0.000    5.714 
#    0.000    0.000    0.000    4.286    0.000    0.000 
#    0.000    0.000    0.000    0.000    0.000    0.000 
#
# Total GULP energy -78075.842343 kJ/mol
# GULP energy per Si atom -5576.845882 kJ/mol
# Density = 2.290463 g / cm^3
# Si number density = 22.956884 Si / 1000 Ang^3
#
#
#
# Elastic Constant Matrix: (Units=GPa)
#
#
# Indices 1 2 3 4 5 6 
#
# 1 90.8376 27.5820 -3.2239 -3.1400 -7.8866 5.9887
# 2 27.5820 127.4852 25.7372 -31.7571 -4.1623 3.6519
# 3 -3.2239 25.7372 54.2607 -18.2725 -10.2107 -0.6724
# 4 -3.1400 -31.7571 -18.2725 29.9080 -4.1789 -3.4222
# 5 -7.8866 -4.1623 -10.2107 -4.1789 35.1456 0.7929
# 6 5.9887 3.6519 -0.6724 -3.4222 0.7929 20.0909
#
#
#
# Elastic Compliance Matrix: (Units=1/GPa)
#
#
# Indices 1 2 3 4 5 6 
#
# 1 0.012545 -0.003127 0.002718 -0.000256 0.003277 -0.003253
# 2 -0.003127 0.011725 -0.001591 0.011442 0.001571 0.000634
# 3 0.002718 -0.001591 0.026962 0.016818 0.010190 0.002844
# 4 -0.000256 0.011442 0.016818 0.058563 0.012966 0.008023
# 5 0.003277 0.001571 0.010190 0.012966 0.033878 -0.000050
# 6 -0.003253 0.000634 0.002844 0.008023 -0.000050 0.052092
#
#
# Mechanical properties :
#
#
# Convention : Reuss Voigt Hill
#
# Bulk Modulus (GPa) = 21.17104 41.41935 31.29520
# Shear Modulus (GPa) = 23.20112 31.86144 27.53128
#
# Velocity S-wave (km/s) = 3.18250 3.72947 3.46679
# Velocity P-wave (km/s) = 4.76933 6.05200 5.44854
#
# Compressibility (1/GPa) = 0.04723433
#
# Stress axis : x y z
#
# Youngs Moduli (GPa) = 79.71536 85.28817 37.08920
#
# Poissons Ratio (x) = 0.26666 -0.10083
# Poissons Ratio (y) = 0.24923 0.05899
# Poissons Ratio (z) = -0.21671 0.13566
#
# Static dielectric constant tensor:
#      x y z
#    x 1.894650 0.028230 0.043470 
#    y 0.028230 1.896560 0.043720 
#    z 0.043470 0.043720 1.869400 
# 
# From -- ./inp_files/322324.got.cif
#   From: 2010.05.17/outbox.cif.g08.bks.cpg/sg2_162_cif.got.tgz:322324.got - 2010.06.03 11:33:40.
