data_PCOD9030970
_publ_section_title
;
Structure prediction by ZEFSAII (Michael W. Deem and Ramdas Pophale) SiO2 
 PCOD9030970
Probable space group: P -1
;
_chemical_formula_sum "Si O2"
_cell_formula_units_Z 14
_cell_length_a 12.814835
_cell_length_b 15.329485
_cell_length_c 12.682979
_cell_angle_alpha 24.039700
_cell_angle_beta 44.260603
_cell_angle_gamma 39.148429
_cell_volume 640.474137
_symmetry_space_group_name_H-M "P -1"
_symmetry_group_IT_number 2
_symmetry_cell_setting 'triclinic'
loop_
_space_group_symop_operation_xyz
x,y,z
-x,-y,-z
loop_
_atom_site_type_symbol
_atom_site_label
_atom_site_fract_x
_atom_site_fract_y
_atom_site_fract_z
Si Si1 0.051688 0.408872 0.946142
Si Si2 0.633889 0.084364 0.763921
Si Si3 0.716861 0.743254 0.516693
Si Si4 0.815589 0.234657 0.642649
Si Si5 0.399657 0.434840 0.382667
Si Si6 0.103075 0.720264 0.988232
Si Si7 0.617792 0.213828 0.173868
O O1 0.096379 0.605394 0.641032
O O2 0.000000 0.500000 0.000000
O O3 0.919773 0.361502 0.021857
O O4 0.209015 0.155363 0.115547
O O5 0.688710 0.220469 0.662804
O O6 0.555263 0.256341 0.532539
O O7 0.500000 0.000000 0.000000
O O8 0.684371 0.718133 0.445373
O O9 0.549168 0.772831 0.668066
O O10 0.727335 0.977138 0.290423
O O11 0.866080 0.502799 0.712585
O O12 0.720060 0.370438 0.665023
O O13 0.946671 0.962724 0.862372
O O14 0.430458 0.579343 0.105548
O O15 0.262832 0.767430 0.843053
#
# Coordination Sequence:
#
# PCOD9030970 Si02
#       7
#     2   2   2   2   2   2   2
#     4  11  26  43  68  99 132 177 220 273 332 387
#     4  11  25  45  68  97 136 174 222 274 328 396
#     4  10  23  41  67  95 132 170 221 268 331 392
#     4  11  25  42  66  95 133 174 220 272 331 391
#     4  11  23  39  68  95 126 172 224 265 325 389
#     4  10  22  43  63  91 134 164 216 269 327 389
#     4  10  23  42  64  97 129 175 214 275 327 395
#
# _framework density 21.858806000000001
#
# number of rings (size 3 to 8) (size 9 to 14) (size 15 to 20)
#    0.000    1.429    1.429    3.000    2.000   11.429 
#    0.000    4.286    0.000    0.000    0.000    0.000 
#    0.000    0.000    0.000    0.000    0.000    0.000 
#
# Total GULP energy -78267.898924 kJ/mol
# GULP energy per Si atom -5590.564209 kJ/mol
# Density = 2.180905 g / cm^3
# Si number density = 21.858806 Si / 1000 Ang^3
#
#
#
# Elastic Constant Matrix: (Units=GPa)
#
#
# Indices 1 2 3 4 5 6 
#
# 1 184.5471 72.2621 57.5571 -12.9811 9.1277 22.6901
# 2 72.2621 105.7754 34.9436 -24.3480 7.5044 34.8308
# 3 57.5571 34.9436 75.7899 -26.4668 2.5958 -2.0372
# 4 -12.9811 -24.3480 -26.4668 42.9999 -1.3671 -5.4588
# 5 9.1277 7.5044 2.5958 -1.3671 36.6045 -12.0207
# 6 22.6901 34.8308 -2.0372 -5.4588 -12.0207 41.8100
#
#
#
# Elastic Compliance Matrix: (Units=1/GPa)
#
#
# Indices 1 2 3 4 5 6 
#
# 1 0.009208 -0.003696 -0.006673 -0.003930 -0.002338 -0.003429
# 2 -0.003696 0.021588 -0.005546 0.005111 -0.008875 -0.018133
# 3 -0.006673 -0.005546 0.025210 0.012150 0.005629 0.012675
# 4 -0.003930 0.005111 0.012150 0.032883 0.001331 0.003143
# 5 -0.002338 -0.008875 0.005629 0.001331 0.035738 0.019385
# 6 -0.003429 -0.018133 0.012675 0.003143 0.019385 0.047486
#
#
# Mechanical properties :
#
#
# Convention : Reuss Voigt Hill
#
# Bulk Modulus (GPa) = 41.36170 77.29313 59.32741
# Shear Modulus (GPa) = 23.58481 37.70618 30.64549
#
# Velocity S-wave (km/s) = 3.28832 4.15780 3.74836
# Velocity P-wave (km/s) = 5.77760 7.64766 6.77744
#
# Compressibility (1/GPa) = 0.02417696
#
# Stress axis : x y z
#
# Youngs Moduli (GPa) = 108.60391 46.32245 39.66677
#
# Poissons Ratio (x) = 0.17119 0.26471
# Poissons Ratio (y) = 0.40135 0.21997
# Poissons Ratio (z) = 0.72474 0.25688
#
# Static dielectric constant tensor:
#      x y z
#    x 1.811880 -0.002850 -0.039350 
#    y -0.002850 1.793610 -0.008090 
#    z -0.039350 -0.008090 1.820760 
# 
# From -- ./inp_files/432210.got.cif
#   From: 2010.05.17/outbox.cif.g08.bks.cpg/sg2_217_cif.got.tgz:432210.got - 2010.06.03 11:33:40.
