data_PCOD9030004
_publ_section_title
;
Structure prediction by ZEFSAII (Michael W. Deem and Ramdas Pophale) SiO2 
 PCOD9030004
Probable space group: P -1
;
_chemical_formula_sum "Si O2"
_cell_formula_units_Z 13
_cell_length_a 8.927313
_cell_length_b 14.708640
_cell_length_c 9.702424
_cell_angle_alpha 31.214238
_cell_angle_beta 55.067177
_cell_angle_gamma 55.262047
_cell_volume 531.576068
_symmetry_space_group_name_H-M "P -1"
_symmetry_group_IT_number 2
_symmetry_cell_setting 'triclinic'
loop_
_space_group_symop_operation_xyz
x,y,z
-x,-y,-z
loop_
_atom_site_type_symbol
_atom_site_label
_atom_site_fract_x
_atom_site_fract_y
_atom_site_fract_z
Si Si1 0.745252 0.798882 0.559473
Si Si2 0.294977 0.599691 0.521083
Si Si3 0.301352 0.842813 0.707161
Si Si4 0.704512 0.826799 0.243173
Si Si5 0.000000 0.500000 0.000000
Si Si6 0.710566 0.067895 0.704252
Si Si7 0.193271 0.564389 0.325788
O O1 0.527149 0.785313 0.673604
O O2 0.803571 0.833880 0.326863
O O3 0.870623 0.630289 0.784605
O O4 0.751490 0.971218 0.425480
O O5 0.500000 0.500000 0.500000
O O6 0.179009 0.476427 0.827101
O O7 0.286213 0.770444 0.402352
O O8 0.210328 0.656000 0.343337
O O9 0.221034 0.877033 0.550600
O O10 0.225386 0.687036 0.024894
O O11 0.500726 0.952050 0.195910
O O12 0.667597 0.626790 0.504605
O O13 0.797579 0.892909 0.972577
O O14 0.000000 0.500000 0.500000
#
# Coordination Sequence:
#
# PCOD9030004 Si02
#       7
#     2   2   2   2   1   2   2
#     4  10  23  46  75 109 153 200 259 322 382 463
#     4  12  26  47  73 107 156 203 251 316 389 456
#     4  10  24  46  78 106 153 206 257 313 396 458
#     4  10  22  42  69 105 143 192 253 304 386 452
#     4  12  28  42  78 114 148 192 268 312 378 456
#     4  10  23  43  74 105 144 201 254 311 375 466
#     4  12  26  43  70 107 151 198 250 319 385 453
#
# _framework density 24.455577000000002
#
# number of rings (size 3 to 8) (size 9 to 14) (size 15 to 20)
#    0.000    1.231    1.538    2.769    6.462    4.923 
#    0.000    4.615    0.000    0.000    0.000    0.000 
#    0.000    0.000    0.000    0.000    0.000    0.000 
#
# Total GULP energy -72469.188722 kJ/mol
# GULP energy per Si atom -5574.552979 kJ/mol
# Density = 2.439992 g / cm^3
# Si number density = 24.455577 Si / 1000 Ang^3
#
#
#
# Elastic Constant Matrix: (Units=GPa)
#
#
# Indices 1 2 3 4 5 6 
#
# 1 102.4058 66.3848 69.0485 4.9115 34.9927 8.0509
# 2 66.3848 110.8720 70.0116 19.3626 19.5331 27.4637
# 3 69.0485 70.0116 229.6150 47.6503 45.9497 20.6059
# 4 4.9115 19.3626 47.6503 36.1993 4.2823 4.7807
# 5 34.9927 19.5331 45.9497 4.2823 51.7272 10.4323
# 6 8.0509 27.4637 20.6059 4.7807 10.4323 55.3540
#
#
#
# Elastic Compliance Matrix: (Units=1/GPa)
#
#
# Indices 1 2 3 4 5 6 
#
# 1 0.022415 -0.012452 -0.003286 0.008359 -0.009277 0.005167
# 2 -0.012452 0.019427 -0.000808 -0.007093 0.003936 -0.007656
# 3 -0.003286 -0.000808 0.008479 -0.009714 -0.004064 -0.000673
# 4 0.008359 -0.007093 -0.009714 0.042613 0.001739 0.001911
# 5 -0.009277 0.003936 -0.004064 0.001739 0.028519 -0.004616
# 6 0.005167 -0.007656 -0.000673 0.001911 -0.004616 0.022068
#
#
# Mechanical properties :
#
#
# Convention : Reuss Voigt Hill
#
# Bulk Modulus (GPa) = 58.03739 94.86474 76.45107
# Shear Modulus (GPa) = 27.41911 44.48597 35.95254
#
# Velocity S-wave (km/s) = 3.35204 4.26966 3.83837
# Velocity P-wave (km/s) = 6.22614 7.94868 7.13955
#
# Compressibility (1/GPa) = 0.01723027
#
# Stress axis : x y z
#
# Youngs Moduli (GPa) = 44.61225 51.47592 117.93798
#
# Poissons Ratio (x) = 0.64096 0.38755
# Poissons Ratio (y) = 0.55550 0.09525
# Poissons Ratio (z) = 0.14660 0.04157
#
# Static dielectric constant tensor:
#      x y z
#    x 1.994600 -0.081500 0.005020 
#    y -0.081500 2.041910 -0.021310 
#    z 0.005020 -0.021310 1.996870 
# 
# From -- ./inp_files/204959.got.cif
#   From: 2010.05.17/outbox.cif.g08.bks.cpg/sg2_103_cif.got.tgz:204959.got - 2010.06.03 11:33:40.
