data_PCOD9030301
_publ_section_title
;
Structure prediction by ZEFSAII (Michael W. Deem and Ramdas Pophale) SiO2 
 PCOD9030301
Probable space group: P -1
;
_chemical_formula_sum "Si O2"
_cell_formula_units_Z 12
_cell_length_a 9.298311
_cell_length_b 16.637963
_cell_length_c 5.153306
_cell_angle_alpha 58.334364
_cell_angle_beta 86.390779
_cell_angle_gamma 116.840027
_cell_volume 556.220271
_symmetry_space_group_name_H-M "P -1"
_symmetry_group_IT_number 2
_symmetry_cell_setting 'triclinic'
loop_
_space_group_symop_operation_xyz
x,y,z
-x,-y,-z
loop_
_atom_site_type_symbol
_atom_site_label
_atom_site_fract_x
_atom_site_fract_y
_atom_site_fract_z
Si Si1 0.632143 0.464737 0.205889
Si Si2 0.876849 0.456822 0.838863
Si Si3 0.970967 0.056529 0.657348
Si Si4 0.579213 0.280867 0.910133
Si Si5 0.694841 0.690471 0.823496
Si Si6 0.430431 0.029231 0.204846
O O1 0.658510 0.386585 0.523834
O O2 0.427651 0.378562 0.295641
O O3 0.746000 0.492968 0.881343
O O4 0.689283 0.583953 0.128732
O O5 0.732503 0.320938 0.035582
O O6 0.000000 0.500000 0.500000
O O7 0.000000 0.500000 0.000000
O O8 0.115087 0.193982 0.430040
O O9 0.777956 0.029878 0.695853
O O10 0.000000 0.000000 0.500000
O O11 0.000000 0.000000 0.000000
O O12 0.414519 0.270927 0.077449
O O13 0.517646 0.164761 0.975724
O O14 0.500000 0.000000 0.500000
O O15 0.500000 0.000000 0.000000
#
# Coordination Sequence:
#
# PCOD9030301 Si02
#       6
#     2   2   2   2   2   2
#     4  10  22  42  70 110 138 187 234 312 368 428
#     4  11  23  41  65  97 140 186 230 280 370 440
#     4  12  25  49  78 105 143 198 255 304 358 434
#     4  11  23  44  74  96 154 183 245 306 372 433
#     4  10  23  41  73 107 141 182 248 307 363 431
#     4  12  29  48  74 110 151 201 250 302 380 439
#
# _framework density 21.574185
#
# number of rings (size 3 to 8) (size 9 to 14) (size 15 to 20)
#    0.000    1.000    3.333    2.500    4.667    2.667 
#    0.000    0.000    0.000    0.000    0.000    0.000 
#    0.000    0.000    0.000    0.000    0.000    0.000 
#
# Total GULP energy -66946.616112 kJ/mol
# GULP energy per Si atom -5578.884676 kJ/mol
# Density = 2.152508 g / cm^3
# Si number density = 21.574185 Si / 1000 Ang^3
#
#
#
# Elastic Constant Matrix: (Units=GPa)
#
#
# Indices 1 2 3 4 5 6 
#
# 1 171.4690 86.5689 71.4811 -5.8134 -23.3098 20.4750
# 2 86.5689 193.7517 79.3205 -21.8810 -13.5195 2.1318
# 3 71.4811 79.3205 107.7336 -4.3936 6.0723 16.2700
# 4 -5.8134 -21.8810 -4.3936 57.9070 -0.6025 -5.0590
# 5 -23.3098 -13.5195 6.0723 -0.6025 37.5931 -2.4824
# 6 20.4750 2.1318 16.2700 -5.0590 -2.4824 41.5208
#
#
#
# Elastic Compliance Matrix: (Units=1/GPa)
#
#
# Indices 1 2 3 4 5 6 
#
# 1 0.010166 -0.001929 -0.005315 -0.000263 0.006300 -0.002487
# 2 -0.001929 0.008974 -0.005894 0.003078 0.003255 0.003370
# 3 -0.005315 -0.005894 0.018320 -0.001899 -0.008736 -0.005009
# 4 -0.000263 0.003078 -0.001899 0.018549 0.001751 0.003081
# 5 0.006300 0.003255 -0.008736 0.001751 0.033272 0.002352
# 6 -0.002487 0.003370 -0.005009 0.003081 0.002352 0.027616
#
#
# Mechanical properties :
#
#
# Convention : Reuss Voigt Hill
#
# Bulk Modulus (GPa) = 89.42076 105.29947 97.36012
# Shear Modulus (GPa) = 34.03657 43.10976 38.57317
#
# Velocity S-wave (km/s) = 3.97628 4.47498 4.23298
# Velocity P-wave (km/s) = 7.91322 8.69567 8.31366
#
# Compressibility (1/GPa) = 0.01118309
#
# Stress axis : x y z
#
# Youngs Moduli (GPa) = 98.36671 111.43549 54.58623
#
# Poissons Ratio (x) = 0.21496 0.29013
# Poissons Ratio (y) = 0.18975 0.32173
# Poissons Ratio (z) = 0.52283 0.65680
#
# Static dielectric constant tensor:
#      x y z
#    x 1.890310 0.045930 0.046790 
#    y 0.045930 1.786300 0.046550 
#    z 0.046790 0.046550 1.847200 
# 
# From -- ./inp_files/34034.got.cif
#   From: 2010.05.17/outbox.cif.g08.bks.cpg/sg2_18_cif.got.tgz:34034.got - 2010.06.03 11:33:40.
