data_PCOD9030346
_publ_section_title
;
Structure prediction by ZEFSAII (Michael W. Deem and Ramdas Pophale) SiO2 
 PCOD9030346
Probable space group: P -1
;
_chemical_formula_sum "Si O2"
_cell_formula_units_Z 16
_cell_length_a 5.005586
_cell_length_b 15.195852
_cell_length_c 17.452183
_cell_angle_alpha 33.263693
_cell_angle_beta 70.337422
_cell_angle_gamma 82.836589
_cell_volume 653.365708
_symmetry_space_group_name_H-M "P -1"
_symmetry_group_IT_number 2
_symmetry_cell_setting 'triclinic'
loop_
_space_group_symop_operation_xyz
x,y,z
-x,-y,-z
loop_
_atom_site_type_symbol
_atom_site_label
_atom_site_fract_x
_atom_site_fract_y
_atom_site_fract_z
Si Si1 0.193124 0.167052 0.078611
Si Si2 0.410959 0.668770 0.391970
Si Si3 0.257050 0.622774 0.028507
Si Si4 0.306742 0.313426 0.348384
Si Si5 0.163628 0.226041 0.587299
Si Si6 0.869353 0.965477 0.622140
Si Si7 0.281771 0.748785 0.779697
Si Si8 0.708223 0.886835 0.067625
O O1 0.478992 0.236382 0.055436
O O2 0.252037 0.164730 0.984552
O O3 0.014403 0.974869 0.258520
O O4 0.018063 0.303790 0.000462
O O5 0.500000 0.500000 0.500000
O O6 0.616716 0.772551 0.364472
O O7 0.524415 0.741909 0.245484
O O8 0.080927 0.680361 0.433014
O O9 0.226554 0.457832 0.202287
O O10 0.276280 0.601799 0.948807
O O11 0.365433 0.331295 0.420718
O O12 0.565988 0.276643 0.297086
O O13 0.014494 0.151253 0.504142
O O14 0.518797 0.903708 0.688494
O O15 0.998072 0.815426 0.747562
O O16 0.000000 0.000000 0.500000
O O17 0.500000 0.000000 0.000000
O O18 0.000000 0.000000 0.000000
#
# Coordination Sequence:
#
# PCOD9030346 Si02
#       8
#     2   2   2   2   2   2   2   2
#     4  12  26  46  69 100 135 180 227 273 335 412
#     4  12  27  46  71 102 139 171 221 280 345 398
#     4  12  27  42  68 101 139 176 227 285 334 388
#     4  11  26  43  68 101 139 173 230 281 338 388
#     4  12  26  46  68 101 135 182 221 277 330 410
#     4  10  22  42  70  95 128 178 227 268 333 403
#     4  11  23  46  69  97 134 187 224 274 337 406
#     4  12  23  47  75 100 131 181 226 272 337 405
#
# _framework density 24.488582000000001
#
# number of rings (size 3 to 8) (size 9 to 14) (size 15 to 20)
#    0.000    0.500    2.500    6.000    3.500    6.000 
#    0.000    4.375    0.000    0.000    0.000    0.000 
#    0.000    0.000    0.000    0.000    0.000    0.000 
#
# Total GULP energy -89371.910817 kJ/mol
# GULP energy per Si atom -5585.744426 kJ/mol
# Density = 2.443284 g / cm^3
# Si number density = 24.488582 Si / 1000 Ang^3
#
#
#
# Elastic Constant Matrix: (Units=GPa)
#
#
# Indices 1 2 3 4 5 6 
#
# 1 88.5920 16.9651 -7.3874 7.7920 7.0094 6.0669
# 2 16.9651 104.7744 52.7835 40.0963 1.5461 -4.3290
# 3 -7.3874 52.7835 155.3577 35.2337 38.7765 0.1743
# 4 7.7920 40.0963 35.2337 57.4590 4.5604 8.3747
# 5 7.0094 1.5461 38.7765 4.5604 28.5283 -0.5142
# 6 6.0669 -4.3290 0.1743 8.3747 -0.5142 44.3079
#
#
#
# Elastic Compliance Matrix: (Units=1/GPa)
#
#
# Indices 1 2 3 4 5 6 
#
# 1 0.013367 -0.004122 0.004429 -0.000610 -0.009024 -0.002240
# 2 -0.004122 0.016813 -0.006599 -0.008540 0.010507 0.003969
# 3 0.004429 -0.006599 0.014656 -0.003249 -0.020149 -0.000929
# 4 -0.000610 -0.008540 -0.003249 0.026208 0.000736 -0.005683
# 5 -0.009024 0.010507 -0.020149 0.000736 0.064024 0.002945
# 6 -0.002240 0.003969 -0.000929 -0.005683 0.002945 0.024376
#
#
# Mechanical properties :
#
#
# Convention : Reuss Voigt Hill
#
# Bulk Modulus (GPa) = 31.00364 52.60516 41.80440
# Shear Modulus (GPa) = 27.35567 45.14989 36.25278
#
# Velocity S-wave (km/s) = 3.34590 4.29850 3.85176
# Velocity P-wave (km/s) = 5.25496 6.79443 6.07367
#
# Compressibility (1/GPa) = 0.03225428
#
# Stress axis : x y z
#
# Youngs Moduli (GPa) = 74.80895 59.47781 68.23040
#
# Poissons Ratio (x) = 0.24516 -0.30221
# Poissons Ratio (y) = 0.30835 0.45022
# Poissons Ratio (z) = -0.33135 0.39247
#
# Static dielectric constant tensor:
#      x y z
#    x 1.979760 0.137330 -0.156040 
#    y 0.137330 2.006580 -0.038070 
#    z -0.156040 -0.038070 2.066740 
# 
# From -- ./inp_files/550010.got.cif
#   From: 2010.05.17/outbox.cif.g08.bks.cpg/sg2_276_cif.got.tgz:550010.got - 2010.06.03 11:33:40.
