data_PCOD9030246
_publ_section_title
;
Structure prediction by ZEFSAII (Michael W. Deem and Ramdas Pophale) SiO2 
 PCOD9030246
Probable space group: P -1
;
_chemical_formula_sum "Si O2"
_cell_formula_units_Z 15
_cell_length_a 4.867318
_cell_length_b 11.737923
_cell_length_c 11.752314
_cell_angle_alpha 82.988380
_cell_angle_beta 100.164658
_cell_angle_gamma 74.875568
_cell_volume 627.939646
_symmetry_space_group_name_H-M "P -1"
_symmetry_group_IT_number 2
_symmetry_cell_setting 'triclinic'
loop_
_space_group_symop_operation_xyz
x,y,z
-x,-y,-z
loop_
_atom_site_type_symbol
_atom_site_label
_atom_site_fract_x
_atom_site_fract_y
_atom_site_fract_z
Si Si1 0.500000 0.000000 0.500000
Si Si2 0.347636 0.650268 0.374884
Si Si3 0.662881 0.096213 0.739269
Si Si4 0.914026 0.498816 0.327840
Si Si5 0.462199 0.271101 0.397573
Si Si6 0.709447 0.006936 0.119303
Si Si7 0.484995 0.278398 0.141677
Si Si8 0.139170 0.575112 0.915932
O O1 0.675195 0.038950 0.620534
O O2 0.444446 0.136480 0.427527
O O3 0.367253 0.763292 0.288193
O O4 0.082872 0.599308 0.334001
O O5 0.331943 0.701376 0.494208
O O6 0.640154 0.542351 0.385567
O O7 0.383584 0.069492 0.778081
O O8 0.940967 0.039677 0.847414
O O9 0.152773 0.371436 0.382315
O O10 0.812570 0.492304 0.192317
O O11 0.573498 0.290202 0.277756
O O12 0.626502 0.145754 0.127559
O O13 0.500000 0.000000 0.000000
O O14 0.586927 0.372446 0.058240
O O15 0.138086 0.305523 0.123898
O O16 0.000000 0.500000 0.000000
#
# Coordination Sequence:
#
# PCOD9030246 Si02
#       8
#     1   2   2   2   2   2   2   2
#     4  10  22  46  72 108 144 190 236 316 346 448
#     4  11  24  42  68 102 142 189 230 298 356 439
#     4  11  25  46  69 107 141 188 248 294 371 424
#     4  11  23  42  66  99 143 184 240 287 359 442
#     4  10  22  42  70 102 145 189 237 289 372 427
#     4  12  26  46  71 103 144 191 242 301 369 430
#     4  11  24  44  69 100 140 180 241 297 357 439
#     4  11  25  44  69  99 132 186 238 297 357 416
#
# _framework density 23.887644000000002
#
# number of rings (size 3 to 8) (size 9 to 14) (size 15 to 20)
#    0.000    1.067    1.333    4.800    1.867    5.867 
#    2.400    0.000    0.000    0.000    0.000    0.000 
#    0.000    0.000    0.000    0.000    0.000    0.000 
#
# Total GULP energy -83637.375439 kJ/mol
# GULP energy per Si atom -5575.825029 kJ/mol
# Density = 2.383328 g / cm^3
# Si number density = 23.887644 Si / 1000 Ang^3
#
#
#
# Elastic Constant Matrix: (Units=GPa)
#
#
# Indices 1 2 3 4 5 6 
#
# 1 105.6363 33.3087 6.6632 5.5440 -6.1387 26.3569
# 2 33.3087 124.7850 20.6087 -9.7145 -6.9386 8.4405
# 3 6.6632 20.6087 75.8931 -3.9311 -2.8677 3.5413
# 4 5.5440 -9.7145 -3.9311 19.8672 5.1211 -1.7323
# 5 -6.1387 -6.9386 -2.8677 5.1211 29.4295 1.8698
# 6 26.3569 8.4405 3.5413 -1.7323 1.8698 14.9694
#
#
#
# Elastic Compliance Matrix: (Units=1/GPa)
#
#
# Indices 1 2 3 4 5 6 
#
# 1 0.021277 -0.003759 0.000562 -0.013122 0.008306 -0.038032
# 2 -0.003759 0.009649 -0.002105 0.005503 0.000182 0.002291
# 3 0.000562 -0.002105 0.013935 0.001045 0.000994 -0.003102
# 4 -0.013122 0.005503 0.001045 0.063051 -0.014140 0.028816
# 5 0.008306 0.000182 0.000994 -0.014140 0.039682 -0.021556
# 6 -0.038032 0.002291 -0.003102 0.028816 -0.021556 0.139235
#
#
# Mechanical properties :
#
#
# Convention : Reuss Voigt Hill
#
# Bulk Modulus (GPa) = 29.19266 47.49731 38.34498
# Shear Modulus (GPa) = 16.18900 29.23550 22.71225
#
# Velocity S-wave (km/s) = 2.60612 3.50219 3.08684
# Velocity P-wave (km/s) = 4.61553 6.02333 5.36580
#
# Compressibility (1/GPa) = 0.03425518
#
# Stress axis : x y z
#
# Youngs Moduli (GPa) = 46.99945 103.64295 71.76111
#
# Poissons Ratio (x) = 0.38963 -0.04030
# Poissons Ratio (y) = 0.17669 0.15105
# Poissons Ratio (z) = -0.02640 0.21816
#
# Static dielectric constant tensor:
#      x y z
#    x 1.932860 -0.003500 0.037670 
#    y -0.003500 1.873960 -0.046930 
#    z 0.037670 -0.046930 2.002440 
# 
# From -- ./inp_files/362950.got.cif
#   From: 2010.05.17/outbox.cif.g08.bks.cpg/sg2_182_cif.got.tgz:362950.got - 2010.06.03 11:33:40.
