data_PCOD9030888
_publ_section_title
;
Structure prediction by ZEFSAII (Michael W. Deem and Ramdas Pophale) SiO2 
 PCOD9030888
Probable space group: P -1
;
_chemical_formula_sum "Si O2"
_cell_formula_units_Z 16
_cell_length_a 14.917073
_cell_length_b 7.759086
_cell_length_c 20.005653
_cell_angle_alpha 72.440784
_cell_angle_beta 20.231414
_cell_angle_gamma 82.235394
_cell_volume 682.213817
_symmetry_space_group_name_H-M "P -1"
_symmetry_group_IT_number 2
_symmetry_cell_setting 'triclinic'
loop_
_space_group_symop_operation_xyz
x,y,z
-x,-y,-z
loop_
_atom_site_type_symbol
_atom_site_label
_atom_site_fract_x
_atom_site_fract_y
_atom_site_fract_z
Si Si1 0.170445 0.162664 0.263078
Si Si2 0.388168 0.508807 0.171388
Si Si3 0.415725 0.664298 0.509669
Si Si4 0.939615 0.694196 0.446963
Si Si5 0.249624 0.148317 0.562423
Si Si6 0.028900 0.983848 0.091981
Si Si7 0.886610 0.334624 0.155481
Si Si8 0.374738 0.876822 0.400796
O O1 0.356815 0.312238 0.174239
O O2 0.851939 0.151587 0.495022
O O3 0.120672 0.931205 0.317935
O O4 0.317200 0.297307 0.078473
O O5 0.148453 0.586180 0.309706
O O6 0.312287 0.432779 0.309046
O O7 0.500000 0.500000 0.500000
O O8 0.138963 0.628823 0.752619
O O9 0.352871 0.674677 0.474751
O O10 0.722901 0.862933 0.282287
O O11 0.802035 0.709940 0.471063
O O12 0.545990 0.222670 0.388028
O O13 0.273926 0.979842 0.518294
O O14 0.010705 0.083046 0.795341
O O15 0.066873 0.209718 0.037808
O O16 0.300914 0.979409 0.866519
O O17 0.000000 0.500000 0.000000
#
# Coordination Sequence:
#
# PCOD9030888 Si02
#       8
#     2   2   2   2   2   2   2   2
#     4  10  23  43  67  99 130 166 218 274 325 398
#     4  10  22  45  68  95 133 165 215 274 331 403
#     4  11  22  37  61  91 126 168 215 258 314 380
#     4  10  22  43  71  96 126 176 211 266 344 389
#     4  10  22  43  60  95 127 162 219 262 314 388
#     4  11  22  42  62  87 133 170 204 266 314 372
#     4  11  22  37  62  89 128 171 209 262 315 373
#     4  11  22  41  64  92 126 169 215 259 324 378
#
# _framework density 23.453060000000001
#
# number of rings (size 3 to 8) (size 9 to 14) (size 15 to 20)
#    0.000    1.500    2.500    2.625    1.750    4.000 
#   22.500    0.000    0.000    0.000    0.000    0.000 
#    0.000    0.000    0.000    0.000    0.000    0.000 
#
# Total GULP energy -89271.536104 kJ/mol
# GULP energy per Si atom -5579.471006 kJ/mol
# Density = 2.339968 g / cm^3
# Si number density = 23.453060 Si / 1000 Ang^3
#
#
#
# Elastic Constant Matrix: (Units=GPa)
#
#
# Indices 1 2 3 4 5 6 
#
# 1 66.4283 19.6994 19.3415 2.0662 28.0249 -17.0604
# 2 19.6994 72.3140 1.7985 -4.8442 10.8276 -2.1023
# 3 19.3415 1.7985 97.7117 -0.9285 29.6477 5.3226
# 4 2.0662 -4.8442 -0.9285 22.3710 -7.5804 5.3393
# 5 28.0249 10.8276 29.6477 -7.5804 30.1262 -6.3080
# 6 -17.0604 -2.1023 5.3226 5.3393 -6.3080 36.4479
#
#
#
# Elastic Compliance Matrix: (Units=1/GPa)
#
#
# Indices 1 2 3 4 5 6 
#
# 1 0.034229 -0.005009 0.003278 -0.018995 -0.035559 0.011883
# 2 -0.005009 0.015637 0.001484 0.003849 -0.001990 -0.002568
# 3 0.003278 0.001484 0.016358 -0.005848 -0.021929 -0.003707
# 4 -0.018995 0.003849 -0.005848 0.061563 0.035287 -0.010726
# 5 -0.035559 -0.001990 -0.021929 0.035287 0.097043 -0.001931
# 6 0.011883 -0.002568 -0.003707 -0.010726 -0.001931 0.034629
#
#
# Mechanical properties :
#
#
# Convention : Reuss Voigt Hill
#
# Bulk Modulus (GPa) = 15.21345 35.34809 25.28077
# Shear Modulus (GPa) = 17.73917 30.83000 24.28459
#
# Velocity S-wave (km/s) = 2.75320 3.62959 3.22134
# Velocity P-wave (km/s) = 4.07525 5.71575 4.96374
#
# Compressibility (1/GPa) = 0.06573131
#
# Stress axis : x y z
#
# Youngs Moduli (GPa) = 29.21515 63.94955 61.13191
#
# Poissons Ratio (x) = 0.32031 -0.20041
# Poissons Ratio (y) = 0.14633 -0.09072
# Poissons Ratio (z) = -0.09578 -0.09490
#
# Static dielectric constant tensor:
#      x y z
#    x 1.904290 0.027620 -0.113150 
#    y 0.027620 1.969540 -0.074740 
#    z -0.113150 -0.074740 1.524540 
# 
# From -- ./inp_files/201281.got.cif
#   From: 2010.05.17/outbox.cif.g08.bks.cpg/sg2_101_cif.got.tgz:201281.got - 2010.06.03 11:33:40.
