data_PCOD9030519
_publ_section_title
;
Structure prediction by ZEFSAII (Michael W. Deem and Ramdas Pophale) SiO2 
 PCOD9030519
Probable space group: P -1
;
_chemical_formula_sum "Si O2"
_cell_formula_units_Z 13
_cell_length_a 11.956364
_cell_length_b 7.961637
_cell_length_c 16.633612
_cell_angle_alpha 50.115872
_cell_angle_beta 34.016820
_cell_angle_gamma 38.572773
_cell_volume 552.202677
_symmetry_space_group_name_H-M "P -1"
_symmetry_group_IT_number 2
_symmetry_cell_setting 'triclinic'
loop_
_space_group_symop_operation_xyz
x,y,z
-x,-y,-z
loop_
_atom_site_type_symbol
_atom_site_label
_atom_site_fract_x
_atom_site_fract_y
_atom_site_fract_z
Si Si1 0.777779 0.272987 0.806791
Si Si2 0.506851 0.146422 0.116496
Si Si3 0.958807 0.534789 0.799304
Si Si4 0.766147 0.742085 0.441948
Si Si5 0.508711 0.431024 0.252309
Si Si6 0.000000 0.000000 0.000000
Si Si7 0.784281 0.554080 0.171754
O O1 0.630201 0.581397 0.833558
O O2 0.625660 0.313412 0.805773
O O3 0.053137 0.179972 0.661572
O O4 0.742774 0.114596 0.945454
O O5 0.311875 0.215173 0.142444
O O6 0.605004 0.878434 0.188850
O O7 0.114891 0.434220 0.655320
O O8 0.088171 0.585955 0.777542
O O9 0.943287 0.294863 0.915028
O O10 0.709606 0.595187 0.586579
O O11 0.500000 0.000000 0.500000
O O12 0.625240 0.472655 0.247555
O O13 0.738894 0.165834 0.154464
O O14 0.000000 0.500000 0.000000
#
# Coordination Sequence:
#
# PCOD9030519 Si02
#       7
#     2   2   2   2   2   1   2
#     4  10  22  42  71  95 134 173 229 289 318 402
#     4  10  23  42  69 106 129 176 228 281 341 389
#     4  11  24  45  69 101 138 174 226 287 330 405
#     4  11  25  41  68 100 130 177 230 279 340 395
#     4  12  25  43  68 102 134 177 224 275 346 405
#     4  12  20  42  72  98 130 170 232 280 320 394
#     4  12  26  40  69 103 140 176 219 283 346 404
#
# _framework density 23.542079999999999
#
# number of rings (size 3 to 8) (size 9 to 14) (size 15 to 20)
#    0.000    0.923    4.615    1.385    6.462    3.077 
#    0.000    3.077    0.000    0.000    0.000    0.000 
#    0.000    0.000    0.000    0.000    0.000    0.000 
#
# Total GULP energy -72522.716590 kJ/mol
# GULP energy per Si atom -5578.670507 kJ/mol
# Density = 2.348850 g / cm^3
# Si number density = 23.542080 Si / 1000 Ang^3
#
#
#
# Elastic Constant Matrix: (Units=GPa)
#
#
# Indices 1 2 3 4 5 6 
#
# 1 130.6787 10.1925 18.6242 14.8816 -30.8040 -15.6545
# 2 10.1925 58.6406 4.3024 4.4805 -13.6766 -0.7780
# 3 18.6242 4.3024 135.2375 19.1461 -7.8089 3.1879
# 4 14.8816 4.4805 19.1461 21.8505 -7.0086 -4.7574
# 5 -30.8040 -13.6766 -7.8089 -7.0086 34.2821 9.5141
# 6 -15.6545 -0.7780 3.1879 -4.7574 9.5141 28.1941
#
#
#
# Elastic Compliance Matrix: (Units=1/GPa)
#
#
# Indices 1 2 3 4 5 6 
#
# 1 0.010245 0.000384 -0.000531 -0.003535 0.007815 0.002526
# 2 0.000384 0.019021 0.000187 -0.002226 0.008194 -0.002424
# 3 -0.000531 0.000187 0.008652 -0.007618 0.000794 -0.002821
# 4 -0.003535 -0.002226 -0.007618 0.058198 0.004078 0.007281
# 5 0.007815 0.008194 0.000794 0.004078 0.043076 -0.009373
# 6 0.002526 -0.002424 -0.002821 0.007281 -0.009373 0.041514
#
#
# Mechanical properties :
#
#
# Convention : Reuss Voigt Hill
#
# Bulk Modulus (GPa) = 26.31553 43.42165 34.86859
# Shear Modulus (GPa) = 25.86750 36.29452 31.08101
#
# Velocity S-wave (km/s) = 3.31838 3.93069 3.63744
# Velocity P-wave (km/s) = 5.08768 6.25178 5.69953
#
# Compressibility (1/GPa) = 0.03800037
#
# Stress axis : x y z
#
# Youngs Moduli (GPa) = 97.60625 52.57221 115.57472
#
# Poissons Ratio (x) = -0.02021 0.06137
# Poissons Ratio (y) = -0.03752 -0.02165
# Poissons Ratio (z) = 0.05183 -0.00985
#
# Static dielectric constant tensor:
#      x y z
#    x 2.016150 -0.004640 -0.005920 
#    y -0.004640 1.904440 -0.044340 
#    z -0.005920 -0.044340 1.889700 
# 
# From -- ./inp_files/195138.got.cif
#   From: 2010.05.17/outbox.cif.g08.bks.cpg/sg2_98_cif.got.tgz:195138.got - 2010.06.03 11:33:40.
