data_PCOD9030141
_publ_section_title
;
Structure prediction by ZEFSAII (Michael W. Deem and Ramdas Pophale) SiO2 
 PCOD9030141
Probable space group: P -1
;
_chemical_formula_sum "Si O2"
_cell_formula_units_Z 13
_cell_length_a 15.648183
_cell_length_b 8.333655
_cell_length_c 8.292121
_cell_angle_alpha 35.458423
_cell_angle_beta 104.308403
_cell_angle_gamma 110.945765
_cell_volume 583.910743
_symmetry_space_group_name_H-M "P -1"
_symmetry_group_IT_number 2
_symmetry_cell_setting 'triclinic'
loop_
_space_group_symop_operation_xyz
x,y,z
-x,-y,-z
loop_
_atom_site_type_symbol
_atom_site_label
_atom_site_fract_x
_atom_site_fract_y
_atom_site_fract_z
Si Si1 0.743606 0.433740 0.028325
Si Si2 0.205613 0.120156 0.586885
Si Si3 0.027331 0.171207 0.620264
Si Si4 0.565955 0.309638 0.236019
Si Si5 0.908712 0.586029 0.205300
Si Si6 0.375311 0.453673 0.587410
Si Si7 0.500000 0.000000 0.000000
O O1 0.636963 0.304729 0.130223
O O2 0.806036 0.504358 0.158773
O O3 0.780418 0.196532 0.146775
O O4 0.759472 0.721216 0.695477
O O5 0.102461 0.125364 0.569362
O O6 0.273419 0.308611 0.596216
O O7 0.080652 0.354378 0.647866
O O8 0.957828 0.341230 0.384983
O O9 0.966844 0.872136 0.908685
O O10 0.619964 0.443432 0.310620
O O11 0.500000 0.000000 0.500000
O O12 0.500000 0.500000 0.000000
O O13 0.422465 0.735294 0.272529
O O14 0.431217 0.214448 0.797767
#
# Coordination Sequence:
#
# PCOD9030141 Si02
#       7
#     2   2   2   2   2   2   1
#     4  12  27  43  64 102 132 177 217 284 330 394
#     4  12  26  41  68  98 139 170 222 271 337 394
#     4  10  22  42  69  99 126 185 211 271 324 402
#     4  12  28  45  69  95 131 177 225 280 337 397
#     4  10  22  43  69  94 137 168 228 260 331 399
#     4  11  25  44  67  94 130 174 217 279 323 416
#     4  10  24  38  72  90 120 172 220 272 330 376
#
# _framework density 22.263679
#
# number of rings (size 3 to 8) (size 9 to 14) (size 15 to 20)
#    0.000    0.923    0.000    5.538   12.923    3.692 
#    0.000    9.231    0.000    0.000    0.000    0.000 
#    0.000    0.000    0.000    0.000    0.000    0.000 
#
# Total GULP energy -72561.559759 kJ/mol
# GULP energy per Si atom -5581.658443 kJ/mol
# Density = 2.221301 g / cm^3
# Si number density = 22.263679 Si / 1000 Ang^3
#
#
#
# Elastic Constant Matrix: (Units=GPa)
#
#
# Indices 1 2 3 4 5 6 
#
# 1 120.1283 -13.2129 24.1487 5.0696 -4.6346 -15.5554
# 2 -13.2129 95.9409 -28.3985 -19.6929 26.2986 9.3107
# 3 24.1487 -28.3985 145.7814 6.1759 -4.2283 -9.1912
# 4 5.0696 -19.6929 6.1759 53.8041 -19.7989 5.5468
# 5 -4.6346 26.2986 -4.2283 -19.7989 41.8212 -0.2490
# 6 -15.5554 9.3107 -9.1912 5.5468 -0.2490 11.7882
#
#
#
# Elastic Compliance Matrix: (Units=1/GPa)
#
#
# Indices 1 2 3 4 5 6 
#
# 1 0.010484 -0.000960 -0.000841 -0.002611 0.000535 0.015177
# 2 -0.000960 0.015078 0.001835 0.004034 -0.007575 -0.013804
# 3 -0.000841 0.001835 0.007602 -0.000817 -0.000843 0.003735
# 4 -0.002611 0.004034 -0.000817 0.025755 0.009170 -0.019193
# 5 0.000535 -0.007575 -0.000843 0.009170 0.033004 0.002414
# 6 0.015177 -0.013804 0.003735 -0.019193 0.002414 0.127754
#
#
# Mechanical properties :
#
#
# Convention : Reuss Voigt Hill
#
# Bulk Modulus (GPa) = 30.09104 36.32502 33.20803
# Shear Modulus (GPa) = 21.67440 46.77027 34.22233
#
# Velocity S-wave (km/s) = 3.12353 4.58836 3.92489
# Velocity P-wave (km/s) = 5.15303 6.66498 5.95717
#
# Compressibility (1/GPa) = 0.03323248
#
# Stress axis : x y z
#
# Youngs Moduli (GPa) = 95.38463 66.32128 131.54396
#
# Poissons Ratio (x) = 0.06370 0.11060
# Poissons Ratio (y) = 0.09161 -0.24144
# Poissons Ratio (z) = 0.08020 -0.12173
#
# Static dielectric constant tensor:
#      x y z
#    x 1.769770 -0.008660 -0.004220 
#    y -0.008660 1.867020 0.036940 
#    z -0.004220 0.036940 1.748250 
# 
# From -- ./inp_files/293735.got.cif
#   From: 2010.05.17/outbox.cif.g08.bks.cpg/sg2_147_cif.got.tgz:293735.got - 2010.06.03 11:33:40.
