data_PCOD9030691
_publ_section_title
;
Structure prediction by ZEFSAII (Michael W. Deem and Ramdas Pophale) SiO2 
 PCOD9030691
Probable space group: P -1
;
_chemical_formula_sum "Si O2"
_cell_formula_units_Z 16
_cell_length_a 13.290847
_cell_length_b 9.131004
_cell_length_c 8.731227
_cell_angle_alpha 53.519205
_cell_angle_beta 59.555380
_cell_angle_gamma 54.889544
_cell_volume 674.747854
_symmetry_space_group_name_H-M "P -1"
_symmetry_group_IT_number 2
_symmetry_cell_setting 'triclinic'
loop_
_space_group_symop_operation_xyz
x,y,z
-x,-y,-z
loop_
_atom_site_type_symbol
_atom_site_label
_atom_site_fract_x
_atom_site_fract_y
_atom_site_fract_z
Si Si1 0.804376 0.277699 0.967895
Si Si2 0.287674 0.650171 0.339529
Si Si3 0.568134 0.595009 0.057532
Si Si4 0.965050 0.502888 0.844672
Si Si5 0.474996 0.975659 0.709245
Si Si6 0.884948 0.943728 0.680130
Si Si7 0.171558 0.121528 0.883107
Si Si8 0.422640 0.359644 0.648635
O O1 0.658406 0.376143 0.075511
O O2 0.855460 0.041791 0.095743
O O3 0.799009 0.322761 0.761039
O O4 0.872710 0.393723 0.937603
O O5 0.425328 0.621068 0.185827
O O6 0.313540 0.462700 0.544642
O O7 0.235233 0.845739 0.365313
O O8 0.623048 0.643077 0.142760
O O9 0.557644 0.756472 0.838919
O O10 0.903413 0.737959 0.709039
O O11 0.093595 0.350086 0.758406
O O12 0.000000 0.500000 0.000000
O O13 0.324323 0.042518 0.817295
O O14 0.507974 0.137951 0.674540
O O15 0.500000 0.000000 0.500000
O O16 0.877102 0.899493 0.895105
O O17 0.000000 0.000000 0.500000
O O18 0.500000 0.500000 0.500000
#
# Coordination Sequence:
#
# PCOD9030691 Si02
#       8
#     2   2   2   2   2   2   2   2
#     4  11  22  41  78  99 142 196 232 300 368 427
#     4  10  22  45  68 104 149 183 239 294 365 438
#     4  11  23  42  75 106 147 184 240 291 370 426
#     4  10  24  44  71 104 136 189 251 292 359 422
#     4  12  25  43  73 106 151 193 237 293 365 436
#     4  10  22  42  72  98 139 191 238 301 354 418
#     4  10  24  45  70 102 146 191 243 298 355 432
#     4  10  25  40  68 100 146 190 238 291 356 426
#
# _framework density 23.712561000000001
#
# number of rings (size 3 to 8) (size 9 to 14) (size 15 to 20)
#    0.000    1.500    2.500    1.875    8.750    3.000 
#    0.000    2.500   11.000    0.000    0.000    0.000 
#    0.000    0.000    0.000    0.000    0.000    0.000 
#
# Total GULP energy -89310.107658 kJ/mol
# GULP energy per Si atom -5581.881729 kJ/mol
# Density = 2.365859 g / cm^3
# Si number density = 23.712561 Si / 1000 Ang^3
#
#
#
# Elastic Constant Matrix: (Units=GPa)
#
#
# Indices 1 2 3 4 5 6 
#
# 1 83.6226 26.6026 18.1312 4.9075 -16.5222 12.6887
# 2 26.6026 178.7673 16.0997 4.2299 -21.3218 5.1944
# 3 18.1312 16.0997 86.5701 11.8007 3.3221 2.6261
# 4 4.9075 4.2299 11.8007 30.0881 2.2577 -4.7059
# 5 -16.5222 -21.3218 3.3221 2.2577 44.3460 3.1049
# 6 12.6887 5.1944 2.6261 -4.7059 3.1049 42.7743
#
#
#
# Elastic Compliance Matrix: (Units=1/GPa)
#
#
# Indices 1 2 3 4 5 6 
#
# 1 0.014873 -0.001102 -0.002654 -0.002404 0.005668 -0.004791
# 2 -0.001102 0.006198 -0.000920 -0.000634 0.002715 -0.000636
# 3 -0.002654 -0.000920 0.012968 -0.004396 -0.002163 -0.000224
# 4 -0.002404 -0.000634 -0.004396 0.036503 -0.003101 0.005301
# 5 0.005668 0.002715 -0.002163 -0.003101 0.026578 -0.004149
# 6 -0.004791 -0.000636 -0.000224 0.005301 -0.004149 0.025775
#
#
# Mechanical properties :
#
#
# Convention : Reuss Voigt Hill
#
# Bulk Modulus (GPa) = 40.51103 52.29187 46.40145
# Shear Modulus (GPa) = 35.59333 42.65009 39.12171
#
# Velocity S-wave (km/s) = 3.87852 4.24562 4.06622
# Velocity P-wave (km/s) = 6.09742 6.79220 6.45417
#
# Compressibility (1/GPa) = 0.02468464
#
# Stress axis : x y z
#
# Youngs Moduli (GPa) = 67.23787 161.34036 77.11585
#
# Poissons Ratio (x) = 0.17780 0.20469
# Poissons Ratio (y) = 0.07410 0.07097
# Poissons Ratio (z) = 0.17847 0.14849
#
# Static dielectric constant tensor:
#      x y z
#    x 2.178960 -0.144690 0.357980 
#    y -0.144690 2.050300 -0.278640 
#    z 0.357980 -0.278640 2.765970 
# 
# From -- ./inp_files/297589.got.cif
#   From: 2010.05.17/outbox.cif.g08.bks.cpg/sg2_149_cif.got.tgz:297589.got - 2010.06.03 11:33:40.
