data_PCOD9030152
_publ_section_title
;
Structure prediction by ZEFSAII (Michael W. Deem and Ramdas Pophale) SiO2 
 PCOD9030152
Probable space group: P -1
;
_chemical_formula_sum "Si O2"
_cell_formula_units_Z 13
_cell_length_a 7.982390
_cell_length_b 9.458559
_cell_length_c 11.643268
_cell_angle_alpha 39.361081
_cell_angle_beta 65.481798
_cell_angle_gamma 66.980330
_cell_volume 503.483214
_symmetry_space_group_name_H-M "P -1"
_symmetry_group_IT_number 2
_symmetry_cell_setting 'triclinic'
loop_
_space_group_symop_operation_xyz
x,y,z
-x,-y,-z
loop_
_atom_site_type_symbol
_atom_site_label
_atom_site_fract_x
_atom_site_fract_y
_atom_site_fract_z
Si Si1 0.648658 0.769116 0.203522
Si Si2 0.323420 0.825739 0.892393
Si Si3 0.052473 0.178860 0.463732
Si Si4 0.500000 0.000000 0.500000
Si Si5 0.749594 0.347527 0.610045
Si Si6 0.636008 0.593651 0.702387
Si Si7 0.974161 0.617044 0.056152
O O1 0.700450 0.553310 0.406642
O O2 0.429905 0.779147 0.240258
O O3 0.770440 0.726609 0.080989
O O4 0.695799 0.984113 0.124432
O O5 0.397656 0.589385 0.080542
O O6 0.448641 0.894940 0.711084
O O7 0.123263 0.788880 0.922857
O O8 0.919382 0.194153 0.601209
O O9 0.030638 0.418183 0.256410
O O10 0.269846 0.169024 0.445463
O O11 0.000000 0.000000 0.500000
O O12 0.544469 0.260387 0.386140
O O13 0.773944 0.465876 0.650689
O O14 0.000000 0.500000 0.000000
#
# Coordination Sequence:
#
# PCOD9030152 Si02
#       7
#     2   2   2   1   2   2   2
#     4  10  22  42  69  99 136 184 228 275 341 405
#     4  11  25  44  69 102 136 180 229 277 340 409
#     4  10  24  41  66 101 139 179 227 280 339 406
#     4  12  26  44  74  98 138 180 220 296 340 398
#     4  10  22  42  69  99 136 184 228 275 341 405
#     4  11  25  44  69 102 136 180 229 277 340 409
#     4  10  24  41  66 101 139 179 227 280 339 406
#
# _framework density 25.820126999999999
#
# number of rings (size 3 to 8) (size 9 to 14) (size 15 to 20)
#    0.000    1.538    1.538    1.385    6.462    1.846 
#    0.000    0.000    0.000    0.000    0.000    0.000 
#    0.000    0.000    0.000    0.000    0.000    0.000 
#
# Total GULP energy -72694.893778 kJ/mol
# GULP energy per Si atom -5591.914906 kJ/mol
# Density = 2.576136 g / cm^3
# Si number density = 25.820127 Si / 1000 Ang^3
#
#
#
# Elastic Constant Matrix: (Units=GPa)
#
#
# Indices 1 2 3 4 5 6 
#
# 1 114.7385 85.6348 67.0995 0.3091 -25.1358 -0.9953
# 2 85.6348 235.8276 102.8838 22.9365 -33.5746 1.0654
# 3 67.0995 102.8838 175.9310 16.2120 -4.8580 -21.3925
# 4 0.3091 22.9365 16.2120 63.0237 -11.2660 -4.5833
# 5 -25.1358 -33.5746 -4.8580 -11.2660 53.3672 -9.9927
# 6 -0.9953 1.0654 -21.3925 -4.5833 -9.9927 48.2038
#
#
#
# Elastic Compliance Matrix: (Units=1/GPa)
#
#
# Indices 1 2 3 4 5 6 
#
# 1 0.014368 -0.003134 -0.003776 0.002951 0.005079 0.000024
# 2 -0.003134 0.007113 -0.002910 -0.001521 0.002187 -0.001205
# 3 -0.003776 -0.002910 0.009320 -0.001501 -0.002427 0.003477
# 4 0.002951 -0.001521 -0.001501 0.017730 0.004419 0.002030
# 5 0.005079 0.002187 -0.002427 0.004419 0.024039 0.004383
# 6 0.000024 -0.001205 0.003477 0.002030 0.004383 0.023417
#
#
# Mechanical properties :
#
#
# Convention : Reuss Voigt Hill
#
# Bulk Modulus (GPa) = 89.60160 115.30369 102.45264
# Shear Modulus (GPa) = 41.89485 50.97754 46.43620
#
# Velocity S-wave (km/s) = 4.03248 4.44817 4.24541
# Velocity P-wave (km/s) = 7.51390 8.43416 7.98730
#
# Compressibility (1/GPa) = 0.01116051
#
# Stress axis : x y z
#
# Youngs Moduli (GPa) = 69.60130 140.59186 107.29588
#
# Poissons Ratio (x) = 0.44061 0.40513
# Poissons Ratio (y) = 0.21813 0.31225
# Poissons Ratio (z) = 0.26280 0.40914
#
# Static dielectric constant tensor:
#      x y z
#    x 2.160260 0.006760 -0.014210 
#    y 0.006760 2.182390 -0.033100 
#    z -0.014210 -0.033100 1.964140 
# 
# From -- ./inp_files/375374.got.cif
#   From: 2010.05.17/outbox.cif.g08.bks.cpg/sg2_188_cif.got.tgz:375374.got - 2010.06.03 11:33:40.
