data_PCOD9030331
_publ_section_title
;
Structure prediction by ZEFSAII (Michael W. Deem and Ramdas Pophale) SiO2 
 PCOD9030331
Probable space group: P -1
;
_chemical_formula_sum "Si O2"
_cell_formula_units_Z 12
_cell_length_a 15.868776
_cell_length_b 19.346054
_cell_length_c 16.299638
_cell_angle_alpha 20.366987
_cell_angle_beta 161.455324
_cell_angle_gamma 159.519985
_cell_volume 499.122493
_symmetry_space_group_name_H-M "P -1"
_symmetry_group_IT_number 2
_symmetry_cell_setting 'triclinic'
loop_
_space_group_symop_operation_xyz
x,y,z
-x,-y,-z
loop_
_atom_site_type_symbol
_atom_site_label
_atom_site_fract_x
_atom_site_fract_y
_atom_site_fract_z
Si Si1 0.312602 0.679616 0.183762
Si Si2 0.379229 0.648413 0.938904
Si Si3 0.737537 0.221119 0.152912
Si Si4 0.250716 0.315421 0.922767
Si Si5 0.819025 0.795810 0.655739
Si Si6 0.173585 0.859103 0.389916
O O1 0.580532 0.712774 0.453683
O O2 0.049742 0.432914 0.219982
O O3 0.388948 0.732033 0.100647
O O4 0.138293 0.826138 0.885272
O O5 0.464161 0.785964 0.948246
O O6 0.147946 0.722315 0.600120
O O7 0.607708 0.693009 0.026800
O O8 0.266927 0.396750 0.142043
O O9 0.796457 0.008192 0.434009
O O10 0.964240 0.317421 0.614750
O O11 0.500000 0.500000 0.000000
O O12 0.111199 0.074201 0.105172
O O13 0.500000 0.000000 0.500000
#
# Coordination Sequence:
#
# PCOD9030331 Si02
#       6
#     2   2   2   2   2   2
#     4  10  24  44  66  99 136 185 232 267 340 407
#     4  10  24  39  64 104 131 168 231 276 337 407
#     4  10  23  43  67  96 140 179 220 290 328 398
#     4  10  22  42  70  93 132 181 223 277 348 416
#     4  11  24  43  67 101 136 182 229 275 336 410
#     4   9  21  44  63  97 130 170 222 280 339 410
#
# _framework density 24.042193999999999
#
# number of rings (size 3 to 8) (size 9 to 14) (size 15 to 20)
#    0.000    2.000    0.000    1.000    7.000   11.333 
#    0.000    6.667    0.000    0.000    0.000    0.000 
#    0.000    0.000    0.000    0.000    0.000    0.000 
#
# Total GULP energy -66920.918510 kJ/mol
# GULP energy per Si atom -5576.743209 kJ/mol
# Density = 2.398747 g / cm^3
# Si number density = 24.042194 Si / 1000 Ang^3
#
#
#
# Elastic Constant Matrix: (Units=GPa)
#
#
# Indices 1 2 3 4 5 6 
#
# 1 110.6547 54.2238 40.5274 -14.1125 -12.2560 -10.9767
# 2 54.2238 147.7182 40.2484 -7.6586 -21.1998 -32.0698
# 3 40.5274 40.2484 89.2418 -13.6827 -30.1227 -0.4936
# 4 -14.1125 -7.6586 -13.6827 50.3845 3.5949 0.3227
# 5 -12.2560 -21.1998 -30.1227 3.5949 49.2636 -7.1259
# 6 -10.9767 -32.0698 -0.4936 0.3227 -7.1259 25.3366
#
#
#
# Elastic Compliance Matrix: (Units=1/GPa)
#
#
# Indices 1 2 3 4 5 6 
#
# 1 0.012386 -0.003239 -0.004157 0.001903 -0.000861 0.000919
# 2 -0.003239 0.013062 -0.002392 -0.000090 0.005776 0.016709
# 3 -0.004157 -0.002392 0.017246 0.002602 0.007961 -0.002287
# 4 0.001903 -0.000090 0.002602 0.021027 0.000586 0.000658
# 5 -0.000861 0.005776 0.007961 0.000586 0.029626 0.015418
# 6 0.000919 0.016709 -0.002287 0.000658 0.015418 0.065300
#
#
# Mechanical properties :
#
#
# Convention : Reuss Voigt Hill
#
# Bulk Modulus (GPa) = 43.25871 68.62376 55.94124
# Shear Modulus (GPa) = 26.89203 39.17131 33.03167
#
# Velocity S-wave (km/s) = 3.34808 4.04080 3.71064
# Velocity P-wave (km/s) = 5.74265 7.09759 6.45577
#
# Compressibility (1/GPa) = 0.02311673
#
# Stress axis : x y z
#
# Youngs Moduli (GPa) = 80.73919 76.55631 57.98581
#
# Poissons Ratio (x) = 0.24797 0.24107
# Poissons Ratio (y) = 0.26152 0.13869
# Poissons Ratio (z) = 0.33567 0.18311
#
# Static dielectric constant tensor:
#      x y z
#    x 1.604800 -0.078090 -0.901590 
#    y -0.078090 2.090700 -0.037490 
#    z -0.901590 -0.037490 -0.768330 
# 
# From -- ./inp_files/576345.got.cif
#   From: 2010.05.17/outbox.cif.g08.bks.cpg/sg2_289_cif.got.tgz:576345.got - 2010.06.03 11:33:40.
