data_PCOD9030395
_publ_section_title
;
Structure prediction by ZEFSAII (Michael W. Deem and Ramdas Pophale) SiO2 
 PCOD9030395
Probable space group: P -1
;
_chemical_formula_sum "Si O2"
_cell_formula_units_Z 16
_cell_length_a 18.687099
_cell_length_b 5.972918
_cell_length_c 7.773827
_cell_angle_alpha 67.434779
_cell_angle_beta 106.033631
_cell_angle_gamma 127.499914
_cell_volume 634.607632
_symmetry_space_group_name_H-M "P -1"
_symmetry_group_IT_number 2
_symmetry_cell_setting 'triclinic'
loop_
_space_group_symop_operation_xyz
x,y,z
-x,-y,-z
loop_
_atom_site_type_symbol
_atom_site_label
_atom_site_fract_x
_atom_site_fract_y
_atom_site_fract_z
Si Si1 0.890117 0.304350 0.476650
Si Si2 0.428303 0.216434 0.427270
Si Si3 0.419837 0.666396 0.736938
Si Si4 0.306988 0.293744 0.086591
Si Si5 0.992439 0.778426 0.912676
Si Si6 0.169452 0.341955 0.821749
Si Si7 0.741787 0.652139 0.464615
Si Si8 0.194210 0.654624 0.230577
O O1 0.865767 0.450726 0.267087
O O2 0.851092 0.317208 0.632471
O O3 0.000000 0.500000 0.500000
O O4 0.827443 0.962092 0.490878
O O5 0.500000 0.500000 0.500000
O O6 0.479838 0.224234 0.284223
O O7 0.347370 0.244587 0.299892
O O8 0.410178 0.935277 0.605030
O O9 0.351655 0.400068 0.637390
O O10 0.387297 0.530889 0.945365
O O11 0.243569 0.958238 0.070435
O O12 0.231085 0.365754 0.013155
O O13 0.892932 0.631708 0.821481
O O14 0.083138 0.022110 0.805013
O O15 0.000000 0.500000 0.000000
O O16 0.000000 0.000000 0.000000
O O17 0.233220 0.425678 0.676842
O O18 0.731678 0.409557 0.657442
#
# Coordination Sequence:
#
# PCOD9030395 Si02
#       8
#     2   2   2   2   2   2   2   2
#     4  11  24  41  71 103 146 195 252 308 376 444
#     4  11  25  47  74 103 143 185 242 312 380 464
#     4  10  24  45  71 106 140 187 238 303 385 461
#     4  11  23  46  72 105 152 184 247 304 383 460
#     4  12  27  43  64 101 150 197 257 318 377 449
#     4  10  24  42  65 101 141 192 250 306 374 451
#     4  10  22  42  70  97 139 185 244 306 370 458
#     4  11  24  43  67 102 143 194 247 306 377 447
#
# _framework density 25.212427999999999
#
# number of rings (size 3 to 8) (size 9 to 14) (size 15 to 20)
#    0.000    1.250    2.500    1.875    7.000    2.500 
#    0.000    6.250    0.000    0.000    0.000    0.000 
#    0.000    0.000    0.000    0.000    0.000    0.000 
#
# Total GULP energy -89265.073901 kJ/mol
# GULP energy per Si atom -5579.067119 kJ/mol
# Density = 2.515504 g / cm^3
# Si number density = 25.212428 Si / 1000 Ang^3
#
#
#
# Elastic Constant Matrix: (Units=GPa)
#
#
# Indices 1 2 3 4 5 6 
#
# 1 100.6685 24.8462 29.8798 -7.5713 16.4839 13.4209
# 2 24.8462 118.1041 39.5419 -4.7189 3.6040 7.6634
# 3 29.8798 39.5419 105.1545 -20.8651 19.7951 -4.3050
# 4 -7.5713 -4.7189 -20.8651 54.7927 7.0806 -4.2513
# 5 16.4839 3.6040 19.7951 7.0806 54.6334 -2.8511
# 6 13.4209 7.6634 -4.3050 -4.2513 -2.8511 40.4381
#
#
#
# Elastic Compliance Matrix: (Units=1/GPa)
#
#
# Indices 1 2 3 4 5 6 
#
# 1 0.012072 -0.001352 -0.002387 0.000709 -0.002996 -0.004141
# 2 -0.001352 0.010117 -0.003952 -0.001127 0.001218 -0.001922
# 3 -0.002387 -0.003952 0.013729 0.005395 -0.004523 0.003251
# 4 0.000709 -0.001127 0.005395 0.021103 -0.004702 0.002440
# 5 -0.002996 0.001218 -0.004523 -0.004702 0.021443 0.001300
# 6 -0.004141 -0.001922 0.003251 0.002440 0.001300 0.027162
#
#
# Mechanical properties :
#
#
# Convention : Reuss Voigt Hill
#
# Bulk Modulus (GPa) = 48.69319 56.94034 52.81677
# Shear Modulus (GPa) = 39.10758 45.28346 42.19552
#
# Velocity S-wave (km/s) = 3.94270 4.24261 4.09540
# Velocity P-wave (km/s) = 6.33101 6.82883 6.58463
#
# Compressibility (1/GPa) = 0.02053675
#
# Stress axis : x y z
#
# Youngs Moduli (GPa) = 82.83851 98.84205 72.83868
#
# Poissons Ratio (x) = 0.13364 0.17384
# Poissons Ratio (y) = 0.11200 0.28785
# Poissons Ratio (z) = 0.19770 0.39061
#
# Static dielectric constant tensor:
#      x y z
#    x 1.984250 -0.051090 0.052430 
#    y -0.051090 1.978540 0.059480 
#    z 0.052430 0.059480 2.055790 
# 
# From -- ./inp_files/37804.got.cif
#   From: 2010.05.17/outbox.cif.g08.bks.cpg/sg2_19_cif.got.tgz:37804.got - 2010.06.03 11:33:40.
