data_PCOD9030454
_publ_section_title
;
Structure prediction by ZEFSAII (Michael W. Deem and Ramdas Pophale) SiO2 
 PCOD9030454
Probable space group: P -1
;
_chemical_formula_sum "Si O2"
_cell_formula_units_Z 14
_cell_length_a 14.791627
_cell_length_b 7.607902
_cell_length_c 11.881010
_cell_angle_alpha 92.539794
_cell_angle_beta 129.744824
_cell_angle_gamma 50.189699
_cell_volume 620.817556
_symmetry_space_group_name_H-M "P -1"
_symmetry_group_IT_number 2
_symmetry_cell_setting 'triclinic'
loop_
_space_group_symop_operation_xyz
x,y,z
-x,-y,-z
loop_
_atom_site_type_symbol
_atom_site_label
_atom_site_fract_x
_atom_site_fract_y
_atom_site_fract_z
Si Si1 0.271615 0.139681 0.997791
Si Si2 0.972752 0.198352 0.401952
Si Si3 0.644770 0.085535 0.367379
Si Si4 0.239181 0.537624 0.120491
Si Si5 0.539920 0.659124 0.016516
Si Si6 0.025202 0.121265 0.868316
Si Si7 0.917074 0.459742 0.588170
O O1 0.204329 0.047441 0.011942
O O2 0.096118 0.362445 0.774113
O O3 0.269801 0.314922 0.076282
O O4 0.457220 0.867573 0.062434
O O5 0.769356 0.415862 0.182990
O O6 0.944144 0.383176 0.478396
O O7 0.169686 0.007027 0.486699
O O8 0.000000 0.000000 0.500000
O O9 0.455004 0.362798 0.294405
O O10 0.724389 0.801697 0.461616
O O11 0.571168 0.163011 0.181594
O O12 0.133365 0.639512 0.157850
O O13 0.104903 0.834453 0.952953
O O14 0.500000 0.500000 0.000000
O O15 0.935776 0.265937 0.677821
#
# Coordination Sequence:
#
# PCOD9030454 Si02
#       7
#     2   2   2   2   2   2   2
#     4  10  22  42  71 100 140 183 233 287 351 407
#     4  12  25  41  67  99 144 178 223 290 338 417
#     4  12  25  42  65 106 133 182 235 273 356 413
#     4  11  23  42  75  99 138 192 232 294 340 421
#     4  12  24  43  68 104 142 186 226 280 354 421
#     4   9  23  45  69 101 141 180 246 284 353 403
#     4  10  24  42  62 100 143 175 231 292 340 417
#
# _framework density 22.550909000000001
#
# number of rings (size 3 to 8) (size 9 to 14) (size 15 to 20)
#    0.857    0.286    2.857    2.571    4.000    1.714 
#    0.000    0.000    0.000    2.571    0.000    0.000 
#    0.000    0.000    0.000    0.000    0.000    0.000 
#
# Total GULP energy -78263.705701 kJ/mol
# GULP energy per Si atom -5590.264693 kJ/mol
# Density = 2.249958 g / cm^3
# Si number density = 22.550909 Si / 1000 Ang^3
#
#
#
# Elastic Constant Matrix: (Units=GPa)
#
#
# Indices 1 2 3 4 5 6 
#
# 1 102.1051 22.7849 23.7407 6.9840 9.2378 -14.0473
# 2 22.7849 89.5835 10.3001 0.6836 10.1604 -9.3743
# 3 23.7407 10.3001 100.3571 -10.3113 18.6333 -4.2067
# 4 6.9840 0.6836 -10.3113 29.3954 3.9580 5.7099
# 5 9.2378 10.1604 18.6333 3.9580 41.2496 -14.6629
# 6 -14.0473 -9.3743 -4.2067 5.7099 -14.6629 44.9015
#
#
#
# Elastic Compliance Matrix: (Units=1/GPa)
#
#
# Indices 1 2 3 4 5 6 
#
# 1 0.011788 -0.002332 -0.003091 -0.004745 0.001171 0.003897
# 2 -0.002332 0.012123 -0.000255 0.000235 -0.001980 0.001101
# 3 -0.003091 -0.000255 0.012485 0.006542 -0.006511 -0.002809
# 4 -0.004745 0.000235 0.006542 0.040372 -0.008984 -0.008890
# 5 0.001171 -0.001980 -0.006511 -0.008984 0.032179 0.010994
# 6 0.003897 0.001101 -0.002809 -0.008890 0.010994 0.028178
#
#
# Mechanical properties :
#
#
# Convention : Reuss Voigt Hill
#
# Bulk Modulus (GPa) = 39.93379 45.07745 42.50562
# Shear Modulus (GPa) = 31.88239 38.79064 35.33652
#
# Velocity S-wave (km/s) = 3.76413 4.15195 3.96279
# Velocity P-wave (km/s) = 6.05296 6.55877 6.31093
#
# Compressibility (1/GPa) = 0.02504145
#
# Stress axis : x y z
#
# Youngs Moduli (GPa) = 84.83514 82.48739 80.09568
#
# Poissons Ratio (x) = 0.19232 0.24757
# Poissons Ratio (y) = 0.19779 0.02040
# Poissons Ratio (z) = 0.26222 0.02101
#
# Static dielectric constant tensor:
#      x y z
#    x 1.879100 0.046420 0.007150 
#    y 0.046420 1.842080 0.001250 
#    z 0.007150 0.001250 1.819030 
# 
# From -- ./inp_files/461408.got.cif
#   From: 2010.05.17/outbox.cif.g08.bks.cpg/sg2_231_cif.got.tgz:461408.got - 2010.06.03 11:33:40.
