data_PCOD9030651
_publ_section_title
;
Structure prediction by ZEFSAII (Michael W. Deem and Ramdas Pophale) SiO2 
 PCOD9030651
Probable space group: P -1
;
_chemical_formula_sum "Si O2"
_cell_formula_units_Z 13
_cell_length_a 10.658231
_cell_length_b 8.606463
_cell_length_c 9.099477
_cell_angle_alpha 141.903842
_cell_angle_beta 102.900094
_cell_angle_gamma 90.356897
_cell_volume 478.475318
_symmetry_space_group_name_H-M "P -1"
_symmetry_group_IT_number 2
_symmetry_cell_setting 'triclinic'
loop_
_space_group_symop_operation_xyz
x,y,z
-x,-y,-z
loop_
_atom_site_type_symbol
_atom_site_label
_atom_site_fract_x
_atom_site_fract_y
_atom_site_fract_z
Si Si1 0.045761 0.695500 0.883144
Si Si2 0.658548 0.797260 0.031717
Si Si3 0.238166 0.164997 0.393310
Si Si4 0.207002 0.610854 0.571573
Si Si5 0.500000 0.500000 0.500000
Si Si6 0.870189 0.735672 0.256383
Si Si7 0.475974 0.990678 0.313538
O O1 0.126690 0.646257 0.723371
O O2 0.075099 0.509071 0.877698
O O3 0.891551 0.579196 0.710024
O O4 0.091087 0.999836 0.171543
O O5 0.771949 0.687979 0.054372
O O6 0.738169 0.107339 0.273022
O O7 0.534961 0.778399 0.096562
O O8 0.591519 0.731828 0.807391
O O9 0.305889 0.441782 0.527449
O O10 0.223466 0.232887 0.607241
O O11 0.317719 0.955472 0.232540
O O12 0.532331 0.273214 0.457607
O O13 0.000000 0.000000 0.500000
O O14 0.500000 0.000000 0.500000
#
# Coordination Sequence:
#
# PCOD9030651 Si02
#       7
#     2   2   2   2   1   2   2
#     4  10  22  42  72 109 146 197 249 307 392 461
#     4  12  26  50  77 113 156 201 261 315 391 455
#     4  11  24  45  73 109 147 200 252 309 394 465
#     4  10  22  44  73 106 154 192 249 322 376 468
#     4  12  30  50  80 112 154 212 266 322 372 468
#     4  11  24  45  72 110 153 195 248 321 381 462
#     4  12  27  50  75 112 155 207 256 324 386 462
#
# _framework density 27.169636000000001
#
# number of rings (size 3 to 8) (size 9 to 14) (size 15 to 20)
#    0.000    0.923    3.077    2.769    2.154    3.692 
#    5.538    0.000    0.000    0.000    0.000    0.000 
#    0.000    0.000    0.000    0.000    0.000    0.000 
#
# Total GULP energy -72659.567841 kJ/mol
# GULP energy per Si atom -5589.197526 kJ/mol
# Density = 2.710780 g / cm^3
# Si number density = 27.169636 Si / 1000 Ang^3
#
#
#
# Elastic Constant Matrix: (Units=GPa)
#
#
# Indices 1 2 3 4 5 6 
#
# 1 62.4131 34.1549 -7.2724 -28.0558 -8.2225 -16.4801
# 2 34.1549 167.6941 41.6260 -16.5043 8.4253 -15.8000
# 3 -7.2724 41.6260 94.9124 -29.0593 19.7083 -0.9018
# 4 -28.0558 -16.5043 -29.0593 58.5236 14.2597 -1.1044
# 5 -8.2225 8.4253 19.7083 14.2597 51.0109 -16.9679
# 6 -16.4801 -15.8000 -0.9018 -1.1044 -16.9679 48.0921
#
#
#
# Elastic Compliance Matrix: (Units=1/GPa)
#
#
# Indices 1 2 3 4 5 6 
#
# 1 0.032196 -0.006591 0.011582 0.019646 -0.000585 0.009329
# 2 -0.006591 0.008309 -0.005490 -0.003760 0.000942 0.000614
# 3 0.011582 -0.005490 0.021218 0.017069 -0.010437 -0.000727
# 4 0.019646 -0.003760 0.017069 0.036980 -0.012380 0.002298
# 5 -0.000585 0.000942 -0.010437 -0.012380 0.030277 0.010311
# 6 0.009329 0.000614 -0.000727 0.002298 0.010311 0.027869
#
#
# Mechanical properties :
#
#
# Convention : Reuss Voigt Hill
#
# Bulk Modulus (GPa) = 16.46745 51.33738 33.90242
# Shear Modulus (GPa) = 28.07621 48.62608 38.35114
#
# Velocity S-wave (km/s) = 3.21809 4.23510 3.76113
# Velocity P-wave (km/s) = 4.45895 6.54606 5.60059
#
# Compressibility (1/GPa) = 0.06072587
#
# Stress axis : x y z
#
# Youngs Moduli (GPa) = 31.05994 120.35418 47.13057
#
# Poissons Ratio (x) = 0.79320 -0.54588
# Poissons Ratio (y) = 0.20470 0.25875
# Poissons Ratio (z) = -0.35975 0.66075
#
# Static dielectric constant tensor:
#      x y z
#    x 2.284490 -0.028930 0.199490 
#    y -0.028930 2.037820 0.023660 
#    z 0.199490 0.023660 2.071780 
# 
# From -- ./inp_files/60282.got.cif
#   From: 2010.05.17/outbox.cif.g08.bks.cpg/sg2_31_cif.got.tgz:60282.got - 2010.06.03 11:33:40.
