data_PCOD9030081
_publ_section_title
;
Structure prediction by ZEFSAII (Michael W. Deem and Ramdas Pophale) SiO2 
 PCOD9030081
Probable space group: P -1
;
_chemical_formula_sum "Si O2"
_cell_formula_units_Z 14
_cell_length_a 5.095400
_cell_length_b 9.282047
_cell_length_c 11.815809
_cell_angle_alpha 87.135157
_cell_angle_beta 113.611927
_cell_angle_gamma 83.996313
_cell_volume 506.647911
_symmetry_space_group_name_H-M "P -1"
_symmetry_group_IT_number 2
_symmetry_cell_setting 'triclinic'
loop_
_space_group_symop_operation_xyz
x,y,z
-x,-y,-z
loop_
_atom_site_type_symbol
_atom_site_label
_atom_site_fract_x
_atom_site_fract_y
_atom_site_fract_z
Si Si1 0.078276 0.826953 0.649304
Si Si2 0.580048 0.096788 0.903024
Si Si3 0.717184 0.116647 0.544670
Si Si4 0.352839 0.369313 0.534072
Si Si5 0.801311 0.614033 0.239844
Si Si6 0.081856 0.168041 0.132508
Si Si7 0.235482 0.470080 0.139795
O O1 0.843010 0.719578 0.577031
O O2 0.282817 0.800205 0.577829
O O3 0.106930 0.809753 0.787843
O O4 0.003764 0.005362 0.620622
O O5 0.319793 0.219758 0.820389
O O6 0.857139 0.170660 0.990333
O O7 0.706091 0.983439 0.832411
O O8 0.500000 0.000000 0.000000
O O9 0.616543 0.239602 0.612706
O O10 0.500000 0.000000 0.500000
O O11 0.500000 0.500000 0.500000
O O12 0.181110 0.403777 0.620410
O O13 0.079711 0.546146 0.220530
O O14 0.536520 0.525771 0.165477
O O15 0.273906 0.296697 0.160819
O O16 0.000000 0.500000 0.000000
#
# Coordination Sequence:
#
# PCOD9030081 Si02
#       7
#     2   2   2   2   2   2   2
#     4  10  22  42  69  95 138 183 234 291 352 431
#     4  11  26  45  71 105 141 184 248 304 362 426
#     4   9  21  41  63  94 133 183 233 285 346 422
#     4  11  25  42  68 103 142 183 238 292 360 431
#     4  12  28  47  76 107 151 192 237 306 361 430
#     4  11  25  43  72 103 139 189 240 299 359 432
#     4  12  26  49  74 106 146 193 240 292 369 434
#
# _framework density 27.632603
#
# number of rings (size 3 to 8) (size 9 to 14) (size 15 to 20)
#    0.000    1.143    1.429    3.000    8.000    6.286 
#    0.000    0.000    0.000    0.000    0.000    0.000 
#    0.000    0.000    0.000    0.000    0.000    0.000 
#
# Total GULP energy -78489.062041 kJ/mol
# GULP energy per Si atom -5606.361574 kJ/mol
# Density = 2.756971 g / cm^3
# Si number density = 27.632603 Si / 1000 Ang^3
#
#
#
# Elastic Constant Matrix: (Units=GPa)
#
#
# Indices 1 2 3 4 5 6 
#
# 1 110.2735 40.3641 16.1394 15.8699 -21.6633 12.0628
# 2 40.3641 185.9719 47.0738 16.2852 -3.1388 7.7257
# 3 16.1394 47.0738 117.3139 17.9601 -6.7379 5.7356
# 4 15.8699 16.2852 17.9601 49.2752 2.1927 -3.9028
# 5 -21.6633 -3.1388 -6.7379 2.1927 44.8047 4.0307
# 6 12.0628 7.7257 5.7356 -3.9028 4.0307 48.7093
#
#
#
# Elastic Compliance Matrix: (Units=1/GPa)
#
#
# Indices 1 2 3 4 5 6 
#
# 1 0.011926 -0.002083 0.000303 -0.003813 0.006165 -0.003475
# 2 -0.002083 0.006446 -0.002242 -0.000623 -0.000842 -0.000223
# 3 0.000303 -0.002242 0.010037 -0.003197 0.001772 -0.001304
# 4 -0.003813 -0.000623 -0.003197 0.023349 -0.003835 0.003608
# 5 0.006165 -0.000842 0.001772 -0.003835 0.026061 -0.004066
# 6 -0.003475 -0.000223 -0.001304 0.003608 -0.004066 0.022205
#
#
# Mechanical properties :
#
#
# Convention : Reuss Voigt Hill
#
# Bulk Modulus (GPa) = 49.10393 68.96820 59.03607
# Shear Modulus (GPa) = 43.53169 49.22329 46.37749
#
# Velocity S-wave (km/s) = 3.97340 4.22518 4.10123
# Velocity P-wave (km/s) = 6.23374 6.98685 6.62101
#
# Compressibility (1/GPa) = 0.02036497
#
# Stress axis : x y z
#
# Youngs Moduli (GPa) = 83.84749 155.12583 99.62870
#
# Poissons Ratio (x) = 0.32311 -0.03016
# Poissons Ratio (y) = 0.17465 0.22340
# Poissons Ratio (z) = -0.02538 0.34784
#
# Static dielectric constant tensor:
#      x y z
#    x 2.284540 -0.097230 0.089120 
#    y -0.097230 2.200880 -0.075800 
#    z 0.089120 -0.075800 2.190970 
# 
# From -- ./inp_files/131776.got.cif
#   From: 2010.05.17/outbox.cif.g08.bks.cpg/sg2_66_cif.got.tgz:131776.got - 2010.06.03 11:33:40.
