data_PCOD9030544
_publ_section_title
;
Structure prediction by ZEFSAII (Michael W. Deem and Ramdas Pophale) SiO2 
 PCOD9030544
Probable space group: P -1
;
_chemical_formula_sum "Si O2"
_cell_formula_units_Z 14
_cell_length_a 6.445755
_cell_length_b 7.421149
_cell_length_c 13.250789
_cell_angle_alpha 72.013931
_cell_angle_beta 89.218576
_cell_angle_gamma 107.316174
_cell_volume 571.649425
_symmetry_space_group_name_H-M "P -1"
_symmetry_group_IT_number 2
_symmetry_cell_setting 'triclinic'
loop_
_space_group_symop_operation_xyz
x,y,z
-x,-y,-z
loop_
_atom_site_type_symbol
_atom_site_label
_atom_site_fract_x
_atom_site_fract_y
_atom_site_fract_z
Si Si1 0.370670 0.181699 0.248054
Si Si2 0.901254 0.758077 0.149215
Si Si3 0.086081 0.167109 0.638782
Si Si4 0.157502 0.484279 0.272739
Si Si5 0.292923 0.579402 0.472096
Si Si6 0.656764 0.891325 0.965841
Si Si7 0.263733 0.859389 0.595726
O O1 0.316904 0.385553 0.234180
O O2 0.434742 0.184266 0.130215
O O3 0.563935 0.166170 0.320116
O O4 0.151702 0.996384 0.309895
O O5 0.815766 0.786024 0.256993
O O6 0.023231 0.592047 0.186572
O O7 0.717449 0.741497 0.069438
O O8 0.106875 0.951771 0.089562
O O9 0.106646 0.382732 0.554461
O O10 0.675653 0.220941 0.496695
O O11 0.213699 0.065024 0.579477
O O12 0.273184 0.610993 0.347088
O O13 0.969525 0.299038 0.351702
O O14 0.500000 0.500000 0.500000
O O15 0.500000 0.000000 0.000000
#
# Coordination Sequence:
#
# PCOD9030544 Si02
#       7
#     2   2   2   2   2   2   2
#     4  10  23  44  67 103 135 176 231 282 339 404
#     4  10  22  43  69  97 133 180 220 280 345 398
#     4  10  24  44  68  96 142 179 227 279 334 399
#     4  11  24  44  66  96 142 175 228 284 329 406
#     4  12  25  45  68 100 140 186 231 273 337 402
#     4  10  22  42  71  98 130 175 226 278 348 406
#     4  11  23  44  67  98 138 180 231 276 332 397
#
# _framework density 24.490535999999999
#
# number of rings (size 3 to 8) (size 9 to 14) (size 15 to 20)
#    0.000    1.429    2.857    1.286    0.000    9.143 
#    2.571    1.429    0.000    0.000    0.000    0.000 
#    0.000    0.000    0.000    0.000    0.000    0.000 
#
# Total GULP energy -78327.622356 kJ/mol
# GULP energy per Si atom -5594.830168 kJ/mol
# Density = 2.443479 g / cm^3
# Si number density = 24.490536 Si / 1000 Ang^3
#
#
#
# Elastic Constant Matrix: (Units=GPa)
#
#
# Indices 1 2 3 4 5 6 
#
# 1 82.5271 43.0423 57.9835 25.8500 14.8347 -19.1833
# 2 43.0423 167.5109 87.1081 25.6046 13.9604 -53.0602
# 3 57.9835 87.1081 163.6255 24.4617 30.1453 -20.4349
# 4 25.8500 25.6046 24.4617 47.3777 2.7509 1.6882
# 5 14.8347 13.9604 30.1453 2.7509 45.9761 -10.5407
# 6 -19.1833 -53.0602 -20.4349 1.6882 -10.5407 43.8980
#
#
#
# Elastic Compliance Matrix: (Units=1/GPa)
#
#
# Indices 1 2 3 4 5 6 
#
# 1 0.020124 0.002013 -0.005520 -0.009479 -0.000899 0.008806
# 2 0.002013 0.014654 -0.005980 -0.006708 0.003076 0.016806
# 3 -0.005520 -0.005980 0.011377 0.000872 -0.005205 -0.005628
# 4 -0.009479 -0.006708 0.000872 0.029934 -0.000262 -0.013058
# 5 -0.000899 0.003076 -0.005205 -0.000262 0.026186 0.007200
# 6 0.008806 0.016806 -0.005628 -0.013058 0.007200 0.046553
#
#
# Mechanical properties :
#
#
# Convention : Reuss Voigt Hill
#
# Bulk Modulus (GPa) = 36.79086 87.77015 62.28051
# Shear Modulus (GPa) = 28.27064 42.48565 35.37815
#
# Velocity S-wave (km/s) = 3.40126 4.16959 3.80487
# Velocity P-wave (km/s) = 5.52085 7.68744 6.69241
#
# Compressibility (1/GPa) = 0.02718066
#
# Stress axis : x y z
#
# Youngs Moduli (GPa) = 49.69289 68.23901 87.89760
#
# Poissons Ratio (x) = -0.13737 0.48523
# Poissons Ratio (y) = -0.10004 0.52561
# Poissons Ratio (z) = 0.27432 0.40806
#
# Static dielectric constant tensor:
#      x y z
#    x 2.054460 0.041670 -0.008150 
#    y 0.041670 1.971230 -0.006100 
#    z -0.008150 -0.006100 1.951390 
# 
# From -- ./inp_files/479615.got.cif
#   From: 2010.05.17/outbox.cif.g08.bks.cpg/sg2_240_cif.got.tgz:479615.got - 2010.06.03 11:33:40.
