data_PCOD9030672
_publ_section_title
;
Structure prediction by ZEFSAII (Michael W. Deem and Ramdas Pophale) SiO2 
 PCOD9030672
Probable space group: P -1
;
_chemical_formula_sum "Si O2"
_cell_formula_units_Z 15
_cell_length_a 8.897059
_cell_length_b 11.479043
_cell_length_c 9.895212
_cell_angle_alpha 82.557827
_cell_angle_beta 85.314191
_cell_angle_gamma 142.611751
_cell_volume 579.171467
_symmetry_space_group_name_H-M "P -1"
_symmetry_group_IT_number 2
_symmetry_cell_setting 'triclinic'
loop_
_space_group_symop_operation_xyz
x,y,z
-x,-y,-z
loop_
_atom_site_type_symbol
_atom_site_label
_atom_site_fract_x
_atom_site_fract_y
_atom_site_fract_z
Si Si1 0.932515 0.737739 0.146313
Si Si2 0.713654 0.065673 0.667293
Si Si3 0.803141 0.380807 0.208088
Si Si4 0.642738 0.328437 0.934953
Si Si5 0.481463 0.553127 0.353442
Si Si6 0.530123 0.844179 0.293271
Si Si7 0.500000 0.500000 0.000000
Si Si8 0.990864 0.866878 0.591677
O O1 0.847626 0.546869 0.207262
O O2 0.763586 0.725225 0.243414
O O3 0.197792 0.909741 0.189571
O O4 0.809951 0.683023 0.015470
O O5 0.640692 0.154728 0.651983
O O6 0.937272 0.175455 0.528736
O O7 0.457088 0.831971 0.671552
O O8 0.074730 0.485508 0.190256
O O9 0.725561 0.315042 0.066326
O O10 0.455354 0.142967 0.872335
O O11 0.515138 0.370564 0.976490
O O12 0.500000 0.500000 0.500000
O O13 0.407359 0.639737 0.364383
O O14 0.294269 0.353650 0.303208
O O15 0.801358 0.016007 0.324741
O O16 0.000000 0.000000 0.500000
#
# Coordination Sequence:
#
# PCOD9030672 Si02
#       8
#     2   2   2   2   2   2   1   2
#     4  11  22  45  68  99 137 179 231 274 345 403
#     4  12  26  44  70 103 139 180 233 282 341 407
#     4  10  24  45  70  98 138 181 217 291 338 408
#     4  10  22  48  69 101 136 175 230 275 352 406
#     4  12  24  45  72  94 139 187 223 288 339 403
#     4  12  26  44  68 105 134 179 231 283 342 410
#     4  10  22  42  72  96 132 176 222 282 330 410
#     4  12  26  46  68 101 139 183 234 281 337 407
#
# _framework density 25.899065
#
# number of rings (size 3 to 8) (size 9 to 14) (size 15 to 20)
#    0.000    0.800    5.333    1.200    1.867    1.067 
#    2.400    2.667    0.000    0.000    0.000    0.000 
#    0.000    0.000    0.000    0.000    0.000    0.000 
#
# Total GULP energy -83617.403600 kJ/mol
# GULP energy per Si atom -5574.493573 kJ/mol
# Density = 2.584012 g / cm^3
# Si number density = 25.899065 Si / 1000 Ang^3
#
#
#
# Elastic Constant Matrix: (Units=GPa)
#
#
# Indices 1 2 3 4 5 6 
#
# 1 179.1060 47.8808 8.8702 22.1563 12.4938 5.7877
# 2 47.8808 108.6773 0.0948 29.6267 9.7715 31.4403
# 3 8.8702 0.0948 63.1079 34.5863 24.9835 10.9374
# 4 22.1563 29.6267 34.5863 47.2366 7.9244 6.9676
# 5 12.4938 9.7715 24.9835 7.9244 38.3263 20.5550
# 6 5.7877 31.4403 10.9374 6.9676 20.5550 40.1325
#
#
#
# Elastic Compliance Matrix: (Units=1/GPa)
#
#
# Indices 1 2 3 4 5 6 
#
# 1 0.006717 -0.003209 0.000594 -0.001520 -0.003209 0.003291
# 2 -0.003209 0.020334 0.013880 -0.018967 -0.000974 -0.015458
# 3 0.000594 0.013880 0.047453 -0.038989 -0.024018 -0.004821
# 4 -0.001520 -0.018967 -0.038989 0.058731 0.014182 0.008244
# 5 -0.003209 -0.000974 -0.024018 0.014182 0.051376 -0.021004
# 6 0.003291 -0.015458 -0.004821 0.008244 -0.021004 0.047193
#
#
# Mechanical properties :
#
#
# Convention : Reuss Voigt Hill
#
# Bulk Modulus (GPa) = 10.30575 51.62032 30.96303
# Shear Modulus (GPa) = 20.69367 44.74210 32.71788
#
# Velocity S-wave (km/s) = 2.82975 4.16090 3.55813
# Velocity P-wave (km/s) = 3.82942 6.56191 5.37230
#
# Compressibility (1/GPa) = 0.09703322
#
# Stress axis : x y z
#
# Youngs Moduli (GPa) = 148.86772 49.17955 21.07327
#
# Poissons Ratio (x) = 0.15784 -0.01251
# Poissons Ratio (y) = 0.47778 -0.29250
# Poissons Ratio (z) = -0.08836 -0.68262
#
# Static dielectric constant tensor:
#      x y z
#    x 1.999090 0.072780 0.016610 
#    y 0.072780 2.147870 -0.051060 
#    z 0.016610 -0.051060 2.256350 
# 
# From -- ./inp_files/268084.got.cif
#   From: 2010.05.17/outbox.cif.g08.bks.cpg/sg2_135_cif.got.tgz:268084.got - 2010.06.03 11:33:40.
