data_PCOD9030016
_publ_section_title
;
Structure prediction by ZEFSAII (Michael W. Deem and Ramdas Pophale) SiO2 
 PCOD9030016
Probable space group: P -1
;
_chemical_formula_sum "Si O2"
_cell_formula_units_Z 16
_cell_length_a 20.694671
_cell_length_b 11.878555
_cell_length_c 6.764061
_cell_angle_alpha 99.194428
_cell_angle_beta 97.504240
_cell_angle_gamma 27.384765
_cell_volume 754.749972
_symmetry_space_group_name_H-M "P -1"
_symmetry_group_IT_number 2
_symmetry_cell_setting 'triclinic'
loop_
_space_group_symop_operation_xyz
x,y,z
-x,-y,-z
loop_
_atom_site_type_symbol
_atom_site_label
_atom_site_fract_x
_atom_site_fract_y
_atom_site_fract_z
Si Si1 0.671285 0.066033 0.292841
Si Si2 0.656792 0.835054 0.111951
Si Si3 0.149484 0.478607 0.263541
Si Si4 0.141400 0.250357 0.367618
Si Si5 0.725026 0.552438 0.397228
Si Si6 0.400765 0.359733 0.249940
Si Si7 0.141020 0.086044 0.956518
Si Si8 0.159231 0.794279 0.979437
O O1 0.503768 0.309129 0.299049
O O2 0.723710 0.855174 0.203599
O O3 0.743714 0.981402 0.505389
O O4 0.728181 0.062773 0.149885
O O5 0.664028 0.740374 0.274593
O O6 0.496882 0.123872 0.092358
O O7 0.746997 0.651679 0.912559
O O8 0.198373 0.281494 0.313558
O O9 0.159621 0.558569 0.457938
O O10 0.993751 0.704629 0.182016
O O11 0.000000 0.500000 0.500000
O O12 0.109328 0.215144 0.166676
O O13 0.621175 0.662143 0.550813
O O14 0.783259 0.360929 0.232824
O O15 0.257456 0.609957 0.152662
O O16 0.164932 0.920158 0.985445
O O17 0.000000 0.000000 0.000000
#
# Coordination Sequence:
#
# PCOD9030016 Si02
#       8
#     2   2   2   2   2   2   2   2
#     4  10  23  43  69 106 139 178 226 291 352 407
#     4  10  22  42  69 108 139 171 227 294 356 396
#     4  12  23  40  72 109 143 178 228 298 348 406
#     4  12  22  39  71 107 138 173 228 286 353 402
#     4  12  25  44  74 101 139 186 236 286 350 416
#     4  10  25  47  70 103 143 183 237 288 346 415
#     4  12  26  44  70 102 150 184 228 287 344 417
#     4  12  30  50  68  98 142 194 234 280 348 422
#
# _framework density 21.199072000000001
#
# number of rings (size 3 to 8) (size 9 to 14) (size 15 to 20)
#    0.750    0.000    3.750    3.750    1.750    8.500 
#    0.000    1.250    0.000    0.000    0.000    0.000 
#    0.000    0.000    0.000    0.000    0.000    0.000 
#
# Total GULP energy -89466.389070 kJ/mol
# GULP energy per Si atom -5591.649317 kJ/mol
# Density = 2.115082 g / cm^3
# Si number density = 21.199072 Si / 1000 Ang^3
#
#
#
# Elastic Constant Matrix: (Units=GPa)
#
#
# Indices 1 2 3 4 5 6 
#
# 1 153.4537 40.6276 46.9400 -4.3897 -23.7394 -2.2795
# 2 40.6276 59.9079 17.8762 -15.1108 -15.4188 -15.7038
# 3 46.9400 17.8762 91.6440 -16.2918 -12.5412 -7.6762
# 4 -4.3897 -15.1108 -16.2918 25.0180 -1.1644 6.2706
# 5 -23.7394 -15.4188 -12.5412 -1.1644 39.0540 -4.7056
# 6 -2.2795 -15.7038 -7.6762 6.2706 -4.7056 40.2263
#
#
#
# Elastic Compliance Matrix: (Units=1/GPa)
#
#
# Indices 1 2 3 4 5 6 
#
# 1 0.009678 -0.006512 -0.004458 -0.004578 0.001508 -0.001954
# 2 -0.006512 0.029917 0.002763 0.016588 0.010498 0.010480
# 3 -0.004458 0.002763 0.015245 0.010350 0.003896 0.002578
# 4 -0.004578 0.016588 0.010350 0.056222 0.008822 0.000459
# 5 0.001508 0.010498 0.003896 0.008822 0.033075 0.007421
# 6 -0.001954 0.010480 0.002578 0.000459 0.007421 0.030128
#
#
# Mechanical properties :
#
#
# Convention : Reuss Voigt Hill
#
# Bulk Modulus (GPa) = 26.02367 57.32144 41.67256
# Shear Modulus (GPa) = 24.57162 34.16377 29.36770
#
# Velocity S-wave (km/s) = 3.40823 4.01879 3.72604
# Velocity P-wave (km/s) = 5.27168 6.97370 6.18155
#
# Compressibility (1/GPa) = 0.03842656
#
# Stress axis : x y z
#
# Youngs Moduli (GPa) = 103.33198 33.42598 65.59525
#
# Poissons Ratio (x) = 0.21766 0.29241
# Poissons Ratio (y) = 0.67286 -0.18124
# Poissons Ratio (z) = 0.46063 -0.09235
#
# Static dielectric constant tensor:
#      x y z
#    x 1.821210 -0.008250 0.019200 
#    y -0.008250 1.748610 -0.005910 
#    z 0.019200 -0.005910 1.767920 
# 
# From -- ./inp_files/118755.got.cif
#   From: 2010.05.17/outbox.cif.g08.bks.cpg/sg2_60_cif.got.tgz:118755.got - 2010.06.03 11:33:40.
