data_PCOD9030525
_publ_section_title
;
Structure prediction by ZEFSAII (Michael W. Deem and Ramdas Pophale) SiO2 
 PCOD9030525
Probable space group: P -1
;
_chemical_formula_sum "Si O2"
_cell_formula_units_Z 16
_cell_length_a 21.200340
_cell_length_b 7.844626
_cell_length_c 8.493658
_cell_angle_alpha 97.621218
_cell_angle_beta 33.899612
_cell_angle_gamma 105.795836
_cell_volume 746.547353
_symmetry_space_group_name_H-M "P -1"
_symmetry_group_IT_number 2
_symmetry_cell_setting 'triclinic'
loop_
_space_group_symop_operation_xyz
x,y,z
-x,-y,-z
loop_
_atom_site_type_symbol
_atom_site_label
_atom_site_fract_x
_atom_site_fract_y
_atom_site_fract_z
Si Si1 0.863805 0.126953 0.673476
Si Si2 0.600045 0.489359 0.165474
Si Si3 0.007481 0.458920 0.236625
Si Si4 0.282426 0.171772 0.266418
Si Si5 0.033698 0.240389 0.846932
Si Si6 0.433379 0.351204 0.242965
Si Si7 0.897017 0.973841 0.890322
Si Si8 0.244327 0.442894 0.866403
O O1 0.842694 0.087693 0.896632
O O2 0.923741 0.330516 0.521545
O O3 0.758185 0.015964 0.767076
O O4 0.968877 0.031643 0.420553
O O5 0.500000 0.500000 0.500000
O O6 0.531356 0.336005 0.165651
O O7 0.702159 0.470051 0.068519
O O8 0.652700 0.671087 0.974703
O O9 0.965161 0.623181 0.283295
O O10 0.008150 0.330636 0.069977
O O11 0.142664 0.518257 0.019501
O O12 0.162353 0.212924 0.577437
O O13 0.361874 0.187357 0.260703
O O14 0.922192 0.067329 0.019683
O O15 0.344902 0.438815 0.531562
O O16 0.500000 0.500000 0.000000
O O17 0.818906 0.770425 0.008014
#
# Coordination Sequence:
#
# PCOD9030525 Si02
#       8
#     2   2   2   2   2   2   2   2
#     4   9  18  30  48  73 101 129 162 201 242 294
#     4   9  18  31  49  76 101 120 165 215 253 282
#     4  10  21  33  47  74 106 137 163 190 240 305
#     4  10  17  32  52  76 103 128 159 209 245 286
#     4  10  21  33  47  74 107 135 164 191 236 311
#     4   9  18  29  49  78  97 122 169 210 254 283
#     4   9  18  30  48  73 100 130 163 198 244 296
#     4  10  17  32  52  74 103 130 156 211 250 281
#
# _framework density 21.431996000000002
#
# number of rings (size 3 to 8) (size 9 to 14) (size 15 to 20)
#    0.000    2.500    2.500    0.000    3.500    2.000 
#    0.000    0.000    0.000    0.000    0.000   35.000 
#    0.000    0.000    0.000    0.000    0.000    0.000 
#
# Total GULP energy -89203.522853 kJ/mol
# GULP energy per Si atom -5575.220178 kJ/mol
# Density = 2.138322 g / cm^3
# Si number density = 21.431996 Si / 1000 Ang^3
#
#
#
# Elastic Constant Matrix: (Units=GPa)
#
#
# Indices 1 2 3 4 5 6 
#
# 1 171.7848 23.3955 18.8119 -6.0018 -15.5792 34.7227
# 2 23.3955 37.8980 8.8851 -5.1371 -6.0720 9.4194
# 3 18.8119 8.8851 70.3374 -10.9018 2.2003 6.0372
# 4 -6.0018 -5.1371 -10.9018 15.3590 3.9288 6.0176
# 5 -15.5792 -6.0720 2.2003 3.9288 27.9247 -10.3997
# 6 34.7227 9.4194 6.0372 6.0176 -10.3997 32.5311
#
#
#
# Elastic Compliance Matrix: (Units=1/GPa)
#
#
# Indices 1 2 3 4 5 6 
#
# 1 0.008187 -0.001880 -0.000193 0.006141 -0.000172 -0.009349
# 2 -0.001880 0.031869 -0.000767 0.012814 0.000703 -0.009224
# 3 -0.000193 -0.000767 0.018085 0.017755 -0.007391 -0.008576
# 4 0.006141 0.012814 0.017755 0.107318 -0.025800 -0.041659
# 5 -0.000172 0.000703 -0.007391 -0.025800 0.048085 0.021496
# 6 -0.009349 -0.009224 -0.008576 -0.041659 0.021496 0.059559
#
#
# Mechanical properties :
#
#
# Convention : Reuss Voigt Hill
#
# Bulk Modulus (GPa) = 19.06161 42.46724 30.76443
# Shear Modulus (GPa) = 16.87641 30.42481 23.65061
#
# Velocity S-wave (km/s) = 2.80918 3.77184 3.32553
# Velocity P-wave (km/s) = 4.40855 6.23113 5.39733
#
# Compressibility (1/GPa) = 0.05246145
#
# Stress axis : x y z
#
# Youngs Moduli (GPa) = 122.14276 31.37798 55.29514
#
# Poissons Ratio (x) = 0.05900 0.01065
# Poissons Ratio (y) = 0.22968 0.04241
# Poissons Ratio (z) = 0.02351 0.02407
#
# Static dielectric constant tensor:
#      x y z
#    x 1.897690 0.053110 0.015200 
#    y 0.053110 1.762570 -0.011610 
#    z 0.015200 -0.011610 1.806890 
# 
# From -- ./inp_files/169598.got.cif
#   From: 2010.05.17/outbox.cif.g08.bks.cpg/sg2_85_cif.got.tgz:169598.got - 2010.06.03 11:33:40.
