data_PCOD9030754
_publ_section_title
;
Structure prediction by ZEFSAII (Michael W. Deem and Ramdas Pophale) SiO2 
 PCOD9030754
Probable space group: P -1
;
_chemical_formula_sum "Si O2"
_cell_formula_units_Z 15
_cell_length_a 14.514259
_cell_length_b 12.233287
_cell_length_c 8.755382
_cell_angle_alpha 107.268150
_cell_angle_beta 72.728453
_cell_angle_gamma 44.477601
_cell_volume 675.564959
_symmetry_space_group_name_H-M "P -1"
_symmetry_group_IT_number 2
_symmetry_cell_setting 'triclinic'
loop_
_space_group_symop_operation_xyz
x,y,z
-x,-y,-z
loop_
_atom_site_type_symbol
_atom_site_label
_atom_site_fract_x
_atom_site_fract_y
_atom_site_fract_z
Si Si1 0.500000 0.000000 0.000000
Si Si2 0.353496 0.758552 0.159618
Si Si3 0.867824 0.668079 0.486174
Si Si4 0.769238 0.337433 0.306658
Si Si5 0.045686 0.270079 0.077067
Si Si6 0.534499 0.205520 0.162893
Si Si7 0.904914 0.843911 0.337495
Si Si8 0.081203 0.887594 0.167111
O O1 0.639982 0.916633 0.763093
O O2 0.584159 0.787182 0.810352
O O3 0.147395 0.917843 0.260593
O O4 0.300283 0.881548 0.389956
O O5 0.500000 0.500000 0.000000
O O6 0.438976 0.750394 0.984269
O O7 0.945349 0.704412 0.385296
O O8 0.000000 0.500000 0.500000
O O9 0.909551 0.521943 0.286631
O O10 0.571273 0.602291 0.581395
O O11 0.928442 0.275886 0.179595
O O12 0.760401 0.287649 0.124533
O O13 0.871292 0.142545 0.294161
O O14 0.105289 0.202468 0.842462
O O15 0.249406 0.061994 0.989960
O O16 0.061851 0.785043 0.214765
#
# Coordination Sequence:
#
# PCOD9030754 Si02
#       8
#     1   2   2   2   2   2   2   2
#     4  12  24  42  70 100 124 172 230 266 336 402
#     4  12  25  41  64 103 138 177 224 275 332 402
#     4  12  24  46  71  96 130 175 223 278 335 400
#     4  10  22  42  73  98 134 177 227 272 335 398
#     4  11  23  44  70  99 135 174 222 281 333 399
#     4  12  24  43  71  97 132 178 223 279 333 401
#     4  11  25  44  66  99 135 176 222 275 341 392
#     4  10  23  44  66 101 136 180 221 276 332 398
#
# _framework density 22.203638000000002
#
# number of rings (size 3 to 8) (size 9 to 14) (size 15 to 20)
#    0.000    0.800    5.333    1.600    1.867    1.600 
#    0.000    0.667    0.000    0.000    0.000    0.000 
#    0.000    0.000    0.000    0.000    0.000    0.000 
#
# Total GULP energy -83625.116636 kJ/mol
# GULP energy per Si atom -5575.007776 kJ/mol
# Density = 2.215310 g / cm^3
# Si number density = 22.203638 Si / 1000 Ang^3
#
#
#
# Elastic Constant Matrix: (Units=GPa)
#
#
# Indices 1 2 3 4 5 6 
#
# 1 56.0952 29.3818 9.4995 -13.7773 11.1848 29.3352
# 2 29.3818 100.2416 23.1387 -20.1723 -5.6714 31.8111
# 3 9.4995 23.1387 148.2835 -3.3409 28.4823 1.1747
# 4 -13.7773 -20.1723 -3.3409 35.5599 10.3095 -2.8153
# 5 11.1848 -5.6714 28.4823 10.3095 37.2300 -4.8984
# 6 29.3352 31.8111 1.1747 -2.8153 -4.8984 33.7162
#
#
#
# Elastic Compliance Matrix: (Units=1/GPa)
#
#
# Indices 1 2 3 4 5 6 
#
# 1 0.064003 0.005235 0.003924 0.034511 -0.039357 -0.063599
# 2 0.005235 0.017458 -0.002057 0.011011 -0.003084 -0.020484
# 3 0.003924 -0.002057 0.008766 0.003736 -0.009610 -0.002863
# 4 0.034511 0.011011 0.003736 0.054115 -0.031884 -0.040659
# 5 -0.039357 -0.003084 -0.009610 -0.031884 0.060126 0.043560
# 6 -0.063599 -0.020484 -0.002863 -0.040659 0.043560 0.107354
#
#
# Mechanical properties :
#
#
# Convention : Reuss Voigt Hill
#
# Bulk Modulus (GPa) = 9.57565 47.62892 28.60229
# Shear Modulus (GPa) = 15.04090 37.47457 26.25773
#
# Velocity S-wave (km/s) = 2.60553 4.11270 3.44261
# Velocity P-wave (km/s) = 3.65701 6.63701 5.35834
#
# Compressibility (1/GPa) = 0.10443152
#
# Stress axis : x y z
#
# Youngs Moduli (GPa) = 15.62432 57.28097 114.07494
#
# Poissons Ratio (x) = -0.29989 -0.44761
# Poissons Ratio (y) = -0.08180 0.23463
# Poissons Ratio (z) = -0.06131 0.11782
#
# Static dielectric constant tensor:
#      x y z
#    x 1.987290 -0.062330 0.026020 
#    y -0.062330 1.798870 -0.006840 
#    z 0.026020 -0.006840 1.858730 
# 
# From -- ./inp_files/305529.got.cif
#   From: 2010.05.17/outbox.cif.g08.bks.cpg/sg2_153_cif.got.tgz:305529.got - 2010.06.03 11:33:40.
