data_PCOD9030288
_publ_section_title
;
Structure prediction by ZEFSAII (Michael W. Deem and Ramdas Pophale) SiO2 
 PCOD9030288
Probable space group: P -1
;
_chemical_formula_sum "Si O2"
_cell_formula_units_Z 16
_cell_length_a 9.505516
_cell_length_b 11.106038
_cell_length_c 19.626381
_cell_angle_alpha 145.830266
_cell_angle_beta 39.018875
_cell_angle_gamma 129.474819
_cell_volume 732.486032
_symmetry_space_group_name_H-M "P -1"
_symmetry_group_IT_number 2
_symmetry_cell_setting 'triclinic'
loop_
_space_group_symop_operation_xyz
x,y,z
-x,-y,-z
loop_
_atom_site_type_symbol
_atom_site_label
_atom_site_fract_x
_atom_site_fract_y
_atom_site_fract_z
Si Si1 0.936849 0.755679 0.636424
Si Si2 0.273037 0.080055 0.589283
Si Si3 0.747370 0.408898 0.851651
Si Si4 0.869609 0.366680 0.270179
Si Si5 0.939750 0.983121 0.154326
Si Si6 0.051506 0.502527 0.902288
Si Si7 0.583998 0.996315 0.648592
Si Si8 0.398015 0.336880 0.390074
O O1 0.701788 0.753570 0.683877
O O2 0.000000 0.500000 0.500000
O O3 0.093008 0.906533 0.601068
O O4 0.954758 0.876450 0.758788
O O5 0.245232 0.326487 0.737770
O O6 0.500000 0.000000 0.500000
O O7 0.290048 0.081110 0.502149
O O8 0.712570 0.191607 0.723295
O O9 0.913838 0.540170 0.802793
O O10 0.861149 0.399556 0.878311
O O11 0.500000 0.500000 0.000000
O O12 0.656013 0.400507 0.316675
O O13 0.773420 0.482165 0.429860
O O14 0.934447 0.126302 0.155629
O O15 0.673041 0.947315 0.249758
O O16 0.060208 0.752062 0.995439
O O17 0.000000 0.500000 0.000000
O O18 0.584605 0.827811 0.630735
#
# Coordination Sequence:
#
# PCOD9030288 Si02
#       8
#     2   2   2   2   2   2   2   2
#     4  12  23  40  70 106 148 190 240 300 371 432
#     4  12  25  44  78 107 142 193 249 311 368 437
#     4  12  26  46  75 108 146 194 245 306 365 444
#     4  10  23  44  72 101 146 189 242 304 367 429
#     4  11  23  46  68 105 150 188 236 304 372 444
#     4  12  25  46  71 104 152 192 237 301 377 440
#     4  11  23  45  72 107 138 188 254 302 363 433
#     4  10  22  42  70 107 141 187 248 306 357 435
#
# _framework density 21.843419999999998
#
# number of rings (size 3 to 8) (size 9 to 14) (size 15 to 20)
#    0.000    0.750    5.000    2.250    0.000    3.000 
#    0.000    1.250    2.750    2.250    0.000    0.000 
#    0.000    0.000    0.000    0.000    0.000    0.000 
#
# Total GULP energy -89377.759255 kJ/mol
# GULP energy per Si atom -5586.109953 kJ/mol
# Density = 2.179370 g / cm^3
# Si number density = 21.843420 Si / 1000 Ang^3
#
#
#
# Elastic Constant Matrix: (Units=GPa)
#
#
# Indices 1 2 3 4 5 6 
#
# 1 144.6036 21.1688 55.9530 13.3282 11.9501 15.1171
# 2 21.1688 124.4469 54.6518 12.9601 -5.5959 3.5276
# 3 55.9530 54.6518 152.6357 26.7178 3.1183 -6.5134
# 4 13.3282 12.9601 26.7178 34.9638 -0.4691 -2.1150
# 5 11.9501 -5.5959 3.1183 -0.4691 47.0763 5.3695
# 6 15.1171 3.5276 -6.5134 -2.1150 5.3695 35.2990
#
#
#
# Elastic Compliance Matrix: (Units=1/GPa)
#
#
# Indices 1 2 3 4 5 6 
#
# 1 0.008822 0.000080 -0.003196 -0.001226 -0.001550 -0.004214
# 2 0.000080 0.009781 -0.003452 -0.001115 0.001583 -0.001956
# 3 -0.003196 -0.003452 0.009981 -0.004935 -0.000693 0.003365
# 4 -0.001226 -0.001115 -0.004935 0.033360 0.000653 0.001626
# 5 -0.001550 0.001583 -0.000693 0.000653 0.022214 -0.002962
# 6 -0.004214 -0.001956 0.003365 0.001626 -0.002962 0.031498
#
#
# Mechanical properties :
#
#
# Convention : Reuss Voigt Hill
#
# Bulk Modulus (GPa) = 64.73501 76.13704 70.43602
# Shear Modulus (GPa) = 37.32993 42.79533 40.06263
#
# Velocity S-wave (km/s) = 4.13846 4.43107 4.28726
# Velocity P-wave (km/s) = 7.24818 7.81733 7.53813
#
# Compressibility (1/GPa) = 0.01544759
#
# Stress axis : x y z
#
# Youngs Moduli (GPa) = 113.35245 102.24251 100.19204
#
# Poissons Ratio (x) = -0.00823 0.32025
# Poissons Ratio (y) = -0.00912 0.34587
# Poissons Ratio (z) = 0.36231 0.35295
#
# Static dielectric constant tensor:
#      x y z
#    x -1.036480 1.251430 4.023590 
#    y 1.251430 1.285750 -1.757520 
#    z 4.023590 -1.757520 -3.964220 
# 
# From -- ./inp_files/589687.got.cif
#   From: 2010.05.17/outbox.cif.g08.bks.cpg/sg2_295_cif.got.tgz:589687.got - 2010.06.03 11:33:40.
