data_PCOD9030627
_publ_section_title
;
Structure prediction by ZEFSAII (Michael W. Deem and Ramdas Pophale) SiO2 
 PCOD9030627
Probable space group: P -1
;
_chemical_formula_sum "Si O2"
_cell_formula_units_Z 14
_cell_length_a 7.098742
_cell_length_b 8.401518
_cell_length_c 15.593025
_cell_angle_alpha 97.534866
_cell_angle_beta 114.948243
_cell_angle_gamma 126.970753
_cell_volume 570.756585
_symmetry_space_group_name_H-M "P -1"
_symmetry_group_IT_number 2
_symmetry_cell_setting 'triclinic'
loop_
_space_group_symop_operation_xyz
x,y,z
-x,-y,-z
loop_
_atom_site_type_symbol
_atom_site_label
_atom_site_fract_x
_atom_site_fract_y
_atom_site_fract_z
Si Si1 0.637401 0.250306 0.910990
Si Si2 0.597612 0.566912 0.206545
Si Si3 0.738591 0.836097 0.014952
Si Si4 0.832851 0.631780 0.599724
Si Si5 0.776321 0.236936 0.621453
Si Si6 0.234315 0.171494 0.250666
Si Si7 0.536113 0.027077 0.298554
O O1 0.488650 0.303189 0.825993
O O2 0.475073 0.162818 0.967836
O O3 0.556836 0.046599 0.824803
O O4 0.000000 0.500000 0.000000
O O5 0.379156 0.373217 0.224242
O O6 0.933787 0.716695 0.314623
O O7 0.506805 0.415122 0.093703
O O8 0.967033 0.914268 0.139833
O O9 0.000000 0.000000 0.000000
O O10 0.500000 0.500000 0.500000
O O11 0.844817 0.451902 0.614193
O O12 0.899438 0.788837 0.701505
O O13 0.114376 0.816521 0.603965
O O14 0.500000 0.000000 0.500000
O O15 0.672796 0.197340 0.697135
O O16 0.480827 0.180477 0.326198
#
# Coordination Sequence:
#
# PCOD9030627 Si02
#       7
#     2   2   2   2   2   2   2
#     4  12  24  44  73 113 152 195 249 306 373 449
#     4  11  24  45  73 105 151 191 244 303 371 442
#     4  10  22  42  72 105 147 192 236 302 372 441
#     4  12  28  48  75 108 146 195 252 306 374 440
#     4  12  28  48  77 109 147 197 250 308 373 442
#     4  11  23  48  73 108 147 190 243 313 369 445
#     4  12  26  47  77 107 148 196 249 304 376 439
#
# _framework density 24.528842999999998
#
# number of rings (size 3 to 8) (size 9 to 14) (size 15 to 20)
#    0.000    0.571    2.857    4.714    4.000    1.714 
#    0.000    5.000    0.000    0.000    0.000    0.000 
#    0.000    0.000    0.000    0.000    0.000    0.000 
#
# Total GULP energy -78157.316270 kJ/mol
# GULP energy per Si atom -5582.665448 kJ/mol
# Density = 2.447301 g / cm^3
# Si number density = 24.528843 Si / 1000 Ang^3
#
#
#
# Elastic Constant Matrix: (Units=GPa)
#
#
# Indices 1 2 3 4 5 6 
#
# 1 120.4777 35.4912 36.7036 4.1916 22.7715 8.4169
# 2 35.4912 93.9209 8.7167 2.3201 15.6447 10.2726
# 3 36.7036 8.7167 112.4517 16.5332 22.8829 -5.7101
# 4 4.1916 2.3201 16.5332 28.8551 4.0507 4.5941
# 5 22.7715 15.6447 22.8829 4.0507 55.4001 0.3091
# 6 8.4169 10.2726 -5.7101 4.5941 0.3091 50.5614
#
#
#
# Elastic Compliance Matrix: (Units=1/GPa)
#
#
# Indices 1 2 3 4 5 6 
#
# 1 0.010669 -0.003227 -0.002986 0.000988 -0.002304 -0.001533
# 2 -0.003227 0.012427 0.000502 -0.000183 -0.002366 -0.001900
# 3 -0.002986 0.000502 0.011498 -0.006102 -0.003230 0.002268
# 4 0.000988 -0.000183 -0.006102 0.038805 -0.000647 -0.004338
# 5 -0.002304 -0.002366 -0.003230 -0.000647 0.021045 0.000430
# 6 -0.001533 -0.001900 0.002268 -0.004338 0.000430 0.021067
#
#
# Mechanical properties :
#
#
# Convention : Reuss Voigt Hill
#
# Bulk Modulus (GPa) = 43.15836 54.29701 48.72768
# Shear Modulus (GPa) = 37.13118 43.35924 40.24521
#
# Velocity S-wave (km/s) = 3.89495 4.20894 4.05499
# Velocity P-wave (km/s) = 6.15310 6.76789 6.46780
#
# Compressibility (1/GPa) = 0.02317048
#
# Stress axis : x y z
#
# Youngs Moduli (GPa) = 93.72846 80.47212 86.97026
#
# Poissons Ratio (x) = 0.25972 0.25973
# Poissons Ratio (y) = 0.30250 -0.04367
# Poissons Ratio (z) = 0.27992 -0.04041
#
# Static dielectric constant tensor:
#      x y z
#    x 2.016140 0.000810 -0.041880 
#    y 0.000810 1.999780 0.017540 
#    z -0.041880 0.017540 1.996800 
# 
# From -- ./inp_files/134138.got.cif
#   From: 2010.05.17/outbox.cif.g08.bks.cpg/sg2_68_cif.got.tgz:134138.got - 2010.06.03 11:33:40.
