data_PCOD9030837
_publ_section_title
;
Structure prediction by ZEFSAII (Michael W. Deem and Ramdas Pophale) SiO2 
 PCOD9030837
Probable space group: P -1
;
_chemical_formula_sum "Si O2"
_cell_formula_units_Z 16
_cell_length_a 9.328948
_cell_length_b 18.347202
_cell_length_c 9.311621
_cell_angle_alpha 122.724780
_cell_angle_beta 47.192610
_cell_angle_gamma 137.696496
_cell_volume 784.644286
_symmetry_space_group_name_H-M "P -1"
_symmetry_group_IT_number 2
_symmetry_cell_setting 'triclinic'
loop_
_space_group_symop_operation_xyz
x,y,z
-x,-y,-z
loop_
_atom_site_type_symbol
_atom_site_label
_atom_site_fract_x
_atom_site_fract_y
_atom_site_fract_z
Si Si1 0.911858 0.678834 0.279681
Si Si2 0.116736 0.860591 0.105129
Si Si3 0.665107 0.320046 0.893104
Si Si4 0.278637 0.467762 0.015215
Si Si5 0.396833 0.195665 0.677327
Si Si6 0.535979 0.708646 0.683404
Si Si7 0.588786 0.908191 0.703336
Si Si8 0.836572 0.393556 0.402116
O O1 0.087864 0.783241 0.169519
O O2 0.075637 0.656799 0.234256
O O3 0.370784 0.701036 0.455095
O O4 0.759599 0.703428 0.506925
O O5 0.845966 0.810010 0.176198
O O6 0.223412 0.976235 0.227346
O O7 0.320335 0.879155 0.876458
O O8 0.489431 0.217153 0.799630
O O9 0.703866 0.425238 0.911704
O O10 0.546103 0.300193 0.108616
O O11 0.970171 0.618429 0.818921
O O12 0.261817 0.416428 0.818585
O O13 0.500000 0.500000 0.000000
O O14 0.352227 0.097558 0.508868
O O15 0.593449 0.817251 0.687213
O O16 0.314575 0.609777 0.633319
O O17 0.000000 0.500000 0.500000
#
# Coordination Sequence:
#
# PCOD9030837 Si02
#       8
#     2   2   2   2   2   2   2   2
#     4  12  23  41  65  94 133 176 214 273 335 380
#     4  11  21  43  76  99 124 175 224 273 330 385
#     4  12  26  43  61  97 141 171 213 274 333 391
#     4  12  25  42  67  94 132 177 226 272 322 392
#     4  11  23  41  68  98 132 172 219 274 319 397
#     4  11  24  41  66  97 133 174 217 272 331 391
#     4  10  22  42  76 100 126 168 231 270 322 405
#     4  11  20  40  65  94 127 170 226 265 312 391
#
# _framework density 20.391406
#
# number of rings (size 3 to 8) (size 9 to 14) (size 15 to 20)
#    0.000    0.750    6.250    3.000    0.000    2.500 
#    0.000    1.250    0.000    0.000    0.000    0.000 
#    0.000    0.000    0.000    0.000    0.000    0.000 
#
# Total GULP energy -89409.983516 kJ/mol
# GULP energy per Si atom -5588.123970 kJ/mol
# Density = 2.034499 g / cm^3
# Si number density = 20.391406 Si / 1000 Ang^3
#
#
#
# Elastic Constant Matrix: (Units=GPa)
#
#
# Indices 1 2 3 4 5 6 
#
# 1 143.4207 34.5196 57.6431 10.4070 -7.1870 -6.4420
# 2 34.5196 54.8154 7.9325 19.9211 -2.3382 1.9629
# 3 57.6431 7.9325 131.4738 8.4901 -1.5256 -5.9714
# 4 10.4070 19.9211 8.4901 32.8826 2.1747 -3.9041
# 5 -7.1870 -2.3382 -1.5256 2.1747 44.6607 -3.0304
# 6 -6.4420 1.9629 -5.9714 -3.9041 -3.0304 20.2684
#
#
#
# Elastic Compliance Matrix: (Units=1/GPa)
#
#
# Indices 1 2 3 4 5 6 
#
# 1 0.010293 -0.006756 -0.004081 0.002201 0.001283 0.003339
# 2 -0.006756 0.028540 0.001985 -0.016596 0.000780 -0.007407
# 3 -0.004081 0.001985 0.009459 -0.002247 -0.000062 0.000855
# 4 0.002201 -0.016596 -0.002247 0.041591 -0.001982 0.009360
# 5 0.001283 0.000780 -0.000062 -0.001982 0.022961 0.003365
# 6 0.003339 -0.007407 0.000855 0.009360 0.003365 0.053675
#
#
# Mechanical properties :
#
#
# Convention : Reuss Voigt Hill
#
# Bulk Modulus (GPa) = 32.69342 58.87779 45.78561
# Shear Modulus (GPa) = 25.71744 34.86997 30.29371
#
# Velocity S-wave (km/s) = 3.55518 4.13974 3.85854
# Velocity P-wave (km/s) = 5.73761 7.19628 6.50794
#
# Compressibility (1/GPa) = 0.03058719
#
# Stress axis : x y z
#
# Youngs Moduli (GPa) = 97.14933 35.03818 105.72142
#
# Poissons Ratio (x) = 0.23673 0.43144
# Poissons Ratio (y) = 0.65637 -0.20981
# Poissons Ratio (z) = 0.39646 -0.06954
#
# Static dielectric constant tensor:
#      x y z
#    x 1.731330 0.029730 0.011380 
#    y 0.029730 1.755880 0.016890 
#    z 0.011380 0.016890 1.772140 
# 
# From -- ./inp_files/215437.got.cif
#   From: 2010.05.17/outbox.cif.g08.bks.cpg/sg2_108_cif.got.tgz:215437.got - 2010.06.03 11:33:40.
