data_PCOD9030499
_publ_section_title
;
Structure prediction by ZEFSAII (Michael W. Deem and Ramdas Pophale) SiO2 
 PCOD9030499
Probable space group: P -1
;
_chemical_formula_sum "Si O2"
_cell_formula_units_Z 13
_cell_length_a 5.604519
_cell_length_b 5.424620
_cell_length_c 18.374593
_cell_angle_alpha 63.084539
_cell_angle_beta 90.640562
_cell_angle_gamma 79.327614
_cell_volume 486.615517
_symmetry_space_group_name_H-M "P -1"
_symmetry_group_IT_number 2
_symmetry_cell_setting 'triclinic'
loop_
_space_group_symop_operation_xyz
x,y,z
-x,-y,-z
loop_
_atom_site_type_symbol
_atom_site_label
_atom_site_fract_x
_atom_site_fract_y
_atom_site_fract_z
Si Si1 0.500000 0.500000 0.000000
Si Si2 0.023434 0.734807 0.877457
Si Si3 0.353799 0.905674 0.730218
Si Si4 0.058801 0.680036 0.406955
Si Si5 0.812009 0.202382 0.920347
Si Si6 0.550873 0.440202 0.681657
Si Si7 0.280446 0.843426 0.510071
O O1 0.217018 0.598690 0.958535
O O2 0.564174 0.308824 0.949748
O O3 0.187038 0.855861 0.803464
O O4 0.908059 0.493307 0.871442
O O5 0.824227 0.993333 0.878643
O O6 0.493192 0.616705 0.731839
O O7 0.522676 0.117845 0.727539
O O8 0.164414 0.072647 0.647475
O O9 0.186628 0.536125 0.353905
O O10 0.284602 0.782319 0.432351
O O11 0.000000 0.500000 0.500000
O O12 0.000000 0.000000 0.000000
O O13 0.345931 0.591796 0.602083
O O14 0.500000 0.000000 0.500000
O O15 0.000000 0.000000 0.500000
#
# Coordination Sequence:
#
# PCOD9030499 Si02
#       7
#     1   2   2   2   2   2   2
#     4  10  22  42  76 100 142 182 236 282 362 426
#     4  11  25  44  69 106 147 186 236 297 358 446
#     4  12  28  47  69 104 147 191 244 306 376 448
#     4  12  26  46  73 104 145 195 257 322 385 448
#     4  10  22  42  71 108 138 181 236 289 352 433
#     4  12  27  45  72 102 142 192 252 306 382 451
#     4  12  24  44  76 106 145 191 263 323 387 453
#
# _framework density 26.715138
#
# number of rings (size 3 to 8) (size 9 to 14) (size 15 to 20)
#    0.000    0.615    3.077    5.077    0.000    9.231 
#    0.000    0.000    0.000    0.000    0.000    0.000 
#    0.000    0.000    0.000    0.000    0.000    0.000 
#
# Total GULP energy -72555.132267 kJ/mol
# GULP energy per Si atom -5581.164021 kJ/mol
# Density = 2.665433 g / cm^3
# Si number density = 26.715138 Si / 1000 Ang^3
#
#
#
# Elastic Constant Matrix: (Units=GPa)
#
#
# Indices 1 2 3 4 5 6 
#
# 1 103.7231 58.7051 42.4496 3.7246 -4.0826 -18.9825
# 2 58.7051 214.3724 35.6373 26.2778 -30.4827 -18.6772
# 3 42.4496 35.6373 85.8361 11.9386 -9.3171 6.6168
# 4 3.7246 26.2778 11.9386 37.7636 -2.2904 -21.7375
# 5 -4.0826 -30.4827 -9.3171 -2.2904 60.5886 13.9746
# 6 -18.9825 -18.6772 6.6168 -21.7375 13.9746 59.7890
#
#
#
# Elastic Compliance Matrix: (Units=1/GPa)
#
#
# Indices 1 2 3 4 5 6 
#
# 1 0.016866 -0.003987 -0.009131 0.009165 -0.004097 0.009410
# 2 -0.003987 0.006640 0.000473 -0.005302 0.003398 -0.001966
# 3 -0.009131 0.000473 0.018669 -0.010652 0.004328 -0.009702
# 4 0.009165 -0.005302 -0.010652 0.043660 -0.006616 0.019852
# 5 -0.004097 0.003398 0.004328 -0.006616 0.020161 -0.007836
# 6 0.009410 -0.001966 -0.009702 0.019852 -0.007836 0.029222
#
#
# Mechanical properties :
#
#
# Convention : Reuss Voigt Hill
#
# Bulk Modulus (GPa) = 59.22473 75.27950 67.25212
# Shear Modulus (GPa) = 30.09600 49.43754 39.76677
#
# Velocity S-wave (km/s) = 3.36006 4.30646 3.86236
# Velocity P-wave (km/s) = 6.10495 7.27786 6.71706
#
# Compressibility (1/GPa) = 0.01688484
#
# Stress axis : x y z
#
# Youngs Moduli (GPa) = 59.29028 150.60649 53.56616
#
# Poissons Ratio (x) = 0.60050 0.48909
# Poissons Ratio (y) = 0.23640 -0.02533
# Poissons Ratio (z) = 0.54135 -0.07122
#
# Static dielectric constant tensor:
#      x y z
#    x 2.121630 0.137640 -0.065460 
#    y 0.137640 2.345250 0.008620 
#    z -0.065460 0.008620 2.172470 
# 
# From -- ./inp_files/580403.got.cif
#   From: 2010.05.17/outbox.cif.g08.bks.cpg/sg2_291_cif.got.tgz:580403.got - 2010.06.03 11:33:40.
