data_PCOD9030430
_publ_section_title
;
Structure prediction by ZEFSAII (Michael W. Deem and Ramdas Pophale) SiO2 
 PCOD9030430
Probable space group: P -1
;
_chemical_formula_sum "Si O2"
_cell_formula_units_Z 16
_cell_length_a 14.898337
_cell_length_b 12.382110
_cell_length_c 8.811711
_cell_angle_alpha 72.687298
_cell_angle_beta 126.416592
_cell_angle_gamma 63.130450
_cell_volume 717.924646
_symmetry_space_group_name_H-M "P -1"
_symmetry_group_IT_number 2
_symmetry_cell_setting 'triclinic'
loop_
_space_group_symop_operation_xyz
x,y,z
-x,-y,-z
loop_
_atom_site_type_symbol
_atom_site_label
_atom_site_fract_x
_atom_site_fract_y
_atom_site_fract_z
Si Si1 0.612130 0.898369 0.497688
Si Si2 0.415780 0.679699 0.260318
Si Si3 0.856637 0.833089 0.562539
Si Si4 0.010853 0.916686 0.199208
Si Si5 0.920808 0.409355 0.613934
Si Si6 0.205079 0.862470 0.687486
Si Si7 0.783338 0.525695 0.761916
Si Si8 0.749458 0.769668 0.195398
O O1 0.741088 0.895530 0.572453
O O2 0.744549 0.678862 0.730588
O O3 0.500000 0.000000 0.500000
O O4 0.459160 0.014411 0.157157
O O5 0.500000 0.500000 0.500000
O O6 0.579550 0.637519 0.469559
O O7 0.377244 0.681331 0.045063
O O8 0.206609 0.891389 0.028229
O O9 0.822880 0.768266 0.424239
O O10 0.782858 0.012917 0.354550
O O11 0.081264 0.656264 0.911155
O O12 0.065949 0.737723 0.324749
O O13 0.176271 0.836751 0.502956
O O14 0.000000 0.000000 0.000000
O O15 0.895525 0.449968 0.749222
O O16 0.756345 0.627476 0.281521
O O17 0.108893 0.306991 0.765357
O O18 0.000000 0.000000 0.500000
#
# Coordination Sequence:
#
# PCOD9030430 Si02
#       8
#     2   2   2   2   2   2   2   2
#     4  12  27  45  66 103 141 179 238 288 354 417
#     4  11  24  45  70 101 139 185 236 289 349 414
#     4  12  24  44  73 102 138 188 234 286 356 415
#     4  11  23  46  72 102 139 185 235 295 349 416
#     4  11  24  42  71  98 143 182 231 281 358 414
#     4  10  22  42  70  99 135 180 231 283 343 413
#     4  12  25  44  68  99 142 183 230 289 349 420
#     4  11  25  44  70 101 140 184 230 290 349 425
#
# _framework density 22.286460999999999
#
# number of rings (size 3 to 8) (size 9 to 14) (size 15 to 20)
#    0.000    0.750    1.250    7.500    5.250    1.000 
#    0.000    3.750    0.000    0.000    0.000    0.000 
#    0.000    0.000    0.000    0.000    0.000    0.000 
#
# Total GULP energy -89426.109244 kJ/mol
# GULP energy per Si atom -5589.131828 kJ/mol
# Density = 2.223574 g / cm^3
# Si number density = 22.286461 Si / 1000 Ang^3
#
#
#
# Elastic Constant Matrix: (Units=GPa)
#
#
# Indices 1 2 3 4 5 6 
#
# 1 112.3943 43.3283 31.9181 2.9596 -12.6006 5.3155
# 2 43.3283 113.0186 31.2322 -7.8076 -16.5519 6.5677
# 3 31.9181 31.2322 141.2443 16.9414 -16.9870 8.0804
# 4 2.9596 -7.8076 16.9414 28.8425 7.2048 -7.3066
# 5 -12.6006 -16.5519 -16.9870 7.2048 40.1500 -10.0678
# 6 5.3155 6.5677 8.0804 -7.3066 -10.0678 42.9124
#
#
#
# Elastic Compliance Matrix: (Units=1/GPa)
#
#
# Indices 1 2 3 4 5 6 
#
# 1 0.010930 -0.003733 -0.001185 -0.001970 0.001614 -0.000516
# 2 -0.003733 0.011385 -0.001948 0.004174 0.002017 0.000270
# 3 -0.001185 -0.001948 0.009150 -0.007086 0.003554 -0.001651
# 4 -0.001970 0.004174 -0.007086 0.043843 -0.008134 0.006496
# 5 0.001614 0.002017 0.003554 -0.008134 0.030351 0.004558
# 6 -0.000516 0.000270 -0.001651 0.006496 0.004558 0.025812
#
#
# Mechanical properties :
#
#
# Convention : Reuss Voigt Hill
#
# Bulk Modulus (GPa) = 56.38259 64.40158 60.39209
# Shear Modulus (GPa) = 33.08791 39.72624 36.40708
#
# Velocity S-wave (km/s) = 3.85731 4.22658 4.04616
# Velocity P-wave (km/s) = 6.72253 7.26488 6.99896
#
# Compressibility (1/GPa) = 0.01773597
#
# Stress axis : x y z
#
# Youngs Moduli (GPa) = 91.49283 87.83286 109.28812
#
# Poissons Ratio (x) = 0.32784 0.12946
# Poissons Ratio (y) = 0.34150 0.21284
# Poissons Ratio (z) = 0.10838 0.17106
#
# Static dielectric constant tensor:
#      x y z
#    x 1.838540 -0.002480 0.004650 
#    y -0.002480 1.851270 -0.029620 
#    z 0.004650 -0.029620 1.940250 
# 
# From -- ./inp_files/307163.got.cif
#   From: 2010.05.17/outbox.cif.g08.bks.cpg/sg2_154_cif.got.tgz:307163.got - 2010.06.03 11:33:40.
