data_PCOD9030958
_publ_section_title
;
Structure prediction by ZEFSAII (Michael W. Deem and Ramdas Pophale) SiO2 
 PCOD9030958
Probable space group: P -1
;
_chemical_formula_sum "Si O2"
_cell_formula_units_Z 16
_cell_length_a 10.238034
_cell_length_b 9.569873
_cell_length_c 14.923617
_cell_angle_alpha 143.536377
_cell_angle_beta 73.323480
_cell_angle_gamma 119.642547
_cell_volume 737.678521
_symmetry_space_group_name_H-M "P -1"
_symmetry_group_IT_number 2
_symmetry_cell_setting 'triclinic'
loop_
_space_group_symop_operation_xyz
x,y,z
-x,-y,-z
loop_
_atom_site_type_symbol
_atom_site_label
_atom_site_fract_x
_atom_site_fract_y
_atom_site_fract_z
Si Si1 0.797081 0.931597 0.812235
Si Si2 0.348111 0.682071 0.655221
Si Si3 0.711302 0.856515 0.354898
Si Si4 0.485321 0.557885 0.386134
Si Si5 0.793466 0.256969 0.826753
Si Si6 0.976099 0.705591 0.549066
Si Si7 0.129514 0.499611 0.875100
Si Si8 0.481028 0.221304 0.826776
O O1 0.668269 0.667456 0.746635
O O2 0.933577 0.882122 0.718777
O O3 0.731294 0.990631 0.761813
O O4 0.834756 0.197859 0.997575
O O5 0.420276 0.645213 0.528743
O O6 0.422522 0.594054 0.674333
O O7 0.169612 0.471686 0.575480
O O8 0.392011 0.990663 0.799349
O O9 0.596676 0.806112 0.433491
O O10 0.755857 0.615842 0.231662
O O11 0.618270 0.845835 0.278168
O O12 0.874093 0.115131 0.445646
O O13 0.653542 0.254461 0.800029
O O14 0.955295 0.309581 0.779395
O O15 0.852968 0.482679 0.009804
O O16 0.000000 0.500000 0.500000
O O17 0.500000 0.500000 0.000000
#
# Coordination Sequence:
#
# PCOD9030958 Si02
#       8
#     2   2   2   2   2   2   2   2
#     4   9  17  36  59  84 118 169 198 235 312 369
#     4  10  22  43  63  84 120 169 209 236 327 376
#     4  12  23  38  62 100 124 151 218 263 304 342
#     4  10  23  39  64  90 119 163 209 265 295 371
#     4   9  16  32  59  86 112 166 201 236 298 366
#     4  11  21  37  62  90 123 166 202 256 305 376
#     4   9  17  33  60  87 119 158 207 251 288 373
#     4  12  22  37  62  96 125 160 202 259 306 371
#
# _framework density 21.689664
#
# number of rings (size 3 to 8) (size 9 to 14) (size 15 to 20)
#    0.750    1.000    5.000    0.000    0.000    1.500 
#    0.000    0.000    0.000    0.750    0.000    0.000 
#    0.000    0.000    0.000    0.000    0.000    0.000 
#
# Total GULP energy -89185.669505 kJ/mol
# GULP energy per Si atom -5574.104344 kJ/mol
# Density = 2.164030 g / cm^3
# Si number density = 21.689664 Si / 1000 Ang^3
#
#
#
# Elastic Constant Matrix: (Units=GPa)
#
#
# Indices 1 2 3 4 5 6 
#
# 1 119.6000 33.4038 13.1021 11.1249 7.9329 20.5847
# 2 33.4038 102.2200 21.3772 21.7994 7.0399 27.0683
# 3 13.1021 21.3772 57.4564 32.1460 -2.1427 3.4880
# 4 11.1249 21.7994 32.1460 24.8722 3.0092 2.3407
# 5 7.9329 7.0399 -2.1427 3.0092 28.6976 14.5124
# 6 20.5847 27.0683 3.4880 2.3407 14.5124 24.3329
#
#
#
# Elastic Compliance Matrix: (Units=1/GPa)
#
#
# Indices 1 2 3 4 5 6 
#
# 1 0.010334 0.000384 0.002680 -0.007828 0.003609 -0.010953
# 2 0.000384 0.022863 0.017440 -0.041603 0.017492 -0.034689
# 3 0.002680 0.017440 0.085763 -0.127678 0.036850 -0.043657
# 4 -0.007828 -0.041603 -0.127678 0.245064 -0.067221 0.087721
# 5 0.003609 0.017492 0.036850 -0.067221 0.071797 -0.064148
# 6 -0.010953 -0.034689 -0.043657 0.087721 -0.064148 0.125028
#
#
# Mechanical properties :
#
#
# Convention : Reuss Voigt Hill
#
# Bulk Modulus (GPa) = 6.25127 46.11586 26.18356
# Shear Modulus (GPa) = 8.72348 29.67343 19.19846
#
# Velocity S-wave (km/s) = 2.00766 3.70278 2.97836
# Velocity P-wave (km/s) = 2.87448 6.29195 4.89138
#
# Compressibility (1/GPa) = 0.15996758
#
# Stress axis : x y z
#
# Youngs Moduli (GPa) = 96.76462 43.73802 11.66007
#
# Poissons Ratio (x) = -0.01678 -0.03125
# Poissons Ratio (y) = -0.03713 -0.20335
# Poissons Ratio (z) = -0.25931 -0.76279
#
# Static dielectric constant tensor:
#      x y z
#    x 1.839540 0.038460 -0.002720 
#    y 0.038460 1.826760 -0.015640 
#    z -0.002720 -0.015640 1.910440 
# 
# From -- ./inp_files/565584.got.cif
#   From: 2010.05.17/outbox.cif.g08.bks.cpg/sg2_283_cif.got.tgz:565584.got - 2010.06.03 11:33:40.
