data_PCOD9030013
_publ_section_title
;
Structure prediction by ZEFSAII (Michael W. Deem and Ramdas Pophale) SiO2 
 PCOD9030013
Probable space group: P -1
;
_chemical_formula_sum "Si O2"
_cell_formula_units_Z 14
_cell_length_a 5.841317
_cell_length_b 10.006244
_cell_length_c 17.956995
_cell_angle_alpha 142.018240
_cell_angle_beta 103.495291
_cell_angle_gamma 91.430647
_cell_volume 588.572554
_symmetry_space_group_name_H-M "P -1"
_symmetry_group_IT_number 2
_symmetry_cell_setting 'triclinic'
loop_
_space_group_symop_operation_xyz
x,y,z
-x,-y,-z
loop_
_atom_site_type_symbol
_atom_site_label
_atom_site_fract_x
_atom_site_fract_y
_atom_site_fract_z
Si Si1 0.803064 0.059074 0.569165
Si Si2 0.131213 0.427427 0.157613
Si Si3 0.489877 0.295783 0.049834
Si Si4 0.860928 0.519093 0.571726
Si Si5 0.141356 0.794354 0.840290
Si Si6 0.351895 0.125698 0.363247
Si Si7 0.216328 0.693160 0.057165
O O1 0.903405 0.335852 0.715969
O O2 0.500000 0.000000 0.500000
O O3 0.792879 0.939081 0.597330
O O4 0.000000 0.000000 0.500000
O O5 0.396528 0.487180 0.163621
O O6 0.113158 0.262424 0.155064
O O7 0.942294 0.278481 0.014464
O O8 0.682442 0.258342 0.107939
O O9 0.573363 0.358219 0.999038
O O10 0.274703 0.042060 0.923521
O O11 0.637472 0.285121 0.472218
O O12 0.748448 0.719774 0.632196
O O13 0.000000 0.500000 0.500000
O O14 0.067120 0.603978 0.687864
O O15 0.330009 0.901304 0.214197
O O16 0.000000 0.500000 0.000000
#
# Coordination Sequence:
#
# PCOD9030013 Si02
#       7
#     2   2   2   2   2   2   2
#     4  12  30  50  76 108 152 202 255 308 377 459
#     4  11  24  44  74 104 140 194 236 309 371 444
#     4  10  23  41  72 106 143 187 240 304 372 446
#     4  11  25  44  72 102 144 191 245 310 371 445
#     4  10  22  42  69 107 143 183 244 301 372 437
#     4  11  26  47  71 107 143 195 247 309 379 443
#     4  11  23  45  67 104 144 184 243 299 373 442
#
# _framework density 23.786362
#
# number of rings (size 3 to 8) (size 9 to 14) (size 15 to 20)
#    0.000    1.143    1.429    3.000    8.000    5.143 
#    0.000    0.000    0.000    0.000    0.000    0.000 
#    0.000    0.000    0.000    0.000    0.000    0.000 
#
# Total GULP energy -78082.510689 kJ/mol
# GULP energy per Si atom -5577.322192 kJ/mol
# Density = 2.373222 g / cm^3
# Si number density = 23.786362 Si / 1000 Ang^3
#
#
#
# Elastic Constant Matrix: (Units=GPa)
#
#
# Indices 1 2 3 4 5 6 
#
# 1 91.8546 46.7351 52.2193 -5.9054 -26.4034 30.1182
# 2 46.7351 153.4209 67.7350 -7.9146 -13.2331 44.4289
# 3 52.2193 67.7350 155.0132 -5.2111 -7.7691 22.3365
# 4 -5.9054 -7.9146 -5.2111 44.8165 10.9794 -4.5885
# 5 -26.4034 -13.2331 -7.7691 10.9794 36.9768 -13.0168
# 6 30.1182 44.4289 22.3365 -4.5885 -13.0168 44.8689
#
#
#
# Elastic Compliance Matrix: (Units=1/GPa)
#
#
# Indices 1 2 3 4 5 6 
#
# 1 0.019067 -0.001070 -0.004530 -0.001422 0.010372 -0.006621
# 2 -0.001070 0.010606 -0.003078 0.000705 -0.000784 -0.008407
# 3 -0.004530 -0.003078 0.009089 0.000568 -0.002254 0.000968
# 4 -0.001422 0.000705 0.000568 0.024241 -0.007772 0.000198
# 5 0.010372 -0.000784 -0.002254 -0.007772 0.037802 0.005108
# 6 -0.006621 -0.008407 0.000968 0.000198 0.005108 0.036076
#
#
# Mechanical properties :
#
#
# Convention : Reuss Voigt Hill
#
# Bulk Modulus (GPa) = 46.71456 81.51860 64.11658
# Shear Modulus (GPa) = 30.98438 40.90572 35.94505
#
# Velocity S-wave (km/s) = 3.61309 4.15144 3.89158
# Velocity P-wave (km/s) = 6.08997 7.57132 6.87068
#
# Compressibility (1/GPa) = 0.02140660
#
# Stress axis : x y z
#
# Youngs Moduli (GPa) = 52.44653 94.28312 110.02718
#
# Poissons Ratio (x) = 0.10086 0.49838
# Poissons Ratio (y) = 0.05611 0.33870
# Poissons Ratio (z) = 0.23756 0.29024
#
# Static dielectric constant tensor:
#      x y z
#    x 2.132650 -0.067700 0.092630 
#    y -0.067700 1.844660 0.107040 
#    z 0.092630 0.107040 1.848140 
# 
# From -- ./inp_files/549317.got.cif
#   From: 2010.05.17/outbox.cif.g08.bks.cpg/sg2_275_cif.got.tgz:549317.got - 2010.06.03 11:33:40.
