data_PCOD9030566
_publ_section_title
;
Structure prediction by ZEFSAII (Michael W. Deem and Ramdas Pophale) SiO2 
 PCOD9030566
Probable space group: P -1
;
_chemical_formula_sum "Si O2"
_cell_formula_units_Z 13
_cell_length_a 14.650817
_cell_length_b 22.893159
_cell_length_c 14.623358
_cell_angle_alpha 21.505891
_cell_angle_beta 31.921145
_cell_angle_gamma 18.441575
_cell_volume 544.060050
_symmetry_space_group_name_H-M "P -1"
_symmetry_group_IT_number 2
_symmetry_cell_setting 'triclinic'
loop_
_space_group_symop_operation_xyz
x,y,z
-x,-y,-z
loop_
_atom_site_type_symbol
_atom_site_label
_atom_site_fract_x
_atom_site_fract_y
_atom_site_fract_z
Si Si1 0.726832 0.205791 0.688196
Si Si2 0.913069 0.485928 0.450396
Si Si3 0.500000 0.500000 0.000000
Si Si4 0.199312 0.785556 0.060370
Si Si5 0.812104 0.443768 0.969435
Si Si6 0.863060 0.961036 0.568693
Si Si7 0.429029 0.032061 0.822402
O O1 0.500000 0.500000 0.500000
O O2 0.861585 0.183973 0.515274
O O3 0.566928 0.157105 0.882248
O O4 0.024915 0.943961 0.880146
O O5 0.765585 0.428355 0.638256
O O6 0.693844 0.773176 0.271085
O O7 0.190025 0.234672 0.648766
O O8 0.051597 0.483253 0.253829
O O9 0.724178 0.461265 0.916122
O O10 0.607868 0.285137 0.296124
O O11 0.505214 0.652797 0.982808
O O12 0.000000 0.000000 0.000000
O O13 0.043761 0.146646 0.250907
O O14 0.738329 0.886418 0.745632
#
# Coordination Sequence:
#
# PCOD9030566 Si02
#       7
#     2   2   1   2   2   2   2
#     4  11  24  44  71 101 143 189 236 291 349 419
#     4  10  22  42  71  99 137 184 230 291 355 412
#     4  12  22  44  66 102 148 174 228 288 342 422
#     4  11  24  44  71 101 143 189 236 291 349 419
#     4  12  25  42  70 103 140 187 230 289 355 415
#     4  12  25  42  70 103 140 187 230 289 355 415
#     4  10  22  42  71  99 137 184 230 291 355 412
#
# _framework density 23.894421000000001
#
# number of rings (size 3 to 8) (size 9 to 14) (size 15 to 20)
#    0.000    0.923    3.077    3.231    4.308    4.308 
#    0.000    0.000    0.000    0.000    0.000    0.000 
#    0.000    0.000    0.000    0.000    0.000    0.000 
#
# Total GULP energy -72574.710461 kJ/mol
# GULP energy per Si atom -5582.670035 kJ/mol
# Density = 2.384004 g / cm^3
# Si number density = 23.894421 Si / 1000 Ang^3
#
#
#
# Elastic Constant Matrix: (Units=GPa)
#
#
# Indices 1 2 3 4 5 6 
#
# 1 56.9118 24.0389 41.0161 4.8657 8.0070 -1.8856
# 2 24.0389 102.5703 82.7144 31.4746 -12.8187 -1.2813
# 3 41.0161 82.7144 187.8877 31.1738 -18.4199 -1.0016
# 4 4.8657 31.4746 31.1738 47.9357 -13.3260 0.9663
# 5 8.0070 -12.8187 -18.4199 -13.3260 55.2203 -8.2521
# 6 -1.8856 -1.2813 -1.0016 0.9663 -8.2521 30.0624
#
#
#
# Elastic Compliance Matrix: (Units=1/GPa)
#
#
# Indices 1 2 3 4 5 6 
#
# 1 0.022505 -0.002644 -0.004405 0.000883 -0.005178 -0.000298
# 2 -0.002644 0.017341 -0.005783 -0.007128 0.000887 0.000853
# 3 -0.004405 -0.005783 0.009238 -0.001172 0.002157 0.000415
# 4 0.000883 -0.007128 -0.001172 0.027453 0.004459 0.000054
# 5 -0.005178 0.000887 0.002157 0.004459 0.021698 0.005598
# 6 -0.000298 0.000853 0.000415 0.000054 0.005598 0.034831
#
#
# Mechanical properties :
#
#
# Convention : Reuss Voigt Hill
#
# Bulk Modulus (GPa) = 42.69636 71.43429 57.06532
# Shear Modulus (GPa) = 30.02351 39.95038 34.98695
#
# Velocity S-wave (km/s) = 3.54857 4.09339 3.83068
# Velocity P-wave (km/s) = 5.89045 7.23200 6.59542
#
# Compressibility (1/GPa) = 0.02342120
#
# Stress axis : x y z
#
# Youngs Moduli (GPa) = 44.43374 57.66607 108.25133
#
# Poissons Ratio (x) = 0.15249 0.47679
# Poissons Ratio (y) = 0.11750 0.62599
# Poissons Ratio (z) = 0.19571 0.33347
#
# Static dielectric constant tensor:
#      x y z
#    x 1.904080 -0.065940 -0.007430 
#    y -0.065940 1.926990 0.006670 
#    z -0.007430 0.006670 1.905560 
# 
# From -- ./inp_files/535304.got.cif
#   From: 2010.05.17/outbox.cif.g08.bks.cpg/sg2_268_cif.got.tgz:535304.got - 2010.06.03 11:33:40.
