data_PCOD9030889
_publ_section_title
;
Structure prediction by ZEFSAII (Michael W. Deem and Ramdas Pophale) SiO2 
 PCOD9030889
Probable space group: P -1
;
_chemical_formula_sum "Si O2"
_cell_formula_units_Z 12
_cell_length_a 5.258663
_cell_length_b 8.416756
_cell_length_c 16.853682
_cell_angle_alpha 61.853860
_cell_angle_beta 96.954337
_cell_angle_gamma 117.491870
_cell_volume 578.997766
_symmetry_space_group_name_H-M "P -1"
_symmetry_group_IT_number 2
_symmetry_cell_setting 'triclinic'
loop_
_space_group_symop_operation_xyz
x,y,z
-x,-y,-z
loop_
_atom_site_type_symbol
_atom_site_label
_atom_site_fract_x
_atom_site_fract_y
_atom_site_fract_z
Si Si1 0.054143 0.521490 0.750528
Si Si2 0.019681 0.610085 0.892711
Si Si3 0.633475 0.367332 0.478126
Si Si4 0.846535 0.245923 0.653456
Si Si5 0.601718 0.784386 0.788802
Si Si6 0.015727 0.214343 0.430567
O O1 0.401228 0.621187 0.752742
O O2 0.930723 0.457990 0.848964
O O3 0.914528 0.351930 0.717714
O O4 0.008913 0.714782 0.675578
O O5 0.814951 0.715905 0.855439
O O6 0.350433 0.765299 0.845390
O O7 0.000000 0.500000 0.000000
O O8 0.602716 0.266045 0.586964
O O9 0.340407 0.354959 0.438165
O O10 0.873870 0.601092 0.422569
O O11 0.766429 0.248060 0.457472
O O12 0.771086 0.012814 0.709851
O O13 0.000000 0.000000 0.500000
#
# Coordination Sequence:
#
# PCOD9030889 Si02
#       6
#     2   2   2   2   2   2
#     4   9  24  38  65  91 124 164 206 257 306 365
#     4  10  23  45  67  91 124 158 205 269 320 364
#     4  10  24  36  58  87 136 167 203 256 293 354
#     4  10  22  43  60  95 128 171 206 251 305 365
#     4  10  23  40  68  90 122 164 205 256 314 374
#     4  11  22  37  59  91 127 169 213 246 301 364
#
# _framework density 20.725470000000001
#
# number of rings (size 3 to 8) (size 9 to 14) (size 15 to 20)
#    1.000    1.000    0.000    2.000    7.000    8.667 
#    0.000    4.167    0.000    0.000    0.000    0.000 
#    0.000    0.000    0.000    0.000    0.000    0.000 
#
# Total GULP energy -66860.724752 kJ/mol
# GULP energy per Si atom -5571.727063 kJ/mol
# Density = 2.067830 g / cm^3
# Si number density = 20.725470 Si / 1000 Ang^3
#
#
#
# Elastic Constant Matrix: (Units=GPa)
#
#
# Indices 1 2 3 4 5 6 
#
# 1 116.1094 13.7796 42.8895 -1.6951 27.7239 -9.5679
# 2 13.7796 33.7859 31.7929 2.7605 -1.1601 2.8206
# 3 42.8895 31.7929 159.1106 19.6768 19.0187 -2.9873
# 4 -1.6951 2.7605 19.6768 28.3401 -7.0915 -4.1068
# 5 27.7239 -1.1601 19.0187 -7.0915 31.9963 2.0587
# 6 -9.5679 2.8206 -2.9873 -4.1068 2.0587 20.1633
#
#
#
# Elastic Compliance Matrix: (Units=1/GPa)
#
#
# Indices 1 2 3 4 5 6 
#
# 1 0.012983 -0.005504 -0.000927 0.000276 -0.011352 0.008008
# 2 -0.005504 0.041303 -0.008979 0.003660 0.013078 -0.010309
# 3 -0.000927 -0.008979 0.010229 -0.007935 -0.007456 0.001477
# 4 0.000276 0.003660 -0.007935 0.044889 0.014164 0.006140
# 5 -0.011352 0.013078 -0.007456 0.014164 0.049812 -0.010522
# 6 0.008008 -0.010309 0.001477 0.006140 -0.010522 0.057381
#
#
# Mechanical properties :
#
#
# Convention : Reuss Voigt Hill
#
# Bulk Modulus (GPa) = 29.67733 53.99221 41.83477
# Shear Modulus (GPa) = 19.33137 30.80288 25.06712
#
# Velocity S-wave (km/s) = 3.05738 3.85935 3.48154
# Velocity P-wave (km/s) = 5.17820 6.77991 6.03245
#
# Compressibility (1/GPa) = 0.03369576
#
# Stress axis : x y z
#
# Youngs Moduli (GPa) = 77.02653 24.21151 97.76011
#
# Poissons Ratio (x) = 0.13326 0.09059
# Poissons Ratio (y) = 0.42394 0.87777
# Poissons Ratio (z) = 0.07138 0.21739
#
# Static dielectric constant tensor:
#      x y z
#    x 1.799930 0.000210 -0.023950 
#    y 0.000210 1.856970 0.066190 
#    z -0.023950 0.066190 1.731870 
# 
# From -- ./inp_files/39783.got.cif
#   From: 2010.05.17/outbox.cif.g08.bks.cpg/sg2_20_cif.got.tgz:39783.got - 2010.06.03 11:33:40.
