data_PCOD9030468
_publ_section_title
;
Structure prediction by ZEFSAII (Michael W. Deem and Ramdas Pophale) SiO2 
 PCOD9030468
Probable space group: P -1
;
_chemical_formula_sum "Si O2"
_cell_formula_units_Z 16
_cell_length_a 13.043563
_cell_length_b 11.493378
_cell_length_c 11.339536
_cell_angle_alpha 46.771757
_cell_angle_beta 109.549385
_cell_angle_gamma 72.840350
_cell_volume 753.858779
_symmetry_space_group_name_H-M "P -1"
_symmetry_group_IT_number 2
_symmetry_cell_setting 'triclinic'
loop_
_space_group_symop_operation_xyz
x,y,z
-x,-y,-z
loop_
_atom_site_type_symbol
_atom_site_label
_atom_site_fract_x
_atom_site_fract_y
_atom_site_fract_z
Si Si1 0.007384 0.299909 0.306262
Si Si2 0.941329 0.730864 0.904627
Si Si3 0.325067 0.320359 0.940191
Si Si4 0.417338 0.956935 0.413662
Si Si5 0.824237 0.627320 0.394617
Si Si6 0.080765 0.766535 0.125314
Si Si7 0.579206 0.473502 0.676387
Si Si8 0.657900 0.101617 0.146107
O O1 0.848215 0.432005 0.234127
O O2 0.971719 0.296333 0.159090
O O3 0.018595 0.481956 0.164481
O O4 0.180530 0.043402 0.607480
O O5 0.751926 0.899950 0.682061
O O6 0.944113 0.856648 0.918962
O O7 0.281316 0.324147 0.787647
O O8 0.488469 0.250179 0.050678
O O9 0.371702 0.107507 0.174891
O O10 0.493265 0.708281 0.561906
O O11 0.500000 0.000000 0.500000
O O12 0.869135 0.432797 0.632246
O O13 0.000000 0.500000 0.500000
O O14 0.721337 0.876222 0.253080
O O15 0.244910 0.643581 0.208633
O O16 0.000000 0.000000 0.000000
O O17 0.500000 0.500000 0.500000
O O18 0.612091 0.287343 0.904234
#
# Coordination Sequence:
#
# PCOD9030468 Si02
#       8
#     2   2   2   2   2   2   2   2
#     4  10  22  42  71 102 135 178 236 289 342 428
#     4  10  22  44  72 101 138 180 236 288 352 416
#     4  11  23  39  71  99 136 182 236 286 351 416
#     4  11  24  45  73 103 138 189 238 286 355 433
#     4  12  21  41  68 100 138 179 237 290 348 420
#     4  12  25  42  71 101 140 188 228 290 358 420
#     4  12  27  46  68 104 147 183 238 297 355 420
#     4  12  23  44  68 101 141 183 236 293 350 418
#
# _framework density 21.224133999999999
#
# number of rings (size 3 to 8) (size 9 to 14) (size 15 to 20)
#    0.000    0.750    2.500    5.625    5.250    0.000 
#    0.000    4.375    0.000    0.000    0.000    0.000 
#    0.000    0.000    0.000    0.000    0.000    0.000 
#
# Total GULP energy -89323.857129 kJ/mol
# GULP energy per Si atom -5582.741071 kJ/mol
# Density = 2.117583 g / cm^3
# Si number density = 21.224134 Si / 1000 Ang^3
#
#
#
# Elastic Constant Matrix: (Units=GPa)
#
#
# Indices 1 2 3 4 5 6 
#
# 1 110.9694 12.1650 46.8170 -10.9390 2.6378 -19.6054
# 2 12.1650 122.6674 47.1449 1.8905 -5.6095 10.6667
# 3 46.8170 47.1449 110.5966 -0.7873 -3.6057 3.0270
# 4 -10.9390 1.8905 -0.7873 27.0579 1.6456 0.4611
# 5 2.6378 -5.6095 -3.6057 1.6456 38.1898 3.4984
# 6 -19.6054 10.6667 3.0270 0.4611 3.4984 33.2287
#
#
#
# Elastic Compliance Matrix: (Units=1/GPa)
#
#
# Indices 1 2 3 4 5 6 
#
# 1 0.013745 0.000016 -0.006113 0.005383 -0.002568 0.008857
# 2 0.000016 0.010098 -0.004190 -0.000855 0.001397 -0.002986
# 3 -0.006113 -0.004190 0.013551 -0.001814 0.001497 -0.003629
# 4 0.005383 -0.000855 -0.001814 0.039246 -0.002667 0.003352
# 5 -0.002568 0.001397 0.001497 -0.002667 0.027276 -0.004934
# 6 0.008857 -0.002986 -0.003629 0.003352 -0.004934 0.037082
#
#
# Mechanical properties :
#
#
# Convention : Reuss Voigt Hill
#
# Bulk Modulus (GPa) = 59.45540 61.83192 60.64366
# Shear Modulus (GPa) = 29.90805 35.56904 32.73855
#
# Velocity S-wave (km/s) = 3.75794 4.09819 3.93175
# Velocity P-wave (km/s) = 6.84861 7.18259 7.01759
#
# Compressibility (1/GPa) = 0.01681933
#
# Stress axis : x y z
#
# Youngs Moduli (GPa) = 72.75157 99.03421 73.79597
#
# Poissons Ratio (x) = -0.00156 0.45112
# Poissons Ratio (y) = -0.00114 0.30919
# Poissons Ratio (z) = 0.44474 0.41494
#
# Static dielectric constant tensor:
#      x y z
#    x 1.769430 -0.042970 0.040930 
#    y -0.042970 1.854680 0.016430 
#    z 0.040930 0.016430 1.755490 
# 
# From -- ./inp_files/427450.got.cif
#   From: 2010.05.17/outbox.cif.g08.bks.cpg/sg2_214_cif.got.tgz:427450.got - 2010.06.03 11:33:40.
