data_PCOD9030121
_publ_section_title
;
Structure prediction by ZEFSAII (Michael W. Deem and Ramdas Pophale) SiO2 
 PCOD9030121
Probable space group: P -1
;
_chemical_formula_sum "Si O2"
_cell_formula_units_Z 16
_cell_length_a 5.770259
_cell_length_b 15.405803
_cell_length_c 9.715032
_cell_angle_alpha 64.253324
_cell_angle_beta 62.193540
_cell_angle_gamma 81.324627
_cell_volume 686.605319
_symmetry_space_group_name_H-M "P -1"
_symmetry_group_IT_number 2
_symmetry_cell_setting 'triclinic'
loop_
_space_group_symop_operation_xyz
x,y,z
-x,-y,-z
loop_
_atom_site_type_symbol
_atom_site_label
_atom_site_fract_x
_atom_site_fract_y
_atom_site_fract_z
Si Si1 0.827392 0.930922 0.409687
Si Si2 0.561100 0.274741 0.958045
Si Si3 0.230579 0.437402 0.884456
Si Si4 0.812563 0.469396 0.443564
Si Si5 0.320472 0.635462 0.836589
Si Si6 0.118292 0.118067 0.265818
Si Si7 0.601435 0.192482 0.486879
Si Si8 0.164101 0.753507 0.357308
O O1 0.783263 0.924954 0.589232
O O2 0.550747 0.909007 0.431772
O O3 0.962551 0.833376 0.394787
O O4 0.996415 0.029923 0.267933
O O5 0.432538 0.358469 0.849566
O O6 0.800704 0.248753 0.814293
O O7 0.620726 0.318488 0.062000
O O8 0.349925 0.184894 0.090733
O O9 0.093376 0.478020 0.759573
O O10 0.386199 0.526171 0.858448
O O11 0.997557 0.382989 0.074171
O O12 0.500000 0.500000 0.500000
O O13 0.861726 0.355497 0.501944
O O14 0.000000 0.500000 0.500000
O O15 0.466414 0.708633 0.637833
O O16 0.882650 0.179910 0.343951
O O17 0.593405 0.206098 0.642757
#
# Coordination Sequence:
#
# PCOD9030121 Si02
#       8
#     2   2   2   2   2   2   2   2
#     4  10  23  43  69  95 131 178 227 289 347 429
#     4  12  23  43  67  99 140 175 228 292 351 418
#     4  11  24  41  64  99 136 179 238 278 343 417
#     4  12  26  45  69 100 146 192 233 287 356 427
#     4  11  23  39  66  96 131 183 226 288 341 415
#     4  10  22  42  69  98 127 173 234 287 352 414
#     4  11  21  43  67  96 131 178 232 285 349 421
#     4  11  26  41  65 100 138 181 226 286 358 420
#
# _framework density 23.303056000000002
#
# number of rings (size 3 to 8) (size 9 to 14) (size 15 to 20)
#    0.000    1.000    5.000    1.500    1.750    1.500 
#    0.000    0.625    0.000    0.000    0.000    0.000 
#    0.000    0.000    0.000    0.000    0.000    0.000 
#
# Total GULP energy -89198.831251 kJ/mol
# GULP energy per Si atom -5574.926953 kJ/mol
# Density = 2.325002 g / cm^3
# Si number density = 23.303056 Si / 1000 Ang^3
#
#
#
# Elastic Constant Matrix: (Units=GPa)
#
#
# Indices 1 2 3 4 5 6 
#
# 1 40.9942 38.3545 22.3168 -6.3770 4.8969 7.1402
# 2 38.3545 134.5297 50.0906 -26.5803 -2.1277 14.6616
# 3 22.3168 50.0906 65.0810 1.0424 9.6447 9.4266
# 4 -6.3770 -26.5803 1.0424 34.5546 8.4059 -0.5970
# 5 4.8969 -2.1277 9.6447 8.4059 24.0304 6.1867
# 6 7.1402 14.6616 9.4266 -0.5970 6.1867 52.3791
#
#
#
# Elastic Compliance Matrix: (Units=1/GPa)
#
#
# Indices 1 2 3 4 5 6 
#
# 1 0.035848 -0.007818 -0.005214 0.002315 -0.006465 -0.000970
# 2 -0.007818 0.015463 -0.009686 0.009758 0.003918 -0.001871
# 3 -0.005214 -0.009686 0.025901 -0.007378 -0.007497 -0.000438
# 4 0.002315 0.009758 -0.007378 0.039652 -0.010510 -0.000026
# 5 -0.006465 0.003918 -0.007497 -0.010510 0.051262 -0.005041
# 6 -0.000970 -0.001871 -0.000438 -0.000026 -0.005041 0.020421
#
#
# Mechanical properties :
#
#
# Convention : Reuss Voigt Hill
#
# Bulk Modulus (GPa) = 31.47058 51.34764 41.40911
# Shear Modulus (GPa) = 20.44364 30.84901 25.64632
#
# Velocity S-wave (km/s) = 2.96513 3.64238 3.32106
# Velocity P-wave (km/s) = 5.02562 6.30649 5.70213
#
# Compressibility (1/GPa) = 0.03177571
#
# Stress axis : x y z
#
# Youngs Moduli (GPa) = 27.89548 64.67185 38.60846
#
# Poissons Ratio (x) = 0.50562 0.20129
# Poissons Ratio (y) = 0.21809 0.37397
# Poissons Ratio (z) = 0.14544 0.62642
#
# Static dielectric constant tensor:
#      x y z
#    x 2.044760 -0.014790 0.009840 
#    y -0.014790 1.910220 0.015850 
#    z 0.009840 0.015850 1.884060 
# 
# From -- ./inp_files/134948.got.cif
#   From: 2010.05.17/outbox.cif.g08.bks.cpg/sg2_68_cif.got.tgz:134948.got - 2010.06.03 11:33:40.
