data_PCOD9030387
_publ_section_title
;
Structure prediction by ZEFSAII (Michael W. Deem and Ramdas Pophale) SiO2 
 PCOD9030387
Probable space group: P -1
;
_chemical_formula_sum "Si O2"
_cell_formula_units_Z 16
_cell_length_a 6.544170
_cell_length_b 13.402580
_cell_length_c 8.806939
_cell_angle_alpha 90.746221
_cell_angle_beta 56.411925
_cell_angle_gamma 100.656778
_cell_volume 628.605390
_symmetry_space_group_name_H-M "P -1"
_symmetry_group_IT_number 2
_symmetry_cell_setting 'triclinic'
loop_
_space_group_symop_operation_xyz
x,y,z
-x,-y,-z
loop_
_atom_site_type_symbol
_atom_site_label
_atom_site_fract_x
_atom_site_fract_y
_atom_site_fract_z
Si Si1 0.179366 0.653699 0.966689
Si Si2 0.159705 0.991302 0.211922
Si Si3 0.553037 0.801449 0.015317
Si Si4 0.014965 0.303683 0.282576
Si Si5 0.348552 0.403166 0.659127
Si Si6 0.284745 0.174969 0.701185
Si Si7 0.591887 0.524534 0.795029
Si Si8 0.745368 0.104656 0.510769
O O1 0.925791 0.593270 0.155866
O O2 0.298138 0.740330 0.041973
O O3 0.390764 0.591594 0.831770
O O4 0.106724 0.691799 0.832858
O O5 0.994249 0.895746 0.186452
O O6 0.250969 0.945243 0.326965
O O7 0.944594 0.055799 0.337346
O O8 0.377962 0.079975 0.058493
O O9 0.745420 0.742487 0.855664
O O10 0.618147 0.803574 0.166393
O O11 0.125512 0.412742 0.314500
O O12 0.857432 0.226376 0.463996
O O13 0.500000 0.500000 0.500000
O O14 0.313499 0.286416 0.612983
O O15 0.537948 0.420089 0.724293
O O16 0.472260 0.106874 0.554629
O O17 0.500000 0.500000 0.000000
#
# Coordination Sequence:
#
# PCOD9030387 Si02
#       8
#     2   2   2   2   2   2   2   2
#     4  11  23  45  72  95 136 185 230 277 344 412
#     4  10  24  47  68 102 136 180 227 278 346 418
#     4  10  23  43  71 103 135 172 229 283 339 421
#     4  10  22  42  70  97 133 182 227 277 329 415
#     4  12  28  44  67 104 142 180 230 294 344 396
#     4  12  25  44  67  99 143 179 225 285 350 402
#     4  11  23  44  70  98 132 183 245 276 333 417
#     4  10  25  42  70 101 136 176 227 283 341 419
#
# _framework density 25.453171000000001
#
# number of rings (size 3 to 8) (size 9 to 14) (size 15 to 20)
#    0.000    1.250    2.500    1.875    5.250    5.500 
#    0.000    1.875    0.000    0.000    0.000    0.000 
#    0.000    0.000    0.000    0.000    0.000    0.000 
#
# Total GULP energy -89321.766010 kJ/mol
# GULP energy per Si atom -5582.610376 kJ/mol
# Density = 2.539524 g / cm^3
# Si number density = 25.453171 Si / 1000 Ang^3
#
#
#
# Elastic Constant Matrix: (Units=GPa)
#
#
# Indices 1 2 3 4 5 6 
#
# 1 65.8531 45.0446 -11.1187 -14.0016 4.4546 20.4253
# 2 45.0446 132.9005 28.2155 -31.8232 12.2214 29.8941
# 3 -11.1187 28.2155 61.3293 -28.0740 -1.2196 14.5094
# 4 -14.0016 -31.8232 -28.0740 53.9646 -6.3557 -13.4256
# 5 4.4546 12.2214 -1.2196 -6.3557 21.7958 -0.8070
# 6 20.4253 29.8941 14.5094 -13.4256 -0.8070 53.0040
#
#
#
# Elastic Compliance Matrix: (Units=1/GPa)
#
#
# Indices 1 2 3 4 5 6 
#
# 1 0.027779 -0.009172 0.014664 0.007824 0.002289 -0.007529
# 2 -0.009172 0.013260 -0.007180 0.000531 -0.005879 -0.001934
# 3 0.014664 -0.007180 0.030619 0.014777 0.006824 -0.006136
# 4 0.007824 0.000531 0.014777 0.029506 0.007543 0.000229
# 5 0.002289 -0.005879 0.006824 0.007543 0.051411 0.003259
# 6 -0.007529 -0.001934 -0.006136 0.000229 0.003259 0.024646
#
#
# Mechanical properties :
#
#
# Convention : Reuss Voigt Hill
#
# Bulk Modulus (GPa) = 14.64492 42.70729 28.67611
# Shear Modulus (GPa) = 24.58724 38.94899 31.76811
#
# Velocity S-wave (km/s) = 3.11139 3.91605 3.53668
# Velocity P-wave (km/s) = 4.32132 6.10430 5.28849
#
# Compressibility (1/GPa) = 0.06828307
#
# Stress axis : x y z
#
# Youngs Moduli (GPa) = 35.99839 75.41338 32.65986
#
# Poissons Ratio (x) = 0.69169 -0.47893
# Poissons Ratio (y) = 0.33018 0.23448
# Poissons Ratio (z) = -0.52789 0.54144
#
# Static dielectric constant tensor:
#      x y z
#    x 0.945510 0.178510 -0.103290 
#    y 0.178510 2.054020 0.030420 
#    z -0.103290 0.030420 2.041780 
# 
# From -- ./inp_files/39260.got.cif
#   From: 2010.05.17/outbox.cif.g08.bks.cpg/sg2_20_cif.got.tgz:39260.got - 2010.06.03 11:33:40.
