data_PCOD9030140
_publ_section_title
;
Structure prediction by ZEFSAII (Michael W. Deem and Ramdas Pophale) SiO2 
 PCOD9030140
Probable space group: P -1
;
_chemical_formula_sum "Si O2"
_cell_formula_units_Z 16
_cell_length_a 23.207880
_cell_length_b 5.583522
_cell_length_c 8.991239
_cell_angle_alpha 125.524396
_cell_angle_beta 130.713737
_cell_angle_gamma 52.527498
_cell_volume 667.213059
_symmetry_space_group_name_H-M "P -1"
_symmetry_group_IT_number 2
_symmetry_cell_setting 'triclinic'
loop_
_space_group_symop_operation_xyz
x,y,z
-x,-y,-z
loop_
_atom_site_type_symbol
_atom_site_label
_atom_site_fract_x
_atom_site_fract_y
_atom_site_fract_z
Si Si1 0.240506 0.042724 0.342931
Si Si2 0.313472 0.236171 0.008189
Si Si3 0.878177 0.223173 0.835241
Si Si4 0.994294 0.450792 0.290940
Si Si5 0.414797 0.561786 0.459074
Si Si6 0.454788 0.762561 0.896622
Si Si7 0.782956 0.077246 0.058610
Si Si8 0.122458 0.673646 0.478594
O O1 0.209043 0.774990 0.256559
O O2 0.338062 0.900827 0.434101
O O3 0.199402 0.334251 0.490464
O O4 0.200435 0.119619 0.138278
O O5 0.263708 0.567089 0.959173
O O6 0.367077 0.990262 0.889429
O O7 0.266861 0.062313 0.965495
O O8 0.378136 0.311286 0.249404
O O9 0.877384 0.266122 0.673135
O O10 0.942361 0.858471 0.805096
O O11 0.911235 0.417931 0.079215
O O12 0.033023 0.686887 0.372726
O O13 0.000000 0.500000 0.500000
O O14 0.500000 0.500000 0.500000
O O15 0.438798 0.553508 0.665298
O O16 0.500000 0.500000 0.000000
O O17 0.500000 0.000000 0.000000
O O18 0.855552 0.099420 0.289584
#
# Coordination Sequence:
#
# PCOD9030140 Si02
#       8
#     2   2   2   2   2   2   2   2
#     4  10  25  44  67 101 138 187 231 298 353 420
#     4  11  26  46  68 101 135 182 235 296 352 427
#     4  10  23  42  65 104 140 179 239 282 355 423
#     4  10  22  42  69  98 144 183 230 288 350 422
#     4  11  25  48  73 100 142 187 240 294 362 420
#     4  12  26  44  69  99 134 177 230 297 357 424
#     4  11  26  43  72  99 140 179 240 283 356 421
#     4  11  24  41  71 103 138 190 231 295 350 425
#
# _framework density 23.980343999999999
#
# number of rings (size 3 to 8) (size 9 to 14) (size 15 to 20)
#    0.000    1.250    1.250    2.625   10.500    4.000 
#    0.000    0.000    0.000    0.000    0.000    0.000 
#    0.000    0.000    0.000    0.000    0.000    0.000 
#
# Total GULP energy -89265.487050 kJ/mol
# GULP energy per Si atom -5579.092941 kJ/mol
# Density = 2.392576 g / cm^3
# Si number density = 23.980344 Si / 1000 Ang^3
#
#
#
# Elastic Constant Matrix: (Units=GPa)
#
#
# Indices 1 2 3 4 5 6 
#
# 1 155.6985 28.3633 48.1116 5.6126 7.5946 10.1626
# 2 28.3633 71.2369 17.0823 12.5321 6.4285 1.0037
# 3 48.1116 17.0823 182.4957 3.1589 -6.6904 10.3260
# 4 5.6126 12.5321 3.1589 27.0426 -2.5176 -10.1478
# 5 7.5946 6.4285 -6.6904 -2.5176 44.3640 5.0294
# 6 10.1626 1.0037 10.3260 -10.1478 5.0294 50.2118
#
#
#
# Elastic Compliance Matrix: (Units=1/GPa)
#
#
# Indices 1 2 3 4 5 6 
#
# 1 0.007543 -0.002323 -0.001731 -0.000835 -0.001129 -0.001180
# 2 -0.002323 0.016781 -0.000857 -0.007808 -0.002491 -0.001018
# 3 -0.001731 -0.000857 0.006135 -0.000233 0.001456 -0.001087
# 4 -0.000835 -0.007808 -0.000233 0.044461 0.002732 0.009085
# 5 -0.001129 -0.002491 0.001456 0.002732 0.023678 -0.001840
# 6 -0.001180 -0.001018 -0.001087 0.009085 -0.001840 0.022419
#
#
# Mechanical properties :
#
#
# Convention : Reuss Voigt Hill
#
# Bulk Modulus (GPa) = 48.45736 66.28285 57.37010
# Shear Modulus (GPa) = 36.30614 45.38195 40.84404
#
# Velocity S-wave (km/s) = 3.89523 4.35497 4.13150
# Velocity P-wave (km/s) = 6.36250 7.27929 6.83628
#
# Compressibility (1/GPa) = 0.02063670
#
# Stress axis : x y z
#
# Youngs Moduli (GPa) = 132.57365 59.59234 162.99555
#
# Poissons Ratio (x) = 0.13842 0.28220
# Poissons Ratio (y) = 0.30793 0.13968
# Poissons Ratio (z) = 0.22953 0.05107
#
# Static dielectric constant tensor:
#      x y z
#    x 1.902490 0.026160 -0.005220 
#    y 0.026160 2.278560 0.021140 
#    z -0.005220 0.021140 1.993810 
# 
# From -- ./inp_files/106396.got.cif
#   From: 2010.05.17/outbox.cif.g08.bks.cpg/sg2_54_cif.got.tgz:106396.got - 2010.06.03 11:33:40.
