data_PCOD9030744
_publ_section_title
;
Structure prediction by ZEFSAII (Michael W. Deem and Ramdas Pophale) SiO2 
 PCOD9030744
Probable space group: P -1
;
_chemical_formula_sum "Si O2"
_cell_formula_units_Z 16
_cell_length_a 9.208918
_cell_length_b 10.141760
_cell_length_c 15.901328
_cell_angle_alpha 68.089826
_cell_angle_beta 146.006502
_cell_angle_gamma 114.834245
_cell_volume 752.624309
_symmetry_space_group_name_H-M "P -1"
_symmetry_group_IT_number 2
_symmetry_cell_setting 'triclinic'
loop_
_space_group_symop_operation_xyz
x,y,z
-x,-y,-z
loop_
_atom_site_type_symbol
_atom_site_label
_atom_site_fract_x
_atom_site_fract_y
_atom_site_fract_z
Si Si1 0.339566 0.917350 0.864686
Si Si2 0.734115 0.144058 0.783893
Si Si3 0.658849 0.833520 0.874276
Si Si4 0.621909 0.564936 0.815415
Si Si5 0.187137 0.118319 0.619375
Si Si6 0.141165 0.438579 0.507668
Si Si7 0.910764 0.375768 0.095694
Si Si8 0.767078 0.436008 0.650432
O O1 0.511773 0.870604 0.880293
O O2 0.162301 0.770774 0.851677
O O3 0.183241 0.034271 0.724774
O O4 0.500000 0.000000 0.000000
O O5 0.497577 0.160804 0.730109
O O6 0.714033 0.261321 0.674283
O O7 0.670398 0.969276 0.783753
O O8 0.037975 0.175677 0.955025
O O9 0.529698 0.684826 0.800420
O O10 0.444890 0.504377 0.664986
O O11 0.905279 0.638188 0.892680
O O12 0.661128 0.431727 0.924471
O O13 0.087564 0.266038 0.528019
O O14 0.000000 0.000000 0.500000
O O15 0.077586 0.501393 0.373513
O O16 0.000000 0.500000 0.500000
O O17 0.065618 0.499652 0.203052
O O18 0.500000 0.500000 0.500000
#
# Coordination Sequence:
#
# PCOD9030744 Si02
#       8
#     2   2   2   2   2   2   2   2
#     4  11  26  42  68  99 133 174 230 279 338 403
#     4  10  22  42  73  93 130 180 229 271 337 409
#     4  10  24  43  71 100 136 177 222 287 346 396
#     4  11  24  44  69 100 137 178 227 283 349 397
#     4  11  24  45  68  95 139 185 217 277 352 404
#     4  12  28  44  68 100 144 176 232 286 343 408
#     4  11  24  42  72  97 131 179 230 278 341 413
#     4  12  22  44  68  98 130 182 223 276 339 408
#
# _framework density 21.258946999999999
#
# number of rings (size 3 to 8) (size 9 to 14) (size 15 to 20)
#    0.000    1.000    3.750    1.500   12.250    2.500 
#    0.000    0.625    0.000    0.000    0.000    0.000 
#    0.000    0.000    0.000    0.000    0.000    0.000 
#
# Total GULP energy -89316.276290 kJ/mol
# GULP energy per Si atom -5582.267268 kJ/mol
# Density = 2.121056 g / cm^3
# Si number density = 21.258947 Si / 1000 Ang^3
#
#
#
# Elastic Constant Matrix: (Units=GPa)
#
#
# Indices 1 2 3 4 5 6 
#
# 1 86.6765 42.3019 7.7140 -19.3486 -14.6086 2.4934
# 2 42.3019 134.3175 13.6880 -35.0786 -13.6914 6.9747
# 3 7.7140 13.6880 57.7579 -22.4666 -19.0396 3.7354
# 4 -19.3486 -35.0786 -22.4666 50.8245 3.0477 -13.8353
# 5 -14.6086 -13.6914 -19.0396 3.0477 36.6090 -1.4777
# 6 2.4934 6.9747 3.7354 -13.8353 -1.4777 35.4815
#
#
#
# Elastic Compliance Matrix: (Units=1/GPa)
#
#
# Indices 1 2 3 4 5 6 
#
# 1 0.014803 -0.003239 0.002256 0.004422 0.005554 0.001314
# 2 -0.003239 0.010263 0.001388 0.006492 0.002756 0.000710
# 3 0.002256 0.001388 0.026353 0.013321 0.014120 0.002576
# 4 0.004422 0.006492 0.013321 0.034112 0.008712 0.010675
# 5 0.005554 0.002756 0.014120 0.008712 0.037283 0.002531
# 6 0.001314 0.000710 0.002576 0.010675 0.002531 0.031948
#
#
# Mechanical properties :
#
#
# Convention : Reuss Voigt Hill
#
# Bulk Modulus (GPa) = 19.14613 45.12884 32.13749
# Shear Modulus (GPa) = 29.17820 38.91953 34.04886
#
# Velocity S-wave (km/s) = 3.70876 4.28335 4.00637
# Velocity P-wave (km/s) = 5.23122 6.76292 6.04577
#
# Compressibility (1/GPa) = 0.05222987
#
# Stress axis : x y z
#
# Youngs Moduli (GPa) = 67.55612 97.43464 37.94642
#
# Poissons Ratio (x) = 0.31561 -0.08562
# Poissons Ratio (y) = 0.21883 -0.05268
# Poissons Ratio (z) = -0.15244 -0.13526
#
# Static dielectric constant tensor:
#      x y z
#    x 1.797520 -0.006570 0.047960 
#    y -0.006570 1.766080 0.039770 
#    z 0.047960 0.039770 1.865310 
# 
# From -- ./inp_files/209523.got.cif
#   From: 2010.05.17/outbox.cif.g08.bks.cpg/sg2_105_cif.got.tgz:209523.got - 2010.06.03 11:33:40.
