data_PCOD9030323
_publ_section_title
;
Structure prediction by ZEFSAII (Michael W. Deem and Ramdas Pophale) SiO2 
 PCOD9030323
Probable space group: P -1
;
_chemical_formula_sum "Si O2"
_cell_formula_units_Z 13
_cell_length_a 8.374921
_cell_length_b 16.329958
_cell_length_c 9.494607
_cell_angle_alpha 40.433584
_cell_angle_beta 128.543659
_cell_angle_gamma 123.774931
_cell_volume 650.097420
_symmetry_space_group_name_H-M "P -1"
_symmetry_group_IT_number 2
_symmetry_cell_setting 'triclinic'
loop_
_space_group_symop_operation_xyz
x,y,z
-x,-y,-z
loop_
_atom_site_type_symbol
_atom_site_label
_atom_site_fract_x
_atom_site_fract_y
_atom_site_fract_z
Si Si1 0.341341 0.965889 0.584578
Si Si2 0.224884 0.238744 0.231457
Si Si3 0.054606 0.582962 0.625576
Si Si4 0.500000 0.500000 0.000000
Si Si5 0.849445 0.316517 0.756459
Si Si6 0.475683 0.124599 0.914286
Si Si7 0.073183 0.221157 0.483119
O O1 0.280084 0.097114 0.438330
O O2 0.500000 0.000000 0.500000
O O3 0.136252 0.875681 0.535984
O O4 0.445204 0.896646 0.857839
O O5 0.413814 0.344321 0.147384
O O6 0.169691 0.265702 0.326809
O O7 0.022581 0.246753 0.015849
O O8 0.109987 0.672277 0.402232
O O9 0.885257 0.462416 0.641945
O O10 0.976669 0.661617 0.605323
O O11 0.259532 0.524685 0.850145
O O12 0.626219 0.242716 0.771228
O O13 0.242627 0.151578 0.745179
O O14 0.500000 0.000000 0.000000
#
# Coordination Sequence:
#
# PCOD9030323 Si02
#       7
#     2   2   2   1   2   2   2
#     4  12  27  45  66 104 138 180 230 282 336 409
#     4  11  22  45  67  97 141 176 226 284 335 399
#     4  10  24  44  69 102 133 181 227 282 340 403
#     4  10  22  42  70  92 132 180 218 278 340 400
#     4  10  23  45  67  97 137 177 228 281 341 402
#     4  12  25  44  71  97 139 185 222 280 344 397
#     4  12  25  44  72 103 134 180 231 279 340 407
#
# _framework density 19.997001999999998
#
# number of rings (size 3 to 8) (size 9 to 14) (size 15 to 20)
#    0.000    0.923    3.077    3.231    4.308    3.692 
#    5.538    0.000    0.000    0.000    0.000    0.000 
#    0.000    0.000    0.000    0.000    0.000    0.000 
#
# Total GULP energy -72470.236033 kJ/mol
# GULP energy per Si atom -5574.633541 kJ/mol
# Density = 1.995149 g / cm^3
# Si number density = 19.997002 Si / 1000 Ang^3
#
#
#
# Elastic Constant Matrix: (Units=GPa)
#
#
# Indices 1 2 3 4 5 6 
#
# 1 83.6431 48.1207 38.5186 18.2142 -1.1656 -10.4214
# 2 48.1207 87.7769 17.2650 8.4536 -2.5062 7.4970
# 3 38.5186 17.2650 103.7878 14.8161 10.5383 -5.0386
# 4 18.2142 8.4536 14.8161 19.5989 3.9092 5.1174
# 5 -1.1656 -2.5062 10.5383 3.9092 31.6192 -1.3083
# 6 -10.4214 7.4970 -5.0386 5.1174 -1.3083 50.5016
#
#
#
# Elastic Compliance Matrix: (Units=1/GPa)
#
#
# Indices 1 2 3 4 5 6 
#
# 1 0.026796 -0.012490 -0.005203 -0.018783 0.004422 0.008882
# 2 -0.012490 0.018132 0.000668 0.004782 -0.000072 -0.005689
# 3 -0.005203 0.000668 0.012459 -0.004227 -0.003752 0.000401
# 4 -0.018783 0.004782 -0.004227 0.074683 -0.008667 -0.012800
# 5 0.004422 -0.000072 -0.003752 -0.008667 0.034201 0.002313
# 6 0.008882 -0.005689 0.000401 -0.012800 0.002313 0.023876
#
#
# Mechanical properties :
#
#
# Convention : Reuss Voigt Hill
#
# Bulk Modulus (GPa) = 42.85348 53.66848 48.26098
# Shear Modulus (GPa) = 21.55388 31.76415 26.65902
#
# Velocity S-wave (km/s) = 3.28663 3.98985 3.65519
# Velocity P-wave (km/s) = 5.98991 6.93699 6.48077
#
# Compressibility (1/GPa) = 0.02333533
#
# Stress axis : x y z
#
# Youngs Moduli (GPa) = 37.31919 55.15222 80.26309
#
# Poissons Ratio (x) = 0.68884 0.41764
# Poissons Ratio (y) = 0.46611 -0.05359
# Poissons Ratio (z) = 0.19419 -0.03683
#
# Static dielectric constant tensor:
#      x y z
#    x 1.670290 0.015200 -0.021810 
#    y 0.015200 1.707540 0.006520 
#    z -0.021810 0.006520 1.727160 
# 
# From -- ./inp_files/169055.got.cif
#   From: 2010.05.17/outbox.cif.g08.bks.cpg/sg2_85_cif.got.tgz:169055.got - 2010.06.03 11:33:40.
