data_PCOD9030067
_publ_section_title
;
Structure prediction by ZEFSAII (Michael W. Deem and Ramdas Pophale) SiO2 
 PCOD9030067
Probable space group: P -1
;
_chemical_formula_sum "Si O2"
_cell_formula_units_Z 16
_cell_length_a 26.964323
_cell_length_b 5.643407
_cell_length_c 18.962345
_cell_angle_alpha 52.077790
_cell_angle_beta 18.545329
_cell_angle_gamma 51.331662
_cell_volume 713.682366
_symmetry_space_group_name_H-M "P -1"
_symmetry_group_IT_number 2
_symmetry_cell_setting 'triclinic'
loop_
_space_group_symop_operation_xyz
x,y,z
-x,-y,-z
loop_
_atom_site_type_symbol
_atom_site_label
_atom_site_fract_x
_atom_site_fract_y
_atom_site_fract_z
Si Si1 0.792474 0.367093 0.747717
Si Si2 0.621052 0.334741 0.498900
Si Si3 0.173979 0.463572 0.708053
Si Si4 0.487725 0.232206 0.264126
Si Si5 0.885995 0.999953 0.548629
Si Si6 0.751644 0.179514 0.209250
Si Si7 0.948623 0.691992 0.847297
Si Si8 0.361101 0.885707 0.775017
O O1 0.809089 0.723926 0.668479
O O2 0.947112 0.173297 0.612358
O O3 0.795036 0.206558 0.696461
O O4 0.634318 0.326991 0.010274
O O5 0.786048 0.389734 0.299799
O O6 0.647391 0.382267 0.371504
O O7 0.454892 0.541813 0.705385
O O8 0.596984 0.007167 0.618632
O O9 0.339740 0.480156 0.441028
O O10 0.032693 0.608076 0.823741
O O11 0.169231 0.113391 0.798866
O O12 0.547418 0.042039 0.290114
O O13 0.929077 0.225889 0.389420
O O14 0.656780 0.046289 0.297900
O O15 0.866787 0.405166 0.985826
O O16 0.816647 0.990789 0.982930
#
# Coordination Sequence:
#
# PCOD9030067 Si02
#       8
#     2   2   2   2   2   2   2   2
#     4  10  22  43  70 102 133 173 218 288 354 402
#     4  10  23  42  63  96 128 180 219 276 329 403
#     4  10  25  44  62  91 137 178 225 263 332 407
#     4  10  22  42  69  95 130 177 215 277 335 404
#     4  10  24  40  70 104 136 165 227 286 345 409
#     4  11  24  40  65  93 132 177 222 276 332 396
#     4  12  25  42  64  98 131 177 220 279 333 401
#     4  11  23  37  68  95 129 164 228 274 336 389
#
# _framework density 22.418935000000001
#
# number of rings (size 3 to 8) (size 9 to 14) (size 15 to 20)
#    0.000    1.500    1.250    2.250    5.250   11.000 
#    0.000    1.250    0.000    0.000    0.000    0.000 
#    0.000    0.000    0.000    0.000    0.000    0.000 
#
# Total GULP energy -89113.916181 kJ/mol
# GULP energy per Si atom -5569.619761 kJ/mol
# Density = 2.236791 g / cm^3
# Si number density = 22.418935 Si / 1000 Ang^3
#
#
#
# Elastic Constant Matrix: (Units=GPa)
#
#
# Indices 1 2 3 4 5 6 
#
# 1 90.7274 39.9496 31.5117 -0.4573 -3.6751 11.7814
# 2 39.9496 56.2698 39.4024 -18.9716 2.2599 19.4588
# 3 31.5117 39.4024 117.1002 -18.7789 14.7923 16.7314
# 4 -0.4573 -18.9716 -18.7789 41.2900 -2.8169 -7.1267
# 5 -3.6751 2.2599 14.7923 -2.8169 30.7854 6.6240
# 6 11.7814 19.4588 16.7314 -7.1267 6.6240 31.0856
#
#
#
# Elastic Compliance Matrix: (Units=1/GPa)
#
#
# Indices 1 2 3 4 5 6 
#
# 1 0.017817 -0.014177 -0.001609 -0.006698 0.003160 0.000779
# 2 -0.014177 0.041971 -0.006297 0.013877 0.002730 -0.014911
# 3 -0.001609 -0.006297 0.012165 0.002198 -0.005296 -0.000364
# 4 -0.006698 0.013877 0.002198 0.031502 0.000033 -0.000115
# 5 0.003160 0.002730 -0.005296 0.000033 0.036910 -0.007914
# 6 0.000779 -0.014911 -0.000364 -0.000115 -0.007914 0.043064
#
#
# Mechanical properties :
#
#
# Convention : Reuss Voigt Hill
#
# Bulk Modulus (GPa) = 35.98755 53.98054 44.98404
# Shear Modulus (GPa) = 21.10980 30.84778 25.97879
#
# Velocity S-wave (km/s) = 3.07189 3.71343 3.40779
# Velocity P-wave (km/s) = 5.35436 6.52047 5.96597
#
# Compressibility (1/GPa) = 0.02778739
#
# Stress axis : x y z
#
# Youngs Moduli (GPa) = 56.12774 23.82571 82.20539
#
# Poissons Ratio (x) = 0.33779 0.13224
# Poissons Ratio (y) = 0.79574 0.51761
# Poissons Ratio (z) = 0.09029 0.15002
#
# Static dielectric constant tensor:
#      x y z
#    x 1.904780 0.078420 0.032590 
#    y 0.078420 1.867130 0.020040 
#    z 0.032590 0.020040 1.846800 
# 
# From -- ./inp_files/579522.got.cif
#   From: 2010.05.17/outbox.cif.g08.bks.cpg/sg2_290_cif.got.tgz:579522.got - 2010.06.03 11:33:40.
