data_PCOD9030819
_publ_section_title
;
Structure prediction by ZEFSAII (Michael W. Deem and Ramdas Pophale) SiO2 
 PCOD9030819
Probable space group: P -1
;
_chemical_formula_sum "Si O2"
_cell_formula_units_Z 16
_cell_length_a 11.573014
_cell_length_b 8.955886
_cell_length_c 16.773133
_cell_angle_alpha 31.002271
_cell_angle_beta 131.149921
_cell_angle_gamma 124.157789
_cell_volume 674.244150
_symmetry_space_group_name_H-M "P -1"
_symmetry_group_IT_number 2
_symmetry_cell_setting 'triclinic'
loop_
_space_group_symop_operation_xyz
x,y,z
-x,-y,-z
loop_
_atom_site_type_symbol
_atom_site_label
_atom_site_fract_x
_atom_site_fract_y
_atom_site_fract_z
Si Si1 0.585848 0.282137 0.447840
Si Si2 0.060897 0.950240 0.672574
Si Si3 0.307243 0.523545 0.028464
Si Si4 0.353829 0.379404 0.839895
Si Si5 0.650762 0.248390 0.810809
Si Si6 0.142668 0.399394 0.163239
Si Si7 0.772341 0.077508 0.779672
Si Si8 0.971169 0.474569 0.298305
O O1 0.651637 0.474871 0.316573
O O2 0.470953 0.498046 0.344264
O O3 0.704507 0.172795 0.619491
O O4 0.500000 0.000000 0.500000
O O5 0.031432 0.735378 0.683165
O O6 0.916687 0.897381 0.690362
O O7 0.220625 0.828129 0.836371
O O8 0.060547 0.276497 0.494766
O O9 0.486680 0.515688 0.096212
O O10 0.282352 0.436412 0.149096
O O11 0.219947 0.270185 0.058322
O O12 0.201446 0.469495 0.776411
O O13 0.369152 0.031034 0.013639
O O14 0.814531 0.384818 0.845827
O O15 0.658953 0.160762 0.762470
O O16 0.000000 0.500000 0.000000
O O17 0.933104 0.232534 0.796778
#
# Coordination Sequence:
#
# PCOD9030819 Si02
#       8
#     2   2   2   2   2   2   2   2
#     4  12  27  51  74 110 151 197 243 312 381 443
#     4  10  24  46  73 105 151 198 247 299 377 437
#     4  11  25  48  76 106 150 201 243 302 377 448
#     4  12  28  46  77 111 153 193 253 307 372 442
#     4  12  26  47  76 110 148 196 253 306 365 453
#     4  10  22  42  75 102 140 195 242 299 365 437
#     4  12  27  47  76 111 147 197 251 309 372 438
#     4  11  27  44  72 111 152 190 247 315 365 441
#
# _framework density 23.730274999999999
#
# number of rings (size 3 to 8) (size 9 to 14) (size 15 to 20)
#    0.000    0.750    3.750    1.500    8.750    4.500 
#    2.250    0.000    0.000    0.000    0.000    0.000 
#    0.000    0.000    0.000    0.000    0.000    0.000 
#
# Total GULP energy -89470.160071 kJ/mol
# GULP energy per Si atom -5591.885004 kJ/mol
# Density = 2.367626 g / cm^3
# Si number density = 23.730275 Si / 1000 Ang^3
#
#
#
# Elastic Constant Matrix: (Units=GPa)
#
#
# Indices 1 2 3 4 5 6 
#
# 1 119.1425 25.7582 37.6335 -4.4673 1.9847 5.8717
# 2 25.7582 60.2886 15.9987 -0.8980 3.2103 5.8881
# 3 37.6335 15.9987 135.4768 -0.9296 1.5414 6.7977
# 4 -4.4673 -0.8980 -0.9296 36.5381 -6.9740 -0.1561
# 5 1.9847 3.2103 1.5414 -6.9740 33.0840 8.1759
# 6 5.8717 5.8881 6.7977 -0.1561 8.1759 35.8595
#
#
#
# Elastic Compliance Matrix: (Units=1/GPa)
#
#
# Indices 1 2 3 4 5 6 
#
# 1 0.009966 -0.003578 -0.002308 0.001118 0.000256 -0.000660
# 2 -0.003578 0.018659 -0.001097 -0.000224 -0.001092 -0.002022
# 3 -0.002308 -0.001097 0.008201 -0.000086 0.000096 -0.001019
# 4 0.001118 -0.000224 -0.000086 0.028707 0.006370 -0.001457
# 5 0.000256 -0.001092 0.000096 0.006370 0.033507 -0.007492
# 6 -0.000660 -0.002022 -0.001019 -0.001457 -0.007492 0.030222
#
#
# Mechanical properties :
#
#
# Convention : Reuss Voigt Hill
#
# Bulk Modulus (GPa) = 43.74426 52.63209 48.18818
# Shear Modulus (GPa) = 33.14575 36.79749 34.97162
#
# Velocity S-wave (km/s) = 3.74139 3.94211 3.84306
# Velocity P-wave (km/s) = 6.09410 6.55345 6.32794
#
# Compressibility (1/GPa) = 0.02286014
#
# Stress axis : x y z
#
# Youngs Moduli (GPa) = 100.34025 53.59328 121.92914
#
# Poissons Ratio (x) = 0.19176 0.28141
# Poissons Ratio (y) = 0.35902 0.13378
# Poissons Ratio (z) = 0.23159 0.05880
#
# Static dielectric constant tensor:
#      x y z
#    x 1.947800 -0.002620 -0.011430 
#    y -0.002620 1.909240 0.029530 
#    z -0.011430 0.029530 1.890610 
# 
# From -- ./inp_files/566383.got.cif
#   From: 2010.05.17/outbox.cif.g08.bks.cpg/sg2_284_cif.got.tgz:566383.got - 2010.06.03 11:33:40.
