data_PCOD9030354
_publ_section_title
;
Structure prediction by ZEFSAII (Michael W. Deem and Ramdas Pophale) SiO2 
 PCOD9030354
Probable space group: P -1
;
_chemical_formula_sum "Si O2"
_cell_formula_units_Z 16
_cell_length_a 17.143198
_cell_length_b 10.774752
_cell_length_c 8.658466
_cell_angle_alpha 81.434835
_cell_angle_beta 131.488011
_cell_angle_gamma 134.105353
_cell_volume 700.627473
_symmetry_space_group_name_H-M "P -1"
_symmetry_group_IT_number 2
_symmetry_cell_setting 'triclinic'
loop_
_space_group_symop_operation_xyz
x,y,z
-x,-y,-z
loop_
_atom_site_type_symbol
_atom_site_label
_atom_site_fract_x
_atom_site_fract_y
_atom_site_fract_z
Si Si1 0.368053 0.468848 0.913547
Si Si2 0.058670 0.412207 0.085393
Si Si3 0.566992 0.880487 0.196305
Si Si4 0.628478 0.188901 0.758395
Si Si5 0.983656 0.791592 0.636047
Si Si6 0.155421 0.003361 0.295456
Si Si7 0.843909 0.259657 0.281946
Si Si8 0.806181 0.803485 0.981316
O O1 0.176746 0.279943 0.618415
O O2 0.336213 0.407050 0.064503
O O3 0.500000 0.500000 0.000000
O O4 0.429211 0.673599 0.946269
O O5 0.241819 0.589646 0.200043
O O6 0.081275 0.369182 0.288503
O O7 0.000000 0.500000 0.000000
O O8 0.913784 0.188622 0.847607
O O9 0.480629 0.850757 0.242276
O O10 0.699154 0.897790 0.413710
O O11 0.684329 0.096965 0.223218
O O12 0.500000 0.000000 0.500000
O O13 0.757381 0.218510 0.014299
O O14 0.068636 0.790999 0.614197
O O15 0.133045 0.020894 0.866597
O O16 0.982044 0.893722 0.164736
O O17 0.235311 0.178781 0.243718
O O18 0.000000 0.500000 0.500000
#
# Coordination Sequence:
#
# PCOD9030354 Si02
#       8
#     2   2   2   2   2   2   2   2
#     4  12  25  42  67 101 143 175 227 297 357 403
#     4  11  22  43  68  98 136 183 236 271 344 425
#     4  12  26  42  66 102 140 175 232 292 357 401
#     4  12  27  41  69 101 144 180 228 298 349 405
#     4  11  24  42  73  96 133 189 235 274 341 435
#     4  10  22  42  70  95 131 182 228 284 334 426
#     4  12  26  46  70  96 142 193 236 278 347 438
#     4  10  22  43  69  96 130 179 241 272 345 415
#
# _framework density 22.836675
#
# number of rings (size 3 to 8) (size 9 to 14) (size 15 to 20)
#    0.000    0.750    1.250    6.000    5.250    1.500 
#    0.000    0.000    0.000    0.000    0.000    0.000 
#    0.000    0.000    0.000    0.000    0.000    0.000 
#
# Total GULP energy -89566.975436 kJ/mol
# GULP energy per Si atom -5597.935965 kJ/mol
# Density = 2.278470 g / cm^3
# Si number density = 22.836675 Si / 1000 Ang^3
#
#
#
# Elastic Constant Matrix: (Units=GPa)
#
#
# Indices 1 2 3 4 5 6 
#
# 1 115.9349 22.5483 -7.1293 6.1131 5.1880 10.2835
# 2 22.5483 123.6396 10.3243 6.1088 6.2234 30.2769
# 3 -7.1293 10.3243 74.2357 -3.4085 -2.6287 3.5348
# 4 6.1131 6.1088 -3.4085 33.4048 -7.1239 2.5642
# 5 5.1880 6.2234 -2.6287 -7.1239 28.6212 6.2189
# 6 10.2835 30.2769 3.5348 2.5642 6.2189 44.4689
#
#
#
# Elastic Compliance Matrix: (Units=1/GPa)
#
#
# Indices 1 2 3 4 5 6 
#
# 1 0.009187 -0.001369 0.000996 -0.001564 -0.001453 -0.000979
# 2 -0.001369 0.010101 -0.001347 -0.001490 -0.001092 -0.006215
# 3 0.000996 -0.001347 0.013958 0.001993 0.002070 -0.000827
# 4 -0.001564 -0.001490 0.001993 0.032856 0.009401 -0.001992
# 5 -0.001453 -0.001092 0.002070 0.009401 0.039077 -0.005092
# 6 -0.000979 -0.006215 -0.000827 -0.001992 -0.005092 0.027838
#
#
# Mechanical properties :
#
#
# Convention : Reuss Voigt Hill
#
# Bulk Modulus (GPa) = 33.55061 40.58852 37.06957
# Shear Modulus (GPa) = 34.15510 40.50343 37.32926
#
# Velocity S-wave (km/s) = 3.87153 4.21600 4.04743
# Velocity P-wave (km/s) = 5.89138 6.44294 6.17333
#
# Compressibility (1/GPa) = 0.02980572
#
# Stress axis : x y z
#
# Youngs Moduli (GPa) = 108.84645 99.00399 71.64428
#
# Poissons Ratio (x) = 0.13550 -0.07136
# Poissons Ratio (y) = 0.14897 0.09653
# Poissons Ratio (z) = -0.10841 0.13339
#
# Static dielectric constant tensor:
#      x y z
#    x 1.862640 -0.011130 -0.021660 
#    y -0.011130 1.905200 0.008460 
#    z -0.021660 0.008460 1.889350 
# 
# From -- ./inp_files/333279.got.cif
#   From: 2010.05.17/outbox.cif.g08.bks.cpg/sg2_167_cif.got.tgz:333279.got - 2010.06.03 11:33:40.
