data_PCOD9030296
_publ_section_title
;
Structure prediction by ZEFSAII (Michael W. Deem and Ramdas Pophale) SiO2 
 PCOD9030296
Probable space group: P -1
;
_chemical_formula_sum "Si O2"
_cell_formula_units_Z 12
_cell_length_a 12.621050
_cell_length_b 11.979456
_cell_length_c 10.578026
_cell_angle_alpha 33.543414
_cell_angle_beta 35.663226
_cell_angle_gamma 35.994582
_cell_volume 470.061794
_symmetry_space_group_name_H-M "P -1"
_symmetry_group_IT_number 2
_symmetry_cell_setting 'triclinic'
loop_
_space_group_symop_operation_xyz
x,y,z
-x,-y,-z
loop_
_atom_site_type_symbol
_atom_site_label
_atom_site_fract_x
_atom_site_fract_y
_atom_site_fract_z
Si Si1 0.623962 0.482601 0.702930
Si Si2 0.017459 0.143524 0.731524
Si Si3 0.537938 0.907806 0.218898
Si Si4 0.279132 0.356366 0.182513
Si Si5 0.684646 0.277373 0.566917
Si Si6 0.993357 0.218156 0.111077
O O1 0.818438 0.370333 0.704880
O O2 0.549713 0.729752 0.486365
O O3 0.700914 0.324159 0.653112
O O4 0.437482 0.454879 0.972469
O O5 0.190353 0.232515 0.481590
O O6 0.000000 0.000000 0.000000
O O7 0.041847 0.974283 0.750722
O O8 0.405046 0.883230 0.255907
O O9 0.773414 0.846727 0.032428
O O10 0.413863 0.155158 0.151765
O O11 0.106138 0.552845 0.087772
O O12 0.500000 0.500000 0.500000
O O13 0.878945 0.249565 0.325393
#
# Coordination Sequence:
#
# PCOD9030296 Si02
#       6
#     2   2   2   2   2   2
#     4  11  24  46  68 107 140 183 235 280 350 417
#     4  12  28  49  73 101 136 189 245 291 346 408
#     4  11  23  43  71 106 143 183 226 281 349 420
#     4  12  23  46  74  99 147 180 233 290 346 415
#     4  10  22  42  70 108 146 179 230 277 350 431
#     4  12  24  46  71 108 144 182 232 285 350 421
#
# _framework density 25.528559000000001
#
# number of rings (size 3 to 8) (size 9 to 14) (size 15 to 20)
#    0.000    0.667    8.333    0.000    0.000    6.667 
#    0.000    1.667    0.000    0.000    0.000    0.000 
#    0.000    0.000    0.000    0.000    0.000    0.000 
#
# Total GULP energy -67133.292389 kJ/mol
# GULP energy per Si atom -5594.441032 kJ/mol
# Density = 2.547045 g / cm^3
# Si number density = 25.528559 Si / 1000 Ang^3
#
#
#
# Elastic Constant Matrix: (Units=GPa)
#
#
# Indices 1 2 3 4 5 6 
#
# 1 53.2517 34.1410 27.4056 9.8900 -2.7009 -1.5897
# 2 34.1410 148.6399 35.1731 -10.6414 -1.9613 -12.0244
# 3 27.4056 35.1731 168.8689 13.4333 -23.2199 -2.6003
# 4 9.8900 -10.6414 13.4333 60.9580 -7.2016 -1.6252
# 5 -2.7009 -1.9613 -23.2199 -7.2016 35.2022 3.8210
# 6 -1.5897 -12.0244 -2.6003 -1.6252 3.8210 40.0953
#
#
#
# Elastic Compliance Matrix: (Units=1/GPa)
#
#
# Indices 1 2 3 4 5 6 
#
# 1 0.024320 -0.005370 -0.002623 -0.004444 -0.000974 -0.000903
# 2 -0.005370 0.008615 -0.001153 0.002645 -0.000417 0.002443
# 3 -0.002623 -0.001153 0.007253 -0.000867 0.004388 -0.000433
# 4 -0.004444 0.002645 -0.000867 0.018141 0.002834 0.001026
# 5 -0.000974 -0.000417 0.004388 0.002834 0.032090 -0.002822
# 6 -0.000903 0.002443 -0.000433 0.001026 -0.002822 0.025920
#
#
# Mechanical properties :
#
#
# Convention : Reuss Voigt Hill
#
# Bulk Modulus (GPa) = 45.66668 62.68888 54.17778
# Shear Modulus (GPa) = 35.22861 45.52049 40.37455
#
# Velocity S-wave (km/s) = 3.71882 4.22728 3.98118
# Velocity P-wave (km/s) = 6.03049 6.95961 6.51165
#
# Compressibility (1/GPa) = 0.02189781
#
# Stress axis : x y z
#
# Youngs Moduli (GPa) = 41.11820 116.07167 137.86730
#
# Poissons Ratio (x) = 0.62325 0.36160
# Poissons Ratio (y) = 0.22079 0.15898
# Poissons Ratio (z) = 0.10785 0.13385
#
# Static dielectric constant tensor:
#      x y z
#    x 2.138560 0.048010 -0.001370 
#    y 0.048010 1.968650 -0.009320 
#    z -0.001370 -0.009320 2.093250 
# 
# From -- ./inp_files/453441.got.cif
#   From: 2010.05.17/outbox.cif.g08.bks.cpg/sg2_227_cif.got.tgz:453441.got - 2010.06.03 11:33:40.
