data_PCOD9030155
_publ_section_title
;
Structure prediction by ZEFSAII (Michael W. Deem and Ramdas Pophale) SiO2 
 PCOD9030155
Probable space group: P -1
;
_chemical_formula_sum "Si O2"
_cell_formula_units_Z 14
_cell_length_a 9.959296
_cell_length_b 6.490689
_cell_length_c 16.775767
_cell_angle_alpha 81.813503
_cell_angle_beta 136.244221
_cell_angle_gamma 74.319314
_cell_volume 622.362053
_symmetry_space_group_name_H-M "P -1"
_symmetry_group_IT_number 2
_symmetry_cell_setting 'triclinic'
loop_
_space_group_symop_operation_xyz
x,y,z
-x,-y,-z
loop_
_atom_site_type_symbol
_atom_site_label
_atom_site_fract_x
_atom_site_fract_y
_atom_site_fract_z
Si Si1 0.934256 0.217774 0.283649
Si Si2 0.716521 0.030748 0.098253
Si Si3 0.384059 0.211707 0.665847
Si Si4 0.937635 0.468295 0.784181
Si Si5 0.822772 0.965796 0.976523
Si Si6 0.439425 0.888681 0.553462
Si Si7 0.917715 0.285126 0.452409
O O1 0.988009 0.352454 0.229142
O O2 0.732354 0.185429 0.167341
O O3 0.878813 0.355681 0.337204
O O4 0.181048 0.959779 0.420949
O O5 0.745168 0.118225 0.018336
O O6 0.950937 0.756718 0.218824
O O7 0.500000 0.000000 0.000000
O O8 0.597896 0.057675 0.823195
O O9 0.310960 0.497799 0.613162
O O10 0.141541 0.260124 0.589961
O O11 0.427847 0.053013 0.614274
O O12 0.663400 0.612460 0.670319
O O13 0.060678 0.316470 0.926164
O O14 0.000000 0.000000 0.000000
O O15 0.500000 0.000000 0.500000
O O16 0.000000 0.000000 0.500000
#
# Coordination Sequence:
#
# PCOD9030155 Si02
#       7
#     2   2   2   2   2   2   2
#     4  10  22  42  69  99 137 176 245 276 350 413
#     4  10  25  44  66 103 141 185 229 283 347 415
#     4  10  23  44  65  96 144 167 232 290 343 406
#     4   9  23  42  67 104 135 185 230 280 350 410
#     4  10  25  44  67 100 141 187 227 285 352 406
#     4   9  20  40  68  99 128 181 227 289 340 407
#     4  10  24  42  71 102 129 186 227 292 347 408
#
# _framework density 22.494944
#
# number of rings (size 3 to 8) (size 9 to 14) (size 15 to 20)
#    0.857    1.429    0.000    0.000    8.000    7.429 
#    2.571    0.000    0.000    0.000    0.000    0.000 
#    0.000    0.000    0.000    0.000    0.000    0.000 
#
# Total GULP energy -77956.359927 kJ/mol
# GULP energy per Si atom -5568.311423 kJ/mol
# Density = 2.244374 g / cm^3
# Si number density = 22.494944 Si / 1000 Ang^3
#
#
#
# Elastic Constant Matrix: (Units=GPa)
#
#
# Indices 1 2 3 4 5 6 
#
# 1 92.2238 26.8605 47.3051 6.6071 -1.1806 3.6484
# 2 26.8605 75.4760 63.9737 9.3940 4.7818 -3.2108
# 3 47.3051 63.9737 171.2706 7.9124 1.8359 5.2881
# 4 6.6071 9.3940 7.9124 48.8361 3.8309 -1.2278
# 5 -1.1806 4.7818 1.8359 3.8309 26.8113 -5.4573
# 6 3.6484 -3.2108 5.2881 -1.2278 -5.4573 28.9744
#
#
#
# Elastic Compliance Matrix: (Units=1/GPa)
#
#
# Indices 1 2 3 4 5 6 
#
# 1 0.013026 -0.002410 -0.002624 -0.000989 0.001066 -0.001269
# 2 -0.002410 0.020615 -0.007009 -0.002239 -0.002303 0.003338
# 3 -0.002624 -0.007009 0.009240 0.000149 0.000050 -0.002117
# 4 -0.000989 -0.002239 0.000149 0.021230 -0.002637 0.000252
# 5 0.001066 -0.002303 0.000050 -0.002637 0.039541 0.006937
# 6 -0.001269 0.003338 -0.002117 0.000252 0.006937 0.036747
#
#
# Mechanical properties :
#
#
# Convention : Reuss Voigt Hill
#
# Bulk Modulus (GPa) = 53.21044 68.36102 60.78573
# Shear Modulus (GPa) = 29.28274 34.31311 31.79792
#
# Velocity S-wave (km/s) = 3.61189 3.90984 3.76381
# Velocity P-wave (km/s) = 6.41093 7.13007 6.78004
#
# Compressibility (1/GPa) = 0.01879330
#
# Stress axis : x y z
#
# Youngs Moduli (GPa) = 76.77065 48.50907 108.22940
#
# Poissons Ratio (x) = 0.11690 0.28401
# Poissons Ratio (y) = 0.18501 0.75863
# Poissons Ratio (z) = 0.20146 0.34002
#
# Static dielectric constant tensor:
#      x y z
#    x 1.891330 0.043230 -0.018650 
#    y 0.043230 2.029520 -0.058970 
#    z -0.018650 -0.058970 1.827090 
# 
# From -- ./inp_files/564166.got.cif
#   From: 2010.05.17/outbox.cif.g08.bks.cpg/sg2_283_cif.got.tgz:564166.got - 2010.06.03 11:33:40.
