data_PCOD9030894
_publ_section_title
;
Structure prediction by ZEFSAII (Michael W. Deem and Ramdas Pophale) SiO2 
 PCOD9030894
Probable space group: P -1
;
_chemical_formula_sum "Si O2"
_cell_formula_units_Z 14
_cell_length_a 14.310911
_cell_length_b 5.412351
_cell_length_c 14.386943
_cell_angle_alpha 125.918486
_cell_angle_beta 44.940567
_cell_angle_gamma 100.170134
_cell_volume 579.340326
_symmetry_space_group_name_H-M "P -1"
_symmetry_group_IT_number 2
_symmetry_cell_setting 'triclinic'
loop_
_space_group_symop_operation_xyz
x,y,z
-x,-y,-z
loop_
_atom_site_type_symbol
_atom_site_label
_atom_site_fract_x
_atom_site_fract_y
_atom_site_fract_z
Si Si1 0.639310 0.919221 0.320108
Si Si2 0.101673 0.514135 0.162014
Si Si3 0.659704 0.206165 0.707577
Si Si4 0.348442 0.774262 0.065279
Si Si5 0.813190 0.778358 0.335006
Si Si6 0.251746 0.767346 0.834992
Si Si7 0.121690 0.481732 0.339663
O O1 0.751167 0.971199 0.324843
O O2 0.695667 0.512841 0.181676
O O3 0.500000 0.000000 0.500000
O O4 0.630489 0.137664 0.283824
O O5 0.246921 0.573601 0.084881
O O6 0.038130 0.595206 0.327446
O O7 0.975172 0.739293 0.232019
O O8 0.142126 0.129965 0.024940
O O9 0.642600 0.122110 0.809543
O O10 0.795282 0.303277 0.636831
O O11 0.703078 0.941413 0.534501
O O12 0.509500 0.532552 0.865727
O O13 0.254451 0.115502 0.153259
O O14 0.813530 0.418241 0.230936
O O15 0.000000 0.500000 0.500000
#
# Coordination Sequence:
#
# PCOD9030894 Si02
#       7
#     2   2   2   2   2   2   2
#     4  10  24  43  67 100 136 181 229 284 345 409
#     4  11  24  42  65 101 130 184 223 286 346 411
#     4  10  22  43  61 102 126 181 222 283 345 407
#     4  10  23  39  68  91 139 168 231 280 343 413
#     4  10  24  40  67  96 139 176 232 278 350 409
#     4  10  25  43  69  99 140 180 234 284 342 416
#     4  11  23  40  67  97 136 177 226 284 343 415
#
# _framework density 24.165417000000001
#
# number of rings (size 3 to 8) (size 9 to 14) (size 15 to 20)
#    0.857    0.857    0.000    3.000    4.000    6.286 
#    0.000    0.000    0.000    0.000    0.000    0.000 
#    0.000    0.000    0.000    0.000    0.000    0.000 
#
# Total GULP energy -78139.847514 kJ/mol
# GULP energy per Si atom -5581.417680 kJ/mol
# Density = 2.411042 g / cm^3
# Si number density = 24.165417 Si / 1000 Ang^3
#
#
#
# Elastic Constant Matrix: (Units=GPa)
#
#
# Indices 1 2 3 4 5 6 
#
# 1 48.7569 12.9658 33.6949 10.5527 10.3270 -10.4269
# 2 12.9658 56.4779 13.5333 3.8581 14.4242 2.6614
# 3 33.6949 13.5333 96.7257 7.5450 -0.1107 17.3995
# 4 10.5527 3.8581 7.5450 42.9093 -2.7460 4.1871
# 5 10.3270 14.4242 -0.1107 -2.7460 33.2229 10.5003
# 6 -10.4269 2.6614 17.3995 4.1871 10.5003 20.9724
#
#
#
# Elastic Compliance Matrix: (Units=1/GPa)
#
#
# Indices 1 2 3 4 5 6 
#
# 1 0.530144 0.044420 -0.317822 -0.183469 -0.447554 0.782320
# 2 0.044420 0.025285 -0.030736 -0.018044 -0.049352 0.072687
# 3 -0.317822 -0.030736 0.203918 0.109721 0.274407 -0.482584
# 4 -0.183469 -0.018044 0.109721 0.088124 0.160317 -0.277815
# 5 -0.447554 -0.049352 0.274407 0.160317 0.422001 -0.687198
# 6 0.782320 0.072687 -0.482584 -0.277815 -0.687198 1.227302
#
#
# Mechanical properties :
#
#
# Convention : Reuss Voigt Hill
#
# Bulk Modulus (GPa) = 6.61934 35.81649 21.21792
# Shear Modulus (GPa) = 1.58458 28.87201 15.22830
#
# Velocity S-wave (km/s) = 0.81065 3.46029 2.51304
# Velocity P-wave (km/s) = 1.90298 5.55143 4.14968
#
# Compressibility (1/GPa) = 0.15107253
#
# Stress axis : x y z
#
# Youngs Moduli (GPa) = 1.88628 39.54905 4.90392
#
# Poissons Ratio (x) = -1.75677 1.55857
# Poissons Ratio (y) = -0.08379 0.15073
# Poissons Ratio (z) = 0.59950 1.21558
#
# Static dielectric constant tensor:
#      x y z
#    x 1.968740 -0.023100 0.010620 
#    y -0.023100 1.935150 0.002320 
#    z 0.010620 0.002320 1.963420 
# 
# From -- ./inp_files/526041.got.cif
#   From: 2010.05.17/outbox.cif.g08.bks.cpg/sg2_264_cif.got.tgz:526041.got - 2010.06.03 11:33:40.
