data_PCOD9030987
_publ_section_title
;
Structure prediction by ZEFSAII (Michael W. Deem and Ramdas Pophale) SiO2 
 PCOD9030987
Probable space group: P -1
;
_chemical_formula_sum "Si O2"
_cell_formula_units_Z 14
_cell_length_a 12.607821
_cell_length_b 11.866103
_cell_length_c 5.279361
_cell_angle_alpha 117.292233
_cell_angle_beta 104.526054
_cell_angle_gamma 106.827743
_cell_volume 599.664124
_symmetry_space_group_name_H-M "P -1"
_symmetry_group_IT_number 2
_symmetry_cell_setting 'triclinic'
loop_
_space_group_symop_operation_xyz
x,y,z
-x,-y,-z
loop_
_atom_site_type_symbol
_atom_site_label
_atom_site_fract_x
_atom_site_fract_y
_atom_site_fract_z
Si Si1 0.467246 0.585396 0.770831
Si Si2 0.448988 0.843433 0.081112
Si Si3 0.291141 0.377492 0.828692
Si Si4 0.907866 0.313794 0.565764
Si Si5 0.038819 0.168931 0.224465
Si Si6 0.139499 0.433799 0.173050
Si Si7 0.664792 0.134901 0.473985
O O1 0.500000 0.500000 0.500000
O O2 0.339837 0.487485 0.738348
O O3 0.461783 0.722236 0.809370
O O4 0.589552 0.647036 0.087262
O O5 0.381881 0.794128 0.261250
O O6 0.586289 0.971141 0.349291
O O7 0.373821 0.882555 0.866683
O O8 0.162485 0.237638 0.546682
O O9 0.263241 0.454090 0.127749
O O10 0.862210 0.427534 0.551714
O O11 0.811601 0.225377 0.638560
O O12 0.927201 0.197688 0.290995
O O13 0.044843 0.406873 0.855886
O O14 0.086654 0.283548 0.138141
O O15 0.000000 0.000000 0.000000
#
# Coordination Sequence:
#
# PCOD9030987 Si02
#       7
#     2   2   2   2   2   2   2
#     4  11  24  40  67  96 130 179 216 281 336 407
#     4  10  24  42  65  97 140 168 230 273 344 399
#     4  10  24  41  63  97 128 172 224 270 341 400
#     4  10  23  39  69  93 125 175 225 271 341 393
#     4  11  25  43  65  98 133 174 218 281 344 410
#     4  10  22  43  63  94 128 167 226 277 330 405
#     4  10  23  43  66  99 129 182 217 287 332 411
#
# _framework density 23.346402000000001
#
# number of rings (size 3 to 8) (size 9 to 14) (size 15 to 20)
#    0.000    1.714    0.000    2.143   10.000    5.714 
#    2.571    0.000    0.000    0.000    0.000    0.000 
#    0.000    0.000    0.000    0.000    0.000    0.000 
#
# Total GULP energy -77958.258301 kJ/mol
# GULP energy per Si atom -5568.447021 kJ/mol
# Density = 2.329326 g / cm^3
# Si number density = 23.346402 Si / 1000 Ang^3
#
#
#
# Elastic Constant Matrix: (Units=GPa)
#
#
# Indices 1 2 3 4 5 6 
#
# 1 127.6551 62.8168 32.7295 27.3757 -18.3972 21.9227
# 2 62.8168 90.5771 32.7076 15.0012 -30.1660 9.6089
# 3 32.7295 32.7076 84.8263 24.0801 -15.7521 -2.7555
# 4 27.3757 15.0012 24.0801 42.9840 -4.4877 -6.9073
# 5 -18.3972 -30.1660 -15.7521 -4.4877 46.6185 1.4486
# 6 21.9227 9.6089 -2.7555 -6.9073 1.4486 30.6166
#
#
#
# Elastic Compliance Matrix: (Units=1/GPa)
#
#
# Indices 1 2 3 4 5 6 
#
# 1 0.015623 -0.007895 -0.000901 -0.008379 0.000278 -0.010694
# 2 -0.007895 0.021006 -0.003464 0.000358 0.009391 -0.001615
# 3 -0.000901 -0.003464 0.015774 -0.006588 0.002050 0.001569
# 4 -0.008379 0.000358 -0.006588 0.034015 -0.002433 0.013084
# 5 0.000278 0.009391 0.002050 -0.002433 0.028247 -0.004847
# 6 -0.010694 -0.001615 0.001569 0.013084 -0.004847 0.044148
#
#
# Mechanical properties :
#
#
# Convention : Reuss Voigt Hill
#
# Bulk Modulus (GPa) = 35.86287 62.17405 49.01846
# Shear Modulus (GPa) = 25.95713 35.69747 30.82730
#
# Velocity S-wave (km/s) = 3.33802 3.91453 3.63772
# Velocity P-wave (km/s) = 5.50010 6.86442 6.21978
#
# Compressibility (1/GPa) = 0.02788399
#
# Stress axis : x y z
#
# Youngs Moduli (GPa) = 64.00872 47.60597 63.39652
#
# Poissons Ratio (x) = 0.37583 0.05712
# Poissons Ratio (y) = 0.50532 0.21958
# Poissons Ratio (z) = 0.05767 0.16489
#
# Static dielectric constant tensor:
#      x y z
#    x 1.918690 -0.037820 0.027240 
#    y -0.037820 1.938930 -0.052650 
#    z 0.027240 -0.052650 2.028880 
# 
# From -- ./inp_files/68611.got.cif
#   From: 2010.05.17/outbox.cif.g08.bks.cpg/sg2_35_cif.got.tgz:68611.got - 2010.06.03 11:33:40.
