data_PCOD9030135
_publ_section_title
;
Structure prediction by ZEFSAII (Michael W. Deem and Ramdas Pophale) SiO2 
 PCOD9030135
Probable space group: P -1
;
_chemical_formula_sum "Si O2"
_cell_formula_units_Z 14
_cell_length_a 16.736545
_cell_length_b 9.329897
_cell_length_c 6.774075
_cell_angle_alpha 131.851497
_cell_angle_beta 118.423878
_cell_angle_gamma 57.227431
_cell_volume 651.265629
_symmetry_space_group_name_H-M "P -1"
_symmetry_group_IT_number 2
_symmetry_cell_setting 'triclinic'
loop_
_space_group_symop_operation_xyz
x,y,z
-x,-y,-z
loop_
_atom_site_type_symbol
_atom_site_label
_atom_site_fract_x
_atom_site_fract_y
_atom_site_fract_z
Si Si1 0.200379 0.608394 0.661736
Si Si2 0.543718 0.268842 0.428209
Si Si3 0.084997 0.030974 0.758487
Si Si4 0.621458 0.808184 0.987748
Si Si5 0.596220 0.508503 0.010915
Si Si6 0.838355 0.626385 0.956985
Si Si7 0.039462 0.646045 0.815686
O O1 0.311911 0.526925 0.775998
O O2 0.171930 0.450046 0.344680
O O3 0.130867 0.660166 0.817032
O O4 0.169217 0.817496 0.695774
O O5 0.500000 0.500000 0.500000
O O6 0.602276 0.050660 0.197183
O O7 0.614251 0.310238 0.709821
O O8 0.442407 0.227741 0.302854
O O9 0.129905 0.177902 0.834316
O O10 0.000000 0.000000 0.500000
O O11 0.040276 0.142355 0.014837
O O12 0.585104 0.710608 0.048198
O O13 0.733333 0.681905 0.981622
O O14 0.500000 0.500000 0.000000
O O15 0.918511 0.460838 0.026513
O O16 0.000000 0.500000 0.500000
#
# Coordination Sequence:
#
# PCOD9030135 Si02
#       7
#     2   2   2   2   2   2   2
#     4  12  26  45  72 106 143 192 240 296 361 428
#     4   9  21  41  67  95 136 180 232 287 354 416
#     4  12  26  45  72 106 142 192 240 302 365 424
#     4  10  22  42  69  98 136 193 228 294 363 418
#     4  11  24  42  67 103 144 183 238 295 352 435
#     4  12  25  45  70 101 144 181 242 293 363 428
#     4  12  24  47  72  97 146 184 236 301 357 426
#
# _framework density 21.496604999999999
#
# number of rings (size 3 to 8) (size 9 to 14) (size 15 to 20)
#    0.000    0.857    4.286    2.571    0.000    9.714 
#    0.000    0.000    0.000    0.000    0.000    0.000 
#    0.000    0.000    0.000    0.000    0.000    0.000 
#
# Total GULP energy -78063.094682 kJ/mol
# GULP energy per Si atom -5575.935334 kJ/mol
# Density = 2.144768 g / cm^3
# Si number density = 21.496605 Si / 1000 Ang^3
#
#
#
# Elastic Constant Matrix: (Units=GPa)
#
#
# Indices 1 2 3 4 5 6 
#
# 1 78.3331 9.0926 -3.0556 -3.3937 2.6981 5.1923
# 2 9.0926 87.3597 17.3990 3.3348 12.1834 -3.1908
# 3 -3.0556 17.3990 117.1410 3.8990 25.2871 -5.5988
# 4 -3.3937 3.3348 3.8990 38.6400 -7.4505 6.4218
# 5 2.6981 12.1834 25.2871 -7.4505 31.2121 -2.7610
# 6 5.1923 -3.1908 -5.5988 6.4218 -2.7610 35.6052
#
#
#
# Elastic Compliance Matrix: (Units=1/GPa)
#
#
# Indices 1 2 3 4 5 6 
#
# 1 0.013210 -0.001508 0.000606 0.001436 -0.000905 -0.002295
# 2 -0.001508 0.012524 -0.000785 -0.002220 -0.004540 0.001267
# 3 0.000606 -0.000785 0.010790 -0.002944 -0.009070 0.001366
# 4 0.001436 -0.002220 -0.002944 0.029249 0.009632 -0.005400
# 5 -0.000905 -0.004540 -0.009070 0.009632 0.043531 -0.000063
# 6 -0.002295 0.001267 0.001366 -0.005400 -0.000063 0.029718
#
#
# Mechanical properties :
#
#
# Convention : Reuss Voigt Hill
#
# Bulk Modulus (GPa) = 30.16471 36.63399 33.39935
# Shear Modulus (GPa) = 32.58445 38.38463 35.48454
#
# Velocity S-wave (km/s) = 3.89755 4.23024 4.06729
# Velocity P-wave (km/s) = 5.85809 6.39833 6.13416
#
# Compressibility (1/GPa) = 0.03315132
#
# Stress axis : x y z
#
# Youngs Moduli (GPa) = 75.69873 79.84352 92.67612
#
# Poissons Ratio (x) = 0.12042 -0.05620
# Poissons Ratio (y) = 0.11417 0.07275
# Poissons Ratio (z) = -0.04590 0.06268
#
# Static dielectric constant tensor:
#      x y z
#    x 1.807880 0.030670 -0.035960 
#    y 0.030670 1.809520 -0.018580 
#    z -0.035960 -0.018580 1.843330 
# 
# From -- ./inp_files/107842.got.cif
#   From: 2010.05.17/outbox.cif.g08.bks.cpg/sg2_54_cif.got.tgz:107842.got - 2010.06.03 11:33:40.
