data_PCOD9030371
_publ_section_title
;
Structure prediction by ZEFSAII (Michael W. Deem and Ramdas Pophale) SiO2 
 PCOD9030371
Probable space group: P -1
;
_chemical_formula_sum "Si O2"
_cell_formula_units_Z 14
_cell_length_a 23.191430
_cell_length_b 7.869078
_cell_length_c 9.337277
_cell_angle_alpha 137.262256
_cell_angle_beta 142.003622
_cell_angle_gamma 33.574257
_cell_volume 564.732539
_symmetry_space_group_name_H-M "P -1"
_symmetry_group_IT_number 2
_symmetry_cell_setting 'triclinic'
loop_
_space_group_symop_operation_xyz
x,y,z
-x,-y,-z
loop_
_atom_site_type_symbol
_atom_site_label
_atom_site_fract_x
_atom_site_fract_y
_atom_site_fract_z
Si Si1 0.184159 0.618743 0.952794
Si Si2 0.133625 0.200915 0.700339
Si Si3 0.426814 0.029545 0.550860
Si Si4 0.260330 0.670345 0.439799
Si Si5 0.938025 0.654602 0.827485
Si Si6 0.594958 0.173290 0.901447
Si Si7 0.299645 0.134463 0.651290
O O1 0.227900 0.578082 0.176046
O O2 0.104094 0.990858 0.015284
O O3 0.119743 0.457361 0.725199
O O4 0.280690 0.405157 0.885800
O O5 0.037041 0.407994 0.756636
O O6 0.141655 0.939739 0.459460
O O7 0.269208 0.985725 0.896134
O O8 0.334882 0.376615 0.512105
O O9 0.550169 0.972855 0.742120
O O10 0.398084 0.012381 0.646915
O O11 0.422295 0.807072 0.292195
O O12 0.312171 0.855539 0.596526
O O13 0.818507 0.708905 0.579268
O O14 0.000000 0.500000 0.000000
O O15 0.500000 0.500000 0.000000
#
# Coordination Sequence:
#
# PCOD9030371 Si02
#       7
#     2   2   2   2   2   2   2
#     4  10  23  43  67  97 137 177 219 272 342 399
#     4  11  22  42  67  95 136 177 220 279 330 396
#     4  11  23  44  73  97 133 181 223 279 334 394
#     4  10  22  42  70  96 135 178 221 274 334 397
#     4  11  25  40  66 104 134 173 222 276 334 402
#     4  11  23  41  72 102 127 179 232 271 335 395
#     4  10  25  45  66 106 135 171 228 274 334 407
#
# _framework density 24.790496000000001
#
# number of rings (size 3 to 8) (size 9 to 14) (size 15 to 20)
#    0.000    1.429    2.857    1.286    2.000    9.143 
#    0.000    5.714    3.143    0.000    0.000    0.000 
#    0.000    0.000    0.000    0.000    0.000    0.000 
#
# Total GULP energy -78193.350789 kJ/mol
# GULP energy per Si atom -5585.239342 kJ/mol
# Density = 2.473407 g / cm^3
# Si number density = 24.790496 Si / 1000 Ang^3
#
#
#
# Elastic Constant Matrix: (Units=GPa)
#
#
# Indices 1 2 3 4 5 6 
#
# 1 69.0561 -9.7918 11.5232 12.0702 -32.5838 -16.7670
# 2 -9.7918 122.6642 31.6891 20.2709 -13.0452 1.2336
# 3 11.5232 31.6891 128.0513 26.9596 -26.1461 -6.7790
# 4 12.0702 20.2709 26.9596 51.8624 -15.7167 -12.7808
# 5 -32.5838 -13.0452 -26.1461 -15.7167 45.5817 1.2144
# 6 -16.7670 1.2336 -6.7790 -12.7808 1.2144 34.4574
#
#
#
# Elastic Compliance Matrix: (Units=1/GPa)
#
#
# Indices 1 2 3 4 5 6 
#
# 1 0.028450 0.003925 0.001506 0.001209 0.022378 0.013660
# 2 0.003925 0.009688 -0.001375 -0.002798 0.003822 0.000120
# 3 0.001506 -0.001375 0.009782 -0.002960 0.005235 0.001424
# 4 0.001209 -0.002798 -0.002960 0.026147 0.007127 0.009553
# 5 0.022378 0.003822 0.005235 0.007127 0.044146 0.012870
# 6 0.013660 0.000120 0.001424 0.009553 0.012870 0.039034
#
#
# Mechanical properties :
#
#
# Convention : Reuss Voigt Hill
#
# Bulk Modulus (GPa) = 17.84702 42.95695 30.40199
# Shear Modulus (GPa) = 29.79504 45.47037 37.63271
#
# Velocity S-wave (km/s) = 3.47057 4.28739 3.90042
# Velocity P-wave (km/s) = 4.82437 6.47105 5.70741
#
# Compressibility (1/GPa) = 0.05603175
#
# Stress axis : x y z
#
# Youngs Moduli (GPa) = 35.14925 103.21609 102.23078
#
# Poissons Ratio (x) = -0.40507 -0.15399
# Poissons Ratio (y) = -0.13794 0.14058
# Poissons Ratio (z) = -0.05294 0.14193
#
# Static dielectric constant tensor:
#      x y z
#    x 2.083660 -0.092990 -0.008830 
#    y -0.092990 2.110300 0.064760 
#    z -0.008830 0.064760 2.107950 
# 
# From -- ./inp_files/356309.got.cif
#   From: 2010.05.17/outbox.cif.g08.bks.cpg/sg2_179_cif.got.tgz:356309.got - 2010.06.03 11:33:40.
