data_PCOD9030954
_publ_section_title
;
Structure prediction by ZEFSAII (Michael W. Deem and Ramdas Pophale) SiO2 
 PCOD9030954
Probable space group: P -1
;
_chemical_formula_sum "Si O2"
_cell_formula_units_Z 14
_cell_length_a 20.575091
_cell_length_b 9.948392
_cell_length_c 7.023671
_cell_angle_alpha 102.219414
_cell_angle_beta 72.241170
_cell_angle_gamma 39.519476
_cell_volume 588.389412
_symmetry_space_group_name_H-M "P -1"
_symmetry_group_IT_number 2
_symmetry_cell_setting 'triclinic'
loop_
_space_group_symop_operation_xyz
x,y,z
-x,-y,-z
loop_
_atom_site_type_symbol
_atom_site_label
_atom_site_fract_x
_atom_site_fract_y
_atom_site_fract_z
Si Si1 0.259217 0.234955 0.798466
Si Si2 0.215748 0.862853 0.236209
Si Si3 0.170953 0.247680 0.532942
Si Si4 0.508131 0.629034 0.920867
Si Si5 0.594495 0.532695 0.407068
Si Si6 0.819352 0.368723 0.287524
Si Si7 0.100248 0.602597 0.439793
O O1 0.176899 0.263749 0.757396
O O2 0.222729 0.435887 0.767108
O O3 0.440976 0.872608 0.547652
O O4 0.191967 0.378809 0.110815
O O5 0.343305 0.568071 0.175196
O O6 0.158168 0.111513 0.451285
O O7 0.306001 0.725272 0.917338
O O8 0.065440 0.044575 0.382754
O O9 0.059296 0.551371 0.608142
O O10 0.340255 0.993473 0.226460
O O11 0.539041 0.552028 0.648535
O O12 0.500000 0.500000 0.000000
O O13 0.705335 0.451220 0.365846
O O14 0.807946 0.453390 0.534133
O O15 0.000000 0.000000 0.000000
#
# Coordination Sequence:
#
# PCOD9030954 Si02
#       7
#     2   2   2   2   2   2   2
#     4  11  25  43  70  97 138 182 222 282 343 396
#     4  11  24  40  70 100 138 181 225 275 345 401
#     4  10  22  43  63 102 137 170 234 276 330 423
#     4  10  23  41  66 103 133 173 230 274 326 414
#     4  12  24  45  71  98 139 185 221 281 346 392
#     4  11  26  46  68 102 135 174 241 281 325 417
#     4  11  24  44  68  98 138 179 226 284 342 392
#
# _framework density 23.793766000000002
#
# number of rings (size 3 to 8) (size 9 to 14) (size 15 to 20)
#    0.000    1.143    4.286    0.857    2.000    7.429 
#    0.000    0.000    0.000    0.000    0.000    0.000 
#    0.000    0.000    0.000    0.000    0.000    0.000 
#
# Total GULP energy -78328.303776 kJ/mol
# GULP energy per Si atom -5594.878841 kJ/mol
# Density = 2.373961 g / cm^3
# Si number density = 23.793766 Si / 1000 Ang^3
#
#
#
# Elastic Constant Matrix: (Units=GPa)
#
#
# Indices 1 2 3 4 5 6 
#
# 1 104.9438 36.7522 27.7496 -15.7131 13.1553 -20.7049
# 2 36.7522 126.6184 35.1509 -3.4287 -3.4241 -19.8370
# 3 27.7496 35.1509 110.5441 -18.4502 34.1640 -10.6566
# 4 -15.7131 -3.4287 -18.4502 47.7307 -18.8909 3.6280
# 5 13.1553 -3.4241 34.1640 -18.8909 32.6437 -5.7464
# 6 -20.7049 -19.8370 -10.6566 3.6280 -5.7464 39.3184
#
#
#
# Elastic Compliance Matrix: (Units=1/GPa)
#
#
# Indices 1 2 3 4 5 6 
#
# 1 0.012127 -0.002667 -0.000659 0.002266 -0.002409 0.004301
# 2 -0.002667 0.010929 -0.004937 0.001164 0.008756 0.003943
# 3 -0.000659 -0.004937 0.016015 -0.001437 -0.018020 -0.000998
# 4 0.002266 0.001164 -0.001437 0.027886 0.017082 0.001314
# 5 -0.002409 0.008756 -0.018020 0.017082 0.062288 0.005792
# 6 0.004301 0.003943 -0.000998 0.001314 0.005792 0.030142
#
#
# Mechanical properties :
#
#
# Convention : Reuss Voigt Hill
#
# Bulk Modulus (GPa) = 44.35810 60.15686 52.25748
# Shear Modulus (GPa) = 27.25879 40.10213 33.68046
#
# Velocity S-wave (km/s) = 3.38838 4.10982 3.76642
# Velocity P-wave (km/s) = 5.83021 6.91797 6.39726
#
# Compressibility (1/GPa) = 0.02254380
#
# Stress axis : x y z
#
# Youngs Moduli (GPa) = 82.46150 91.50227 62.44293
#
# Poissons Ratio (x) = 0.24404 0.04114
# Poissons Ratio (y) = 0.21993 0.30830
# Poissons Ratio (z) = 0.05433 0.45178
#
# Static dielectric constant tensor:
#      x y z
#    x 1.923580 -0.029440 -0.006310 
#    y -0.029440 1.949770 0.038510 
#    z -0.006310 0.038510 1.907200 
# 
# From -- ./inp_files/94336.got.cif
#   From: 2010.05.17/outbox.cif.g08.bks.cpg/sg2_48_cif.got.tgz:94336.got - 2010.06.03 11:33:40.
