data_PCOD9030518
_publ_section_title
;
Structure prediction by ZEFSAII (Michael W. Deem and Ramdas Pophale) SiO2 
 PCOD9030518
Probable space group: P -1
;
_chemical_formula_sum "Si O2"
_cell_formula_units_Z 12
_cell_length_a 7.973533
_cell_length_b 15.717816
_cell_length_c 12.830579
_cell_angle_alpha 26.687906
_cell_angle_beta 110.775684
_cell_angle_gamma 94.183628
_cell_volume 549.595622
_symmetry_space_group_name_H-M "P -1"
_symmetry_group_IT_number 2
_symmetry_cell_setting 'triclinic'
loop_
_space_group_symop_operation_xyz
x,y,z
-x,-y,-z
loop_
_atom_site_type_symbol
_atom_site_label
_atom_site_fract_x
_atom_site_fract_y
_atom_site_fract_z
Si Si1 0.630227 0.168744 0.107748
Si Si2 0.515900 0.198666 0.833573
Si Si3 0.982514 0.000143 0.870620
Si Si4 0.453439 0.549905 0.811897
Si Si5 0.185260 0.365074 0.273608
Si Si6 0.865208 0.365910 0.844754
O O1 0.731836 0.899323 0.424777
O O2 0.455822 0.264986 0.868524
O O3 0.519336 0.313385 0.029176
O O4 0.817216 0.212004 0.074865
O O5 0.367420 0.428803 0.481317
O O6 0.773831 0.082498 0.015395
O O7 0.500000 0.000000 0.000000
O O8 0.974202 0.798243 0.033120
O O9 0.788764 0.240486 0.511823
O O10 0.000000 0.000000 0.000000
O O11 0.613442 0.616837 0.728454
O O12 0.500000 0.500000 0.000000
O O13 0.082153 0.493307 0.221208
O O14 0.000000 0.500000 0.000000
#
# Coordination Sequence:
#
# PCOD9030518 Si02
#       6
#     2   2   2   2   2   2
#     4  10  22  43  68  89 133 171 219 264 321 391
#     4  11  21  41  72  98 125 172 227 263 316 400
#     4  11  23  43  67  95 139 170 211 276 336 378
#     4  11  27  44  64  99 140 170 211 276 342 381
#     4  11  25  43  69  94 125 178 233 257 316 402
#     4  10  22  42  71  95 128 173 222 267 324 392
#
# _framework density 21.834237000000002
#
# number of rings (size 3 to 8) (size 9 to 14) (size 15 to 20)
#    0.000    1.333    1.667    5.000    7.000    2.000 
#    3.000    1.667    0.000    0.000    0.000    0.000 
#    0.000    0.000    0.000    0.000    0.000    0.000 
#
# Total GULP energy -66971.764715 kJ/mol
# GULP energy per Si atom -5580.980393 kJ/mol
# Density = 2.178454 g / cm^3
# Si number density = 21.834237 Si / 1000 Ang^3
#
#
#
# Elastic Constant Matrix: (Units=GPa)
#
#
# Indices 1 2 3 4 5 6 
#
# 1 22.0874 17.5761 17.3046 -7.4705 -2.7113 0.1512
# 2 17.5761 251.2081 95.0495 -13.1208 0.3958 -12.9388
# 3 17.3046 95.0495 133.6701 -5.8193 -9.0461 5.7739
# 4 -7.4705 -13.1208 -5.8193 51.1369 13.3310 -5.2151
# 5 -2.7113 0.3958 -9.0461 13.3310 29.8871 -1.2605
# 6 0.1512 -12.9388 5.7739 -5.2151 -1.2605 29.5398
#
#
#
# Elastic Compliance Matrix: (Units=1/GPa)
#
#
# Indices 1 2 3 4 5 6 
#
# 1 0.053072 -0.001027 -0.005909 0.006989 -0.000007 0.001667
# 2 -0.001027 0.005989 -0.004352 0.001830 -0.002150 0.003711
# 3 -0.005909 -0.004352 0.011696 -0.002087 0.003809 -0.004368
# 4 0.006989 0.001830 -0.002087 0.024065 -0.010546 0.004972
# 5 -0.000007 -0.002150 0.003809 -0.010546 0.039265 -0.001872
# 6 0.001667 0.003711 -0.004368 0.004972 -0.001872 0.037121
#
#
# Mechanical properties :
#
#
# Convention : Reuss Voigt Hill
#
# Bulk Modulus (GPa) = 20.75419 74.09178 47.42299
# Shear Modulus (GPa) = 23.82706 40.58180 32.20443
#
# Velocity S-wave (km/s) = 3.30702 4.31586 3.84468
# Velocity P-wave (km/s) = 4.90997 7.67092 6.44014
#
# Compressibility (1/GPa) = 0.04818303
#
# Stress axis : x y z
#
# Youngs Moduli (GPa) = 18.84216 166.96129 85.49732
#
# Poissons Ratio (x) = 0.17141 0.50519
# Poissons Ratio (y) = 0.01934 0.37209
# Poissons Ratio (z) = 0.11134 0.72663
#
# Static dielectric constant tensor:
#      x y z
#    x 2.063950 -0.199210 -0.659710 
#    y -0.199210 2.077330 0.477950 
#    z -0.659710 0.477950 3.671810 
# 
# From -- ./inp_files/221447.got.cif
#   From: 2010.05.17/outbox.cif.g08.bks.cpg/sg2_111_cif.got.tgz:221447.got - 2010.06.03 11:33:40.
