data_PCOD9030207
_publ_section_title
;
Structure prediction by ZEFSAII (Michael W. Deem and Ramdas Pophale) SiO2 
 PCOD9030207
Probable space group: P -1
;
_chemical_formula_sum "Si O2"
_cell_formula_units_Z 14
_cell_length_a 7.919915
_cell_length_b 11.321388
_cell_length_c 11.406041
_cell_angle_alpha 62.037561
_cell_angle_beta 45.868660
_cell_angle_gamma 51.177293
_cell_volume 570.931683
_symmetry_space_group_name_H-M "P -1"
_symmetry_group_IT_number 2
_symmetry_cell_setting 'triclinic'
loop_
_space_group_symop_operation_xyz
x,y,z
-x,-y,-z
loop_
_atom_site_type_symbol
_atom_site_label
_atom_site_fract_x
_atom_site_fract_y
_atom_site_fract_z
Si Si1 0.123528 0.611414 0.416701
Si Si2 0.953406 0.600700 0.858181
Si Si3 0.333315 0.295536 0.729303
Si Si4 0.618041 0.223098 0.873752
Si Si5 0.574046 0.870356 0.624167
Si Si6 0.222043 0.035350 0.929540
Si Si7 0.621862 0.304742 0.359248
O O1 0.179661 0.707268 0.243923
O O2 0.420433 0.486576 0.369241
O O3 0.000000 0.500000 0.500000
O O4 0.888287 0.749595 0.536797
O O5 0.123779 0.474152 0.739116
O O6 0.088194 0.708668 0.760079
O O7 0.000000 0.500000 0.000000
O O8 0.636801 0.687568 0.960653
O O9 0.521167 0.252505 0.772729
O O10 0.166199 0.206259 0.874037
O O11 0.517216 0.250054 0.547025
O O12 0.725393 0.047760 0.932893
O O13 0.425236 0.775467 0.693815
O O14 0.500000 0.000000 0.500000
O O15 0.468834 0.950979 0.760473
O O16 0.000000 0.000000 0.000000
#
# Coordination Sequence:
#
# PCOD9030207 Si02
#       7
#     2   2   2   2   2   2   2
#     4  10  23  42  71  99 138 182 229 283 338 411
#     4  10  22  42  70 101 137 173 229 286 344 395
#     4  11  24  44  71 101 140 183 225 283 344 412
#     4  11  25  46  69 107 138 178 231 286 349 401
#     4  11  24  46  68 100 140 182 237 275 347 411
#     4  12  28  46  69 102 142 186 226 286 346 412
#     4  11  22  44  72 103 134 184 230 287 339 413
#
# _framework density 24.521322000000001
#
# number of rings (size 3 to 8) (size 9 to 14) (size 15 to 20)
#    0.000    1.143    4.286    1.714    8.000    0.000 
#    2.571    5.000    0.000    0.000    0.000    0.000 
#    0.000    0.000    0.000    0.000    0.000    0.000 
#
# Total GULP energy -78243.566177 kJ/mol
# GULP energy per Si atom -5588.826155 kJ/mol
# Density = 2.446551 g / cm^3
# Si number density = 24.521322 Si / 1000 Ang^3
#
#
#
# Elastic Constant Matrix: (Units=GPa)
#
#
# Indices 1 2 3 4 5 6 
#
# 1 48.0822 14.7141 7.4403 -15.7732 -9.8563 11.2515
# 2 14.7141 82.7915 5.1197 -16.1968 -7.6507 6.3786
# 3 7.4403 5.1197 77.5235 -15.4012 -21.8250 12.1787
# 4 -15.7732 -16.1968 -15.4012 55.9494 2.8924 -6.0212
# 5 -9.8563 -7.6507 -21.8250 2.8924 50.1930 -11.8407
# 6 11.2515 6.3786 12.1787 -6.0212 -11.8407 33.7523
#
#
#
# Elastic Compliance Matrix: (Units=1/GPa)
#
#
# Indices 1 2 3 4 5 6 
#
# 1 0.025477 -0.002680 0.000724 0.005786 0.003133 -0.006117
# 2 -0.002680 0.013312 0.000494 0.003081 0.001357 -0.000775
# 3 0.000724 0.000494 0.015821 0.004044 0.006114 -0.003177
# 4 0.005786 0.003081 0.004044 0.021462 0.002283 0.000659
# 5 0.003133 0.001357 0.006114 0.002283 0.024575 0.005521
# 6 -0.006117 -0.000775 -0.003177 0.000659 0.005521 0.035014
#
#
# Mechanical properties :
#
#
# Convention : Reuss Voigt Hill
#
# Bulk Modulus (GPa) = 19.34737 29.21616 24.28177
# Shear Modulus (GPa) = 32.08942 40.05382 36.07162
#
# Velocity S-wave (km/s) = 3.62143 4.04595 3.83956
# Velocity P-wave (km/s) = 5.03919 5.81092 5.43876
#
# Compressibility (1/GPa) = 0.05168660
#
# Stress axis : x y z
#
# Youngs Moduli (GPa) = 39.25044 75.11971 63.20685
#
# Poissons Ratio (x) = 0.20133 -0.04577
# Poissons Ratio (y) = 0.10519 -0.03122
# Poissons Ratio (z) = -0.02842 -0.03710
#
# Static dielectric constant tensor:
#      x y z
#    x 2.020360 -0.020490 0.015590 
#    y -0.020490 1.973920 0.008160 
#    z 0.015590 0.008160 1.990760 
# 
# From -- ./inp_files/183835.got.cif
#   From: 2010.05.17/outbox.cif.g08.bks.cpg/sg2_92_cif.got.tgz:183835.got - 2010.06.03 11:33:40.
