data_PCOD9030329
_publ_section_title
;
Structure prediction by ZEFSAII (Michael W. Deem and Ramdas Pophale) SiO2 
 PCOD9030329
Probable space group: P -1
;
_chemical_formula_sum "Si O2"
_cell_formula_units_Z 12
_cell_length_a 12.996019
_cell_length_b 9.707131
_cell_length_c 11.242184
_cell_angle_alpha 131.413492
_cell_angle_beta 71.342442
_cell_angle_gamma 68.216081
_cell_volume 576.624397
_symmetry_space_group_name_H-M "P -1"
_symmetry_group_IT_number 2
_symmetry_cell_setting 'triclinic'
loop_
_space_group_symop_operation_xyz
x,y,z
-x,-y,-z
loop_
_atom_site_type_symbol
_atom_site_label
_atom_site_fract_x
_atom_site_fract_y
_atom_site_fract_z
Si Si1 0.380132 0.317080 0.655964
Si Si2 0.462707 0.591761 0.203259
Si Si3 0.116967 0.358571 0.753576
Si Si4 0.094761 0.420789 0.292228
Si Si5 0.654009 0.622767 0.749636
Si Si6 0.511791 0.272991 0.339575
O O1 0.378851 0.508647 0.840826
O O2 0.188757 0.470884 0.787479
O O3 0.497838 0.186189 0.417763
O O4 0.500000 0.000000 0.500000
O O5 0.423711 0.447293 0.193311
O O6 0.283581 0.977387 0.491378
O O7 0.500000 0.500000 0.000000
O O8 0.023929 0.443662 0.707606
O O9 0.000000 0.500000 0.000000
O O10 0.167711 0.529828 0.342105
O O11 0.000000 0.500000 0.500000
O O12 0.290053 0.038469 0.978090
O O13 0.673031 0.525966 0.553436
O O14 0.500000 0.000000 0.000000
O O15 0.500000 0.500000 0.500000
#
# Coordination Sequence:
#
# PCOD9030329 Si02
#       6
#     2   2   2   2   2   2
#     4  10  22  42  70  93 130 178 224 266 325 403
#     4  11  25  42  71  99 127 180 234 263 327 406
#     4  11  26  45  67 100 142 171 218 285 343 387
#     4  11  25  43  67 100 141 171 215 284 346 381
#     4  10  24  42  69  94 136 174 224 267 329 399
#     4  11  22  43  71  95 128 178 232 263 321 411
#
# _framework density 20.810775
#
# number of rings (size 3 to 8) (size 9 to 14) (size 15 to 20)
#    0.000    1.333    1.667    3.000   16.333    0.667 
#    3.000    1.667    0.000    0.000    0.000    0.000 
#    0.000    0.000    0.000    0.000    0.000    0.000 
#
# Total GULP energy -66857.247406 kJ/mol
# GULP energy per Si atom -5571.437284 kJ/mol
# Density = 2.076341 g / cm^3
# Si number density = 20.810775 Si / 1000 Ang^3
#
#
#
# Elastic Constant Matrix: (Units=GPa)
#
#
# Indices 1 2 3 4 5 6 
#
# 1 235.1463 81.0458 39.6977 -15.6693 5.8427 -2.8074
# 2 81.0458 154.4916 42.0343 -33.7407 1.2707 4.9232
# 3 39.6977 42.0343 103.9901 -28.9426 14.7440 4.5311
# 4 -15.6693 -33.7407 -28.9426 39.0527 -4.9014 4.1666
# 5 5.8427 1.2707 14.7440 -4.9014 24.5308 -0.5323
# 6 -2.8074 4.9232 4.5311 4.1666 -0.5323 49.8826
#
#
#
# Elastic Compliance Matrix: (Units=1/GPa)
#
#
# Indices 1 2 3 4 5 6 
#
# 1 0.005358 -0.002787 -0.001235 -0.001339 -0.000640 0.000794
# 2 -0.002787 0.009806 -0.001232 0.006889 0.002239 -0.001564
# 3 -0.001235 -0.001232 0.013828 0.008096 -0.006378 -0.001948
# 4 -0.001339 0.006889 0.008096 0.037835 0.002555 -0.004624
# 5 -0.000640 0.002239 -0.006378 0.002555 0.045158 0.000591
# 6 0.000794 -0.001564 -0.001948 -0.004624 0.000591 0.020816
#
#
# Mechanical properties :
#
#
# Convention : Reuss Voigt Hill
#
# Bulk Modulus (GPa) = 54.10052 91.02039 72.56046
# Shear Modulus (GPa) = 33.45135 44.74989 39.10062
#
# Velocity S-wave (km/s) = 4.01360 4.64219 4.33929
# Velocity P-wave (km/s) = 6.89430 8.51853 7.74909
#
# Compressibility (1/GPa) = 0.01848411
#
# Stress axis : x y z
#
# Youngs Moduli (GPa) = 186.63767 101.97810 72.31621
#
# Poissons Ratio (x) = 0.28422 0.08933
# Poissons Ratio (y) = 0.52017 0.08907
# Poissons Ratio (z) = 0.23055 0.12560
#
# Static dielectric constant tensor:
#      x y z
#    x 1.846580 -0.111780 -0.041600 
#    y -0.111780 1.688780 -0.018030 
#    z -0.041600 -0.018030 1.696920 
# 
# From -- ./inp_files/166811.got.cif
#   From: 2010.05.17/outbox.cif.g08.bks.cpg/sg2_84_cif.got.tgz:166811.got - 2010.06.03 11:33:40.
