data_PCOD9030981
_publ_section_title
;
Structure prediction by ZEFSAII (Michael W. Deem and Ramdas Pophale) SiO2 
 PCOD9030981
Probable space group: P -1
;
_chemical_formula_sum "Si O2"
_cell_formula_units_Z 14
_cell_length_a 14.097452
_cell_length_b 13.927292
_cell_length_c 9.438663
_cell_angle_alpha 62.839547
_cell_angle_beta 135.769470
_cell_angle_gamma 149.370592
_cell_volume 587.998941
_symmetry_space_group_name_H-M "P -1"
_symmetry_group_IT_number 2
_symmetry_cell_setting 'triclinic'
loop_
_space_group_symop_operation_xyz
x,y,z
-x,-y,-z
loop_
_atom_site_type_symbol
_atom_site_label
_atom_site_fract_x
_atom_site_fract_y
_atom_site_fract_z
Si Si1 0.937797 0.244985 0.254312
Si Si2 0.694269 0.633080 0.983320
Si Si3 0.308651 0.725372 0.707547
Si Si4 0.767994 0.105759 0.626042
Si Si5 0.578396 0.201815 0.890461
Si Si6 0.160115 0.396045 0.102485
Si Si7 0.529777 0.302521 0.341046
O O1 0.055759 0.270352 0.220840
O O2 0.187865 0.460510 0.464383
O O3 0.735801 0.040151 0.276901
O O4 0.759019 0.224118 0.020716
O O5 0.649673 0.536623 0.852523
O O6 0.686338 0.751250 0.843848
O O7 0.969447 0.771056 0.240004
O O8 0.500000 0.500000 0.000000
O O9 0.454955 0.728799 0.782449
O O10 0.000000 0.500000 0.500000
O O11 0.361660 0.754132 0.907799
O O12 0.351901 0.872782 0.591342
O O13 0.899441 0.231946 0.832882
O O14 0.554094 0.864704 0.560015
O O15 0.689995 0.392593 0.830286
#
# Coordination Sequence:
#
# PCOD9030981 Si02
#       7
#     2   2   2   2   2   2   2
#     4  11  25  39  64  94 139 172 213 260 335 388
#     4  10  23  43  68  92 129 167 220 271 325 380
#     4  12  20  39  67  97 124 162 224 268 316 376
#     4  10  23  40  68  96 124 167 216 277 320 376
#     4  11  23  42  65  95 136 173 212 272 325 380
#     4  10  22  43  63  93 130 174 213 263 328 385
#     4  12  23  41  65  98 129 168 218 267 321 392
#
# _framework density 23.809567000000001
#
# number of rings (size 3 to 8) (size 9 to 14) (size 15 to 20)
#    0.857    0.286    2.857    3.857    0.000    4.000 
#    0.000    0.714    0.000    0.000    0.000    0.000 
#    0.000    0.000    0.000    0.000    0.000    0.000 
#
# Total GULP energy -78157.658683 kJ/mol
# GULP energy per Si atom -5582.689906 kJ/mol
# Density = 2.375538 g / cm^3
# Si number density = 23.809567 Si / 1000 Ang^3
#
#
#
# Elastic Constant Matrix: (Units=GPa)
#
#
# Indices 1 2 3 4 5 6 
#
# 1 124.0270 18.6116 28.7069 7.1240 8.1612 6.0977
# 2 18.6116 110.8676 29.5654 22.9898 9.4851 -7.9558
# 3 28.7069 29.5654 70.2799 24.8565 -9.3728 -1.6820
# 4 7.1240 22.9898 24.8565 39.2852 -0.3626 6.7947
# 5 8.1612 9.4851 -9.3728 -0.3626 37.8627 -0.3657
# 6 6.0977 -7.9558 -1.6820 6.7947 -0.3657 35.5582
#
#
#
# Elastic Compliance Matrix: (Units=1/GPa)
#
#
# Indices 1 2 3 4 5 6 
#
# 1 0.009474 -0.000656 -0.004803 0.002097 -0.003070 -0.002431
# 2 -0.000656 0.011634 -0.003119 -0.005364 -0.003562 0.003556
# 3 -0.004803 -0.003119 0.022965 -0.012398 0.007418 0.003658
# 4 0.002097 -0.005364 -0.012398 0.037660 -0.001907 -0.009362
# 5 -0.003070 -0.003562 0.007418 -0.001907 0.029791 0.000751
# 6 -0.002431 0.003556 0.003658 -0.009362 0.000751 0.031305
#
#
# Mechanical properties :
#
#
# Convention : Reuss Voigt Hill
#
# Bulk Modulus (GPa) = 37.15293 50.99361 44.07327
# Shear Modulus (GPa) = 29.59342 37.76059 33.67700
#
# Velocity S-wave (km/s) = 3.52933 3.98671 3.76497
# Velocity P-wave (km/s) = 5.67859 6.53112 6.11972
#
# Compressibility (1/GPa) = 0.02691578
#
# Stress axis : x y z
#
# Youngs Moduli (GPa) = 105.55177 85.95607 43.54526
#
# Poissons Ratio (x) = 0.05641 0.20915
# Poissons Ratio (y) = 0.06927 0.13582
# Poissons Ratio (z) = 0.50697 0.26810
#
# Static dielectric constant tensor:
#      x y z
#    x 1.973940 0.059250 -0.012640 
#    y 0.059250 2.013370 0.023190 
#    z -0.012640 0.023190 1.891510 
# 
# From -- ./inp_files/454775.got.cif
#   From: 2010.05.17/outbox.cif.g08.bks.cpg/sg2_228_cif.got.tgz:454775.got - 2010.06.03 11:33:40.
