data_PCOD9030522
_publ_section_title
;
Structure prediction by ZEFSAII (Michael W. Deem and Ramdas Pophale) SiO2 
 PCOD9030522
Probable space group: P -1
;
_chemical_formula_sum "Si O2"
_cell_formula_units_Z 16
_cell_length_a 8.659733
_cell_length_b 8.089298
_cell_length_c 11.382416
_cell_angle_alpha 61.706644
_cell_angle_beta 110.309892
_cell_angle_gamma 101.260153
_cell_volume 657.987374
_symmetry_space_group_name_H-M "P -1"
_symmetry_group_IT_number 2
_symmetry_cell_setting 'triclinic'
loop_
_space_group_symop_operation_xyz
x,y,z
-x,-y,-z
loop_
_atom_site_type_symbol
_atom_site_label
_atom_site_fract_x
_atom_site_fract_y
_atom_site_fract_z
Si Si1 0.748685 0.951693 0.758441
Si Si2 0.050227 0.420724 0.413131
Si Si3 0.634004 0.340312 0.580960
Si Si4 0.096231 0.082980 0.695338
Si Si5 0.771576 0.320420 0.191223
Si Si6 0.500138 0.651799 0.700810
Si Si7 0.626270 0.291202 0.935002
Si Si8 0.725176 0.889215 0.031054
O O1 0.648391 0.803680 0.700912
O O2 0.911104 0.027689 0.707598
O O3 0.629611 0.126058 0.696581
O O4 0.793879 0.862971 0.927028
O O5 0.198622 0.558056 0.367186
O O6 0.000000 0.500000 0.500000
O O7 0.915220 0.407043 0.280867
O O8 0.102843 0.215253 0.538347
O O9 0.500000 0.500000 0.500000
O O10 0.626576 0.305838 0.449616
O O11 0.189309 0.896428 0.747968
O O12 0.181289 0.174245 0.804580
O O13 0.603599 0.343016 0.209380
O O14 0.739573 0.396006 0.027091
O O15 0.568714 0.444145 0.777024
O O16 0.717872 0.113967 0.970044
O O17 0.458673 0.202653 0.978963
#
# Coordination Sequence:
#
# PCOD9030522 Si02
#       8
#     2   2   2   2   2   2   2   2
#     4  12  25  43  64 102 136 170 212 275 333 381
#     4  12  24  45  68  94 127 175 222 267 320 394
#     4  12  28  44  68  98 130 173 219 274 328 385
#     4  11  25  44  66  97 134 172 219 267 329 383
#     4  11  24  42  68  97 128 173 219 265 320 391
#     4  12  24  43  69  97 134 172 219 266 328 389
#     4  10  22  43  69 102 125 175 221 267 321 389
#     4  10  22  42  71  96 133 168 222 270 321 385
#
# _framework density 24.316573999999999
#
# number of rings (size 3 to 8) (size 9 to 14) (size 15 to 20)
#    0.000    0.750    3.750    3.000    3.500    0.000 
#    2.250    1.250    0.000    0.000    0.000    0.000 
#    0.000    0.000    0.000    0.000    0.000    0.000 
#
# Total GULP energy -89501.244347 kJ/mol
# GULP energy per Si atom -5593.827772 kJ/mol
# Density = 2.426123 g / cm^3
# Si number density = 24.316574 Si / 1000 Ang^3
#
#
#
# Elastic Constant Matrix: (Units=GPa)
#
#
# Indices 1 2 3 4 5 6 
#
# 1 25.8874 6.3413 -13.3781 -1.2945 5.7999 -3.7728
# 2 6.3413 88.8826 23.7303 2.2437 8.9359 10.1091
# 3 -13.3781 23.7303 121.1861 26.9684 7.8542 16.7279
# 4 -1.2945 2.2437 26.9684 44.4496 -0.6568 14.8614
# 5 5.7999 8.9359 7.8542 -0.6568 30.5727 4.7968
# 6 -3.7728 10.1091 16.7279 14.8614 4.7968 32.4812
#
#
#
# Elastic Compliance Matrix: (Units=1/GPa)
#
#
# Indices 1 2 3 4 5 6 
#
# 1 0.046510 -0.004805 0.006901 -0.005169 -0.010440 0.007250
# 2 -0.004805 0.012907 -0.002931 0.002266 -0.001449 -0.003888
# 3 0.006901 -0.002931 0.011314 -0.006325 -0.003382 -0.000719
# 4 -0.005169 0.002266 -0.006325 0.030354 0.004574 -0.012612
# 5 -0.010440 -0.001449 -0.003382 0.004574 0.037115 -0.006594
# 6 0.007250 -0.003888 -0.000719 -0.012612 -0.006594 0.039954
#
#
# Mechanical properties :
#
#
# Convention : Reuss Voigt Hill
#
# Bulk Modulus (GPa) = 14.48024 29.92701 22.20362
# Shear Modulus (GPa) = 24.64950 36.11821 30.38385
#
# Velocity S-wave (km/s) = 3.18731 3.85818 3.53868
# Velocity P-wave (km/s) = 4.41736 5.67287 5.08402
#
# Compressibility (1/GPa) = 0.06905964
#
# Stress axis : x y z
#
# Youngs Moduli (GPa) = 21.50087 77.47738 88.38891
#
# Poissons Ratio (x) = 0.37230 -0.61001
# Poissons Ratio (y) = 0.10332 0.25911
# Poissons Ratio (z) = -0.14839 0.22712
#
# Static dielectric constant tensor:
#      x y z
#    x 1.934320 -0.053080 -0.026250 
#    y -0.053080 1.954990 -0.036690 
#    z -0.026250 -0.036690 2.024100 
# 
# From -- ./inp_files/381490.got.cif
#   From: 2010.05.17/outbox.cif.g08.bks.cpg/sg2_191_cif.got.tgz:381490.got - 2010.06.03 11:33:40.
