data_PCOD9030887
_publ_section_title
;
Structure prediction by ZEFSAII (Michael W. Deem and Ramdas Pophale) SiO2 
 PCOD9030887
Probable space group: P -1
;
_chemical_formula_sum "Si O2"
_cell_formula_units_Z 14
_cell_length_a 21.280900
_cell_length_b 5.271899
_cell_length_c 4.960210
_cell_angle_alpha 87.005394
_cell_angle_beta 92.964117
_cell_angle_gamma 77.459762
_cell_volume 541.336168
_symmetry_space_group_name_H-M "P -1"
_symmetry_group_IT_number 2
_symmetry_cell_setting 'triclinic'
loop_
_space_group_symop_operation_xyz
x,y,z
-x,-y,-z
loop_
_atom_site_type_symbol
_atom_site_label
_atom_site_fract_x
_atom_site_fract_y
_atom_site_fract_z
Si Si1 0.633592 0.154749 0.672481
Si Si2 0.432351 0.594826 0.837133
Si Si3 0.788413 0.762980 0.164735
Si Si4 0.332289 0.366572 0.592122
Si Si5 0.159652 0.012888 0.296891
Si Si6 0.051814 0.753916 0.416337
Si Si7 0.918198 0.541209 0.056948
O O1 0.570764 0.255656 0.456832
O O2 0.678238 0.346961 0.560640
O O3 0.659146 0.857235 0.617208
O O4 0.614417 0.222030 0.970298
O O5 0.398145 0.358154 0.771850
O O6 0.500000 0.500000 0.000000
O O7 0.724028 0.674816 0.224614
O O8 0.815916 0.854286 0.444610
O O9 0.787208 0.988185 0.926345
O O10 0.842338 0.527676 0.063363
O O11 0.096818 0.184325 0.112811
O O12 0.125387 0.796014 0.418812
O O13 0.040563 0.671034 0.116030
O O14 0.056924 0.513155 0.635702
O O15 0.000000 0.000000 0.500000
#
# Coordination Sequence:
#
# PCOD9030887 Si02
#       7
#     2   2   2   2   2   2   2
#     4  10  25  40  68 102 136 177 241 278 359 409
#     4  10  24  45  69 100 143 185 233 289 351 416
#     4  10  22  44  64  88 131 174 217 280 343 410
#     4  10  26  43  70 104 138 185 235 293 352 412
#     4  10  23  42  62  91 125 170 215 265 339 396
#     4  12  24  40  67  97 126 170 220 273 336 412
#     4  10  22  43  60  93 128 166 216 267 340 393
#
# _framework density 25.861934000000002
#
# number of rings (size 3 to 8) (size 9 to 14) (size 15 to 20)
#    1.714    0.000    1.429    1.714    4.000    4.571 
#    2.571    0.000    0.000    0.000    0.000    0.000 
#    0.000    0.000    0.000    0.000    0.000    0.000 
#
# Total GULP energy -78164.874864 kJ/mol
# GULP energy per Si atom -5583.205347 kJ/mol
# Density = 2.580307 g / cm^3
# Si number density = 25.861934 Si / 1000 Ang^3
#
#
#
# Elastic Constant Matrix: (Units=GPa)
#
#
# Indices 1 2 3 4 5 6 
#
# 1 101.5722 23.6615 25.7636 -9.5039 -5.8519 23.3625
# 2 23.6615 91.5300 38.7205 3.3520 0.5362 16.3139
# 3 25.7636 38.7205 136.0980 1.8941 5.9081 12.1468
# 4 -9.5039 3.3520 1.8941 37.4537 -10.9396 3.9897
# 5 -5.8519 0.5362 5.9081 -10.9396 37.9296 -0.0231
# 6 23.3625 16.3139 12.1468 3.9897 -0.0231 31.3946
#
#
#
# Elastic Compliance Matrix: (Units=1/GPa)
#
#
# Indices 1 2 3 4 5 6 
#
# 1 0.013521 -0.001376 -0.001578 0.005818 0.004024 -0.009473
# 2 -0.001376 0.013471 -0.003136 -0.000958 -0.000193 -0.004641
# 3 -0.001578 -0.003136 0.008671 -0.001055 -0.001855 -0.000418
# 4 0.005818 -0.000958 -0.001055 0.032134 0.010339 -0.007499
# 5 0.004024 -0.000193 -0.001855 0.010339 0.030257 -0.003468
# 6 -0.009473 -0.004641 -0.000418 -0.007499 -0.003468 0.042426
#
#
# Mechanical properties :
#
#
# Convention : Reuss Voigt Hill
#
# Bulk Modulus (GPa) = 42.58473 56.16570 49.37522
# Shear Modulus (GPa) = 31.15490 37.42589 34.29040
#
# Velocity S-wave (km/s) = 3.47459 3.80826 3.64524
# Velocity P-wave (km/s) = 5.70955 6.41107 6.07045
#
# Compressibility (1/GPa) = 0.02348259
#
# Stress axis : x y z
#
# Youngs Moduli (GPa) = 73.95862 74.23208 115.32447
#
# Poissons Ratio (x) = 0.10214 0.18202
# Poissons Ratio (y) = 0.10176 0.36168
# Poissons Ratio (z) = 0.11673 0.23281
#
# Static dielectric constant tensor:
#      x y z
#    x 2.124560 -0.019670 0.012530 
#    y -0.019670 2.025990 -0.024440 
#    z 0.012530 -0.024440 1.980050 
# 
# From -- ./inp_files/113964.got.cif
#   From: 2010.05.17/outbox.cif.g08.bks.cpg/sg2_57_cif.got.tgz:113964.got - 2010.06.03 11:33:40.
