data_PCOD9030024
_publ_section_title
;
Structure prediction by ZEFSAII (Michael W. Deem and Ramdas Pophale) SiO2 
 PCOD9030024
Probable space group: P -1
;
_chemical_formula_sum "Si O2"
_cell_formula_units_Z 16
_cell_length_a 14.378626
_cell_length_b 21.737357
_cell_length_c 7.684717
_cell_angle_alpha 91.780999
_cell_angle_beta 97.660459
_cell_angle_gamma 158.749330
_cell_volume 777.970697
_symmetry_space_group_name_H-M "P -1"
_symmetry_group_IT_number 2
_symmetry_cell_setting 'triclinic'
loop_
_space_group_symop_operation_xyz
x,y,z
-x,-y,-z
loop_
_atom_site_type_symbol
_atom_site_label
_atom_site_fract_x
_atom_site_fract_y
_atom_site_fract_z
Si Si1 0.978385 0.560469 0.031809
Si Si2 0.604547 0.127440 0.123096
Si Si3 0.632134 0.797643 0.028372
Si Si4 0.280183 0.308171 0.424192
Si Si5 0.721747 0.825083 0.661504
Si Si6 0.880192 0.075015 0.987038
Si Si7 0.809132 0.012195 0.581172
Si Si8 0.355328 0.842445 0.469945
O O1 0.650145 0.379821 0.942372
O O2 0.117674 0.675017 0.254732
O O3 0.000000 0.500000 0.000000
O O4 0.165604 0.702914 0.935595
O O5 0.738798 0.213156 0.357085
O O6 0.307434 0.980815 0.050635
O O7 0.500000 0.000000 0.000000
O O8 0.616374 0.756621 0.830293
O O9 0.666635 0.889540 0.984015
O O10 0.928181 0.962783 0.212811
O O11 0.500000 0.500000 0.500000
O O12 0.025195 0.153264 0.488300
O O13 0.391535 0.307074 0.467863
O O14 0.141999 0.230908 0.193744
O O15 0.667691 0.856329 0.553123
O O16 0.968381 0.118158 0.815149
O O17 0.584025 0.928519 0.512433
O O18 0.500000 0.000000 0.500000
#
# Coordination Sequence:
#
# PCOD9030024 Si02
#       8
#     2   2   2   2   2   2   2   2
#     4  12  24  42  70 105 134 172 229 283 334 402
#     4  11  22  43  66  96 133 183 216 263 353 402
#     4   9  19  40  69  91 127 170 214 277 323 385
#     4  11  23  39  63  96 128 167 219 270 331 395
#     4   9  20  43  65  91 130 177 217 265 332 389
#     4   9  20  42  62  85 130 169 207 266 332 392
#     4  10  22  42  69  89 123 178 223 264 332 402
#     4  11  25  44  69  98 137 180 223 276 346 405
#
# _framework density 20.566327999999999
#
# number of rings (size 3 to 8) (size 9 to 14) (size 15 to 20)
#    0.000    1.750    2.500    1.875    1.750    2.000 
#    2.250    0.000    0.000    0.000    0.000    0.000 
#    0.000    0.000    0.000    0.000    0.000    0.000 
#
# Total GULP energy -89229.459135 kJ/mol
# GULP energy per Si atom -5576.841196 kJ/mol
# Density = 2.051952 g / cm^3
# Si number density = 20.566328 Si / 1000 Ang^3
#
#
#
# Elastic Constant Matrix: (Units=GPa)
#
#
# Indices 1 2 3 4 5 6 
#
# 1 120.7882 37.9687 27.1440 4.0404 -21.3345 -15.0183
# 2 37.9687 74.0422 16.7751 0.8934 -16.0589 -14.0699
# 3 27.1440 16.7751 81.0314 -5.5780 -18.5812 -11.3726
# 4 4.0404 0.8934 -5.5780 15.9919 -3.9471 0.1095
# 5 -21.3345 -16.0589 -18.5812 -3.9471 31.1384 0.3201
# 6 -15.0183 -14.0699 -11.3726 0.1095 0.3201 26.2539
#
#
#
# Elastic Compliance Matrix: (Units=1/GPa)
#
#
# Indices 1 2 3 4 5 6 
#
# 1 0.011092 -0.003637 -0.001558 -0.002058 0.004496 0.003675
# 2 -0.003637 0.018341 0.000306 0.001747 0.007291 0.007785
# 3 -0.001558 0.000306 0.016566 0.008579 0.009999 0.006291
# 4 -0.002058 0.001747 0.008579 0.069222 0.013354 0.003024
# 5 0.004496 0.007291 0.009999 0.013354 0.046510 0.010188
# 6 0.003675 0.007785 0.006291 0.003024 0.010188 0.046953
#
#
# Mechanical properties :
#
#
# Convention : Reuss Voigt Hill
#
# Bulk Modulus (GPa) = 27.60724 48.84861 38.22792
# Shear Modulus (GPa) = 21.68880 27.60845 24.64862
#
# Velocity S-wave (km/s) = 3.25095 3.66787 3.46568
# Velocity P-wave (km/s) = 5.24826 6.46072 5.88580
#
# Compressibility (1/GPa) = 0.03622239
#
# Stress axis : x y z
#
# Youngs Moduli (GPa) = 90.15421 54.52234 60.36602
#
# Poissons Ratio (x) = 0.19828 0.09403
# Poissons Ratio (y) = 0.32787 -0.01848
# Poissons Ratio (z) = 0.14043 -0.01669
#
# Static dielectric constant tensor:
#      x y z
#    x 1.492020 -0.067470 0.152750 
#    y -0.067470 1.687710 0.015620 
#    z 0.152750 0.015620 1.674460 
# 
# From -- ./inp_files/319371.got.cif
#   From: 2010.05.17/outbox.cif.g08.bks.cpg/sg2_160_cif.got.tgz:319371.got - 2010.06.03 11:33:40.
