data_PCOD9030042
_publ_section_title
;
Structure prediction by ZEFSAII (Michael W. Deem and Ramdas Pophale) SiO2 
 PCOD9030042
Probable space group: P -1
;
_chemical_formula_sum "Si O2"
_cell_formula_units_Z 16
_cell_length_a 17.264412
_cell_length_b 10.681026
_cell_length_c 9.819523
_cell_angle_alpha 115.366531
_cell_angle_beta 54.100810
_cell_angle_gamma 149.531798
_cell_volume 730.569054
_symmetry_space_group_name_H-M "P -1"
_symmetry_group_IT_number 2
_symmetry_cell_setting 'triclinic'
loop_
_space_group_symop_operation_xyz
x,y,z
-x,-y,-z
loop_
_atom_site_type_symbol
_atom_site_label
_atom_site_fract_x
_atom_site_fract_y
_atom_site_fract_z
Si Si1 0.017449 0.063267 0.855435
Si Si2 0.389780 0.733065 0.034728
Si Si3 0.490179 0.361014 0.651318
Si Si4 0.085218 0.558276 0.299121
Si Si5 0.866423 0.171860 0.101313
Si Si6 0.176386 0.190608 0.320298
Si Si7 0.603480 0.467409 0.306702
Si Si8 0.726749 0.016458 0.897243
O O1 0.210182 0.254369 0.701356
O O2 0.875082 0.830499 0.790810
O O3 0.993178 0.199385 0.942221
O O4 0.000000 0.000000 0.000000
O O5 0.212375 0.581299 0.202998
O O6 0.357433 0.604654 0.873553
O O7 0.500000 0.000000 0.000000
O O8 0.522279 0.801702 0.018759
O O9 0.659324 0.539695 0.651811
O O10 0.499457 0.293343 0.465295
O O11 0.485313 0.514771 0.675513
O O12 0.314185 0.115388 0.796644
O O13 0.198427 0.818206 0.236410
O O14 0.000000 0.500000 0.500000
O O15 0.947437 0.350968 0.227429
O O16 0.818928 0.189878 0.017791
O O17 0.229604 0.092764 0.209058
O O18 0.000000 0.000000 0.500000
#
# Coordination Sequence:
#
# PCOD9030042 Si02
#       8
#     2   2   2   2   2   2   2   2
#     4  11  22  38  62  93 127 174 215 263 331 398
#     4  10  22  42  69  93 130 178 222 268 331 389
#     4  11  24  38  66 100 137 172 220 275 337 390
#     4  11  25  44  71  97 127 174 230 277 322 395
#     4  11  24  42  64  95 132 173 215 274 334 395
#     4  11  23  42  65  97 135 172 219 274 333 391
#     4  11  21  40  64  98 136 173 218 279 326 399
#     4  10  24  45  67  94 135 176 218 273 335 393
#
# _framework density 21.900736999999999
#
# number of rings (size 3 to 8) (size 9 to 14) (size 15 to 20)
#    0.000    1.250    5.000    0.375    3.500    4.000 
#    2.250    0.625    0.000    0.000    0.000    0.000 
#    0.000    0.000    0.000    0.000    0.000    0.000 
#
# Total GULP energy -89391.596308 kJ/mol
# GULP energy per Si atom -5586.974769 kJ/mol
# Density = 2.185089 g / cm^3
# Si number density = 21.900737 Si / 1000 Ang^3
#
#
#
# Elastic Constant Matrix: (Units=GPa)
#
#
# Indices 1 2 3 4 5 6 
#
# 1 106.5726 27.6086 53.3201 -2.5081 4.2851 31.5094
# 2 27.6086 62.9114 20.6993 -0.1740 -0.9134 30.9264
# 3 53.3201 20.6993 141.4299 -1.1800 -1.5269 20.9648
# 4 -2.5081 -0.1740 -1.1800 32.0222 2.7044 1.1764
# 5 4.2851 -0.9134 -1.5269 2.7044 37.8942 -2.3044
# 6 31.5094 30.9264 20.9648 1.1764 -2.3044 41.4525
#
#
#
# Elastic Compliance Matrix: (Units=1/GPa)
#
#
# Indices 1 2 3 4 5 6 
#
# 1 0.014196 -0.000865 -0.004010 0.001466 -0.002397 -0.008293
# 2 -0.000865 0.025311 -0.000723 0.000740 -0.000463 -0.017908
# 3 -0.004010 -0.000723 0.008819 -0.000025 0.000743 -0.000831
# 4 0.001466 0.000740 -0.000025 0.031663 -0.002573 -0.002696
# 5 -0.002397 -0.000463 0.000743 -0.002573 0.027068 0.003369
# 6 -0.008293 -0.017908 -0.000831 -0.002696 0.003369 0.044472
#
#
# Mechanical properties :
#
#
# Convention : Reuss Voigt Hill
#
# Bulk Modulus (GPa) = 26.93111 57.12999 42.03055
# Shear Modulus (GPa) = 28.55494 36.22617 32.39055
#
# Velocity S-wave (km/s) = 3.61478 4.07148 3.84991
# Velocity P-wave (km/s) = 5.45397 6.94587 6.24464
#
# Compressibility (1/GPa) = 0.03713178
#
# Stress axis : x y z
#
# Youngs Moduli (GPa) = 70.44123 39.50810 113.38924
#
# Poissons Ratio (x) = 0.03417 0.45468
# Poissons Ratio (y) = 0.06092 0.08195
# Poissons Ratio (z) = 0.28246 0.02855
#
# Static dielectric constant tensor:
#      x y z
#    x 1.820150 0.021090 0.017260 
#    y 0.021090 1.887130 -0.019590 
#    z 0.017260 -0.019590 1.824080 
# 
# From -- ./inp_files/208904.got.cif
#   From: 2010.05.17/outbox.cif.g08.bks.cpg/sg2_105_cif.got.tgz:208904.got - 2010.06.03 11:33:40.
