data_PCOD9030094
_publ_section_title
;
Structure prediction by ZEFSAII (Michael W. Deem and Ramdas Pophale) SiO2 
 PCOD9030094
Probable space group: P -1
;
_chemical_formula_sum "Si O2"
_cell_formula_units_Z 15
_cell_length_a 10.777387
_cell_length_b 13.187491
_cell_length_c 9.089860
_cell_angle_alpha 60.279270
_cell_angle_beta 54.253934
_cell_angle_gamma 103.260159
_cell_volume 616.133884
_symmetry_space_group_name_H-M "P -1"
_symmetry_group_IT_number 2
_symmetry_cell_setting 'triclinic'
loop_
_space_group_symop_operation_xyz
x,y,z
-x,-y,-z
loop_
_atom_site_type_symbol
_atom_site_label
_atom_site_fract_x
_atom_site_fract_y
_atom_site_fract_z
Si Si1 0.631495 0.509658 0.767725
Si Si2 0.355921 0.674137 0.698212
Si Si3 0.234472 0.230857 0.022949
Si Si4 0.817051 0.796436 0.246403
Si Si5 0.000000 0.500000 0.500000
Si Si6 0.802007 0.034483 0.662422
Si Si7 0.611712 0.233571 0.074540
Si Si8 0.122279 0.663970 0.603780
O O1 0.820707 0.702758 0.439723
O O2 0.500000 0.500000 0.000000
O O3 0.462978 0.394918 0.829721
O O4 0.712189 0.424622 0.824275
O O5 0.566127 0.710140 0.496150
O O6 0.421605 0.786445 0.715597
O O7 0.291524 0.714277 0.574739
O O8 0.127449 0.476650 0.045725
O O9 0.039269 0.148255 0.334327
O O10 0.234987 0.090218 0.107576
O O11 0.175459 0.249134 0.891979
O O12 0.000000 0.000000 0.000000
O O13 0.110144 0.571827 0.541716
O O14 0.169277 0.705694 0.177870
O O15 0.805220 0.167436 0.617459
O O16 0.610392 0.909999 0.760092
#
# Coordination Sequence:
#
# PCOD9030094 Si02
#       8
#     2   2   2   2   1   2   2   2
#     4  11  23  42  69  91 130 184 216 267 353 394
#     4  10  22  43  66  93 137 175 223 274 339 396
#     4  10  24  41  67  99 134 166 229 278 333 412
#     4  12  25  41  66 105 135 172 228 286 328 402
#     4  10  24  42  62  94 126 172 226 266 322 402
#     4  10  22  42  69  96 130 176 221 279 346 389
#     4  10  22  43  64  92 130 172 225 275 328 407
#     4  10  23  43  71  93 129 184 223 277 333 400
#
# _framework density 24.345358999999998
#
# number of rings (size 3 to 8) (size 9 to 14) (size 15 to 20)
#    0.000    1.600    1.333    2.000    9.333    1.067 
#    7.200    0.000    0.000    0.000    0.000    0.000 
#    0.000    0.000    0.000    0.000    0.000    0.000 
#
# Total GULP energy -83749.131582 kJ/mol
# GULP energy per Si atom -5583.275439 kJ/mol
# Density = 2.428995 g / cm^3
# Si number density = 24.345359 Si / 1000 Ang^3
#
#
#
# Elastic Constant Matrix: (Units=GPa)
#
#
# Indices 1 2 3 4 5 6 
#
# 1 96.2847 45.9182 23.5765 -8.0816 5.4820 2.3076
# 2 45.9182 77.8671 23.5924 -5.8093 26.0183 5.3539
# 3 23.5765 23.5924 70.3542 -2.7923 11.6163 -11.3589
# 4 -8.0816 -5.8093 -2.7923 37.4337 7.5368 5.0993
# 5 5.4820 26.0183 11.6163 7.5368 41.4974 5.0095
# 6 2.3076 5.3539 -11.3589 5.0993 5.0095 36.3408
#
#
#
# Elastic Compliance Matrix: (Units=1/GPa)
#
#
# Indices 1 2 3 4 5 6 
#
# 1 0.015595 -0.009807 -0.002917 0.000809 0.004909 -0.001248
# 2 -0.009807 0.024688 -0.002948 0.004653 -0.013880 -0.002675
# 3 -0.002917 -0.002948 0.017853 0.000055 -0.003581 0.006686
# 4 0.000809 0.004653 0.000055 0.029739 -0.007983 -0.003792
# 5 0.004909 -0.013880 -0.003581 -0.007983 0.034977 -0.003087
# 6 -0.001248 -0.002675 0.006686 -0.003792 -0.003087 0.031038
#
#
# Mechanical properties :
#
#
# Convention : Reuss Voigt Hill
#
# Bulk Modulus (GPa) = 37.32485 47.85336 42.58911
# Shear Modulus (GPa) = 25.75140 33.14897 29.45018
#
# Velocity S-wave (km/s) = 3.25584 3.69401 3.48182
# Velocity P-wave (km/s) = 5.43127 6.15573 5.80481
#
# Compressibility (1/GPa) = 0.02679180
#
# Stress axis : x y z
#
# Youngs Moduli (GPa) = 64.12144 40.50624 56.01355
#
# Poissons Ratio (x) = 0.39723 0.16342
# Poissons Ratio (y) = 0.62882 0.16512
# Poissons Ratio (z) = 0.18707 0.11940
#
# Static dielectric constant tensor:
#      x y z
#    x 1.667150 0.129390 0.339860 
#    y 0.129390 1.781290 -0.242960 
#    z 0.339860 -0.242960 1.570210 
# 
# From -- ./inp_files/171731.got.cif
#   From: 2010.05.17/outbox.cif.g08.bks.cpg/sg2_86_cif.got.tgz:171731.got - 2010.06.03 11:33:40.
