data_PCOD9030586
_publ_section_title
;
Structure prediction by ZEFSAII (Michael W. Deem and Ramdas Pophale) SiO2 
 PCOD9030586
Probable space group: P -1
;
_chemical_formula_sum "Si O2"
_cell_formula_units_Z 14
_cell_length_a 16.080062
_cell_length_b 9.090321
_cell_length_c 6.833971
_cell_angle_alpha 133.079908
_cell_angle_beta 105.086841
_cell_angle_gamma 62.321651
_cell_volume 643.624410
_symmetry_space_group_name_H-M "P -1"
_symmetry_group_IT_number 2
_symmetry_cell_setting 'triclinic'
loop_
_space_group_symop_operation_xyz
x,y,z
-x,-y,-z
loop_
_atom_site_type_symbol
_atom_site_label
_atom_site_fract_x
_atom_site_fract_y
_atom_site_fract_z
Si Si1 0.907372 0.194930 0.716376
Si Si2 0.974833 0.651574 0.814349
Si Si3 0.497809 0.738524 0.192752
Si Si4 0.433044 0.015489 0.788595
Si Si5 0.153988 0.891602 0.000872
Si Si6 0.812912 0.499633 0.603355
Si Si7 0.320419 0.018491 0.065471
O O1 0.827767 0.327417 0.630683
O O2 0.861500 0.100707 0.770082
O O3 0.000000 0.000000 0.500000
O O4 0.945275 0.363312 0.997682
O O5 0.888863 0.600014 0.793426
O O6 0.000000 0.500000 0.500000
O O7 0.934541 0.905876 0.957279
O O8 0.582978 0.762909 0.144240
O O9 0.483881 0.835763 0.490853
O O10 0.500000 0.500000 0.000000
O O11 0.407424 0.889525 0.145067
O O12 0.349031 0.980895 0.818594
O O13 0.500000 0.000000 0.000000
O O14 0.162090 0.657670 0.712952
O O15 0.242060 0.936214 0.016357
O O16 0.718544 0.715286 0.702134
#
# Coordination Sequence:
#
# PCOD9030586 Si02
#       7
#     2   2   2   2   2   2   2
#     4  12  23  40  67  90 121 172 228 268 319 379
#     4  11  21  42  65  88 124 168 219 275 319 377
#     4  10  22  42  72 101 126 168 209 253 310 381
#     4   9  21  43  68 100 130 163 210 252 309 383
#     4  11  24  41  60  93 132 166 212 273 327 369
#     4  11  24  41  61  92 128 171 208 272 328 372
#     4  10  25  41  61  95 136 167 205 261 321 383
#
# _framework density 21.751815000000001
#
# number of rings (size 3 to 8) (size 9 to 14) (size 15 to 20)
#    0.000    1.429    2.857    1.714    0.000   10.286 
#    0.000    0.000    0.000    0.000    0.000    0.000 
#    0.000    0.000    0.000    0.000    0.000    0.000 
#
# Total GULP energy -78043.329185 kJ/mol
# GULP energy per Si atom -5574.523513 kJ/mol
# Density = 2.170231 g / cm^3
# Si number density = 21.751815 Si / 1000 Ang^3
#
#
#
# Elastic Constant Matrix: (Units=GPa)
#
#
# Indices 1 2 3 4 5 6 
#
# 1 100.0108 36.8381 30.3111 -10.8930 -17.2893 33.7271
# 2 36.8381 143.9549 54.8231 -3.6520 -18.6671 16.0754
# 3 30.3111 54.8231 122.0444 -6.5824 -9.8260 16.2892
# 4 -10.8930 -3.6520 -6.5824 34.4795 12.8635 -5.1030
# 5 -17.2893 -18.6671 -9.8260 12.8635 27.3779 -8.9733
# 6 33.7271 16.0754 16.2892 -5.1030 -8.9733 42.8277
#
#
#
# Elastic Compliance Matrix: (Units=1/GPa)
#
#
# Indices 1 2 3 4 5 6 
#
# 1 0.015191 -0.001742 -0.001278 0.001399 0.004077 -0.009802
# 2 -0.001742 0.009302 -0.003456 -0.002083 0.004978 -0.000011
# 3 -0.001278 -0.003456 0.010295 0.001160 -0.000534 -0.001585
# 4 0.001399 -0.002083 0.001160 0.035757 -0.016937 -0.000049
# 5 0.004077 0.004978 -0.000534 -0.016937 0.051541 0.003905
# 6 -0.009802 -0.000011 -0.001585 -0.000049 0.003905 0.032488
#
#
# Mechanical properties :
#
#
# Convention : Reuss Voigt Hill
#
# Bulk Modulus (GPa) = 45.79780 67.77275 56.78528
# Shear Modulus (GPa) = 28.60335 37.20621 32.90478
#
# Velocity S-wave (km/s) = 3.63021 4.14029 3.89361
# Velocity P-wave (km/s) = 6.21865 7.35397 6.81001
#
# Compressibility (1/GPa) = 0.02183511
#
# Stress axis : x y z
#
# Youngs Moduli (GPa) = 65.83027 107.49887 97.13445
#
# Poissons Ratio (x) = 0.18723 0.12418
# Poissons Ratio (y) = 0.11466 0.33573
# Poissons Ratio (z) = 0.08416 0.37155
#
# Static dielectric constant tensor:
#      x y z
#    x 1.941010 0.005830 -0.019280 
#    y 0.005830 1.800680 0.001190 
#    z -0.019280 0.001190 1.795060 
# 
# From -- ./inp_files/44823.got.cif
#   From: 2010.05.17/outbox.cif.g08.bks.cpg/sg2_23_cif.got.tgz:44823.got - 2010.06.03 11:33:40.
