data_PCOD9030616
_publ_section_title
;
Structure prediction by ZEFSAII (Michael W. Deem and Ramdas Pophale) SiO2 
 PCOD9030616
Probable space group: P -1
;
_chemical_formula_sum "Si O2"
_cell_formula_units_Z 16
_cell_length_a 8.747871
_cell_length_b 11.336631
_cell_length_c 10.038169
_cell_angle_alpha 89.246217
_cell_angle_beta 85.688745
_cell_angle_gamma 43.002970
_cell_volume 675.764051
_symmetry_space_group_name_H-M "P -1"
_symmetry_group_IT_number 2
_symmetry_cell_setting 'triclinic'
loop_
_space_group_symop_operation_xyz
x,y,z
-x,-y,-z
loop_
_atom_site_type_symbol
_atom_site_label
_atom_site_fract_x
_atom_site_fract_y
_atom_site_fract_z
Si Si1 0.965523 0.159754 0.015112
Si Si2 0.874734 0.704103 0.081534
Si Si3 0.651707 0.404457 0.244142
Si Si4 0.419616 0.099419 0.361934
Si Si5 0.398365 0.909336 0.156531
Si Si6 0.980076 0.427635 0.228945
Si Si7 0.246873 0.890456 0.613573
Si Si8 0.272117 0.766986 0.334842
O O1 0.722745 0.331633 0.088779
O O2 0.161176 0.079853 0.109741
O O3 0.045380 0.206284 0.895964
O O4 0.000000 0.000000 0.000000
O O5 0.617948 0.811611 0.056771
O O6 0.928768 0.595108 0.210345
O O7 0.993004 0.611830 0.932743
O O8 0.756391 0.234403 0.315004
O O9 0.397777 0.572886 0.304997
O O10 0.777809 0.453635 0.277662
O O11 0.176787 0.286854 0.323819
O O12 0.584606 0.115790 0.326975
O O13 0.500000 0.000000 0.500000
O O14 0.447279 0.970440 0.270689
O O15 0.356380 0.799428 0.205387
O O16 0.332857 0.809420 0.461273
O O17 0.996750 0.084905 0.633061
#
# Coordination Sequence:
#
# PCOD9030616 Si02
#       8
#     2   2   2   2   2   2   2   2
#     4  11  25  44  73 110 144 190 243 306 371 436
#     4  10  22  42  72 104 139 191 239 300 368 427
#     4  11  22  46  71 101 145 185 247 301 367 430
#     4  12  25  45  71 104 143 195 243 296 367 440
#     4  12  22  44  72 100 145 192 244 295 370 437
#     4  10  22  44  72 103 143 188 241 302 365 433
#     4  11  25  43  70 103 146 189 250 294 362 433
#     4  11  23  45  72 102 141 200 237 301 364 430
#
# _framework density 23.676902999999999
#
# number of rings (size 3 to 8) (size 9 to 14) (size 15 to 20)
#    0.000    1.000    6.250    0.750    3.500    0.000 
#    4.500    1.875    0.000    0.000    0.000    0.000 
#    0.000    0.000    0.000    0.000    0.000    0.000 
#
# Total GULP energy -89126.739518 kJ/mol
# GULP energy per Si atom -5570.421220 kJ/mol
# Density = 2.362301 g / cm^3
# Si number density = 23.676903 Si / 1000 Ang^3
#
#
#
# Elastic Constant Matrix: (Units=GPa)
#
#
# Indices 1 2 3 4 5 6 
#
# 1 78.3632 20.9467 20.7790 -5.8669 -6.6960 11.8366
# 2 20.9467 139.0132 31.6449 -0.8757 -1.9664 -6.5414
# 3 20.7790 31.6449 54.3703 -3.5433 3.8285 1.2717
# 4 -5.8669 -0.8757 -3.5433 41.8499 4.0070 -7.0056
# 5 -6.6960 -1.9664 3.8285 4.0070 37.5924 -4.6806
# 6 11.8366 -6.5414 1.2717 -7.0056 -4.6806 32.4248
#
#
#
# Elastic Compliance Matrix: (Units=1/GPa)
#
#
# Indices 1 2 3 4 5 6 
#
# 1 0.015550 -0.001378 -0.005155 0.000594 0.002504 -0.005262
# 2 -0.001378 0.008582 -0.004603 -0.000073 0.000997 0.002543
# 3 -0.005155 -0.004603 0.023405 0.001489 -0.003724 -0.000180
# 4 0.000594 -0.000073 0.001489 0.025115 -0.002125 0.004829
# 5 0.002504 0.000997 -0.003724 -0.002125 0.028082 0.003027
# 6 -0.005262 0.002543 -0.000180 0.004829 0.003027 0.034762
#
#
# Mechanical properties :
#
#
# Convention : Reuss Voigt Hill
#
# Bulk Modulus (GPa) = 39.58070 46.49865 43.03967
# Shear Modulus (GPa) = 30.08609 35.59851 32.84230
#
# Velocity S-wave (km/s) = 3.56855 3.88172 3.72842
# Velocity P-wave (km/s) = 5.80798 6.30649 6.06236
#
# Compressibility (1/GPa) = 0.02526484
#
# Stress axis : x y z
#
# Youngs Moduli (GPa) = 64.30988 116.51888 42.72579
#
# Poissons Ratio (x) = 0.16056 0.22026
# Poissons Ratio (y) = 0.08862 0.19666
# Poissons Ratio (z) = 0.33153 0.53632
#
# Static dielectric constant tensor:
#      x y z
#    x 2.526900 -0.254630 -0.502770 
#    y -0.254630 2.260970 0.276330 
#    z -0.502770 0.276330 2.394140 
# 
# From -- ./inp_files/390217.got.cif
#   From: 2010.05.17/outbox.cif.g08.bks.cpg/sg2_196_cif.got.tgz:390217.got - 2010.06.03 11:33:40.
