data_PCOD9030991
_publ_section_title
;
Structure prediction by ZEFSAII (Michael W. Deem and Ramdas Pophale) SiO2 
 PCOD9030991
Probable space group: P -1
;
_chemical_formula_sum "Si O2"
_cell_formula_units_Z 16
_cell_length_a 24.523100
_cell_length_b 8.240726
_cell_length_c 7.750343
_cell_angle_alpha 121.840675
_cell_angle_beta 107.302167
_cell_angle_gamma 119.240813
_cell_volume 769.422113
_symmetry_space_group_name_H-M "P -1"
_symmetry_group_IT_number 2
_symmetry_cell_setting 'triclinic'
loop_
_space_group_symop_operation_xyz
x,y,z
-x,-y,-z
loop_
_atom_site_type_symbol
_atom_site_label
_atom_site_fract_x
_atom_site_fract_y
_atom_site_fract_z
Si Si1 0.397034 0.317371 0.276734
Si Si2 0.786399 0.627433 0.149528
Si Si3 0.399596 0.636018 0.161080
Si Si4 0.909549 0.633451 0.270243
Si Si5 0.602795 0.360536 0.254657
Si Si6 0.966769 0.371437 0.705245
Si Si7 0.261234 0.610463 0.654415
Si Si8 0.910262 0.635195 0.675983
O O1 0.500000 0.500000 0.500000
O O2 0.392225 0.430275 0.160251
O O3 0.378911 0.410224 0.474458
O O4 0.326647 0.952025 0.986014
O O5 0.817131 0.498708 0.037903
O O6 0.784290 0.617027 0.351097
O O7 0.873344 0.994270 0.387479
O O8 0.685300 0.447229 0.909399
O O9 0.500000 0.000000 0.500000
O O10 0.393234 0.585677 0.918672
O O11 0.894306 0.600654 0.439561
O O12 0.942402 0.504456 0.204071
O O13 0.000000 0.000000 0.500000
O O14 0.676750 0.386435 0.376003
O O15 0.500000 0.000000 0.000000
O O16 0.936565 0.492406 0.668989
O O17 0.000000 0.500000 0.000000
O O18 0.181421 0.505863 0.410361
O O19 0.000000 0.000000 0.000000
#
# Coordination Sequence:
#
# PCOD9030991 Si02
#       8
#     2   2   2   2   2   2   2   2
#     4  12  23  42  70  95 135 172 217 277 324 390
#     4   9  20  41  61  88 127 159 212 264 316 383
#     4  11  22  41  68  93 132 174 212 270 325 386
#     4   9  19  38  61  88 120 159 206 259 316 378
#     4  11  22  45  66  97 131 173 218 269 333 388
#     4  11  21  39  63  90 125 166 207 260 323 383
#     4  10  22  43  63  95 130 165 217 272 323 387
#     4  11  22  41  63  91 128 166 211 268 318 383
#
# _framework density 20.794827999999999
#
# number of rings (size 3 to 8) (size 9 to 14) (size 15 to 20)
#    0.000    1.500    2.500    4.125    0.000    0.500 
#   22.500    0.000    0.000    0.000    0.000    0.000 
#    0.000    0.000    0.000    0.000    0.000    0.000 
#
# Total GULP energy -89192.827192 kJ/mol
# GULP energy per Si atom -5574.551699 kJ/mol
# Density = 2.074750 g / cm^3
# Si number density = 20.794828 Si / 1000 Ang^3
#
#
#
# Elastic Constant Matrix: (Units=GPa)
#
#
# Indices 1 2 3 4 5 6 
#
# 1 225.7929 43.4173 63.4768 -5.9539 30.6861 -26.9578
# 2 43.4173 94.0041 10.3743 -13.6176 3.3740 -21.2094
# 3 63.4768 10.3743 80.7103 0.7886 6.6644 -10.2385
# 4 -5.9539 -13.6176 0.7886 29.4949 -1.0249 -2.3871
# 5 30.6861 3.3740 6.6644 -1.0249 38.0815 -6.0229
# 6 -26.9578 -21.2094 -10.2385 -2.3871 -6.0229 36.0701
#
#
#
# Elastic Compliance Matrix: (Units=1/GPa)
#
#
# Indices 1 2 3 4 5 6 
#
# 1 0.006948 -0.001998 -0.004602 0.000619 -0.004277 0.002038
# 2 -0.001998 0.014170 0.000525 0.006807 0.001666 0.007717
# 3 -0.004602 0.000525 0.016058 -0.000954 0.001070 0.001543
# 4 0.000619 0.006807 -0.000954 0.037796 0.001172 0.006892
# 5 -0.004277 0.001666 0.001070 0.001172 0.029902 0.003157
# 6 0.002038 0.007717 0.001543 0.006892 0.003157 0.035206
#
#
# Mechanical properties :
#
#
# Convention : Reuss Voigt Hill
#
# Bulk Modulus (GPa) = 39.95797 70.56044 55.25920
# Shear Modulus (GPa) = 31.13872 39.61189 35.37531
#
# Velocity S-wave (km/s) = 3.87386 4.36924 4.12899
# Velocity P-wave (km/s) = 6.26627 7.71097 7.02585
#
# Compressibility (1/GPa) = 0.02502630
#
# Stress axis : x y z
#
# Youngs Moduli (GPa) = 143.93410 70.57161 62.27277
#
# Poissons Ratio (x) = 0.14099 0.28656
# Poissons Ratio (y) = 0.28757 -0.03267
# Poissons Ratio (z) = 0.66234 -0.03703
#
# Static dielectric constant tensor:
#      x y z
#    x 1.986470 -0.020960 0.061550 
#    y -0.020960 1.753780 -0.003190 
#    z 0.061550 -0.003190 1.725670 
# 
# From -- ./inp_files/352426.got.cif
#   From: 2010.05.17/outbox.cif.g08.bks.cpg/sg2_177_cif.got.tgz:352426.got - 2010.06.03 11:33:40.
