data_PCOD9030205
_publ_section_title
;
Structure prediction by ZEFSAII (Michael W. Deem and Ramdas Pophale) SiO2 
 PCOD9030205
Probable space group: P -1
;
_chemical_formula_sum "Si O2"
_cell_formula_units_Z 16
_cell_length_a 11.397582
_cell_length_b 16.139431
_cell_length_c 7.826527
_cell_angle_alpha 53.721671
_cell_angle_beta 84.103620
_cell_angle_gamma 42.686097
_cell_volume 624.819689
_symmetry_space_group_name_H-M "P -1"
_symmetry_group_IT_number 2
_symmetry_cell_setting 'triclinic'
loop_
_space_group_symop_operation_xyz
x,y,z
-x,-y,-z
loop_
_atom_site_type_symbol
_atom_site_label
_atom_site_fract_x
_atom_site_fract_y
_atom_site_fract_z
Si Si1 0.378592 0.803336 0.992368
Si Si2 0.522340 0.395695 0.478361
Si Si3 0.841797 0.734520 0.887499
Si Si4 0.942369 0.021531 0.677783
Si Si5 0.526612 0.873330 0.365025
Si Si6 0.234478 0.108711 0.777380
Si Si7 0.949487 0.279990 0.883500
Si Si8 0.732436 0.588254 0.951070
O O1 0.559978 0.650307 0.009721
O O2 0.309675 0.972422 0.791996
O O3 0.474351 0.708589 0.278598
O O4 0.158712 0.898357 0.896286
O O5 0.500000 0.500000 0.500000
O O6 0.733882 0.234199 0.524764
O O7 0.293417 0.565334 0.210497
O O8 0.967209 0.671534 0.120886
O O9 0.029529 0.632742 0.851288
O O10 0.783901 0.659169 0.952947
O O11 0.627190 0.958484 0.676157
O O12 0.000000 0.000000 0.500000
O O13 0.915603 0.918447 0.830371
O O14 0.729125 0.802134 0.393498
O O15 0.614850 0.707493 0.645984
O O16 0.396052 0.972641 0.084234
O O17 0.997173 0.251998 0.708698
#
# Coordination Sequence:
#
# PCOD9030205 Si02
#       8
#     2   2   2   2   2   2   2   2
#     4  12  25  44  73 102 138 186 233 288 356 421
#     4  12  26  50  73 101 146 189 240 298 350 425
#     4  10  24  41  65 101 140 175 232 280 345 423
#     4  12  29  47  74 107 141 185 243 299 357 422
#     4  10  22  44  67  97 142 186 223 289 346 420
#     4  10  22  42  70 101 135 182 237 278 352 419
#     4  11  25  45  72 103 139 185 236 291 351 422
#     4  11  25  43  67 104 142 181 230 288 351 421
#
# _framework density 25.607388
#
# number of rings (size 3 to 8) (size 9 to 14) (size 15 to 20)
#    0.000    1.000    3.750    1.500    7.000    3.500 
#    0.000    2.500    0.000    0.000    0.000    0.000 
#    0.000    0.000    0.000    0.000    0.000    0.000 
#
# Total GULP energy -89458.839620 kJ/mol
# GULP energy per Si atom -5591.177476 kJ/mol
# Density = 2.554910 g / cm^3
# Si number density = 25.607388 Si / 1000 Ang^3
#
#
#
# Elastic Constant Matrix: (Units=GPa)
#
#
# Indices 1 2 3 4 5 6 
#
# 1 63.3220 19.4688 0.6596 -10.7527 4.7932 -4.1282
# 2 19.4688 172.3981 29.7782 -29.7999 -10.5499 -28.1828
# 3 0.6596 29.7782 64.0883 -8.4559 10.5901 -1.5460
# 4 -10.7527 -29.7999 -8.4559 40.0617 -4.7749 -0.9568
# 5 4.7932 -10.5499 10.5901 -4.7749 32.2367 1.2355
# 6 -4.1282 -28.1828 -1.5460 -0.9568 1.2355 53.0641
#
#
#
# Elastic Compliance Matrix: (Units=1/GPa)
#
#
# Indices 1 2 3 4 5 6 
#
# 1 0.017149 -0.001747 0.001608 0.003277 -0.003187 0.000586
# 2 -0.001747 0.008741 -0.004009 0.005905 0.005144 0.004377
# 3 0.001608 -0.004009 0.018735 0.000469 -0.007587 -0.001273
# 4 0.003277 0.005905 0.000469 0.031109 0.005752 0.003832
# 5 -0.003187 0.005144 -0.007587 0.005752 0.036464 0.001518
# 6 0.000586 0.004377 -0.001273 0.003832 0.001518 0.021212
#
#
# Mechanical properties :
#
#
# Convention : Reuss Voigt Hill
#
# Bulk Modulus (GPa) = 27.52623 44.40241 35.96432
# Shear Modulus (GPa) = 32.50656 41.73260 37.11958
#
# Velocity S-wave (km/s) = 3.56676 4.04135 3.81145
# Velocity P-wave (km/s) = 5.26641 6.25731 5.78312
#
# Compressibility (1/GPa) = 0.03632899
#
# Stress axis : x y z
#
# Youngs Moduli (GPa) = 58.31368 114.40050 53.37714
#
# Poissons Ratio (x) = 0.19988 -0.08585
# Poissons Ratio (y) = 0.10189 0.21399
# Poissons Ratio (z) = -0.09379 0.45863
#
# Static dielectric constant tensor:
#      x y z
#    x 2.086440 0.035180 0.080650 
#    y 0.035180 2.054140 -0.006550 
#    z 0.080650 -0.006550 2.086510 
# 
# From -- ./inp_files/279019.got.cif
#   From: 2010.05.17/outbox.cif.g08.bks.cpg/sg2_140_cif.got.tgz:279019.got - 2010.06.03 11:33:40.
