data_PCOD9030516
_publ_section_title
;
Structure prediction by ZEFSAII (Michael W. Deem and Ramdas Pophale) SiO2 
 PCOD9030516
Probable space group: P -1
;
_chemical_formula_sum "Si O2"
_cell_formula_units_Z 16
_cell_length_a 7.864661
_cell_length_b 5.878879
_cell_length_c 18.657833
_cell_angle_alpha 82.571876
_cell_angle_beta 97.685972
_cell_angle_gamma 58.064556
_cell_volume 704.689251
_symmetry_space_group_name_H-M "P -1"
_symmetry_group_IT_number 2
_symmetry_cell_setting 'triclinic'
loop_
_space_group_symop_operation_xyz
x,y,z
-x,-y,-z
loop_
_atom_site_type_symbol
_atom_site_label
_atom_site_fract_x
_atom_site_fract_y
_atom_site_fract_z
Si Si1 0.136159 0.501086 0.913349
Si Si2 0.226037 0.065450 0.211782
Si Si3 0.079861 0.700931 0.481806
Si Si4 0.794554 0.222133 0.653665
Si Si5 0.118964 0.703417 0.055640
Si Si6 0.529297 0.534277 0.173050
Si Si7 0.485633 0.224391 0.300697
Si Si8 0.472389 0.162587 0.564684
O O1 0.307875 0.476013 0.871693
O O2 0.923909 0.785937 0.868654
O O3 0.058668 0.297243 0.909588
O O4 0.190617 0.497679 0.999534
O O5 0.291243 0.244608 0.250025
O O6 0.118613 0.970304 0.264494
O O7 0.440850 0.798330 0.208872
O O8 0.063848 0.747322 0.393666
O O9 0.316035 0.486357 0.528588
O O10 0.000000 0.500000 0.500000
O O11 0.000000 0.000000 0.500000
O O12 0.614161 0.518789 0.661146
O O13 0.689499 0.103567 0.604320
O O14 0.324084 0.605295 0.115706
O O15 0.000000 0.000000 0.000000
O O16 0.598790 0.278153 0.241037
O O17 0.592736 0.955871 0.368324
O O18 0.500000 0.000000 0.500000
#
# Coordination Sequence:
#
# PCOD9030516 Si02
#       8
#     2   2   2   2   2   2   2   2
#     4  11  24  42  69  98 135 182 226 290 352 424
#     4  10  22  44  65  96 139 176 234 286 352 433
#     4  12  27  42  66 106 144 175 237 310 364 435
#     4  10  23  43  69  93 134 185 226 288 365 422
#     4  11  23  43  68  99 139 177 225 291 355 421
#     4  11  23  43  69 103 135 180 240 283 356 434
#     4  10  22  42  71  93 133 182 235 296 349 430
#     4  11  22  43  74  94 131 190 239 283 362 437
#
# _framework density 22.705044999999998
#
# number of rings (size 3 to 8) (size 9 to 14) (size 15 to 20)
#    0.000    1.250    3.750    1.500    3.500    2.500 
#    4.500    0.000    0.000    0.000    0.000    0.000 
#    0.000    0.000    0.000    0.000    0.000    0.000 
#
# Total GULP energy -89270.836946 kJ/mol
# GULP energy per Si atom -5579.427309 kJ/mol
# Density = 2.265337 g / cm^3
# Si number density = 22.705045 Si / 1000 Ang^3
#
#
#
# Elastic Constant Matrix: (Units=GPa)
#
#
# Indices 1 2 3 4 5 6 
#
# 1 111.9533 23.8499 41.6555 -0.0228 -39.3099 16.2123
# 2 23.8499 80.9791 34.9715 -10.1220 -7.4366 9.7023
# 3 41.6555 34.9715 123.8141 -10.1235 -25.9439 11.8436
# 4 -0.0228 -10.1220 -10.1235 43.1152 12.1809 -0.3697
# 5 -39.3099 -7.4366 -25.9439 12.1809 52.9736 -5.6111
# 6 16.2123 9.7023 11.8436 -0.3697 -5.6111 23.3173
#
#
#
# Elastic Compliance Matrix: (Units=1/GPa)
#
#
# Indices 1 2 3 4 5 6 
#
# 1 0.014358 -0.002291 -0.001915 -0.003754 0.009644 -0.005796
# 2 -0.002291 0.015110 -0.003385 0.003396 -0.002388 -0.003496
# 3 -0.001915 -0.003385 0.010529 0.000851 0.002863 -0.001905
# 4 -0.003754 0.003396 0.000851 0.026458 -0.008056 -0.000754
# 5 0.009644 -0.002388 0.002863 -0.008056 0.028918 -0.000335
# 6 -0.005796 -0.003496 -0.001905 -0.000754 -0.000335 0.049246
#
#
# Mechanical properties :
#
#
# Convention : Reuss Voigt Hill
#
# Bulk Modulus (GPa) = 40.30056 57.52228 48.91142
# Shear Modulus (GPa) = 29.74917 38.29919 34.02418
#
# Velocity S-wave (km/s) = 3.62366 4.11154 3.87528
# Velocity P-wave (km/s) = 5.94104 6.92310 6.45079
#
# Compressibility (1/GPa) = 0.02481355
#
# Stress axis : x y z
#
# Youngs Moduli (GPa) = 69.64852 66.18348 94.97734
#
# Poissons Ratio (x) = 0.15161 0.18190
# Poissons Ratio (y) = 0.15955 0.32153
# Poissons Ratio (z) = 0.13339 0.22405
#
# Static dielectric constant tensor:
#      x y z
#    x 1.935300 0.060100 -0.034600 
#    y 0.060100 1.929330 -0.022910 
#    z -0.034600 -0.022910 1.847070 
# 
# From -- ./inp_files/323324.got.cif
#   From: 2010.05.17/outbox.cif.g08.bks.cpg/sg2_162_cif.got.tgz:323324.got - 2010.06.03 11:33:40.
