data_PCOD9030491
_publ_section_title
;
Structure prediction by ZEFSAII (Michael W. Deem and Ramdas Pophale) SiO2 
 PCOD9030491
Probable space group: P -1
;
_chemical_formula_sum "Si O2"
_cell_formula_units_Z 13
_cell_length_a 9.369719
_cell_length_b 5.304283
_cell_length_c 11.856398
_cell_angle_alpha 98.092524
_cell_angle_beta 105.315708
_cell_angle_gamma 58.032422
_cell_volume 482.142251
_symmetry_space_group_name_H-M "P -1"
_symmetry_group_IT_number 2
_symmetry_cell_setting 'triclinic'
loop_
_space_group_symop_operation_xyz
x,y,z
-x,-y,-z
loop_
_atom_site_type_symbol
_atom_site_label
_atom_site_fract_x
_atom_site_fract_y
_atom_site_fract_z
Si Si1 0.437316 0.827434 0.555819
Si Si2 0.500000 0.000000 0.000000
Si Si3 0.182906 0.712042 0.582302
Si Si4 0.177014 0.602043 0.124038
Si Si5 0.025517 0.697336 0.331560
Si Si6 0.225149 0.022866 0.012058
Si Si7 0.654212 0.773459 0.246262
O O1 0.500000 0.500000 0.500000
O O2 0.238323 0.917002 0.537310
O O3 0.500000 0.000000 0.500000
O O4 0.461117 0.911296 0.693308
O O5 0.639498 0.120119 0.068119
O O6 0.425730 0.223508 0.888132
O O7 0.331942 0.461970 0.673016
O O8 0.118722 0.578256 0.463659
O O9 0.045419 0.950450 0.654936
O O10 0.277468 0.276017 0.065658
O O11 0.160519 0.564594 0.249982
O O12 0.241616 0.813168 0.104339
O O13 0.974513 0.785126 0.053036
O O14 0.857605 0.674102 0.271878
#
# Coordination Sequence:
#
# PCOD9030491 Si02
#       7
#     2   1   2   2   2   2   2
#     4  11  23  46  71 102 149 190 242 305 371 450
#     4  12  26  48  72 110 154 202 238 314 366 466
#     4  10  23  42  72 106 137 191 243 308 371 430
#     4  10  22  45  70  98 140 183 247 294 355 426
#     4  10  22  42  71 105 139 186 243 314 359 447
#     4  10  24  44  68 102 136 191 237 295 357 431
#     4  11  24  45  71 107 147 195 249 300 383 438
#
# _framework density 26.962996
#
# number of rings (size 3 to 8) (size 9 to 14) (size 15 to 20)
#    0.000    1.538    3.077    0.462    2.154    4.308 
#    5.538    0.000    0.000    0.000    0.000    0.000 
#    0.000    0.000    0.000    0.000    0.000    0.000 
#
# Total GULP energy -72371.288032 kJ/mol
# GULP energy per Si atom -5567.022156 kJ/mol
# Density = 2.690163 g / cm^3
# Si number density = 26.962996 Si / 1000 Ang^3
#
#
#
# Elastic Constant Matrix: (Units=GPa)
#
#
# Indices 1 2 3 4 5 6 
#
# 1 141.6005 34.2763 30.3132 -20.8192 -17.0605 24.0267
# 2 34.2763 131.3951 49.1414 -2.2890 -10.4935 16.2595
# 3 30.3132 49.1414 132.7688 -9.5085 -6.5217 13.2656
# 4 -20.8192 -2.2890 -9.5085 37.5299 -14.6768 -5.9992
# 5 -17.0605 -10.4935 -6.5217 -14.6768 48.1875 -10.9561
# 6 24.0267 16.2595 13.2656 -5.9992 -10.9561 39.4583
#
#
#
# Elastic Compliance Matrix: (Units=1/GPa)
#
#
# Indices 1 2 3 4 5 6 
#
# 1 0.009442 -0.001408 -0.000706 0.006149 0.004168 -0.002840
# 2 -0.001408 0.009364 -0.003006 -0.001189 0.000297 -0.002089
# 3 -0.000706 -0.003006 0.009062 0.001839 0.000675 -0.000911
# 4 0.006149 -0.001189 0.001839 0.037196 0.014838 0.005903
# 5 0.004168 0.000297 0.000675 0.014838 0.028563 0.007300
# 6 -0.002840 -0.002089 -0.000911 0.005903 0.007300 0.031164
#
#
# Mechanical properties :
#
#
# Convention : Reuss Voigt Hill
#
# Bulk Modulus (GPa) = 56.72867 70.35847 63.54357
# Shear Modulus (GPa) = 35.48460 44.50405 39.99432
#
# Velocity S-wave (km/s) = 3.63167 4.06712 3.85555
# Velocity P-wave (km/s) = 6.21856 6.94308 6.59078
#
# Compressibility (1/GPa) = 0.01762777
#
# Stress axis : x y z
#
# Youngs Moduli (GPa) = 105.90815 106.79588 110.35554
#
# Poissons Ratio (x) = 0.15034 0.07790
# Poissons Ratio (y) = 0.14909 0.33175
# Poissons Ratio (z) = 0.07476 0.32105
#
# Static dielectric constant tensor:
#      x y z
#    x 1.419760 0.445090 0.603210 
#    y 0.445090 1.964830 -0.345660 
#    z 0.603210 -0.345660 1.706750 
# 
# From -- ./inp_files/372569.got.cif
#   From: 2010.05.17/outbox.cif.g08.bks.cpg/sg2_187_cif.got.tgz:372569.got - 2010.06.03 11:33:40.
