data_PCOD9030885
_publ_section_title
;
Structure prediction by ZEFSAII (Michael W. Deem and Ramdas Pophale) SiO2 
 PCOD9030885
Probable space group: P -1
;
_chemical_formula_sum "Si O2"
_cell_formula_units_Z 14
_cell_length_a 7.565309
_cell_length_b 11.171160
_cell_length_c 13.040868
_cell_angle_alpha 47.804785
_cell_angle_beta 108.870139
_cell_angle_gamma 74.165084
_cell_volume 552.455788
_symmetry_space_group_name_H-M "P -1"
_symmetry_group_IT_number 2
_symmetry_cell_setting 'triclinic'
loop_
_space_group_symop_operation_xyz
x,y,z
-x,-y,-z
loop_
_atom_site_type_symbol
_atom_site_label
_atom_site_fract_x
_atom_site_fract_y
_atom_site_fract_z
Si Si1 0.093687 0.096670 0.848970
Si Si2 0.638276 0.455224 0.416357
Si Si3 0.382752 0.113960 0.541295
Si Si4 0.869400 0.246947 0.365697
Si Si5 0.705245 0.746213 0.323996
Si Si6 0.604674 0.668946 0.767858
Si Si7 0.902123 0.283068 0.917624
O O1 0.290429 0.082125 0.826063
O O2 0.798575 0.311847 0.628645
O O3 0.100279 0.162865 0.928678
O O4 0.104538 0.899091 0.945385
O O5 0.838334 0.302355 0.448617
O O6 0.552809 0.694053 0.270357
O O7 0.378574 0.519978 0.301572
O O8 0.365874 0.198919 0.602217
O O9 0.494660 0.166142 0.445940
O O10 0.083059 0.250957 0.370714
O O11 0.548587 0.846841 0.734892
O O12 0.569345 0.383084 0.203128
O O13 0.000000 0.000000 0.500000
O O14 0.000000 0.500000 0.500000
O O15 0.881043 0.424063 0.925079
#
# Coordination Sequence:
#
# PCOD9030885 Si02
#       7
#     2   2   2   2   2   2   2
#     4  10  20  34  54  80 111 142 177 230 275 323
#     4  10  19  34  56  79 107 143 183 224 273 329
#     4  10  17  32  52  81 108 143 184 227 268 327
#     4   9  17  30  51  80 106 137 180 220 267 323
#     4  10  18  31  53  79 105 142 182 217 278 322
#     4   9  19  31  53  79 108 143 186 222 271 331
#     4  10  21  35  52  84 108 140 188 221 275 330
#
# _framework density 25.341396
#
# number of rings (size 3 to 8) (size 9 to 14) (size 15 to 20)
#    0.000    2.286    2.857    2.143    0.000    1.714 
#    0.000    0.714    0.000    0.000    0.000   11.000 
#    0.000    0.000    0.000    0.000    0.000    0.000 
#
# Total GULP energy -77977.773548 kJ/mol
# GULP energy per Si atom -5569.840968 kJ/mol
# Density = 2.528372 g / cm^3
# Si number density = 25.341396 Si / 1000 Ang^3
#
#
#
# Elastic Constant Matrix: (Units=GPa)
#
#
# Indices 1 2 3 4 5 6 
#
# 1 80.7520 10.4523 20.3597 2.7130 -5.7299 -0.4309
# 2 10.4523 179.3034 17.7173 -26.3153 -15.2964 -11.0534
# 3 20.3597 17.7173 43.1204 -14.7331 -14.5962 1.4002
# 4 2.7130 -26.3153 -14.7331 26.4584 0.6029 -5.1239
# 5 -5.7299 -15.2964 -14.5962 0.6029 36.7283 -6.5506
# 6 -0.4309 -11.0534 1.4002 -5.1239 -6.5506 39.2011
#
#
#
# Elastic Compliance Matrix: (Units=1/GPa)
#
#
# Indices 1 2 3 4 5 6 
#
# 1 0.015374 -0.001514 -0.010608 -0.009224 -0.002566 -0.001513
# 2 -0.001514 0.007446 0.002214 0.009462 0.004295 0.003958
# 3 -0.010608 0.002214 0.042041 0.027358 0.016477 0.005335
# 4 -0.009224 0.009462 0.027358 0.065491 0.014543 0.012580
# 5 -0.002566 0.004295 0.016477 0.014543 0.036457 0.008587
# 6 -0.001513 0.003958 0.005335 0.012580 0.008587 0.029498
#
#
# Mechanical properties :
#
#
# Convention : Reuss Voigt Hill
#
# Bulk Modulus (GPa) = 22.19983 44.47048 33.33515
# Shear Modulus (GPa) = 21.63224 37.45401 29.54313
#
# Velocity S-wave (km/s) = 2.92487 3.84862 3.41809
# Velocity P-wave (km/s) = 4.49286 6.11030 5.36291
#
# Compressibility (1/GPa) = 0.04504538
#
# Stress axis : x y z
#
# Youngs Moduli (GPa) = 65.04586 134.30406 23.78603
#
# Poissons Ratio (x) = 0.20333 0.25232
# Poissons Ratio (y) = 0.09847 -0.05266
# Poissons Ratio (z) = 0.68999 -0.29733
#
# Static dielectric constant tensor:
#      x y z
#    x 2.107680 0.014770 0.034600 
#    y 0.014770 2.100230 -0.013630 
#    z 0.034600 -0.013630 2.043290 
# 
# From -- ./inp_files/169347.got.cif
#   From: 2010.05.17/outbox.cif.g08.bks.cpg/sg2_85_cif.got.tgz:169347.got - 2010.06.03 11:33:40.
