data_PCOD9030530
_publ_section_title
;
Structure prediction by ZEFSAII (Michael W. Deem and Ramdas Pophale) SiO2 
 PCOD9030530
Probable space group: P -1
;
_chemical_formula_sum "Si O2"
_cell_formula_units_Z 16
_cell_length_a 23.248199
_cell_length_b 9.554050
_cell_length_c 12.348178
_cell_angle_alpha 145.217159
_cell_angle_beta 154.477818
_cell_angle_gamma 45.062656
_cell_volume 667.328555
_symmetry_space_group_name_H-M "P -1"
_symmetry_group_IT_number 2
_symmetry_cell_setting 'triclinic'
loop_
_space_group_symop_operation_xyz
x,y,z
-x,-y,-z
loop_
_atom_site_type_symbol
_atom_site_label
_atom_site_fract_x
_atom_site_fract_y
_atom_site_fract_z
Si Si1 0.459435 0.113157 0.388109
Si Si2 0.266384 0.390216 0.337517
Si Si3 0.354127 0.232537 0.614867
Si Si4 0.914216 0.390174 0.387199
Si Si5 0.008625 0.912861 0.337489
Si Si6 0.645110 0.589758 0.025785
Si Si7 0.774354 0.096770 0.451322
Si Si8 0.951728 0.808941 0.888969
O O1 0.309017 0.166575 0.194826
O O2 0.500000 0.000000 0.500000
O O3 0.529564 0.940923 0.315628
O O4 0.523675 0.396572 0.652717
O O5 0.341509 0.386893 0.579954
O O6 0.300173 0.663422 0.517994
O O7 0.103645 0.325722 0.028494
O O8 0.377992 0.355226 0.851613
O O9 0.194297 0.124048 0.282254
O O10 0.763529 0.418291 0.117100
O O11 0.934405 0.544137 0.631557
O O12 0.000000 0.500000 0.500000
O O13 0.955994 0.127783 0.314521
O O14 0.165864 0.913271 0.574571
O O15 0.000000 0.000000 0.500000
O O16 0.694466 0.844612 0.206052
O O17 0.918343 0.165822 0.799006
O O18 0.000000 0.000000 0.000000
#
# Coordination Sequence:
#
# PCOD9030530 Si02
#       8
#     2   2   2   2   2   2   2   2
#     4  10  24  46  68  95 132 177 229 268 321 393
#     4  11  25  44  64  91 138 177 214 272 332 393
#     4  10  22  42  71  97 128 176 223 271 326 388
#     4  11  21  36  62  99 130 161 215 276 324 386
#     4  12  25  41  63  98 132 174 216 270 339 400
#     4  11  24  40  71 101 127 172 227 271 327 394
#     4  12  24  42  63 100 136 167 214 277 341 393
#     4  11  20  36  65  97 130 167 208 273 339 387
#
# _framework density 23.976196000000002
#
# number of rings (size 3 to 8) (size 9 to 14) (size 15 to 20)
#    0.000    1.000    5.000    2.625    5.250    2.500 
#    4.500    0.625    0.000    0.000    0.000    0.000 
#    0.000    0.000    0.000    0.000    0.000    0.000 
#
# Total GULP energy -89253.216669 kJ/mol
# GULP energy per Si atom -5578.326042 kJ/mol
# Density = 2.392163 g / cm^3
# Si number density = 23.976196 Si / 1000 Ang^3
#
#
#
# Elastic Constant Matrix: (Units=GPa)
#
#
# Indices 1 2 3 4 5 6 
#
# 1 113.4217 32.5886 14.5546 -11.7416 11.6941 -23.9173
# 2 32.5886 145.2086 9.7257 12.1966 16.7656 -16.3017
# 3 14.5546 9.7257 41.1871 13.7307 21.7701 8.5272
# 4 -11.7416 12.1966 13.7307 23.5489 -1.3013 10.4264
# 5 11.6941 16.7656 21.7701 -1.3013 38.2721 -1.1306
# 6 -23.9173 -16.3017 8.5272 10.4264 -1.1306 48.3687
#
#
#
# Elastic Compliance Matrix: (Units=1/GPa)
#
#
# Indices 1 2 3 4 5 6 
#
# 1 0.013162 -0.003298 -0.011778 0.013312 0.004715 0.004714
# 2 -0.003298 0.009273 0.005655 -0.011342 -0.006574 0.002789
# 3 -0.011778 0.005655 0.062118 -0.044275 -0.035900 -0.006164
# 4 0.013312 -0.011342 -0.044275 0.085575 0.028783 -0.007209
# 5 0.004715 -0.006574 -0.035900 0.028783 0.049009 0.001386
# 6 0.004714 0.002789 -0.006164 -0.007209 0.001386 0.026618
#
#
# Mechanical properties :
#
#
# Convention : Reuss Voigt Hill
#
# Bulk Modulus (GPa) = 15.21838 45.95057 30.58448
# Shear Modulus (GPa) = 17.45197 38.23451 27.84324
#
# Velocity S-wave (km/s) = 2.70087 3.99768 3.41146
# Velocity P-wave (km/s) = 4.01090 6.36516 5.31990
#
# Compressibility (1/GPa) = 0.06571000
#
# Stress axis : x y z
#
# Youngs Moduli (GPa) = 75.97888 107.84085 16.09829
#
# Poissons Ratio (x) = 0.35568 0.18960
# Poissons Ratio (y) = 0.25060 -0.09103
# Poissons Ratio (z) = 0.89486 -0.60979
#
# Static dielectric constant tensor:
#      x y z
#    x 2.094260 -0.000260 -0.023030 
#    y -0.000260 1.882440 -0.038710 
#    z -0.023030 -0.038710 2.009410 
# 
# From -- ./inp_files/426560.got.cif
#   From: 2010.05.17/outbox.cif.g08.bks.cpg/sg2_214_cif.got.tgz:426560.got - 2010.06.03 11:33:40.
