data_PCOD9030287
_publ_section_title
;
Structure prediction by ZEFSAII (Michael W. Deem and Ramdas Pophale) SiO2 
 PCOD9030287
Probable space group: P -1
;
_chemical_formula_sum "Si O2"
_cell_formula_units_Z 15
_cell_length_a 5.637446
_cell_length_b 25.894186
_cell_length_c 5.117244
_cell_angle_alpha 62.975904
_cell_angle_beta 82.709100
_cell_angle_gamma 57.072420
_cell_volume 551.292842
_symmetry_space_group_name_H-M "P -1"
_symmetry_group_IT_number 2
_symmetry_cell_setting 'triclinic'
loop_
_space_group_symop_operation_xyz
x,y,z
-x,-y,-z
loop_
_atom_site_type_symbol
_atom_site_label
_atom_site_fract_x
_atom_site_fract_y
_atom_site_fract_z
Si Si1 0.186674 0.555789 0.313272
Si Si2 0.000000 0.500000 0.000000
Si Si3 0.903856 0.049591 0.145695
Si Si4 0.223783 0.801549 0.690305
Si Si5 0.685191 0.920232 0.749960
Si Si6 0.663481 0.622889 0.591750
Si Si7 0.590157 0.765170 0.255725
Si Si8 0.157752 0.690212 0.100149
O O1 0.500000 0.500000 0.500000
O O2 0.090308 0.635849 0.127592
O O3 0.140405 0.531805 0.101599
O O4 0.971038 0.559471 0.567630
O O5 0.332245 0.423848 0.074365
O O6 0.556374 0.094705 0.105920
O O7 0.096914 0.081826 0.061907
O O8 0.000000 0.000000 0.500000
O O9 0.000000 0.000000 0.000000
O O10 0.405530 0.809453 0.426459
O O11 0.905953 0.868024 0.622515
O O12 0.396994 0.785121 0.976229
O O13 0.210913 0.734463 0.786058
O O14 0.500000 0.000000 0.500000
O O15 0.686287 0.686834 0.501916
O O16 0.419263 0.648155 0.357392
O O17 0.891651 0.751686 0.163092
#
# Coordination Sequence:
#
# PCOD9030287 Si02
#       8
#     2   1   2   2   2   2   2   2
#     4  11  24  45  66 106 147 188 252 319 392 460
#     4  12  24  40  72 102 138 192 248 312 390 464
#     4  10  22  42  70 106 153 195 242 306 382 457
#     4  11  26  48  75 109 153 196 263 312 384 472
#     4  10  24  47  76 119 153 203 255 327 392 474
#     4  10  24  44  64 104 142 184 255 312 369 474
#     4  10  26  47  71 105 147 204 250 315 382 459
#     4  10  24  50  72 101 152 199 250 322 383 461
#
# _framework density 27.208767999999999
#
# number of rings (size 3 to 8) (size 9 to 14) (size 15 to 20)
#    0.000    1.600    1.333    0.800    7.467    6.933 
#    4.800    0.000    0.000    0.000    0.000    0.000 
#    0.000    0.000    0.000    0.000    0.000    0.000 
#
# Total GULP energy -83889.235299 kJ/mol
# GULP energy per Si atom -5592.615687 kJ/mol
# Density = 2.714684 g / cm^3
# Si number density = 27.208768 Si / 1000 Ang^3
#
#
#
# Elastic Constant Matrix: (Units=GPa)
#
#
# Indices 1 2 3 4 5 6 
#
# 1 152.4224 49.5513 41.8158 8.2203 7.0886 -21.8480
# 2 49.5513 108.1385 52.8028 -5.5274 12.2327 -41.1066
# 3 41.8158 52.8028 128.8121 1.9395 -0.6213 -9.5184
# 4 8.2203 -5.5274 1.9395 52.4863 1.1023 1.2187
# 5 7.0886 12.2327 -0.6213 1.1023 51.0006 1.4245
# 6 -21.8480 -41.1066 -9.5184 1.2187 1.4245 65.6784
#
#
#
# Elastic Compliance Matrix: (Units=1/GPa)
#
#
# Indices 1 2 3 4 5 6 
#
# 1 0.008051 -0.002707 -0.001424 -0.001502 -0.000478 0.000816
# 2 -0.002707 0.017281 -0.005584 0.002325 -0.004143 0.009153
# 3 -0.001424 -0.005584 0.010349 -0.000726 0.001749 -0.002493
# 4 -0.001502 0.002325 -0.000726 0.019565 -0.000795 0.000504
# 5 -0.000478 -0.004143 0.001749 -0.000795 0.020788 -0.002934
# 6 0.000816 0.009153 -0.002493 0.000504 -0.002934 0.020919
#
#
# Mechanical properties :
#
#
# Convention : Reuss Voigt Hill
#
# Bulk Modulus (GPa) = 61.52483 75.30143 68.41313
# Shear Modulus (GPa) = 41.05132 50.17993 45.61562
#
# Velocity S-wave (km/s) = 3.88848 4.29914 4.09896
# Velocity P-wave (km/s) = 6.54382 7.23733 6.89930
#
# Compressibility (1/GPa) = 0.01625360
#
# Stress axis : x y z
#
# Youngs Moduli (GPa) = 124.20179 57.86765 96.62387
#
# Poissons Ratio (x) = 0.15663 0.13755
# Poissons Ratio (y) = 0.33619 0.53952
# Poissons Ratio (z) = 0.17680 0.32312
#
# Static dielectric constant tensor:
#      x y z
#    x 2.307840 -0.028100 -0.495890 
#    y -0.028100 2.217970 -0.104880 
#    z -0.495890 -0.104880 3.325760 
# 
# From -- ./inp_files/9709.got.cif
#   From: 2010.05.17/outbox.cif.g08.bks.cpg/sg2_5_cif.got.tgz:9709.got - 2010.06.03 11:33:40.
