data_PCOD9030129
_publ_section_title
;
Structure prediction by ZEFSAII (Michael W. Deem and Ramdas Pophale) SiO2 
 PCOD9030129
Probable space group: P -1
;
_chemical_formula_sum "Si O2"
_cell_formula_units_Z 12
_cell_length_a 14.062029
_cell_length_b 9.420951
_cell_length_c 6.872364
_cell_angle_alpha 145.311797
_cell_angle_beta 88.025659
_cell_angle_gamma 91.440625
_cell_volume 517.822088
_symmetry_space_group_name_H-M "P -1"
_symmetry_group_IT_number 2
_symmetry_cell_setting 'triclinic'
loop_
_space_group_symop_operation_xyz
x,y,z
-x,-y,-z
loop_
_atom_site_type_symbol
_atom_site_label
_atom_site_fract_x
_atom_site_fract_y
_atom_site_fract_z
Si Si1 0.410474 0.177073 0.176633
Si Si2 0.106290 0.238439 0.848591
Si Si3 0.590261 0.437995 0.057265
Si Si4 0.304431 0.408093 0.143695
Si Si5 0.289593 0.808552 0.937794
Si Si6 0.897162 0.311363 0.954105
O O1 0.430648 0.406869 0.572148
O O2 0.387477 0.223955 0.006767
O O3 0.500000 0.000000 0.000000
O O4 0.309454 0.079261 0.156580
O O5 0.003959 0.299038 0.019133
O O6 0.108519 0.945183 0.462271
O O7 0.199651 0.295988 0.030373
O O8 0.110196 0.433665 0.884566
O O9 0.635901 0.198213 0.892051
O O10 0.500000 0.500000 0.000000
O O11 0.673949 0.515495 0.991273
O O12 0.311657 0.632890 0.551779
O O13 0.188394 0.724455 0.929541
#
# Coordination Sequence:
#
# PCOD9030129 Si02
#       6
#     2   2   2   2   2   2
#     4  11  25  41  61  95 131 168 223 276 327 396
#     4  10  22  42  69  99 131 177 219 274 332 396
#     4  11  23  41  63  89 126 170 219 271 332 392
#     4  11  24  40  64  95 127 173 220 270 334 392
#     4  11  24  40  64  94 129 169 220 276 324 400
#     4  10  22  42  69  98 134 172 224 272 331 395
#
# _framework density 23.173983
#
# number of rings (size 3 to 8) (size 9 to 14) (size 15 to 20)
#    0.000    1.333    1.667    3.000    4.667    8.667 
#    0.000    0.833    0.000    0.000    0.000    0.000 
#    0.000    0.000    0.000    0.000    0.000    0.000 
#
# Total GULP energy -66891.486716 kJ/mol
# GULP energy per Si atom -5574.290560 kJ/mol
# Density = 2.312124 g / cm^3
# Si number density = 23.173983 Si / 1000 Ang^3
#
#
#
# Elastic Constant Matrix: (Units=GPa)
#
#
# Indices 1 2 3 4 5 6 
#
# 1 113.6682 11.1023 2.2947 -14.0628 12.5468 7.0368
# 2 11.1023 87.7069 3.3610 -14.0509 0.3498 4.8027
# 3 2.2947 3.3610 32.1070 -10.0385 7.6630 -11.2858
# 4 -14.0628 -14.0509 -10.0385 26.6520 2.0630 3.0229
# 5 12.5468 0.3498 7.6630 2.0630 39.1442 -9.1692
# 6 7.0368 4.8027 -11.2858 3.0229 -9.1692 43.3200
#
#
#
# Elastic Compliance Matrix: (Units=1/GPa)
#
#
# Indices 1 2 3 4 5 6 
#
# 1 0.010261 -0.000140 0.001471 0.006551 -0.004551 -0.002688
# 2 -0.000140 0.012645 0.000437 0.007056 -0.000986 -0.001966
# 3 0.001471 0.000437 0.040416 0.015950 -0.007459 0.007550
# 4 0.006551 0.007056 0.015950 0.051740 -0.008751 -0.003154
# 5 -0.004551 -0.000986 -0.007459 -0.008751 0.030326 0.005935
# 6 -0.002688 -0.001966 0.007550 -0.003154 0.005935 0.027182
#
#
# Mechanical properties :
#
#
# Convention : Reuss Voigt Hill
#
# Bulk Modulus (GPa) = 14.95767 29.66646 22.31207
# Shear Modulus (GPa) = 26.13424 36.27151 31.20288
#
# Velocity S-wave (km/s) = 3.36183 3.96053 3.67340
# Velocity P-wave (km/s) = 4.64087 5.80894 5.25745
#
# Compressibility (1/GPa) = 0.06685533
#
# Stress axis : x y z
#
# Youngs Moduli (GPa) = 97.45862 79.08485 24.74266
#
# Poissons Ratio (x) = 0.01110 -0.03639
# Poissons Ratio (y) = 0.01368 -0.01080
# Poissons Ratio (z) = -0.14333 -0.03453
#
# Static dielectric constant tensor:
#      x y z
#    x 1.942090 -0.015460 -0.022340 
#    y -0.015460 1.936040 0.095480 
#    z -0.022340 0.095480 1.878920 
# 
# From -- ./inp_files/3174.got.cif
#   From: 2010.05.17/outbox.cif.g08.bks.cpg/sg2_2_cif.got.tgz:3174.got - 2010.06.03 11:33:40.
