data_PCOD9030311
_publ_section_title
;
Structure prediction by ZEFSAII (Michael W. Deem and Ramdas Pophale) SiO2 
 PCOD9030311
Probable space group: P -1
;
_chemical_formula_sum "Si O2"
_cell_formula_units_Z 16
_cell_length_a 10.634320
_cell_length_b 16.012357
_cell_length_c 18.843714
_cell_angle_alpha 20.729878
_cell_angle_beta 138.376895
_cell_angle_gamma 144.429353
_cell_volume 659.321428
_symmetry_space_group_name_H-M "P -1"
_symmetry_group_IT_number 2
_symmetry_cell_setting 'triclinic'
loop_
_space_group_symop_operation_xyz
x,y,z
-x,-y,-z
loop_
_atom_site_type_symbol
_atom_site_label
_atom_site_fract_x
_atom_site_fract_y
_atom_site_fract_z
Si Si1 0.758178 0.680668 0.487895
Si Si2 0.139307 0.686716 0.346930
Si Si3 0.445950 0.277273 0.002473
Si Si4 0.149202 0.735376 0.538811
Si Si5 0.514877 0.638953 0.611774
Si Si6 0.188155 0.794587 0.863783
Si Si7 0.436938 0.852517 0.704128
Si Si8 0.684552 0.284599 0.879303
O O1 0.500000 0.500000 0.500000
O O2 0.801653 0.463694 0.719699
O O3 0.954744 0.803581 0.417283
O O4 0.804533 0.922556 0.370107
O O5 0.344588 0.637642 0.483676
O O6 0.000000 0.500000 0.500000
O O7 0.991921 0.562098 0.315976
O O8 0.222776 0.002233 0.136634
O O9 0.599365 0.189291 0.093483
O O10 0.544858 0.339971 0.074614
O O11 0.437237 0.490442 0.774883
O O12 0.280961 0.736427 0.663280
O O13 0.326061 0.945886 0.390347
O O14 0.611884 0.469216 0.748334
O O15 0.636095 0.951727 0.439823
O O16 0.185970 0.789252 0.952088
O O17 0.000000 0.500000 0.000000
O O18 0.500000 0.000000 0.000000
#
# Coordination Sequence:
#
# PCOD9030311 Si02
#       8
#     2   2   2   2   2   2   2   2
#     4  12  24  44  71  98 141 184 221 292 360 395
#     4  11  21  43  66  96 129 174 227 279 339 411
#     4  10  22  43  69  91 133 176 227 284 342 405
#     4  11  24  41  71  97 137 177 228 278 345 418
#     4  10  22  42  70  90 134 176 228 276 342 407
#     4  11  26  43  67 101 134 174 240 284 342 423
#     4  10  23  48  63  98 137 179 225 282 342 415
#     4  11  24  43  65 101 134 177 228 282 343 418
#
# _framework density 24.267374
#
# number of rings (size 3 to 8) (size 9 to 14) (size 15 to 20)
#    0.000    1.250    3.750    3.000    7.000    1.000 
#    0.000    5.000    0.000    0.000    0.000    0.000 
#    0.000    0.000    0.000    0.000    0.000    0.000 
#
# Total GULP energy -89163.263845 kJ/mol
# GULP energy per Si atom -5572.703990 kJ/mol
# Density = 2.421214 g / cm^3
# Si number density = 24.267374 Si / 1000 Ang^3
#
#
#
# Elastic Constant Matrix: (Units=GPa)
#
#
# Indices 1 2 3 4 5 6 
#
# 1 62.7287 5.4775 10.2640 6.1764 -0.7083 -0.9020
# 2 5.4775 138.0618 34.3500 -3.3335 -9.8574 -35.0526
# 3 10.2640 34.3500 116.5644 6.1003 -15.8463 -5.3660
# 4 6.1764 -3.3335 6.1003 29.3571 -4.0863 1.1231
# 5 -0.7083 -9.8574 -15.8463 -4.0863 31.1875 3.1459
# 6 -0.9020 -35.0526 -5.3660 1.1231 3.1459 41.8356
#
#
#
# Elastic Compliance Matrix: (Units=1/GPa)
#
#
# Indices 1 2 3 4 5 6 
#
# 1 0.016513 -0.000506 -0.001247 -0.003389 -0.000855 -0.000073
# 2 -0.000506 0.010019 -0.002448 0.001634 0.001326 0.007926
# 3 -0.001247 -0.002448 0.010009 -0.001470 0.004199 -0.001071
# 4 -0.003389 0.001634 -0.001470 0.035889 0.004414 -0.000188
# 5 -0.000855 0.001326 0.004199 0.004414 0.035291 -0.001141
# 6 -0.000073 0.007926 -0.001071 -0.000188 -0.001141 0.030496
#
#
# Mechanical properties :
#
#
# Convention : Reuss Voigt Hill
#
# Bulk Modulus (GPa) = 35.54025 46.39310 40.96667
# Shear Modulus (GPa) = 32.05174 38.29359 35.17266
#
# Velocity S-wave (km/s) = 3.63819 3.97670 3.81120
# Velocity P-wave (km/s) = 5.68556 6.34385 6.02371
#
# Compressibility (1/GPa) = 0.02813712
#
# Stress axis : x y z
#
# Youngs Moduli (GPa) = 60.55877 99.81262 99.91358
#
# Poissons Ratio (x) = 0.05053 0.12461
# Poissons Ratio (y) = 0.03066 0.24461
# Poissons Ratio (z) = 0.07552 0.24437
#
# Static dielectric constant tensor:
#      x y z
#    x 2.121170 0.077970 -0.059440 
#    y 0.077970 2.014130 -0.026460 
#    z -0.059440 -0.026460 1.990260 
# 
# From -- ./inp_files/595952.got.cif
#   From: 2010.05.17/outbox.cif.g08.bks.cpg/sg2_298_cif.got.tgz:595952.got - 2010.06.03 11:33:40.
