data_PCOD9030618
_publ_section_title
;
Structure prediction by ZEFSAII (Michael W. Deem and Ramdas Pophale) SiO2 
 PCOD9030618
Probable space group: P -1
;
_chemical_formula_sum "Si O2"
_cell_formula_units_Z 15
_cell_length_a 14.125101
_cell_length_b 16.547106
_cell_length_c 7.138679
_cell_angle_alpha 52.021929
_cell_angle_beta 40.722313
_cell_angle_gamma 38.965162
_cell_volume 683.135623
_symmetry_space_group_name_H-M "P -1"
_symmetry_group_IT_number 2
_symmetry_cell_setting 'triclinic'
loop_
_space_group_symop_operation_xyz
x,y,z
-x,-y,-z
loop_
_atom_site_type_symbol
_atom_site_label
_atom_site_fract_x
_atom_site_fract_y
_atom_site_fract_z
Si Si1 0.287345 0.562277 0.735576
Si Si2 0.154159 0.779489 0.321494
Si Si3 0.000000 0.000000 0.500000
Si Si4 0.473190 0.809803 0.762168
Si Si5 0.616137 0.857678 0.117880
Si Si6 0.770973 0.645259 0.865700
Si Si7 0.795096 0.905803 0.095819
Si Si8 0.957482 0.320899 0.699967
O O1 0.500000 0.500000 0.500000
O O2 0.198611 0.681784 0.560012
O O3 0.247992 0.462236 0.878475
O O4 0.195207 0.609613 0.010474
O O5 0.002961 0.923230 0.417024
O O6 0.103626 0.731233 0.292452
O O7 0.330240 0.777227 0.028271
O O8 0.952020 0.921737 0.810759
O O9 0.513655 0.828666 0.463559
O O10 0.644900 0.704930 0.782557
O O11 0.379452 0.948821 0.804489
O O12 0.762557 0.851121 0.040425
O O13 0.694098 0.755402 0.980843
O O14 0.500000 0.000000 0.000000
O O15 0.976373 0.595800 0.586902
O O16 0.857358 0.805462 0.310133
#
# Coordination Sequence:
#
# PCOD9030618 Si02
#       8
#     2   2   1   2   2   2   2   2
#     4  12  28  51  73 102 145 191 252 302 352 433
#     4  11  26  47  75 108 142 194 237 299 362 434
#     4  10  22  42  72 104 144 172 238 288 362 426
#     4  11  24  43  72 110 147 184 239 288 360 441
#     4  12  24  41  74 106 146 188 237 290 362 427
#     4  12  26  46  75 107 143 195 237 300 359 421
#     4  11  22  43  68 107 146 179 234 294 354 436
#     4  12  27  47  75 104 147 190 238 304 363 421
#
# _framework density 21.957571000000002
#
# number of rings (size 3 to 8) (size 9 to 14) (size 15 to 20)
#    0.000    0.533    5.333    2.400    1.867    5.333 
#    0.000    0.000    0.000    0.000    0.000    0.000 
#    0.000    0.000    0.000    0.000    0.000    0.000 
#
# Total GULP energy -83584.752098 kJ/mol
# GULP energy per Si atom -5572.316807 kJ/mol
# Density = 2.190759 g / cm^3
# Si number density = 21.957571 Si / 1000 Ang^3
#
#
#
# Elastic Constant Matrix: (Units=GPa)
#
#
# Indices 1 2 3 4 5 6 
#
# 1 123.4052 36.5720 45.5411 7.7897 -6.3356 32.3501
# 2 36.5720 83.1200 40.3290 4.3197 -1.8474 25.3914
# 3 45.5411 40.3290 152.5365 -16.3029 -15.9092 24.3273
# 4 7.7897 4.3197 -16.3029 29.9580 16.1127 0.6464
# 5 -6.3356 -1.8474 -15.9092 16.1127 43.7042 -4.0673
# 6 32.3501 25.3914 24.3273 0.6464 -4.0673 33.6305
#
#
#
# Elastic Compliance Matrix: (Units=1/GPa)
#
#
# Indices 1 2 3 4 5 6 
#
# 1 0.011963 -0.001259 -0.002191 -0.004961 0.001908 -0.008645
# 2 -0.001259 0.017131 -0.003032 -0.003507 -0.000152 -0.009480
# 3 -0.002191 -0.003032 0.009021 0.005669 0.000546 -0.002172
# 4 -0.004961 -0.003507 0.005669 0.046879 -0.016042 0.000477
# 5 0.001908 -0.000152 0.000546 -0.016042 0.029427 0.001752
# 6 -0.008645 -0.009480 -0.002172 0.000477 0.001752 0.046983
#
#
# Mechanical properties :
#
#
# Convention : Reuss Voigt Hill
#
# Bulk Modulus (GPa) = 39.76140 67.10509 53.43324
# Shear Modulus (GPa) = 27.35980 37.23320 32.29650
#
# Velocity S-wave (km/s) = 3.53374 4.12234 3.83934
# Velocity P-wave (km/s) = 5.89893 7.29972 6.63639
#
# Compressibility (1/GPa) = 0.02515002
#
# Stress axis : x y z
#
# Youngs Moduli (GPa) = 83.59405 58.37449 110.85584
#
# Poissons Ratio (x) = 0.07350 0.24289
# Poissons Ratio (y) = 0.10526 0.33610
# Poissons Ratio (z) = 0.18316 0.17698
#
# Static dielectric constant tensor:
#      x y z
#    x 1.839180 -0.114670 -0.002360 
#    y -0.114670 1.859590 0.034340 
#    z -0.002360 0.034340 1.853920 
# 
# From -- ./inp_files/77080.got.cif
#   From: 2010.05.17/outbox.cif.g08.bks.cpg/sg2_39_cif.got.tgz:77080.got - 2010.06.03 11:33:40.
