data_PCOD9030497
_publ_section_title
;
Structure prediction by ZEFSAII (Michael W. Deem and Ramdas Pophale) SiO2 
 PCOD9030497
Probable space group: P -1
;
_chemical_formula_sum "Si O2"
_cell_formula_units_Z 8
_cell_length_a 7.212861
_cell_length_b 13.139931
_cell_length_c 7.508246
_cell_angle_alpha 45.320622
_cell_angle_beta 43.504395
_cell_angle_gamma 43.525609
_cell_volume 312.906757
_symmetry_space_group_name_H-M "P -1"
_symmetry_group_IT_number 2
_symmetry_cell_setting 'triclinic'
loop_
_space_group_symop_operation_xyz
x,y,z
-x,-y,-z
loop_
_atom_site_type_symbol
_atom_site_label
_atom_site_fract_x
_atom_site_fract_y
_atom_site_fract_z
Si Si1 0.756889 0.555025 0.943977
Si Si2 0.828875 0.987604 0.313233
Si Si3 0.399980 0.689615 0.330428
Si Si4 0.516763 0.290014 0.383569
O O1 0.492218 0.701712 0.050073
O O2 0.666396 0.412436 0.143260
O O3 0.765614 0.628496 0.654631
O O4 0.000000 0.500000 0.000000
O O5 0.056565 0.812984 0.443793
O O6 0.500000 0.000000 0.500000
O O7 0.762651 0.126633 0.332314
O O8 0.000000 0.000000 0.000000
O O9 0.500000 0.500000 0.500000
O O10 0.569078 0.725420 0.333749
#
# Coordination Sequence:
#
# PCOD9030497 Si02
#       4
#     2   2   2   2
#     4  10  22  42  71 106 150 191 249 308 373 446
#     4  12  27  48  75 110 154 198 249 311 374 445
#     4  10  23  44  70 107 145 192 250 304 366 448
#     4  10  23  43  69 106 149 193 250 300 382 434
#
# _framework density 25.566721000000001
#
# number of rings (size 3 to 8) (size 9 to 14) (size 15 to 20)
#    0.000    1.500    2.500    0.750    7.000    3.000 
#    0.000    3.750    0.000    0.000    0.000    0.000 
#    0.000    0.000    0.000    0.000    0.000    0.000 
#
# Total GULP energy -44632.079831 kJ/mol
# GULP energy per Si atom -5579.009979 kJ/mol
# Density = 2.550853 g / cm^3
# Si number density = 25.566721 Si / 1000 Ang^3
#
#
#
# Elastic Constant Matrix: (Units=GPa)
#
#
# Indices 1 2 3 4 5 6 
#
# 1 173.4885 87.3099 27.1070 0.7896 5.3362 5.0339
# 2 87.3099 210.6467 29.2032 15.9538 11.3656 7.6615
# 3 27.1070 29.2032 77.2429 8.1181 6.9417 12.1660
# 4 0.7896 15.9538 8.1181 26.6867 -0.0588 9.7211
# 5 5.3362 11.3656 6.9417 -0.0588 36.5138 12.5797
# 6 5.0339 7.6615 12.1660 9.7211 12.5797 61.7805
#
#
#
# Elastic Compliance Matrix: (Units=1/GPa)
#
#
# Indices 1 2 3 4 5 6 
#
# 1 0.007568 -0.003075 -0.001706 0.002247 0.000286 -0.000311
# 2 -0.003075 0.006498 -0.000929 -0.003709 -0.001587 0.000534
# 3 -0.001706 -0.000929 0.014663 -0.003204 -0.001635 -0.001796
# 4 0.002247 -0.003709 -0.003204 0.043022 0.003790 -0.006633
# 5 0.000286 -0.001587 -0.001635 0.003790 0.030317 -0.006274
# 6 -0.000311 0.000534 -0.001796 -0.006633 -0.006274 0.018820
#
#
# Mechanical properties :
#
#
# Convention : Reuss Voigt Hill
#
# Bulk Modulus (GPa) = 57.77698 83.17980 70.47839
# Shear Modulus (GPa) = 36.21146 46.18008 41.19577
#
# Velocity S-wave (km/s) = 3.76753 4.25462 4.01846
# Velocity P-wave (km/s) = 6.44773 7.53265 7.01121
#
# Compressibility (1/GPa) = 0.01730793
#
# Stress axis : x y z
#
# Youngs Moduli (GPa) = 132.13546 153.90405 68.19929
#
# Poissons Ratio (x) = 0.47319 0.11637
# Poissons Ratio (y) = 0.40626 0.06338
# Poissons Ratio (z) = 0.22547 0.14303
#
# Static dielectric constant tensor:
#      x y z
#    x 2.102040 -0.027080 -0.015400 
#    y -0.027080 2.068920 0.013260 
#    z -0.015400 0.013260 2.350560 
# 
# From -- ./inp_files/59064.got.cif
#   From: 2010.05.17/outbox.cif.g08.bks.cpg/sg2_30_cif.got.tgz:59064.got - 2010.06.03 11:33:40.
