data_PCOD9030649
_publ_section_title
;
Structure prediction by ZEFSAII (Michael W. Deem and Ramdas Pophale) SiO2 
 PCOD9030649
Probable space group: P -1
;
_chemical_formula_sum "Si O2"
_cell_formula_units_Z 14
_cell_length_a 11.659769
_cell_length_b 7.068984
_cell_length_c 16.078720
_cell_angle_alpha 104.331257
_cell_angle_beta 23.738920
_cell_angle_gamma 102.290519
_cell_volume 516.584266
_symmetry_space_group_name_H-M "P -1"
_symmetry_group_IT_number 2
_symmetry_cell_setting 'triclinic'
loop_
_space_group_symop_operation_xyz
x,y,z
-x,-y,-z
loop_
_atom_site_type_symbol
_atom_site_label
_atom_site_fract_x
_atom_site_fract_y
_atom_site_fract_z
Si Si1 0.889160 0.547304 0.389135
Si Si2 0.799541 0.385226 0.270192
Si Si3 0.738778 0.871615 0.756231
Si Si4 0.885214 0.121053 0.833861
Si Si5 0.249111 0.040140 0.737455
Si Si6 0.261371 0.711463 0.289983
Si Si7 0.357085 0.406185 0.823246
O O1 0.914899 0.374185 0.286753
O O2 0.589129 0.534402 0.635485
O O3 0.906240 0.741187 0.341174
O O4 0.158254 0.560133 0.272865
O O5 0.500000 0.500000 0.500000
O O6 0.037416 0.485495 0.067029
O O7 0.976453 0.748434 0.537525
O O8 0.852571 0.930338 0.777318
O O9 0.692702 0.080667 0.762145
O O10 0.431380 0.781092 0.948945
O O11 0.981872 0.084604 0.859322
O O12 0.500000 0.000000 0.500000
O O13 0.326890 0.212740 0.765772
O O14 0.221867 0.830478 0.775790
O O15 0.504187 0.655265 0.187464
#
# Coordination Sequence:
#
# PCOD9030649 Si02
#       7
#     2   2   2   2   2   2   2
#     4  11  26  46  71 110 149 195 243 318 370 445
#     4  12  29  50  74 114 149 194 254 313 381 444
#     4   9  20  40  72 105 149 194 248 312 359 449
#     4  10  22  42  72 108 147 199 250 300 377 445
#     4  12  24  48  78 107 146 200 253 308 368 458
#     4  10  22  44  69 112 145 194 253 299 380 444
#     4  12  27  48  78 107 154 203 247 311 375 450
#
# _framework density 27.101098
#
# number of rings (size 3 to 8) (size 9 to 14) (size 15 to 20)
#    0.000    1.143    1.429    3.429    2.000    4.571 
#    0.000    0.000    0.000    0.000    0.000    0.000 
#    0.000    0.000    0.000    0.000    0.000    0.000 
#
# Total GULP energy -78514.288333 kJ/mol
# GULP energy per Si atom -5608.163452 kJ/mol
# Density = 2.703941 g / cm^3
# Si number density = 27.101098 Si / 1000 Ang^3
#
#
#
# Elastic Constant Matrix: (Units=GPa)
#
#
# Indices 1 2 3 4 5 6 
#
# 1 159.6375 57.5009 46.1132 -1.2636 -21.4893 16.1704
# 2 57.5009 122.7688 46.9760 -3.6071 -26.1420 9.8622
# 3 46.1132 46.9760 192.5459 -21.1416 12.1489 0.9545
# 4 -1.2636 -3.6071 -21.1416 31.8514 6.9686 11.0605
# 5 -21.4893 -26.1420 12.1489 6.9686 38.1284 -11.5578
# 6 16.1704 9.8622 0.9545 11.0605 -11.5578 53.4021
#
#
#
# Elastic Compliance Matrix: (Units=1/GPa)
#
#
# Indices 1 2 3 4 5 6 
#
# 1 0.008192 -0.002368 -0.001780 -0.001592 0.003577 -0.000908
# 2 -0.002368 0.012307 -0.003388 -0.003363 0.009156 0.001183
# 3 -0.001780 -0.003388 0.007724 0.007097 -0.007726 -0.002115
# 4 -0.001592 -0.003363 0.007097 0.043427 -0.016944 -0.011685
# 5 0.003577 0.009156 -0.007726 -0.016944 0.043177 0.010218
# 6 -0.000908 0.001183 -0.002115 -0.011685 0.010218 0.023452
#
#
# Mechanical properties :
#
#
# Convention : Reuss Voigt Hill
#
# Bulk Modulus (GPa) = 76.04719 86.23695 81.14207
# Shear Modulus (GPa) = 31.69869 46.30051 38.99960
#
# Velocity S-wave (km/s) = 3.42372 4.13781 3.79759
# Velocity P-wave (km/s) = 6.61442 7.39717 7.01672
#
# Compressibility (1/GPa) = 0.01314973
#
# Stress axis : x y z
#
# Youngs Moduli (GPa) = 122.06747 81.25556 129.46978
#
# Poissons Ratio (x) = 0.19242 0.23048
# Poissons Ratio (y) = 0.28906 0.43868
# Poissons Ratio (z) = 0.21731 0.27532
#
# Static dielectric constant tensor:
#      x y z
#    x 2.162210 -0.030130 -0.014180 
#    y -0.030130 2.166970 -0.034990 
#    z -0.014180 -0.034990 2.102080 
# 
# From -- ./inp_files/252661.got.cif
#   From: 2010.05.17/outbox.cif.g08.bks.cpg/sg2_127_cif.got.tgz:252661.got - 2010.06.03 11:33:40.
