data_PCOD9030321
_publ_section_title
;
Structure prediction by ZEFSAII (Michael W. Deem and Ramdas Pophale) SiO2 
 PCOD9030321
Probable space group: P -1
;
_chemical_formula_sum "Si O2"
_cell_formula_units_Z 16
_cell_length_a 17.026099
_cell_length_b 10.050139
_cell_length_c 14.779634
_cell_angle_alpha 37.511224
_cell_angle_beta 39.571985
_cell_angle_gamma 38.569723
_cell_volume 881.298652
_symmetry_space_group_name_H-M "P -1"
_symmetry_group_IT_number 2
_symmetry_cell_setting 'triclinic'
loop_
_space_group_symop_operation_xyz
x,y,z
-x,-y,-z
loop_
_atom_site_type_symbol
_atom_site_label
_atom_site_fract_x
_atom_site_fract_y
_atom_site_fract_z
Si Si1 0.185917 0.921620 0.460710
Si Si2 0.504151 0.049098 0.258653
Si Si3 0.623115 0.318059 0.425797
Si Si4 0.412189 0.097338 0.115874
Si Si5 0.636373 0.413035 0.160622
Si Si6 0.365498 0.419747 0.324352
Si Si7 0.102904 0.640118 0.534155
Si Si8 0.725404 0.881575 0.301973
O O1 0.311102 0.972609 0.286707
O O2 0.051025 0.175639 0.451296
O O3 0.239212 0.787871 0.580622
O O4 0.152889 0.752676 0.512092
O O5 0.504601 0.050460 0.149368
O O6 0.417549 0.315346 0.235373
O O7 0.420764 0.895618 0.441576
O O8 0.648894 0.932769 0.245437
O O9 0.500000 0.500000 0.500000
O O10 0.638356 0.428985 0.258335
O O11 0.325606 0.387746 0.025306
O O12 0.500000 0.000000 0.000000
O O13 0.478750 0.488358 0.230057
O O14 0.720436 0.134103 0.204220
O O15 0.208788 0.613635 0.372564
O O16 0.363958 0.201407 0.505632
O O17 0.133173 0.365094 0.684144
#
# Coordination Sequence:
#
# PCOD9030321 Si02
#       8
#     2   2   2   2   2   2   2   2
#     4  10  21  35  54  79 103 140 174 218 261 318
#     4  10  17  32  51  81 105 133 180 215 254 308
#     4  11  17  28  52  75  99 132 179 215 255 302
#     4  11  24  34  48  78 118 139 162 216 280 314
#     4  11  18  33  51  80 109 135 169 220 266 305
#     4   9  16  31  57  80 100 130 174 226 247 294
#     4   9  18  35  56  78 100 133 184 222 257 298
#     4   9  17  31  58  80 100 133 175 227 249 297
#
# _framework density 18.155027
#
# number of rings (size 3 to 8) (size 9 to 14) (size 15 to 20)
#    0.750    1.250    2.500    4.500    0.000    2.000 
#    0.000    6.250    0.000    8.250    0.000    0.000 
#    0.000    0.000    0.000    0.000    0.000    0.000 
#
# Total GULP energy -89112.433242 kJ/mol
# GULP energy per Si atom -5569.527078 kJ/mol
# Density = 1.811371 g / cm^3
# Si number density = 18.155027 Si / 1000 Ang^3
#
#
#
# Elastic Constant Matrix: (Units=GPa)
#
#
# Indices 1 2 3 4 5 6 
#
# 1 96.4789 39.0094 8.5640 8.8710 18.3027 6.1847
# 2 39.0094 88.8046 -1.6738 1.5719 5.3454 -10.1776
# 3 8.5640 -1.6738 39.4683 -8.7156 11.2049 6.2948
# 4 8.8710 1.5719 -8.7156 21.7364 4.1653 3.3535
# 5 18.3027 5.3454 11.2049 4.1653 20.3152 3.4619
# 6 6.1847 -10.1776 6.2948 3.3535 3.4619 23.3332
#
#
#
# Elastic Compliance Matrix: (Units=1/GPa)
#
#
# Indices 1 2 3 4 5 6 
#
# 1 0.015820 -0.006833 -0.000725 -0.003481 -0.010503 -0.004919
# 2 -0.006833 0.015183 0.001017 0.000849 0.000058 0.008029
# 3 -0.000725 0.001017 0.038551 0.021670 -0.023726 -0.009359
# 4 -0.003481 0.000849 0.021670 0.061471 -0.019863 -0.010441
# 5 -0.010503 0.000058 -0.023726 -0.019863 0.075688 0.000835
# 6 -0.004919 0.008029 -0.009359 -0.010441 0.000835 0.051565
#
#
# Mechanical properties :
#
#
# Convention : Reuss Voigt Hill
#
# Bulk Modulus (GPa) = 17.70786 35.17234 26.44010
# Shear Modulus (GPa) = 17.23046 25.00043 21.11545
#
# Velocity S-wave (km/s) = 3.08405 3.71489 3.41407
# Velocity P-wave (km/s) = 4.73885 6.14947 5.48965
#
# Compressibility (1/GPa) = 0.05647211
#
# Stress axis : x y z
#
# Youngs Moduli (GPa) = 63.21096 65.86305 25.93984
#
# Poissons Ratio (x) = 0.45004 0.01880
# Poissons Ratio (y) = 0.43192 -0.02638
# Poissons Ratio (z) = 0.04582 -0.06698
#
# Static dielectric constant tensor:
#      x y z
#    x 1.619610 0.011000 0.012300 
#    y 0.011000 1.685000 -0.038460 
#    z 0.012300 -0.038460 1.623710 
# 
# From -- ./inp_files/528076.got.cif
#   From: 2010.05.17/outbox.cif.g08.bks.cpg/sg2_265_cif.got.tgz:528076.got - 2010.06.03 11:33:40.
