data_PCOD9030068
_publ_section_title
;
Structure prediction by ZEFSAII (Michael W. Deem and Ramdas Pophale) SiO2 
 PCOD9030068
Probable space group: P -1
;
_chemical_formula_sum "Si O2"
_cell_formula_units_Z 12
_cell_length_a 11.510479
_cell_length_b 9.030485
_cell_length_c 12.826212
_cell_angle_alpha 139.358829
_cell_angle_beta 90.107030
_cell_angle_gamma 118.226394
_cell_volume 595.019423
_symmetry_space_group_name_H-M "P -1"
_symmetry_group_IT_number 2
_symmetry_cell_setting 'triclinic'
loop_
_space_group_symop_operation_xyz
x,y,z
-x,-y,-z
loop_
_atom_site_type_symbol
_atom_site_label
_atom_site_fract_x
_atom_site_fract_y
_atom_site_fract_z
Si Si1 0.635701 0.993113 0.471220
Si Si2 0.572683 0.775530 0.963271
Si Si3 0.653794 0.110950 0.928158
Si Si4 0.961005 0.889079 0.323529
Si Si5 0.826702 0.143516 0.349604
Si Si6 0.179365 0.849718 0.233965
O O1 0.544007 0.614517 0.259084
O O2 0.500000 0.000000 0.500000
O O3 0.732557 0.153634 0.446033
O O4 0.768365 0.170404 0.662933
O O5 0.646575 0.942297 0.939147
O O6 0.482126 0.881120 0.056187
O O7 0.707555 0.925177 0.134134
O O8 0.666074 0.983477 0.754215
O O9 0.825940 0.497698 0.127968
O O10 0.132621 0.047192 0.353759
O O11 0.876618 0.976000 0.311524
O O12 0.000000 0.000000 0.500000
O O13 0.000000 0.500000 0.500000
O O14 0.000000 0.500000 0.000000
#
# Coordination Sequence:
#
# PCOD9030068 Si02
#       6
#     2   2   2   2   2   2
#     4  12  26  44  69 100 140 181 225 283 341 400
#     4  11  24  43  70  98 138 176 228 278 339 406
#     4  10  22  42  69  95 130 177 225 276 336 404
#     4  11  20  41  67  93 134 174 222 275 342 400
#     4  12  26  42  69 102 136 179 228 279 343 406
#     4  10  23  39  69  97 131 174 229 275 337 398
#
# _framework density 20.167407999999998
#
# number of rings (size 3 to 8) (size 9 to 14) (size 15 to 20)
#    0.000    1.000    3.333    2.500    7.000    3.333 
#    0.000    1.667    0.000    0.000    0.000    0.000 
#    0.000    0.000    0.000    0.000    0.000    0.000 
#
# Total GULP energy -66909.856361 kJ/mol
# GULP energy per Si atom -5575.821363 kJ/mol
# Density = 2.012151 g / cm^3
# Si number density = 20.167408 Si / 1000 Ang^3
#
#
#
# Elastic Constant Matrix: (Units=GPa)
#
#
# Indices 1 2 3 4 5 6 
#
# 1 117.6283 45.8183 33.2615 -14.2598 -8.8760 1.0690
# 2 45.8183 140.2964 54.3324 -3.9153 -4.9144 8.4134
# 3 33.2615 54.3324 84.1031 -17.3680 15.3823 -11.4398
# 4 -14.2598 -3.9153 -17.3680 31.8705 -1.9864 3.3161
# 5 -8.8760 -4.9144 15.3823 -1.9864 31.7301 -16.7378
# 6 1.0690 8.4134 -11.4398 3.3161 -16.7378 35.5906
#
#
#
# Elastic Compliance Matrix: (Units=1/GPa)
#
#
# Indices 1 2 3 4 5 6 
#
# 1 0.010974 -0.002244 -0.002978 0.003189 0.005067 0.001329
# 2 -0.002244 0.011208 -0.008091 -0.003491 0.002992 -0.003450
# 3 -0.002978 -0.008091 0.022556 0.008947 -0.010666 0.003402
# 4 0.003189 -0.003491 0.008947 0.037208 -0.002106 -0.000852
# 5 0.005067 0.002992 -0.010666 -0.002106 0.048246 0.018598
# 6 0.001329 -0.003450 0.003402 -0.000852 0.018598 0.038792
#
#
# Mechanical properties :
#
#
# Convention : Reuss Voigt Hill
#
# Bulk Modulus (GPa) = 55.20779 67.65024 61.42901
# Shear Modulus (GPa) = 24.79579 33.74596 29.27088
#
# Velocity S-wave (km/s) = 3.51022 4.09503 3.81385
# Velocity P-wave (km/s) = 6.62292 7.48172 7.06538
#
# Compressibility (1/GPa) = 0.01811339
#
# Stress axis : x y z
#
# Youngs Moduli (GPa) = 91.12149 89.22049 44.33468
#
# Poissons Ratio (x) = 0.20022 0.13202
# Poissons Ratio (y) = 0.20448 0.35869
# Poissons Ratio (z) = 0.27134 0.72185
#
# Static dielectric constant tensor:
#      x y z
#    x 1.828900 0.071970 -0.076090 
#    y 0.071970 1.708330 -0.023290 
#    z -0.076090 -0.023290 1.756950 
# 
# From -- ./inp_files/145708.got.cif
#   From: 2010.05.17/outbox.cif.g08.bks.cpg/sg2_73_cif.got.tgz:145708.got - 2010.06.03 11:33:40.
