data_PCOD9030197
_publ_section_title
;
Structure prediction by ZEFSAII (Michael W. Deem and Ramdas Pophale) SiO2 
 PCOD9030197
Probable space group: P -1
;
_chemical_formula_sum "Si O2"
_cell_formula_units_Z 15
_cell_length_a 24.814937
_cell_length_b 16.039369
_cell_length_c 5.078949
_cell_angle_alpha 56.057579
_cell_angle_beta 115.460987
_cell_angle_gamma 158.096991
_cell_volume 599.675174
_symmetry_space_group_name_H-M "P -1"
_symmetry_group_IT_number 2
_symmetry_cell_setting 'triclinic'
loop_
_space_group_symop_operation_xyz
x,y,z
-x,-y,-z
loop_
_atom_site_type_symbol
_atom_site_label
_atom_site_fract_x
_atom_site_fract_y
_atom_site_fract_z
Si Si1 0.770877 0.894093 0.010900
Si Si2 0.500000 0.500000 0.000000
Si Si3 0.632296 0.995891 0.881241
Si Si4 0.390129 0.474822 0.287632
Si Si5 0.413244 0.911831 0.725120
Si Si6 0.149734 0.523798 0.193986
Si Si7 0.066618 0.993917 0.197801
Si Si8 0.084386 0.702312 0.115848
O O1 0.678396 0.810857 0.744359
O O2 0.615717 0.615791 0.321886
O O3 0.859253 0.934825 0.035416
O O4 0.875711 0.129961 0.963779
O O5 0.472026 0.558139 0.055086
O O6 0.586453 0.968724 0.546116
O O7 0.716841 0.220215 0.803386
O O8 0.758387 0.105684 0.955792
O O9 0.477829 0.707842 0.164131
O O10 0.213527 0.219719 0.299521
O O11 0.500000 0.000000 0.500000
O O12 0.235839 0.624027 0.929136
O O13 0.500000 0.000000 0.000000
O O14 0.058943 0.284396 0.510211
O O15 0.033375 0.438033 0.096203
O O16 0.000000 0.000000 0.000000
O O17 0.000000 0.500000 0.500000
#
# Coordination Sequence:
#
# PCOD9030197 Si02
#       8
#     2   1   2   2   2   2   2   2
#     4  11  24  45  73 108 156 198 262 330 400 479
#     4  10  22  42  70 100 152 198 254 318 390 476
#     4  12  27  46  82 123 155 214 269 333 418 490
#     4  11  25  47  74 111 154 207 263 323 403 481
#     4  12  28  53  79 115 164 216 272 340 404 490
#     4  12  27  51  80 117 165 209 271 351 404 488
#     4  11  28  49  76 111 153 213 268 328 408 491
#     4  12  24  46  76 115 160 207 266 333 418 488
#
# _framework density 25.013541
#
# number of rings (size 3 to 8) (size 9 to 14) (size 15 to 20)
#    0.000    0.533    5.333    1.600    1.867    4.800 
#    0.000    0.000    0.000    0.000    0.000    0.000 
#    0.000    0.000    0.000    0.000    0.000    0.000 
#
# Total GULP energy -83552.918091 kJ/mol
# GULP energy per Si atom -5570.194539 kJ/mol
# Density = 2.495661 g / cm^3
# Si number density = 25.013541 Si / 1000 Ang^3
#
#
#
# Elastic Constant Matrix: (Units=GPa)
#
#
# Indices 1 2 3 4 5 6 
#
# 1 146.7550 65.7483 63.5825 5.0973 2.2726 32.5059
# 2 65.7483 141.4706 63.6201 -11.3120 19.9543 -6.9024
# 3 63.5825 63.6201 154.8623 -13.2940 27.4751 4.7521
# 4 5.0973 -11.3120 -13.2940 44.4404 0.0304 8.2412
# 5 2.2726 19.9543 27.4751 0.0304 42.9501 1.8256
# 6 32.5059 -6.9024 4.7521 8.2412 1.8256 53.4317
#
#
#
# Elastic Compliance Matrix: (Units=1/GPa)
#
#
# Indices 1 2 3 4 5 6 
#
# 1 0.012595 -0.005396 -0.003739 -0.002494 0.004565 -0.007798
# 2 -0.005396 0.011302 -0.001661 0.002130 -0.004104 0.004702
# 3 -0.003739 -0.001661 0.009836 0.002778 -0.005365 0.000940
# 4 -0.002494 0.002130 0.002778 0.024563 -0.002560 -0.002156
# 5 0.004565 -0.004104 -0.005365 -0.002560 0.028527 -0.003410
# 6 -0.007798 0.004702 0.000940 -0.002156 -0.003410 0.024432
#
#
# Mechanical properties :
#
#
# Convention : Reuss Voigt Hill
#
# Bulk Modulus (GPa) = 82.36497 92.10996 87.23746
# Shear Modulus (GPa) = 36.52502 44.84023 40.68263
#
# Velocity S-wave (km/s) = 3.82542 4.23855 4.03727
# Velocity P-wave (km/s) = 7.24647 7.80114 7.52891
#
# Compressibility (1/GPa) = 0.01214108
#
# Stress axis : x y z
#
# Youngs Moduli (GPa) = 79.39971 88.48225 101.66408
#
# Poissons Ratio (x) = 0.47741 0.38014
# Poissons Ratio (y) = 0.42841 0.16886
# Poissons Ratio (z) = 0.29689 0.14697
#
# Static dielectric constant tensor:
#      x y z
#    x 1.985550 -0.078240 -0.062700 
#    y -0.078240 2.276410 0.232530 
#    z -0.062700 0.232530 2.242520 
# 
# From -- ./inp_files/127379.got.cif
#   From: 2010.05.17/outbox.cif.g08.bks.cpg/sg2_64_cif.got.tgz:127379.got - 2010.06.03 11:33:40.
