data_PCOD9030871
_publ_section_title
;
Structure prediction by ZEFSAII (Michael W. Deem and Ramdas Pophale) SiO2 
 PCOD9030871
Probable space group: P -1
;
_chemical_formula_sum "Si O2"
_cell_formula_units_Z 12
_cell_length_a 7.536658
_cell_length_b 9.875390
_cell_length_c 9.867586
_cell_angle_alpha 56.622830
_cell_angle_beta 45.727116
_cell_angle_gamma 69.529198
_cell_volume 438.405579
_symmetry_space_group_name_H-M "P -1"
_symmetry_group_IT_number 2
_symmetry_cell_setting 'triclinic'
loop_
_space_group_symop_operation_xyz
x,y,z
-x,-y,-z
loop_
_atom_site_type_symbol
_atom_site_label
_atom_site_fract_x
_atom_site_fract_y
_atom_site_fract_z
Si Si1 0.363769 0.234346 0.222683
Si Si2 0.273741 0.129794 0.636193
Si Si3 0.266993 0.912066 0.393454
Si Si4 0.718327 0.481039 0.033635
Si Si5 0.530789 0.367933 0.677001
Si Si6 0.971343 0.785810 0.022175
O O1 0.292311 0.180121 0.442774
O O2 0.602110 0.356045 0.051646
O O3 0.422920 0.081120 0.184683
O O4 0.185676 0.351775 0.176791
O O5 0.554884 0.140517 0.545179
O O6 0.142553 0.947654 0.816494
O O7 0.094876 0.229548 0.773371
O O8 0.250976 0.753620 0.395294
O O9 0.000000 0.000000 0.500000
O O10 0.510679 0.525104 0.227557
O O11 0.931185 0.367192 0.025472
O O12 0.500000 0.500000 0.500000
O O13 0.308626 0.226028 0.876222
#
# Coordination Sequence:
#
# PCOD9030871 Si02
#       6
#     2   2   2   2   2   2
#     4  11  25  45  73 104 152 190 241 297 364 439
#     4  10  22  46  76 108 139 198 248 289 368 439
#     4  11  25  46  73 106 143 196 245 297 361 436
#     4  11  24  45  71 111 148 187 244 308 362 429
#     4  11  26  46  76 110 148 191 247 302 369 432
#     4  10  22  42  78 107 143 190 247 302 359 438
#
# _framework density 27.371914
#
# number of rings (size 3 to 8) (size 9 to 14) (size 15 to 20)
#    0.000    1.333    1.667    3.000    4.667    2.667 
#    6.000    0.000    0.000    0.000    0.000    0.000 
#    0.000    0.000    0.000    0.000    0.000    0.000 
#
# Total GULP energy -66874.143182 kJ/mol
# GULP energy per Si atom -5572.845265 kJ/mol
# Density = 2.730961 g / cm^3
# Si number density = 27.371914 Si / 1000 Ang^3
#
#
#
# Elastic Constant Matrix: (Units=GPa)
#
#
# Indices 1 2 3 4 5 6 
#
# 1 91.1449 30.5506 37.2791 18.4676 15.8236 -10.2767
# 2 30.5506 273.6423 67.0684 18.0317 15.1589 7.0309
# 3 37.2791 67.0684 114.6024 13.8847 27.7856 -16.1300
# 4 18.4676 18.0317 13.8847 32.8281 -8.2136 3.1330
# 5 15.8236 15.1589 27.7856 -8.2136 47.2588 4.1553
# 6 -10.2767 7.0309 -16.1300 3.1330 4.1553 36.4046
#
#
#
# Elastic Compliance Matrix: (Units=1/GPa)
#
#
# Indices 1 2 3 4 5 6 
#
# 1 0.015426 -0.000574 -0.001068 -0.010099 -0.006602 0.005615
# 2 -0.000574 0.004475 -0.002798 -0.000612 0.000495 -0.002270
# 3 -0.001068 -0.002798 0.015239 -0.007595 -0.009795 0.008763
# 4 -0.010099 -0.000612 -0.007595 0.045062 0.016922 -0.011907
# 5 -0.006602 0.000495 -0.009795 0.016922 0.032925 -0.011514
# 6 0.005615 -0.002270 0.008763 -0.011907 -0.011514 0.035714
#
#
# Mechanical properties :
#
#
# Convention : Reuss Voigt Hill
#
# Bulk Modulus (GPa) = 38.07744 83.24285 60.66015
# Shear Modulus (GPa) = 30.03493 46.26440 38.14966
#
# Velocity S-wave (km/s) = 3.31613 4.11568 3.73735
# Velocity P-wave (km/s) = 5.34824 7.28443 6.39009
#
# Compressibility (1/GPa) = 0.02626227
#
# Stress axis : x y z
#
# Youngs Moduli (GPa) = 64.82507 223.44349 65.62190
#
# Poissons Ratio (x) = 0.12817 0.07006
# Poissons Ratio (y) = 0.03718 0.18360
# Poissons Ratio (z) = 0.06921 0.62515
#
# Static dielectric constant tensor:
#      x y z
#    x 2.688140 -0.212850 -0.030220 
#    y -0.212850 2.459420 -0.005600 
#    z -0.030220 -0.005600 2.198280 
# 
# From -- ./inp_files/383983.got.cif
#   From: 2010.05.17/outbox.cif.g08.bks.cpg/sg2_192_cif.got.tgz:383983.got - 2010.06.03 11:33:40.
