data_PCOD9030860
_publ_section_title
;
Structure prediction by ZEFSAII (Michael W. Deem and Ramdas Pophale) SiO2 
 PCOD9030860
Probable space group: P -1
;
_chemical_formula_sum "Si O2"
_cell_formula_units_Z 16
_cell_length_a 20.344669
_cell_length_b 14.996300
_cell_length_c 4.846321
_cell_angle_alpha 120.542333
_cell_angle_beta 109.422265
_cell_angle_gamma 29.771210
_cell_volume 611.591448
_symmetry_space_group_name_H-M "P -1"
_symmetry_group_IT_number 2
_symmetry_cell_setting 'triclinic'
loop_
_space_group_symop_operation_xyz
x,y,z
-x,-y,-z
loop_
_atom_site_type_symbol
_atom_site_label
_atom_site_fract_x
_atom_site_fract_y
_atom_site_fract_z
Si Si1 0.354618 0.065594 0.006885
Si Si2 0.172745 0.300918 0.642666
Si Si3 0.483284 0.693663 0.710692
Si Si4 0.255998 0.701600 0.905744
Si Si5 0.955521 0.725309 0.271610
Si Si6 0.234971 0.868833 0.667004
Si Si7 0.197947 0.543533 0.529827
Si Si8 0.385743 0.284985 0.867251
O O1 0.228311 0.226200 0.295276
O O2 0.130801 0.242317 0.607444
O O3 0.399687 0.889188 0.736983
O O4 0.488909 0.932994 0.148644
O O5 0.312723 0.347168 0.582274
O O6 0.297717 0.180384 0.822014
O O7 0.047073 0.536866 0.900150
O O8 0.600519 0.500346 0.372292
O O9 0.374692 0.750173 0.752721
O O10 0.550296 0.680526 0.020080
O O11 0.179279 0.877282 0.863934
O O12 0.185255 0.680342 0.805006
O O13 0.269634 0.742568 0.276714
O O14 0.060142 0.655806 0.498792
O O15 0.866940 0.917751 0.272055
O O16 0.263706 0.456541 0.182361
#
# Coordination Sequence:
#
# PCOD9030860 Si02
#       8
#     2   2   2   2   2   2   2   2
#     4  10  22  42  76  98 136 165 224 285 346 380
#     4  11  25  47  70 105 124 180 223 293 327 394
#     4   9  21  41  69 100 134 167 214 290 331 388
#     4  11  25  40  67  98 142 169 227 265 344 392
#     4  11  28  46  71  93 144 175 235 267 334 396
#     4  12  25  41  66 104 129 186 219 276 324 402
#     4  11  23  45  64  98 138 187 209 276 325 411
#     4   9  21  39  71  95 134 173 217 272 338 389
#
# _framework density 26.161256000000002
#
# number of rings (size 3 to 8) (size 9 to 14) (size 15 to 20)
#    0.750    0.750    1.250    3.000    1.750    9.000 
#    0.000    3.750    0.000    0.000    0.000    0.000 
#    0.000    0.000    0.000    0.000    0.000    0.000 
#
# Total GULP energy -89712.486735 kJ/mol
# GULP energy per Si atom -5607.030421 kJ/mol
# Density = 2.610171 g / cm^3
# Si number density = 26.161256 Si / 1000 Ang^3
#
#
#
# Elastic Constant Matrix: (Units=GPa)
#
#
# Indices 1 2 3 4 5 6 
#
# 1 117.7118 57.5627 38.5196 -11.5514 32.6875 -13.9970
# 2 57.5627 122.2076 20.0820 -13.1940 23.9753 -4.3178
# 3 38.5196 20.0820 88.2941 -5.9249 -3.8537 -2.5435
# 4 -11.5514 -13.1940 -5.9249 46.3935 5.7745 10.5106
# 5 32.6875 23.9753 -3.8537 5.7745 40.1537 -6.7468
# 6 -13.9970 -4.3178 -2.5435 10.5106 -6.7468 45.7675
#
#
#
# Elastic Compliance Matrix: (Units=1/GPa)
#
#
# Indices 1 2 3 4 5 6 
#
# 1 0.016302 -0.003913 -0.006469 0.003169 -0.011708 0.001803
# 2 -0.003913 0.011293 -0.000892 0.003004 -0.004328 -0.001509
# 3 -0.006469 -0.000892 0.014610 -0.000922 0.007341 0.000043
# 4 0.003169 0.003004 -0.000922 0.025584 -0.009153 -0.006023
# 5 -0.011708 -0.004328 0.007341 -0.009153 0.039777 0.004385
# 6 0.001803 -0.001509 0.000043 -0.006023 0.004385 0.024291
#
#
# Mechanical properties :
#
#
# Convention : Reuss Voigt Hill
#
# Bulk Modulus (GPa) = 50.86980 62.28246 56.57613
# Shear Modulus (GPa) = 31.06403 40.59955 35.83179
#
# Velocity S-wave (km/s) = 3.44961 3.94368 3.70489
# Velocity P-wave (km/s) = 5.94587 6.67800 6.32254
#
# Compressibility (1/GPa) = 0.01965803
#
# Stress axis : x y z
#
# Youngs Moduli (GPa) = 61.34145 88.55272 68.44413
#
# Poissons Ratio (x) = 0.34651 0.44273
# Poissons Ratio (y) = 0.24003 0.06106
# Poissons Ratio (z) = 0.39679 0.07900
#
# Static dielectric constant tensor:
#      x y z
#    x 2.040260 0.025600 0.075860 
#    y 0.025600 2.076740 0.005500 
#    z 0.075860 0.005500 2.000330 
# 
# From -- ./inp_files/119965.got.cif
#   From: 2010.05.17/outbox.cif.g08.bks.cpg/sg2_60_cif.got.tgz:119965.got - 2010.06.03 11:33:40.
