data_PCOD9030992
_publ_section_title
;
Structure prediction by ZEFSAII (Michael W. Deem and Ramdas Pophale) SiO2 
 PCOD9030992
Probable space group: P -1
;
_chemical_formula_sum "Si O2"
_cell_formula_units_Z 16
_cell_length_a 18.835666
_cell_length_b 11.091807
_cell_length_c 10.465381
_cell_angle_alpha 52.094856
_cell_angle_beta 37.933851
_cell_angle_gamma 30.040956
_cell_volume 656.054545
_symmetry_space_group_name_H-M "P -1"
_symmetry_group_IT_number 2
_symmetry_cell_setting 'triclinic'
loop_
_space_group_symop_operation_xyz
x,y,z
-x,-y,-z
loop_
_atom_site_type_symbol
_atom_site_label
_atom_site_fract_x
_atom_site_fract_y
_atom_site_fract_z
Si Si1 0.944391 0.734888 0.435066
Si Si2 0.279038 0.604595 0.074843
Si Si3 0.644617 0.711883 0.506106
Si Si4 0.887690 0.949666 0.103703
Si Si5 0.733538 0.544458 0.198652
Si Si6 0.457390 0.863501 0.160319
Si Si7 0.679926 0.124587 0.040457
Si Si8 0.947726 0.624459 0.854922
O O1 0.896770 0.853629 0.286021
O O2 0.000000 0.500000 0.500000
O O3 0.112092 0.661991 0.297438
O O4 0.760961 0.936038 0.649263
O O5 0.208474 0.785302 0.937729
O O6 0.451939 0.328531 0.956812
O O7 0.307459 0.706182 0.074424
O O8 0.681064 0.602465 0.384612
O O9 0.528763 0.723242 0.757201
O O10 0.848588 0.546750 0.376734
O O11 0.500000 0.000000 0.500000
O O12 0.767249 0.984062 0.146472
O O13 0.094223 0.747201 0.881310
O O14 0.558146 0.704250 0.252145
O O15 0.823931 0.614978 0.982028
O O16 0.500000 0.000000 0.000000
O O17 0.814947 0.906683 0.888061
O O18 0.000000 0.500000 0.000000
#
# Coordination Sequence:
#
# PCOD9030992 Si02
#       8
#     2   2   2   2   2   2   2   2
#     4  12  23  41  63  84 123 169 206 246 307 364
#     4  10  23  40  60  88 128 156 201 259 307 355
#     4  11  17  31  55  89 124 157 197 239 312 361
#     4  10  20  38  58  89 128 158 195 255 304 351
#     4  11  20  35  59  88 129 158 198 255 300 361
#     4  12  25  41  62  89 118 165 216 247 301 374
#     4  10  20  34  55  88 127 152 192 251 305 355
#     4  10  17  32  52  84 126 153 190 249 302 356
#
# _framework density 24.388216
#
# number of rings (size 3 to 8) (size 9 to 14) (size 15 to 20)
#    0.750    0.500    7.500    1.125    0.000    2.500 
#    0.000    0.000    0.000    0.750    0.000    2.625 
#    0.000    0.000    0.000    0.000    0.000    0.000 
#
# Total GULP energy -89496.744946 kJ/mol
# GULP energy per Si atom -5593.546559 kJ/mol
# Density = 2.433271 g / cm^3
# Si number density = 24.388216 Si / 1000 Ang^3
#
#
#
# Elastic Constant Matrix: (Units=GPa)
#
#
# Indices 1 2 3 4 5 6 
#
# 1 64.6382 25.9208 33.0031 5.4858 -3.9670 -2.2454
# 2 25.9208 168.2786 74.7330 18.7297 -1.7009 18.2415
# 3 33.0031 74.7330 162.3539 38.4798 -29.5421 6.3430
# 4 5.4858 18.7297 38.4798 50.3620 -4.6334 9.4522
# 5 -3.9670 -1.7009 -29.5421 -4.6334 54.4066 -10.5247
# 6 -2.2454 18.2415 6.3430 9.4522 -10.5247 42.2181
#
#
#
# Elastic Compliance Matrix: (Units=1/GPa)
#
#
# Indices 1 2 3 4 5 6 
#
# 1 0.017715 -0.001651 -0.003074 0.000664 0.000009 0.001971
# 2 -0.001651 0.008283 -0.003963 0.000606 -0.002713 -0.003883
# 3 -0.003074 -0.003963 0.011113 -0.006685 0.005656 0.002786
# 4 0.000664 0.000606 -0.006685 0.025479 -0.002465 -0.005541
# 5 0.000009 -0.002713 0.005656 -0.002465 0.022407 0.006460
# 6 0.001971 -0.003883 0.002786 -0.005541 0.006460 0.027902
#
#
# Mechanical properties :
#
#
# Convention : Reuss Voigt Hill
#
# Bulk Modulus (GPa) = 50.66983 73.62052 62.14517
# Shear Modulus (GPa) = 36.53579 46.83826 41.68702
#
# Velocity S-wave (km/s) = 3.87472 4.38714 4.13887
# Velocity P-wave (km/s) = 6.39057 7.47764 6.95537
#
# Compressibility (1/GPa) = 0.01973561
#
# Stress axis : x y z
#
# Youngs Moduli (GPa) = 56.44958 120.73405 89.98514
#
# Poissons Ratio (x) = 0.19934 0.27660
# Poissons Ratio (y) = 0.09320 0.35657
# Poissons Ratio (z) = 0.17351 0.47842
#
# Static dielectric constant tensor:
#      x y z
#    x 2.025430 -0.045890 -0.013910 
#    y -0.045890 1.966570 -0.011990 
#    z -0.013910 -0.011990 1.920010 
# 
# From -- ./inp_files/454799.got.cif
#   From: 2010.05.17/outbox.cif.g08.bks.cpg/sg2_228_cif.got.tgz:454799.got - 2010.06.03 11:33:40.
