data_PCOD9030527
_publ_section_title
;
Structure prediction by ZEFSAII (Michael W. Deem and Ramdas Pophale) SiO2 
 PCOD9030527
Probable space group: P -1
;
_chemical_formula_sum "Si O2"
_cell_formula_units_Z 16
_cell_length_a 7.067637
_cell_length_b 9.260693
_cell_length_c 11.485033
_cell_angle_alpha 111.106787
_cell_angle_beta 84.773116
_cell_angle_gamma 108.386785
_cell_volume 665.262026
_symmetry_space_group_name_H-M "P -1"
_symmetry_group_IT_number 2
_symmetry_cell_setting 'triclinic'
loop_
_space_group_symop_operation_xyz
x,y,z
-x,-y,-z
loop_
_atom_site_type_symbol
_atom_site_label
_atom_site_fract_x
_atom_site_fract_y
_atom_site_fract_z
Si Si1 0.324451 0.318705 0.159227
Si Si2 0.839499 0.859577 0.343834
Si Si3 0.496824 0.599386 0.411063
Si Si4 0.099010 0.698226 0.168803
Si Si5 0.467294 0.891855 0.811400
Si Si6 0.666154 0.129717 0.453471
Si Si7 0.541255 0.757320 0.112729
Si Si8 0.085377 0.669415 0.894105
O O1 0.448020 0.468412 0.273333
O O2 0.341879 0.156131 0.172829
O O3 0.095844 0.308744 0.162602
O O4 0.407595 0.335554 0.027205
O O5 0.706605 0.738837 0.413622
O O6 0.706553 0.799463 0.216183
O O7 0.047188 0.826910 0.293588
O O8 0.843462 0.046316 0.416236
O O9 0.500000 0.500000 0.500000
O O10 0.327233 0.692696 0.450492
O O11 0.322322 0.685677 0.159998
O O12 0.945493 0.522095 0.151652
O O13 0.074883 0.731863 0.043873
O O14 0.421472 0.872436 0.671818
O O15 0.289207 0.764389 0.851275
O O16 0.468279 0.072320 0.890738
O O17 0.500000 0.000000 0.500000
#
# Coordination Sequence:
#
# PCOD9030527 Si02
#       8
#     2   2   2   2   2   2   2   2
#     4  12  23  40  67  99 138 176 219 279 342 407
#     4  10  22  42  71  96 137 179 221 283 343 404
#     4  11  22  40  71  95 131 188 230 278 336 390
#     4  11  23  40  64 103 143 174 218 277 339 423
#     4  11  23  43  67  97 140 177 221 282 337 411
#     4   9  21  43  68  94 126 182 236 270 329 399
#     4  11  24  41  69 105 135 179 219 269 356 418
#     4  11  25  38  63 104 141 173 221 274 347 411
#
# _framework density 24.050674999999998
#
# number of rings (size 3 to 8) (size 9 to 14) (size 15 to 20)
#    0.000    1.250    3.750    1.875    1.750    3.500 
#    0.000    0.625    8.250   15.750    0.000    0.000 
#    0.000    0.000    0.000    0.000    0.000    0.000 
#
# Total GULP energy -89606.499408 kJ/mol
# GULP energy per Si atom -5600.406213 kJ/mol
# Density = 2.399593 g / cm^3
# Si number density = 24.050675 Si / 1000 Ang^3
#
#
#
# Elastic Constant Matrix: (Units=GPa)
#
#
# Indices 1 2 3 4 5 6 
#
# 1 61.1610 16.2116 13.0225 4.2392 -9.7505 -9.2807
# 2 16.2116 113.1605 44.6878 -8.6250 -3.7226 -17.0105
# 3 13.0225 44.6878 122.4503 8.8947 -15.7318 -7.1676
# 4 4.2392 -8.6250 8.8947 43.7826 -12.8893 -2.6615
# 5 -9.7505 -3.7226 -15.7318 -12.8893 31.8562 10.5347
# 6 -9.2807 -17.0105 -7.1676 -2.6615 10.5347 32.7701
#
#
#
# Elastic Compliance Matrix: (Units=1/GPa)
#
#
# Indices 1 2 3 4 5 6 
#
# 1 0.018040 -0.001899 -0.000519 -0.000715 0.003857 0.002711
# 2 -0.001899 0.011794 -0.004246 0.003163 -0.001841 0.005504
# 3 -0.000519 -0.004246 0.010354 -0.001724 0.004292 -0.001606
# 4 -0.000715 0.003163 -0.001724 0.026879 0.010184 -0.000029
# 5 0.003857 -0.001841 0.004292 0.010184 0.042484 -0.011755
# 6 0.002711 0.005504 -0.001606 -0.000029 -0.011755 0.037566
#
#
# Mechanical properties :
#
#
# Convention : Reuss Voigt Hill
#
# Bulk Modulus (GPa) = 37.23206 49.40171 43.31689
# Shear Modulus (GPa) = 29.51610 36.53845 33.02728
#
# Velocity S-wave (km/s) = 3.50701 3.90196 3.70974
# Velocity P-wave (km/s) = 5.64917 6.39419 6.03319
#
# Compressibility (1/GPa) = 0.02685857
#
# Stress axis : x y z
#
# Youngs Moduli (GPa) = 55.43153 84.79019 96.58117
#
# Poissons Ratio (x) = 0.16106 0.05014
# Poissons Ratio (y) = 0.10529 0.41010
# Poissons Ratio (z) = 0.02878 0.36003
#
# Static dielectric constant tensor:
#      x y z
#    x 1.943640 -0.038450 -0.008420 
#    y -0.038450 1.921410 0.024320 
#    z -0.008420 0.024320 1.932620 
# 
# From -- ./inp_files/382936.got.cif
#   From: 2010.05.17/outbox.cif.g08.bks.cpg/sg2_192_cif.got.tgz:382936.got - 2010.06.03 11:33:40.
