data_PCOD9030569
_publ_section_title
;
Structure prediction by ZEFSAII (Michael W. Deem and Ramdas Pophale) SiO2 
 PCOD9030569
Probable space group: P -1
;
_chemical_formula_sum "Si O2"
_cell_formula_units_Z 14
_cell_length_a 5.441669
_cell_length_b 12.856697
_cell_length_c 21.530252
_cell_angle_alpha 157.729472
_cell_angle_beta 77.824444
_cell_angle_gamma 103.546520
_cell_volume 554.905512
_symmetry_space_group_name_H-M "P -1"
_symmetry_group_IT_number 2
_symmetry_cell_setting 'triclinic'
loop_
_space_group_symop_operation_xyz
x,y,z
-x,-y,-z
loop_
_atom_site_type_symbol
_atom_site_label
_atom_site_fract_x
_atom_site_fract_y
_atom_site_fract_z
Si Si1 0.917560 0.649855 0.660377
Si Si2 0.430228 0.763181 0.481945
Si Si3 0.545242 0.812131 0.093580
Si Si4 0.980689 0.709109 0.374367
Si Si5 0.818395 0.824825 0.630936
Si Si6 0.245381 0.268522 0.829699
Si Si7 0.957087 0.868896 0.998588
O O1 0.678275 0.429704 0.562660
O O2 0.964851 0.771333 0.657334
O O3 0.145236 0.466058 0.564245
O O4 0.870634 0.910033 0.848125
O O5 0.701209 0.690211 0.407392
O O6 0.219511 0.713600 0.411283
O O7 0.434635 0.075253 0.679198
O O8 0.707145 0.708541 0.085763
O O9 0.436858 0.080620 0.276406
O O10 0.310848 0.572453 0.966679
O O11 0.697306 0.862052 0.049106
O O12 0.989626 0.445760 0.184113
O O13 0.000000 0.000000 0.500000
O O14 0.976277 0.085148 0.732749
O O15 0.000000 0.000000 0.000000
#
# Coordination Sequence:
#
# PCOD9030569 Si02
#       7
#     2   2   2   2   2   2   2
#     4  10  23  44  66 109 139 186 241 302 368 441
#     4  11  26  47  76 106 145 194 249 307 370 435
#     4  11  24  42  72 103 141 191 236 306 376 434
#     4  12  28  50  76 105 148 201 253 301 363 440
#     4  10  22  42  71  99 143 181 240 307 372 441
#     4  10  23  44  69 109 140 178 246 309 373 438
#     4  12  26  46  69 105 150 192 253 298 362 445
#
# _framework density 25.229520000000001
#
# number of rings (size 3 to 8) (size 9 to 14) (size 15 to 20)
#    0.000    1.143    2.857    1.714    6.000    3.429 
#    0.000    0.000    0.000    0.000    0.000    0.000 
#    0.000    0.000    0.000    0.000    0.000    0.000 
#
# Total GULP energy -78215.641991 kJ/mol
# GULP energy per Si atom -5586.831571 kJ/mol
# Density = 2.517210 g / cm^3
# Si number density = 25.229520 Si / 1000 Ang^3
#
#
#
# Elastic Constant Matrix: (Units=GPa)
#
#
# Indices 1 2 3 4 5 6 
#
# 1 116.3876 46.6182 38.1265 -13.6206 -16.1562 14.5774
# 2 46.6182 127.8172 35.8564 1.9997 -12.3889 23.4076
# 3 38.1265 35.8564 185.7865 -3.6232 -15.0069 2.2586
# 4 -13.6206 1.9997 -3.6232 50.4490 8.0235 -1.0265
# 5 -16.1562 -12.3889 -15.0069 8.0235 31.1311 -14.9860
# 6 14.5774 23.4076 2.2586 -1.0265 -14.9860 28.4891
#
#
#
# Elastic Compliance Matrix: (Units=1/GPa)
#
#
# Indices 1 2 3 4 5 6 
#
# 1 0.011177 -0.003190 -0.001414 0.002630 0.002383 -0.001638
# 2 -0.003190 0.010721 -0.001471 -0.001301 -0.001585 -0.007940
# 3 -0.001414 -0.001471 0.006175 -0.000334 0.003257 0.003144
# 4 0.002630 -0.001301 -0.000334 0.021484 -0.006158 -0.002715
# 5 0.002383 -0.001585 0.003257 -0.006158 0.047797 0.024746
# 6 -0.001638 -0.007940 0.003144 -0.002715 0.024746 0.055133
#
#
# Mechanical properties :
#
#
# Convention : Reuss Voigt Hill
#
# Bulk Modulus (GPa) = 62.80905 74.57705 68.69305
# Shear Modulus (GPa) = 29.42126 42.63985 36.03055
#
# Velocity S-wave (km/s) = 3.41859 4.11552 3.78314
# Velocity P-wave (km/s) = 6.36643 7.22543 6.80949
#
# Compressibility (1/GPa) = 0.01592127
#
# Stress axis : x y z
#
# Youngs Moduli (GPa) = 89.47206 93.27714 161.94171
#
# Poissons Ratio (x) = 0.29755 0.22903
# Poissons Ratio (y) = 0.28541 0.23827
# Poissons Ratio (z) = 0.12654 0.13724
#
# Static dielectric constant tensor:
#      x y z
#    x 2.103490 -0.009820 0.013640 
#    y -0.009820 2.033720 -0.021940 
#    z 0.013640 -0.021940 2.030700 
# 
# From -- ./inp_files/101020.got.cif
#   From: 2010.05.17/outbox.cif.g08.bks.cpg/sg2_51_cif.got.tgz:101020.got - 2010.06.03 11:33:40.
