data_PCOD9030810
_publ_section_title
;
Structure prediction by ZEFSAII (Michael W. Deem and Ramdas Pophale) SiO2 
 PCOD9030810
Probable space group: P -1
;
_chemical_formula_sum "Si O2"
_cell_formula_units_Z 16
_cell_length_a 7.499804
_cell_length_b 9.776324
_cell_length_c 9.665731
_cell_angle_alpha 83.025838
_cell_angle_beta 59.934179
_cell_angle_gamma 93.402079
_cell_volume 602.816920
_symmetry_space_group_name_H-M "P -1"
_symmetry_group_IT_number 2
_symmetry_cell_setting 'triclinic'
loop_
_space_group_symop_operation_xyz
x,y,z
-x,-y,-z
loop_
_atom_site_type_symbol
_atom_site_label
_atom_site_fract_x
_atom_site_fract_y
_atom_site_fract_z
Si Si1 0.957485 0.639451 0.917499
Si Si2 0.398537 0.438035 0.405793
Si Si3 0.356053 0.734518 0.874356
Si Si4 0.702030 0.457888 0.841343
Si Si5 0.204319 0.107780 0.945183
Si Si6 0.748941 0.950327 0.765981
Si Si7 0.193976 0.884738 0.530525
Si Si8 0.380470 0.168852 0.571910
O O1 0.154068 0.754351 0.862884
O O2 0.889049 0.575952 0.803859
O O3 0.000000 0.500000 0.000000
O O4 0.787471 0.728676 0.032131
O O5 0.500000 0.500000 0.500000
O O6 0.555228 0.381216 0.241699
O O7 0.301463 0.538597 0.323812
O O8 0.274885 0.295057 0.532694
O O9 0.500000 0.500000 0.000000
O O10 0.279781 0.682149 0.063243
O O11 0.543665 0.856394 0.801038
O O12 0.326466 0.125945 0.753718
O O13 0.280134 0.037607 0.061327
O O14 0.000000 0.000000 0.000000
O O15 0.954417 0.871613 0.673893
O O16 0.797806 0.090136 0.640702
O O17 0.367318 0.792108 0.524429
O O18 0.295779 0.034589 0.532808
#
# Coordination Sequence:
#
# PCOD9030810 Si02
#       8
#     2   2   2   2   2   2   2   2
#     4  10  24  44  73 101 142 190 244 287 363 438
#     4  11  24  40  68 100 143 183 230 298 359 413
#     4  10  22  42  74  98 133 194 240 290 350 440
#     4   9  20  43  68  99 133 185 239 282 354 432
#     4  12  26  42  70 109 144 185 239 311 353 417
#     4  11  23  44  75  98 141 186 243 293 360 434
#     4  10  24  47  69 101 136 195 232 286 366 444
#     4  11  25  45  69 100 148 182 236 289 369 433
#
# _framework density 26.542055000000001
#
# number of rings (size 3 to 8) (size 9 to 14) (size 15 to 20)
#    0.000    1.500    2.500    1.500   10.500    0.500 
#    0.000    0.625    0.000    0.000    0.000    0.000 
#    0.000    0.000    0.000    0.000    0.000    0.000 
#
# Total GULP energy -89287.457864 kJ/mol
# GULP energy per Si atom -5580.466117 kJ/mol
# Density = 2.648164 g / cm^3
# Si number density = 26.542055 Si / 1000 Ang^3
#
#
#
# Elastic Constant Matrix: (Units=GPa)
#
#
# Indices 1 2 3 4 5 6 
#
# 1 120.3881 15.7561 57.9265 -16.5035 13.3484 35.6080
# 2 15.7561 95.6669 33.7893 -5.1750 14.2580 8.3346
# 3 57.9265 33.7893 196.2378 -24.3437 53.7450 -0.2782
# 4 -16.5035 -5.1750 -24.3437 32.2340 8.2874 9.4475
# 5 13.3484 14.2580 53.7450 8.2874 49.1472 -0.8279
# 6 35.6080 8.3346 -0.2782 9.4475 -0.8279 34.5275
#
#
#
# Elastic Compliance Matrix: (Units=1/GPa)
#
#
# Indices 1 2 3 4 5 6 
#
# 1 0.020459 0.001844 -0.001893 0.019242 -0.007721 -0.027010
# 2 0.001844 0.011864 -0.000911 0.004987 -0.003892 -0.006231
# 3 -0.001893 -0.000911 0.010486 0.010247 -0.012431 -0.000845
# 4 0.019242 0.004987 0.010247 0.069079 -0.030211 -0.040591
# 5 -0.007721 -0.003892 -0.012431 -0.030211 0.042565 0.018089
# 6 -0.027010 -0.006231 -0.000845 -0.040591 0.018089 0.069855
#
#
# Mechanical properties :
#
#
# Convention : Reuss Voigt Hill
#
# Bulk Modulus (GPa) = 24.45759 69.69296 47.07528
# Shear Modulus (GPa) = 20.84562 43.50314 32.17438
#
# Velocity S-wave (km/s) = 2.80550 4.05288 3.48545
# Velocity P-wave (km/s) = 4.44175 6.94375 5.82859
#
# Compressibility (1/GPa) = 0.04088710
#
# Stress axis : x y z
#
# Youngs Moduli (GPa) = 48.87852 84.29025 95.36426
#
# Poissons Ratio (x) = -0.15542 0.18056
# Poissons Ratio (y) = -0.09013 0.08691
# Poissons Ratio (z) = 0.09255 0.07681
#
# Static dielectric constant tensor:
#      x y z
#    x 2.945700 -0.308790 -0.138660 
#    y -0.308790 2.252950 -0.035020 
#    z -0.138660 -0.035020 2.117350 
# 
# From -- ./inp_files/177412.got.cif
#   From: 2010.05.17/outbox.cif.g08.bks.cpg/sg2_89_cif.got.tgz:177412.got - 2010.06.03 11:33:40.
