data_PCOD9030930
_publ_section_title
;
Structure prediction by ZEFSAII (Michael W. Deem and Ramdas Pophale) SiO2 
 PCOD9030930
Probable space group: P -1
;
_chemical_formula_sum "Si O2"
_cell_formula_units_Z 16
_cell_length_a 13.202031
_cell_length_b 5.180934
_cell_length_c 11.050951
_cell_angle_alpha 102.967196
_cell_angle_beta 105.285243
_cell_angle_gamma 114.242494
_cell_volume 615.458096
_symmetry_space_group_name_H-M "P -1"
_symmetry_group_IT_number 2
_symmetry_cell_setting 'triclinic'
loop_
_space_group_symop_operation_xyz
x,y,z
-x,-y,-z
loop_
_atom_site_type_symbol
_atom_site_label
_atom_site_fract_x
_atom_site_fract_y
_atom_site_fract_z
Si Si1 0.154952 0.415301 0.184622
Si Si2 0.591235 0.701018 0.154548
Si Si3 0.816930 0.125996 0.952028
Si Si4 0.322154 0.718151 0.636846
Si Si5 0.162702 0.211314 0.677849
Si Si6 0.368666 0.954302 0.427774
Si Si7 0.942513 0.361546 0.265709
Si Si8 0.563829 0.683743 0.728908
O O1 0.137868 0.084903 0.121793
O O2 0.292733 0.652579 0.291161
O O3 0.072070 0.434474 0.264278
O O4 0.134807 0.556465 0.070109
O O5 0.705983 0.647726 0.197496
O O6 0.503369 0.609288 0.236227
O O7 0.660278 0.067793 0.219524
O O8 0.500000 0.500000 0.000000
O O9 0.671857 0.935487 0.871008
O O10 0.857296 0.164654 0.106108
O O11 0.213577 0.372143 0.581164
O O12 0.305331 0.877772 0.530039
O O13 0.448477 0.724744 0.674697
O O14 0.077600 0.349965 0.701605
O O15 0.094470 0.853149 0.649605
O O16 0.500000 0.000000 0.500000
O O17 0.378566 0.234862 0.380596
#
# Coordination Sequence:
#
# PCOD9030930 Si02
#       8
#     2   2   2   2   2   2   2   2
#     4  11  24  44  65 101 127 173 223 271 328 389
#     4  11  23  38  65 100 139 174 221 270 329 397
#     4  11  23  40  65 101 134 168 215 272 337 391
#     4  10  22  43  62  94 136 173 221 273 328 382
#     4  11  24  42  62  96 128 178 220 263 332 381
#     4   9  21  45  66  95 131 170 219 276 328 392
#     4  12  23  42  69  91 137 175 219 271 325 396
#     4   9  22  35  64  97 127 172 213 264 334 390
#
# _framework density 25.996896
#
# number of rings (size 3 to 8) (size 9 to 14) (size 15 to 20)
#    0.000    1.500    1.250    3.000    7.000    1.500 
#   11.250    1.250    0.000    0.000    0.000    0.000 
#    0.000    0.000    0.000    0.000    0.000    0.000 
#
# Total GULP energy -89365.862258 kJ/mol
# GULP energy per Si atom -5585.366391 kJ/mol
# Density = 2.593773 g / cm^3
# Si number density = 25.996896 Si / 1000 Ang^3
#
#
#
# Elastic Constant Matrix: (Units=GPa)
#
#
# Indices 1 2 3 4 5 6 
#
# 1 85.5434 15.7749 3.1689 -17.3171 -9.5846 16.5795
# 2 15.7749 127.9607 15.0420 -24.3500 -0.6376 -0.9396
# 3 3.1689 15.0420 72.8587 -2.3441 15.1415 3.8738
# 4 -17.3171 -24.3500 -2.3441 27.9501 2.5115 -7.6001
# 5 -9.5846 -0.6376 15.1415 2.5115 22.2847 8.1997
# 6 16.5795 -0.9396 3.8738 -7.6001 8.1997 35.2690
#
#
#
# Elastic Compliance Matrix: (Units=1/GPa)
#
#
# Indices 1 2 3 4 5 6 
#
# 1 0.015926 -0.000597 -0.002166 0.005886 0.010768 -0.008500
# 2 -0.000597 0.009790 -0.001678 0.008871 -0.000883 0.002843
# 3 -0.002166 -0.001678 0.016823 0.000432 -0.013310 0.002313
# 4 0.005886 0.008871 0.000432 0.050494 -0.006839 0.009893
# 5 0.010768 -0.000883 -0.013310 -0.006839 0.066892 -0.020649
# 6 -0.008500 0.002843 0.002313 0.009893 -0.020649 0.039103
#
#
# Mechanical properties :
#
#
# Convention : Reuss Voigt Hill
#
# Bulk Modulus (GPa) = 29.71136 39.37049 34.54093
# Shear Modulus (GPa) = 22.81766 33.92591 28.37178
#
# Velocity S-wave (km/s) = 2.96583 3.61640 3.30715
# Velocity P-wave (km/s) = 4.81475 5.71095 5.28189
#
# Compressibility (1/GPa) = 0.03365716
#
# Stress axis : x y z
#
# Youngs Moduli (GPa) = 62.79109 102.14247 59.44354
#
# Poissons Ratio (x) = 0.06101 0.12875
# Poissons Ratio (y) = 0.03751 0.09972
# Poissons Ratio (z) = 0.13600 0.17135
#
# Static dielectric constant tensor:
#      x y z
#    x 2.077480 0.054190 -0.045280 
#    y 0.054190 2.104710 -0.036070 
#    z -0.045280 -0.036070 2.044930 
# 
# From -- ./inp_files/442074.got.cif
#   From: 2010.05.17/outbox.cif.g08.bks.cpg/sg2_222_cif.got.tgz:442074.got - 2010.06.03 11:33:40.
