data_PCOD9030818
_publ_section_title
;
Structure prediction by ZEFSAII (Michael W. Deem and Ramdas Pophale) SiO2 
 PCOD9030818
Probable space group: P -1
;
_chemical_formula_sum "Si O2"
_cell_formula_units_Z 16
_cell_length_a 8.228831
_cell_length_b 14.278838
_cell_length_c 5.735174
_cell_angle_alpha 83.334464
_cell_angle_beta 67.594564
_cell_angle_gamma 88.708184
_cell_volume 618.617742
_symmetry_space_group_name_H-M "P -1"
_symmetry_group_IT_number 2
_symmetry_cell_setting 'triclinic'
loop_
_space_group_symop_operation_xyz
x,y,z
-x,-y,-z
loop_
_atom_site_type_symbol
_atom_site_label
_atom_site_fract_x
_atom_site_fract_y
_atom_site_fract_z
Si Si1 0.718563 0.518682 0.132353
Si Si2 0.181624 0.275162 0.404729
Si Si3 0.254621 0.818965 0.007384
Si Si4 0.276453 0.026807 0.725657
Si Si5 0.513222 0.361641 0.017328
Si Si6 0.372933 0.947310 0.272711
Si Si7 0.047625 0.576233 0.644733
Si Si8 0.883862 0.808547 0.037916
O O1 0.649069 0.441791 0.005979
O O2 0.769293 0.455490 0.342078
O O3 0.574453 0.599949 0.184643
O O4 0.901131 0.568968 0.933631
O O5 0.340119 0.352407 0.278166
O O6 0.200098 0.228217 0.659999
O O7 0.991228 0.324190 0.480100
O O8 0.189540 0.219677 0.167638
O O9 0.251905 0.865271 0.254733
O O10 0.084223 0.779093 0.977387
O O11 0.287696 0.917175 0.822256
O O12 0.397191 0.738789 0.979904
O O13 0.256488 0.019341 0.461034
O O14 0.462698 0.082424 0.648694
O O15 0.136603 0.079636 0.942614
O O16 0.500000 0.000000 0.000000
O O17 0.000000 0.500000 0.500000
#
# Coordination Sequence:
#
# PCOD9030818 Si02
#       8
#     2   2   2   2   2   2   2   2
#     4   9  21  44  69  98 142 178 237 284 361 418
#     4  11  28  46  70 107 141 189 234 292 351 424
#     4  11  24  41  69  98 139 180 242 290 353 415
#     4  10  23  42  68  96 140 187 232 290 355 417
#     4  10  22  45  69 101 138 187 235 295 348 425
#     4   9  21  40  66  99 131 181 230 292 351 413
#     4  10  22  42  75 101 141 183 230 290 360 420
#     4  12  28  46  71 102 146 187 239 291 353 418
#
# _framework density 25.864113
#
# number of rings (size 3 to 8) (size 9 to 14) (size 15 to 20)
#    0.000    1.750    0.000    1.875   17.500    0.500 
#    2.250    1.875    0.000    0.000    0.000    0.000 
#    0.000    0.000    0.000    0.000    0.000    0.000 
#
# Total GULP energy -89173.724928 kJ/mol
# GULP energy per Si atom -5573.357808 kJ/mol
# Density = 2.580524 g / cm^3
# Si number density = 25.864113 Si / 1000 Ang^3
#
#
#
# Elastic Constant Matrix: (Units=GPa)
#
#
# Indices 1 2 3 4 5 6 
#
# 1 101.2447 24.5510 22.5608 -9.5771 14.9412 -11.6988
# 2 24.5510 122.2794 40.5432 -5.6189 15.7367 -29.4147
# 3 22.5608 40.5432 81.7336 1.7333 16.3078 -3.1467
# 4 -9.5771 -5.6189 1.7333 29.5074 6.6406 3.5852
# 5 14.9412 15.7367 16.3078 6.6406 30.5533 -0.3972
# 6 -11.6988 -29.4147 -3.1467 3.5852 -0.3972 57.2936
#
#
#
# Elastic Compliance Matrix: (Units=1/GPa)
#
#
# Indices 1 2 3 4 5 6 
#
# 1 0.011921 -0.000331 -0.002040 0.004974 -0.005628 0.001802
# 2 -0.000331 0.011791 -0.004837 0.002611 -0.003825 0.005530
# 3 -0.002040 -0.004837 0.016120 -0.001191 -0.004882 -0.001973
# 4 0.004974 0.002611 -0.001191 0.038697 -0.011555 -0.000211
# 5 -0.005628 -0.003825 -0.004882 -0.011555 0.042539 -0.002363
# 6 0.001802 0.005530 -0.001973 -0.000211 -0.002363 0.020550
#
#
# Mechanical properties :
#
#
# Convention : Reuss Voigt Hill
#
# Bulk Modulus (GPa) = 39.34205 53.39642 46.36923
# Shear Modulus (GPa) = 30.39434 37.97771 34.18603
#
# Velocity S-wave (km/s) = 3.43177 3.83607 3.63954
# Velocity P-wave (km/s) = 5.56299 6.34905 5.96897
#
# Compressibility (1/GPa) = 0.02541810
#
# Stress axis : x y z
#
# Youngs Moduli (GPa) = 83.88510 84.81342 62.03310
#
# Poissons Ratio (x) = 0.02806 0.12652
# Poissons Ratio (y) = 0.02776 0.30003
# Poissons Ratio (z) = 0.17109 0.41020
#
# Static dielectric constant tensor:
#      x y z
#    x 2.161340 -0.072610 0.124600 
#    y -0.072610 2.102550 -0.053930 
#    z 0.124600 -0.053930 2.354720 
# 
# From -- ./inp_files/37790.got.cif
#   From: 2010.05.17/outbox.cif.g08.bks.cpg/sg2_19_cif.got.tgz:37790.got - 2010.06.03 11:33:40.
