data_PCOD9030718
_publ_section_title
;
Structure prediction by ZEFSAII (Michael W. Deem and Ramdas Pophale) SiO2 
 PCOD9030718
Probable space group: P -1
;
_chemical_formula_sum "Si O2"
_cell_formula_units_Z 16
_cell_length_a 21.939112
_cell_length_b 9.491321
_cell_length_c 16.674430
_cell_angle_alpha 143.613627
_cell_angle_beta 161.203819
_cell_angle_gamma 36.417403
_cell_volume 646.960760
_symmetry_space_group_name_H-M "P -1"
_symmetry_group_IT_number 2
_symmetry_cell_setting 'triclinic'
loop_
_space_group_symop_operation_xyz
x,y,z
-x,-y,-z
loop_
_atom_site_type_symbol
_atom_site_label
_atom_site_fract_x
_atom_site_fract_y
_atom_site_fract_z
Si Si1 0.249700 0.769102 0.481792
Si Si2 0.950540 0.025406 0.064115
Si Si3 0.380230 0.943148 0.217776
Si Si4 0.692655 0.559473 0.733106
Si Si5 0.782606 0.659458 0.297567
Si Si6 0.712282 0.699377 0.405083
Si Si7 0.054515 0.501103 0.250835
Si Si8 0.383479 0.570658 0.166605
O O1 0.183676 0.665335 0.268597
O O2 0.159414 0.649972 0.388131
O O3 0.476312 0.634827 0.703844
O O4 0.224066 0.054926 0.589097
O O5 0.842871 0.050234 0.029288
O O6 0.803431 0.261510 0.947206
O O7 0.917499 0.784691 0.869470
O O8 0.158427 0.093863 0.347813
O O9 0.506721 0.804760 0.238816
O O10 0.481976 0.778094 0.343948
O O11 0.365532 0.219291 0.300418
O O12 0.500000 0.500000 0.500000
O O13 0.829531 0.612425 0.999503
O O14 0.689600 0.622209 0.250508
O O15 0.000000 0.500000 0.500000
O O16 0.681525 0.565827 0.053431
O O17 0.846279 0.500623 0.539333
#
# Coordination Sequence:
#
# PCOD9030718 Si02
#       8
#     2   2   2   2   2   2   2   2
#     4  12  25  46  71 106 141 190 239 292 364 423
#     4  10  22  42  73 102 143 186 222 290 363 422
#     4  10  23  44  70 108 143 185 230 291 369 421
#     4  12  27  40  71 112 150 180 231 298 363 437
#     4  12  26  47  76  98 141 196 248 298 352 413
#     4  12  25  46  72 111 139 193 241 287 358 438
#     4  12  25  44  72 107 150 179 237 294 365 438
#     4  10  24  45  73  98 140 193 237 290 354 418
#
# _framework density 24.731020999999998
#
# number of rings (size 3 to 8) (size 9 to 14) (size 15 to 20)
#    0.750    0.000    3.750    3.375    7.000    2.000 
#    0.000    0.625    0.000    0.000    0.000    0.000 
#    0.000    0.000    0.000    0.000    0.000    0.000 
#
# Total GULP energy -89381.540447 kJ/mol
# GULP energy per Si atom -5586.346278 kJ/mol
# Density = 2.467473 g / cm^3
# Si number density = 24.731021 Si / 1000 Ang^3
#
#
#
# Elastic Constant Matrix: (Units=GPa)
#
#
# Indices 1 2 3 4 5 6 
#
# 1 127.4987 34.4681 34.5801 1.3684 16.1433 10.0723
# 2 34.4681 160.6910 36.8749 14.1489 -2.3786 4.4597
# 3 34.5801 36.8749 85.7696 -1.6255 -2.4844 -0.8507
# 4 1.3684 14.1489 -1.6255 32.2868 4.5492 7.6593
# 5 16.1433 -2.3786 -2.4844 4.5492 48.0595 -7.4307
# 6 10.0723 4.4597 -0.8507 7.6593 -7.4307 43.2142
#
#
#
# Elastic Compliance Matrix: (Units=1/GPa)
#
#
# Indices 1 2 3 4 5 6 
#
# 1 0.009960 -0.001421 -0.003533 0.001381 -0.004226 -0.003216
# 2 -0.001421 0.007462 -0.002668 -0.003578 0.001098 0.000331
# 3 -0.003533 -0.002668 0.014327 0.001431 0.001884 0.001451
# 4 0.001381 -0.003578 0.001431 0.034902 -0.004947 -0.006961
# 5 -0.004226 0.001098 0.001884 -0.004947 0.023755 0.005870
# 6 -0.003216 0.000331 0.001451 -0.006961 0.005870 0.026128
#
#
# Mechanical properties :
#
#
# Convention : Reuss Voigt Hill
#
# Bulk Modulus (GPa) = 60.58627 65.08950 62.83789
# Shear Modulus (GPa) = 36.42228 42.58117 39.50172
#
# Velocity S-wave (km/s) = 3.84179 4.15392 4.00090
# Velocity P-wave (km/s) = 6.65059 7.02730 6.84154
#
# Compressibility (1/GPa) = 0.01650539
#
# Stress axis : x y z
#
# Youngs Moduli (GPa) = 100.40363 134.00898 69.79946
#
# Poissons Ratio (x) = 0.19036 0.24660
# Poissons Ratio (y) = 0.14263 0.18624
# Poissons Ratio (z) = 0.35472 0.35756
#
# Static dielectric constant tensor:
#      x y z
#    x 2.036040 0.005960 -0.020480 
#    y 0.005960 2.047510 -0.100080 
#    z -0.020480 -0.100080 2.061480 
# 
# From -- ./inp_files/579017.got.cif
#   From: 2010.05.17/outbox.cif.g08.bks.cpg/sg2_290_cif.got.tgz:579017.got - 2010.06.03 11:33:40.
