data_PCOD9030088
_publ_section_title
;
Structure prediction by ZEFSAII (Michael W. Deem and Ramdas Pophale) SiO2 
 PCOD9030088
Probable space group: P -1
;
_chemical_formula_sum "Si O2"
_cell_formula_units_Z 12
_cell_length_a 4.895095
_cell_length_b 18.563381
_cell_length_c 5.663066
_cell_angle_alpha 67.903264
_cell_angle_beta 85.894369
_cell_angle_gamma 106.950820
_cell_volume 446.447228
_symmetry_space_group_name_H-M "P -1"
_symmetry_group_IT_number 2
_symmetry_cell_setting 'triclinic'
loop_
_space_group_symop_operation_xyz
x,y,z
-x,-y,-z
loop_
_atom_site_type_symbol
_atom_site_label
_atom_site_fract_x
_atom_site_fract_y
_atom_site_fract_z
Si Si1 0.540081 0.597013 0.869052
Si Si2 0.103404 0.743088 0.650782
Si Si3 0.705099 0.829805 0.734805
Si Si4 0.675129 0.437113 0.577186
Si Si5 0.288759 0.016572 0.686541
Si Si6 0.712565 0.134512 0.900591
O O1 0.882541 0.650158 0.778854
O O2 0.398489 0.609985 0.611630
O O3 0.500000 0.500000 0.000000
O O4 0.409237 0.613255 0.109431
O O5 0.949640 0.788042 0.789994
O O6 0.444680 0.769955 0.656670
O O7 0.084602 0.785852 0.348841
O O8 0.854355 0.920921 0.494630
O O9 0.508029 0.841004 0.946649
O O10 0.500000 0.500000 0.500000
O O11 0.000000 0.500000 0.500000
O O12 0.501437 0.074605 0.794880
O O13 0.500000 0.000000 0.500000
O O14 0.131910 0.926733 0.921629
#
# Coordination Sequence:
#
# PCOD9030088 Si02
#       6
#     2   2   2   2   2   2
#     4  10  24  46  70 101 136 180 232 284 348 412
#     4  11  25  41  64  96 132 173 221 281 334 405
#     4  10  23  41  62  96 132 170 224 270 339 398
#     4  10  22  42  69  96 129 168 222 279 338 407
#     4   8  16  37  64  94 126 173 217 269 323 405
#     4   9  19  39  65  91 133 172 218 271 336 392
#
# _framework density 26.878876999999999
#
# number of rings (size 3 to 8) (size 9 to 14) (size 15 to 20)
#    0.000    2.333    0.000    0.500    2.333    8.667 
#    3.000   28.333    0.000    0.000    0.000    0.000 
#    0.000    0.000    0.000    0.000    0.000    0.000 
#
# Total GULP energy -67170.630076 kJ/mol
# GULP energy per Si atom -5597.552506 kJ/mol
# Density = 2.681770 g / cm^3
# Si number density = 26.878877 Si / 1000 Ang^3
#
#
#
# Elastic Constant Matrix: (Units=GPa)
#
#
# Indices 1 2 3 4 5 6 
#
# 1 134.7695 14.9467 16.7989 3.8267 -15.1941 20.9444
# 2 14.9467 115.8295 43.2728 -12.3337 -11.7273 4.2924
# 3 16.7989 43.2728 182.1275 7.9464 -6.7450 14.2562
# 4 3.8267 -12.3337 7.9464 69.0911 9.7265 -3.2146
# 5 -15.1941 -11.7273 -6.7450 9.7265 37.3790 -4.0704
# 6 20.9444 4.2924 14.2562 -3.2146 -4.0704 38.3453
#
#
#
# Elastic Compliance Matrix: (Units=1/GPa)
#
#
# Indices 1 2 3 4 5 6 
#
# 1 0.008570 -0.000722 -0.000112 -0.001226 0.003084 -0.004334
# 2 -0.000722 0.009983 -0.002352 0.001836 0.001993 0.000517
# 3 -0.000112 -0.002352 0.006296 -0.001300 0.000465 -0.002076
# 4 -0.001226 0.001836 -0.001300 0.015672 -0.004036 0.001833
# 5 0.003084 0.001993 0.000465 -0.004036 0.029848 0.000750
# 6 -0.004334 0.000517 -0.002076 0.001833 0.000750 0.029393
#
#
# Mechanical properties :
#
#
# Convention : Reuss Voigt Hill
#
# Bulk Modulus (GPa) = 54.11867 64.75150 59.43508
# Shear Modulus (GPa) = 44.52585 52.81028 48.66806
#
# Velocity S-wave (km/s) = 4.07447 4.43736 4.25978
# Velocity P-wave (km/s) = 6.50485 7.09901 6.80842
#
# Compressibility (1/GPa) = 0.01847791
#
# Stress axis : x y z
#
# Youngs Moduli (GPa) = 116.68361 100.16607 158.82352
#
# Poissons Ratio (x) = 0.07230 0.01779
# Poissons Ratio (y) = 0.08422 0.37359
# Poissons Ratio (z) = 0.01307 0.23561
#
# Static dielectric constant tensor:
#      x y z
#    x 2.081880 -0.024100 0.119630 
#    y -0.024100 2.128520 0.085180 
#    z 0.119630 0.085180 2.216880 
# 
# From -- ./inp_files/10638.got.cif
#   From: 2010.05.17/outbox.cif.g08.bks.cpg/sg2_6_cif.got.tgz:10638.got - 2010.06.03 11:33:40.
