data_PCOD9030637
_publ_section_title
;
Structure prediction by ZEFSAII (Michael W. Deem and Ramdas Pophale) SiO2 
 PCOD9030637
Probable space group: P -1
;
_chemical_formula_sum "Si O2"
_cell_formula_units_Z 13
_cell_length_a 10.483849
_cell_length_b 7.808810
_cell_length_c 9.427340
_cell_angle_alpha 92.969212
_cell_angle_beta 120.410831
_cell_angle_gamma 52.727052
_cell_volume 491.809992
_symmetry_space_group_name_H-M "P -1"
_symmetry_group_IT_number 2
_symmetry_cell_setting 'triclinic'
loop_
_space_group_symop_operation_xyz
x,y,z
-x,-y,-z
loop_
_atom_site_type_symbol
_atom_site_label
_atom_site_fract_x
_atom_site_fract_y
_atom_site_fract_z
Si Si1 0.198290 0.807206 0.518581
Si Si2 0.000000 0.500000 0.500000
Si Si3 0.303404 0.354638 0.468123
Si Si4 0.033098 0.658629 0.088494
Si Si5 0.428433 0.471873 0.106538
Si Si6 0.279182 0.242975 0.894275
Si Si7 0.257506 0.897370 0.239188
O O1 0.229111 0.577614 0.528382
O O2 0.380388 0.741988 0.707037
O O3 0.200535 0.864954 0.359321
O O4 0.000000 0.000000 0.500000
O O5 0.858613 0.658223 0.574617
O O6 0.801998 0.662504 0.302388
O O7 0.539276 0.148993 0.619882
O O8 0.244741 0.469753 0.282814
O O9 0.865139 0.790431 0.124512
O O10 0.000000 0.500000 0.000000
O O11 0.932671 0.865440 0.928726
O O12 0.328504 0.693950 0.160387
O O13 0.500000 0.500000 0.000000
O O14 0.292206 0.415110 0.990105
O O15 0.500000 0.000000 0.000000
#
# Coordination Sequence:
#
# PCOD9030637 Si02
#       7
#     2   1   2   2   2   2   2
#     4  11  27  46  75 109 149 198 263 317 378 445
#     4  10  22  42  72 106 158 188 242 302 368 458
#     4  10  23  46  71 108 148 197 249 303 385 453
#     4  11  27  44  71 108 143 195 252 307 375 459
#     4  11  24  45  79 112 149 203 248 307 386 451
#     4  11  24  45  71 108 154 193 245 302 376 449
#     4  11  26  52  75 104 159 201 249 323 376 452
#
# _framework density 26.432971999999999
#
# number of rings (size 3 to 8) (size 9 to 14) (size 15 to 20)
#    0.000    1.231    0.000    5.538   10.769    4.923 
#    0.000    0.000    0.000    0.000    0.000    0.000 
#    0.000    0.000    0.000    0.000    0.000    0.000 
#
# Total GULP energy -72526.241970 kJ/mol
# GULP energy per Si atom -5578.941690 kJ/mol
# Density = 2.637281 g / cm^3
# Si number density = 26.432972 Si / 1000 Ang^3
#
#
#
# Elastic Constant Matrix: (Units=GPa)
#
#
# Indices 1 2 3 4 5 6 
#
# 1 114.7068 23.3927 50.8050 -19.3890 -20.4617 -31.2998
# 2 23.3927 85.3041 48.7067 -7.9085 2.4438 -14.0852
# 3 50.8050 48.7067 247.6418 -23.5079 -8.3448 -8.0369
# 4 -19.3890 -7.9085 -23.5079 37.0705 -14.4392 4.8317
# 5 -20.4617 2.4438 -8.3448 -14.4392 64.1165 -2.1624
# 6 -31.2998 -14.0852 -8.0369 4.8317 -2.1624 41.4482
#
#
#
# Elastic Compliance Matrix: (Units=1/GPa)
#
#
# Indices 1 2 3 4 5 6 
#
# 1 0.014870 -0.000996 -0.001556 0.007879 0.006693 0.010020
# 2 -0.000996 0.014014 -0.002471 0.000042 -0.001047 0.003471
# 3 -0.001556 -0.002471 0.005046 0.002309 0.000732 -0.001267
# 4 0.007879 0.000042 0.002309 0.036552 0.011137 0.002732
# 5 0.006693 -0.001047 0.000732 0.011137 0.020532 0.004613
# 6 0.010020 0.003471 -0.001267 0.002732 0.004613 0.032549
#
#
# Mechanical properties :
#
#
# Convention : Reuss Voigt Hill
#
# Bulk Modulus (GPa) = 41.86871 77.05128 59.45999
# Shear Modulus (GPa) = 35.31845 50.17694 42.74770
#
# Velocity S-wave (km/s) = 3.65931 4.36164 4.02582
# Velocity P-wave (km/s) = 5.80758 7.38771 6.64478
#
# Compressibility (1/GPa) = 0.02388418
#
# Stress axis : x y z
#
# Youngs Moduli (GPa) = 67.24891 71.35927 198.17876
#
# Poissons Ratio (x) = 0.07108 0.30838
# Poissons Ratio (y) = 0.06699 0.48961
# Poissons Ratio (z) = 0.10464 0.17630
#
# Static dielectric constant tensor:
#      x y z
#    x 2.825430 0.061330 -0.011920 
#    y 0.061330 2.202450 0.094230 
#    z -0.011920 0.094230 2.050250 
# 
# From -- ./inp_files/239282.got.cif
#   From: 2010.05.17/outbox.cif.g08.bks.cpg/sg2_120_cif.got.tgz:239282.got - 2010.06.03 11:33:40.
