data_PCOD9030705
_publ_section_title
;
Structure prediction by ZEFSAII (Michael W. Deem and Ramdas Pophale) SiO2 
 PCOD9030705
Probable space group: P -1
;
_chemical_formula_sum "Si O2"
_cell_formula_units_Z 16
_cell_length_a 28.578779
_cell_length_b 19.492824
_cell_length_c 9.381836
_cell_angle_alpha 145.214895
_cell_angle_beta 26.458175
_cell_angle_gamma 162.984182
_cell_volume 656.755585
_symmetry_space_group_name_H-M "P -1"
_symmetry_group_IT_number 2
_symmetry_cell_setting 'triclinic'
loop_
_space_group_symop_operation_xyz
x,y,z
-x,-y,-z
loop_
_atom_site_type_symbol
_atom_site_label
_atom_site_fract_x
_atom_site_fract_y
_atom_site_fract_z
Si Si1 0.053481 0.300457 0.448836
Si Si2 0.368093 0.450166 0.662767
Si Si3 0.273303 0.256628 0.278553
Si Si4 0.839646 0.629333 0.395144
Si Si5 0.642898 0.173711 0.541049
Si Si6 0.912259 0.280593 0.354767
Si Si7 0.359718 0.069172 0.716340
Si Si8 0.688990 0.976816 0.697583
O O1 0.088509 0.299851 0.516061
O O2 0.171741 0.546705 0.521743
O O3 0.805463 0.060572 0.672070
O O4 0.179311 0.328086 0.055896
O O5 0.500000 0.500000 0.500000
O O6 0.284684 0.306775 0.499655
O O7 0.543766 0.724211 0.608728
O O8 0.151471 0.232631 0.471862
O O9 0.500000 0.500000 0.000000
O O10 0.244139 0.083548 0.058388
O O11 0.597118 0.338781 0.569665
O O12 0.944195 0.642171 0.020050
O O13 0.500000 0.000000 0.500000
O O14 0.723378 0.126022 0.297657
O O15 0.470477 0.069303 0.933864
O O16 0.893290 0.204593 0.431195
O O17 0.000000 0.500000 0.500000
O O18 0.674178 0.021327 0.502052
#
# Coordination Sequence:
#
# PCOD9030705 Si02
#       8
#     2   2   2   2   2   2   2   2
#     4  11  25  44  74 107 144 188 239 292 357 427
#     4  11  24  45  73 104 143 185 241 294 357 423
#     4  10  22  42  72  99 136 185 233 286 348 421
#     4  11  24  44  71 104 141 188 239 285 353 429
#     4  11  24  42  71 102 138 184 237 291 360 416
#     4  12  27  44  70 107 145 186 234 291 359 429
#     4  11  24  45  71  99 139 185 236 294 353 415
#     4  11  26  45  69 105 144 186 234 297 359 421
#
# _framework density 24.362185
#
# number of rings (size 3 to 8) (size 9 to 14) (size 15 to 20)
#    0.000    1.000    1.250    5.250    3.500    5.500 
#    0.000    2.500    0.000    0.000    0.000    0.000 
#    0.000    0.000    0.000    0.000    0.000    0.000 
#
# Total GULP energy -89456.478811 kJ/mol
# GULP energy per Si atom -5591.029926 kJ/mol
# Density = 2.430674 g / cm^3
# Si number density = 24.362185 Si / 1000 Ang^3
#
#
#
# Elastic Constant Matrix: (Units=GPa)
#
#
# Indices 1 2 3 4 5 6 
#
# 1 147.9884 39.3292 44.7333 24.1091 -3.2091 -18.3903
# 2 39.3292 128.3554 45.7781 33.8239 1.4235 -12.6212
# 3 44.7333 45.7781 116.5921 18.2768 0.1528 -25.7888
# 4 24.1091 33.8239 18.2768 45.4678 0.1880 -6.7847
# 5 -3.2091 1.4235 0.1528 0.1880 46.3773 1.0564
# 6 -18.3903 -12.6212 -25.7888 -6.7847 1.0564 40.0877
#
#
#
# Elastic Compliance Matrix: (Units=1/GPa)
#
#
# Indices 1 2 3 4 5 6 
#
# 1 0.008273 -0.000971 -0.001999 -0.002603 0.000580 0.001748
# 2 -0.000971 0.010791 -0.002857 -0.006356 -0.000364 0.000048
# 3 -0.001999 -0.002857 0.011836 -0.000724 -0.000216 0.005681
# 4 -0.002603 -0.006356 -0.000724 0.028569 -0.000125 0.001178
# 5 0.000580 -0.000364 -0.000216 -0.000125 0.021628 -0.000579
# 6 0.001748 0.000048 0.005681 0.001178 -0.000579 0.029631
#
#
# Mechanical properties :
#
#
# Convention : Reuss Voigt Hill
#
# Bulk Modulus (GPa) = 51.95830 72.51297 62.23563
# Shear Modulus (GPa) = 38.82055 43.92626 41.37340
#
# Velocity S-wave (km/s) = 3.99617 4.25084 4.12547
# Velocity P-wave (km/s) = 6.53194 7.34316 6.94940
#
# Compressibility (1/GPa) = 0.01924620
#
# Stress axis : x y z
#
# Youngs Moduli (GPa) = 120.86952 92.67130 84.48798
#
# Poissons Ratio (x) = 0.08995 0.16892
# Poissons Ratio (y) = 0.11732 0.24138
# Poissons Ratio (z) = 0.24166 0.26476
#
# Static dielectric constant tensor:
#      x y z
#    x 3.390220 0.633840 -0.114890 
#    y 0.633840 2.210820 -0.082950 
#    z -0.114890 -0.082950 1.978690 
# 
# From -- ./inp_files/357617.got.cif
#   From: 2010.05.17/outbox.cif.g08.bks.cpg/sg2_179_cif.got.tgz:357617.got - 2010.06.03 11:33:40.
