data_PCOD9030629
_publ_section_title
;
Structure prediction by ZEFSAII (Michael W. Deem and Ramdas Pophale) SiO2 
 PCOD9030629
Probable space group: P -1
;
_chemical_formula_sum "Si O2"
_cell_formula_units_Z 15
_cell_length_a 15.017177
_cell_length_b 15.547989
_cell_length_c 9.923380
_cell_angle_alpha 148.179788
_cell_angle_beta 142.700827
_cell_angle_gamma 34.724368
_cell_volume 658.505276
_symmetry_space_group_name_H-M "P -1"
_symmetry_group_IT_number 2
_symmetry_cell_setting 'triclinic'
loop_
_space_group_symop_operation_xyz
x,y,z
-x,-y,-z
loop_
_atom_site_type_symbol
_atom_site_label
_atom_site_fract_x
_atom_site_fract_y
_atom_site_fract_z
Si Si1 0.938902 0.400684 0.901010
Si Si2 0.926110 0.396620 0.184920
Si Si3 0.459490 0.421902 0.980855
Si Si4 0.996354 0.994606 0.151913
Si Si5 0.489161 0.879394 0.019112
Si Si6 0.500000 0.000000 0.500000
Si Si7 0.319036 0.660062 0.636576
Si Si8 0.760209 0.933534 0.280551
O O1 0.764521 0.419607 0.672528
O O2 0.075518 0.191249 0.770874
O O3 0.942246 0.449424 0.122678
O O4 0.000000 0.500000 0.000000
O O5 0.734180 0.469593 0.080376
O O6 0.000000 0.500000 0.500000
O O7 0.018200 0.182436 0.047697
O O8 0.503217 0.204726 0.753392
O O9 0.500000 0.500000 0.000000
O O10 0.565036 0.468333 0.279952
O O11 0.165485 0.978804 0.402169
O O12 0.837573 0.174126 0.255319
O O13 0.000000 0.000000 0.000000
O O14 0.467405 0.988727 0.280607
O O15 0.672197 0.835259 0.130352
O O16 0.437146 0.725190 0.790436
O O17 0.370539 0.966371 0.862202
#
# Coordination Sequence:
#
# PCOD9030629 Si02
#       8
#     2   2   2   2   2   1   2   2
#     4  11  27  47  69 101 151 194 239 305 370 446
#     4  12  30  46  73 113 149 188 247 312 376 440
#     4  11  27  47  74 113 147 193 249 307 375 439
#     4  11  25  45  76 102 145 192 244 301 368 450
#     4  10  22  42  72 106 130 185 246 304 355 443
#     4  10  26  42  76 102 154 188 242 304 376 434
#     4  10  24  47  73  98 143 195 246 293 370 437
#     4  10  24  44  72 102 139 188 248 287 378 435
#
# _framework density 22.778862
#
# number of rings (size 3 to 8) (size 9 to 14) (size 15 to 20)
#    0.000    1.333    0.000    2.400   20.533    2.667 
#    2.400    0.000    0.000    0.000    0.000    0.000 
#    0.000    0.000    0.000    0.000    0.000    0.000 
#
# Total GULP energy -83504.298432 kJ/mol
# GULP energy per Si atom -5566.953229 kJ/mol
# Density = 2.272702 g / cm^3
# Si number density = 22.778862 Si / 1000 Ang^3
#
#
#
# Elastic Constant Matrix: (Units=GPa)
#
#
# Indices 1 2 3 4 5 6 
#
# 1 138.2907 34.5652 57.6858 -23.5500 -18.8688 22.2465
# 2 34.5652 57.7767 34.3094 -22.3698 -16.9561 9.5978
# 3 57.6858 34.3094 171.3647 -38.1468 -20.7871 8.5789
# 4 -23.5500 -22.3698 -38.1468 39.4722 9.0674 -0.7721
# 5 -18.8688 -16.9561 -20.7871 9.0674 36.4749 -12.5071
# 6 22.2465 9.5978 8.5789 -0.7721 -12.5071 45.6298
#
#
#
# Elastic Compliance Matrix: (Units=1/GPa)
#
#
# Indices 1 2 3 4 5 6 
#
# 1 0.009848 -0.003148 -0.001983 0.001918 0.000821 -0.003509
# 2 -0.003148 0.026043 -0.000934 0.010390 0.006768 -0.001737
# 3 -0.001983 -0.000934 0.008190 0.005783 0.001848 0.000228
# 4 0.001918 0.010390 0.005783 0.038288 -0.001789 -0.004050
# 5 0.000821 0.006768 0.001848 -0.001789 0.035022 0.007398
# 6 -0.003509 -0.001737 0.000228 -0.004050 0.007398 0.025908
#
#
# Mechanical properties :
#
#
# Convention : Reuss Voigt Hill
#
# Bulk Modulus (GPa) = 31.29575 68.95032 50.12304
# Shear Modulus (GPa) = 30.10641 40.37350 35.23995
#
# Velocity S-wave (km/s) = 3.63944 4.21457 3.93752
# Velocity P-wave (km/s) = 5.60620 7.34973 6.53636
#
# Compressibility (1/GPa) = 0.03195322
#
# Stress axis : x y z
#
# Youngs Moduli (GPa) = 101.54198 38.39772 122.10123
#
# Poissons Ratio (x) = 0.12086 0.24208
# Poissons Ratio (y) = 0.31962 0.11401
# Poissons Ratio (z) = 0.20132 0.03585
#
# Static dielectric constant tensor:
#      x y z
#    x 1.858430 -0.030970 -0.046020 
#    y -0.030970 1.881100 0.024830 
#    z -0.046020 0.024830 1.865760 
# 
# From -- ./inp_files/316137.got.cif
#   From: 2010.05.17/outbox.cif.g08.bks.cpg/sg2_159_cif.got.tgz:316137.got - 2010.06.03 11:33:40.
