data_PCOD9030065
_publ_section_title
;
Structure prediction by ZEFSAII (Michael W. Deem and Ramdas Pophale) SiO2 
 PCOD9030065
Probable space group: P -1
;
_chemical_formula_sum "Si O2"
_cell_formula_units_Z 16
_cell_length_a 9.964140
_cell_length_b 21.026063
_cell_length_c 9.882683
_cell_angle_alpha 27.366209
_cell_angle_beta 54.355088
_cell_angle_gamma 54.058787
_cell_volume 759.966905
_symmetry_space_group_name_H-M "P -1"
_symmetry_group_IT_number 2
_symmetry_cell_setting 'triclinic'
loop_
_space_group_symop_operation_xyz
x,y,z
-x,-y,-z
loop_
_atom_site_type_symbol
_atom_site_label
_atom_site_fract_x
_atom_site_fract_y
_atom_site_fract_z
Si Si1 0.834151 0.430604 0.214620
Si Si2 0.224155 0.775745 0.132314
Si Si3 0.204846 0.330908 0.786583
Si Si4 0.360293 0.637402 0.790607
Si Si5 0.379788 0.315123 0.002231
Si Si6 0.645274 0.972631 0.352234
Si Si7 0.512721 0.882196 0.101376
Si Si8 0.833955 0.352018 0.868375
O O1 0.841478 0.295386 0.563318
O O2 0.787286 0.403755 0.138476
O O3 0.675063 0.539154 0.163877
O O4 0.000000 0.500000 0.000000
O O5 0.140398 0.728769 0.135560
O O6 0.424624 0.716561 0.097376
O O7 0.211952 0.943002 0.842136
O O8 0.302683 0.197908 0.898009
O O9 0.235742 0.482499 0.430036
O O10 0.008913 0.338325 0.868538
O O11 0.271376 0.317509 0.925258
O O12 0.428522 0.754893 0.443825
O O13 0.500000 0.500000 0.000000
O O14 0.293906 0.700581 0.855012
O O15 0.324678 0.194925 0.356061
O O16 0.500000 0.000000 0.500000
O O17 0.576652 0.045798 0.115780
O O18 0.500000 0.000000 0.000000
#
# Coordination Sequence:
#
# PCOD9030065 Si02
#       8
#     2   2   2   2   2   2   2   2
#     4  12  25  41  65  99 137 169 219 280 334 377
#     4  11  22  43  68  98 122 176 229 268 312 405
#     4  11  22  44  65 101 134 170 219 273 330 398
#     4  12  25  42  66 102 135 171 224 277 329 394
#     4  11  22  41  75  92 126 179 227 266 319 394
#     4  10  22  42  69  95 128 169 232 263 317 397
#     4  12  26  44  68 100 137 171 222 282 333 389
#     4  11  25  39  70  98 136 172 213 274 338 387
#
# _framework density 21.053547999999999
#
# number of rings (size 3 to 8) (size 9 to 14) (size 15 to 20)
#    0.000    0.750    6.250    1.875    7.000    0.000 
#    0.000    4.375    0.000    0.000    0.000    0.000 
#    0.000    0.000    0.000    0.000    0.000    0.000 
#
# Total GULP energy -89415.823032 kJ/mol
# GULP energy per Si atom -5588.488939 kJ/mol
# Density = 2.100563 g / cm^3
# Si number density = 21.053548 Si / 1000 Ang^3
#
#
#
# Elastic Constant Matrix: (Units=GPa)
#
#
# Indices 1 2 3 4 5 6 
#
# 1 83.6033 0.2839 29.8242 9.8648 7.3793 12.8352
# 2 0.2839 54.6322 11.1570 1.4347 7.9328 19.5262
# 3 29.8242 11.1570 118.7785 13.6483 5.7563 -6.4230
# 4 9.8648 1.4347 13.6483 27.8489 8.2759 1.2268
# 5 7.3793 7.9328 5.7563 8.2759 29.3619 2.2272
# 6 12.8352 19.5262 -6.4230 1.2268 2.2272 24.7966
#
#
#
# Elastic Compliance Matrix: (Units=1/GPa)
#
#
# Indices 1 2 3 4 5 6 
#
# 1 0.016639 0.006872 -0.005239 -0.002040 -0.003300 -0.014984
# 2 0.006872 0.030845 -0.006107 0.002429 -0.007356 -0.028887
# 3 -0.005239 -0.006107 0.011303 -0.004168 0.001125 0.010554
# 4 -0.002040 0.002429 -0.004168 0.041925 -0.010913 -0.003030
# 5 -0.003300 -0.007356 0.001125 -0.010913 0.039366 0.004796
# 6 -0.014984 -0.028887 0.010554 -0.003030 0.004796 0.073284
#
#
# Mechanical properties :
#
#
# Convention : Reuss Voigt Hill
#
# Bulk Modulus (GPa) = 20.06538 37.72715 28.89626
# Shear Modulus (GPa) = 20.92706 30.78474 25.85590
#
# Velocity S-wave (km/s) = 3.15618 3.82804 3.50823
# Velocity P-wave (km/s) = 4.77842 6.12348 5.49228
#
# Compressibility (1/GPa) = 0.04983709
#
# Stress axis : x y z
#
# Youngs Moduli (GPa) = 60.09879 32.42052 88.46873
#
# Poissons Ratio (x) = -0.22278 0.46352
# Poissons Ratio (y) = -0.41297 0.54030
# Poissons Ratio (z) = 0.31488 0.19800
#
# Static dielectric constant tensor:
#      x y z
#    x 1.743710 0.000780 -0.009800 
#    y 0.000780 1.787650 -0.016290 
#    z -0.009800 -0.016290 1.774530 
# 
# From -- ./inp_files/222837.got.cif
#   From: 2010.05.17/outbox.cif.g08.bks.cpg/sg2_112_cif.got.tgz:222837.got - 2010.06.03 11:33:40.
