data_PCOD9030191
_publ_section_title
;
Structure prediction by ZEFSAII (Michael W. Deem and Ramdas Pophale) SiO2 
 PCOD9030191
Probable space group: P -1
;
_chemical_formula_sum "Si O2"
_cell_formula_units_Z 14
_cell_length_a 15.655149
_cell_length_b 13.888129
_cell_length_c 9.167160
_cell_angle_alpha 138.025085
_cell_angle_beta 121.459137
_cell_angle_gamma 27.454229
_cell_volume 549.766490
_symmetry_space_group_name_H-M "P -1"
_symmetry_group_IT_number 2
_symmetry_cell_setting 'triclinic'
loop_
_space_group_symop_operation_xyz
x,y,z
-x,-y,-z
loop_
_atom_site_type_symbol
_atom_site_label
_atom_site_fract_x
_atom_site_fract_y
_atom_site_fract_z
Si Si1 0.309986 0.621639 0.179343
Si Si2 0.887015 0.657541 0.732676
Si Si3 0.045733 0.701738 0.105867
Si Si4 0.500000 0.500000 0.500000
Si Si5 0.341804 0.496442 0.612119
Si Si6 0.044169 0.188056 0.507638
Si Si7 0.483548 0.009893 0.671302
Si Si8 0.500000 0.500000 0.000000
O O1 0.109421 0.774681 0.176275
O O2 0.374108 0.569985 0.340212
O O3 0.495859 0.349456 0.933796
O O4 0.269440 0.826428 0.283545
O O5 0.007150 0.394389 0.650017
O O6 0.000000 0.500000 0.500000
O O7 0.656506 0.891924 0.768054
O O8 0.891394 0.808853 0.983743
O O9 0.978236 0.793649 0.316525
O O10 0.260108 0.347703 0.895277
O O11 0.446121 0.440459 0.503848
O O12 0.126325 0.693716 0.593127
O O13 0.333363 0.628573 0.875238
O O14 0.477025 0.195623 0.457662
O O15 0.500000 0.000000 0.500000
#
# Coordination Sequence:
#
# PCOD9030191 Si02
#       8
#     2   2   2   1   2   2   2   1
#     4  11  25  46  71 103 144 179 242 288 352 426
#     4  11  26  46  73 105 140 186 241 289 360 420
#     4  12  25  46  73 106 139 190 232 293 366 415
#     4  10  22  42  70 100 142 178 228 290 348 420
#     4  10  23  45  67 106 136 183 238 287 356 416
#     4  11  26  48  68 101 147 182 231 303 345 431
#     4  11  24  46  75 101 149 184 237 302 347 434
#     4  10  24  42  70  98 134 188 232 278 354 420
#
# _framework density 25.465357000000001
#
# number of rings (size 3 to 8) (size 9 to 14) (size 15 to 20)
#    0.000    1.143    2.857    1.714    6.000    5.143 
#    5.143    0.000    0.000    0.000    0.000    0.000 
#    0.000    0.000    0.000    0.000    0.000    0.000 
#
# Total GULP energy -78039.357150 kJ/mol
# GULP energy per Si atom -5574.239796 kJ/mol
# Density = 2.540740 g / cm^3
# Si number density = 25.465357 Si / 1000 Ang^3
#
#
#
# Elastic Constant Matrix: (Units=GPa)
#
#
# Indices 1 2 3 4 5 6 
#
# 1 152.4541 43.9281 47.4836 -19.2715 5.8382 24.3924
# 2 43.9281 113.2576 58.1345 -19.9669 -0.5005 10.2580
# 3 47.4836 58.1345 101.6630 -30.2617 -11.1551 4.5931
# 4 -19.2715 -19.9669 -30.2617 51.8016 -6.3897 0.1611
# 5 5.8382 -0.5005 -11.1551 -6.3897 49.3278 -13.1718
# 6 24.3924 10.2580 4.5931 0.1611 -13.1718 66.0490
#
#
#
# Elastic Compliance Matrix: (Units=1/GPa)
#
#
# Indices 1 2 3 4 5 6 
#
# 1 0.008642 -0.001292 -0.003289 0.000486 -0.002593 -0.003280
# 2 -0.001292 0.013029 -0.006857 0.000344 -0.001591 -0.001388
# 3 -0.003289 -0.006857 0.018051 0.007405 0.005946 0.002192
# 4 0.000486 0.000344 0.007405 0.024541 0.004842 0.000158
# 5 -0.002593 -0.001591 0.005946 0.004842 0.024023 0.005570
# 6 -0.003280 -0.001388 0.002192 0.000158 0.005570 0.017525
#
#
# Mechanical properties :
#
#
# Convention : Reuss Voigt Hill
#
# Bulk Modulus (GPa) = 59.35915 74.05190 66.70552
# Shear Modulus (GPa) = 37.22955 47.95757 42.59356
#
# Velocity S-wave (km/s) = 3.82772 4.34435 4.09419
# Velocity P-wave (km/s) = 6.54947 7.36933 6.97147
#
# Compressibility (1/GPa) = 0.01684660
#
# Stress axis : x y z
#
# Youngs Moduli (GPa) = 115.71928 76.74940 55.39769
#
# Poissons Ratio (x) = 0.09918 0.18220
# Poissons Ratio (y) = 0.14954 0.37984
# Poissons Ratio (z) = 0.38059 0.52625
#
# Static dielectric constant tensor:
#      x y z
#    x 2.180800 -0.138090 0.072050 
#    y -0.138090 2.240900 -0.079530 
#    z 0.072050 -0.079530 2.203520 
# 
# From -- ./inp_files/208700.got.cif
#   From: 2010.05.17/outbox.cif.g08.bks.cpg/sg2_105_cif.got.tgz:208700.got - 2010.06.03 11:33:40.
