data_PCOD9030443
_publ_section_title
;
Structure prediction by ZEFSAII (Michael W. Deem and Ramdas Pophale) SiO2 
 PCOD9030443
Probable space group: P -1
;
_chemical_formula_sum "Si O2"
_cell_formula_units_Z 10
_cell_length_a 12.609387
_cell_length_b 12.437845
_cell_length_c 5.235316
_cell_angle_alpha 70.113243
_cell_angle_beta 96.385642
_cell_angle_gamma 147.780150
_cell_volume 385.295379
_symmetry_space_group_name_H-M "P -1"
_symmetry_group_IT_number 2
_symmetry_cell_setting 'triclinic'
loop_
_space_group_symop_operation_xyz
x,y,z
-x,-y,-z
loop_
_atom_site_type_symbol
_atom_site_label
_atom_site_fract_x
_atom_site_fract_y
_atom_site_fract_z
Si Si1 0.243453 0.207433 0.816007
Si Si2 0.641703 0.465386 0.702298
Si Si3 0.908049 0.144677 0.226516
Si Si4 0.501483 0.900912 0.296698
Si Si5 0.913909 0.481759 0.244730
O O1 0.436357 0.321549 0.924621
O O2 0.331829 0.413273 0.604349
O O3 0.203396 0.078035 0.684210
O O4 0.000000 0.000000 0.000000
O O5 0.588843 0.291463 0.729811
O O6 0.874970 0.677551 0.712838
O O7 0.723229 0.058346 0.341334
O O8 0.999951 0.308342 0.887922
O O9 0.338304 0.762169 0.599237
O O10 0.500000 0.000000 0.000000
O O11 0.000000 0.500000 0.500000
O O12 0.000000 0.500000 0.000000
#
# Coordination Sequence:
#
# PCOD9030443 Si02
#       5
#     2   2   2   2   2
#     4  10  22  42  70  99 148 189 243 312 378 441
#     4  10  23  43  68 107 142 191 251 306 371 457
#     4  11  24  43  72 105 145 196 252 306 380 448
#     4  11  24  46  72 104 152 197 248 308 377 446
#     4  12  26  47  72 108 153 199 254 313 374 455
#
# _framework density 25.954113
#
# number of rings (size 3 to 8) (size 9 to 14) (size 15 to 20)
#    0.000    1.200    2.000    3.000    0.000    3.200 
#    0.000    0.000    0.000    0.000    0.000    0.000 
#    0.000    0.000    0.000    0.000    0.000    0.000 
#
# Total GULP energy -55865.018654 kJ/mol
# GULP energy per Si atom -5586.501865 kJ/mol
# Density = 2.589504 g / cm^3
# Si number density = 25.954113 Si / 1000 Ang^3
#
#
#
# Elastic Constant Matrix: (Units=GPa)
#
#
# Indices 1 2 3 4 5 6 
#
# 1 210.6578 68.9173 68.6069 -12.9205 -17.4907 32.7271
# 2 68.9173 138.7856 32.1312 -25.6494 8.4945 21.2150
# 3 68.6069 32.1312 110.5507 -19.4939 -4.3104 -7.1893
# 4 -12.9205 -25.6494 -19.4939 54.9953 3.2606 9.2190
# 5 -17.4907 8.4945 -4.3104 3.2606 54.8773 -28.5410
# 6 32.7271 21.2150 -7.1893 9.2190 -28.5410 78.5268
#
#
#
# Elastic Compliance Matrix: (Units=1/GPa)
#
#
# Indices 1 2 3 4 5 6 
#
# 1 0.007287 -0.002562 -0.003973 -0.000608 0.001321 -0.002157
# 2 -0.002562 0.010634 -0.001101 0.004999 -0.005108 -0.004350
# 3 -0.003973 -0.001101 0.012521 0.002337 0.001502 0.003371
# 4 -0.000608 0.004999 0.002337 0.022373 -0.004857 -0.005275
# 5 0.001321 -0.005108 0.001502 -0.004857 0.025451 0.010788
# 6 -0.002157 -0.004350 0.003371 -0.005275 0.010788 0.019657
#
#
# Mechanical properties :
#
#
# Convention : Reuss Voigt Hill
#
# Bulk Modulus (GPa) = 65.92461 88.81165 77.36813
# Shear Modulus (GPa) = 42.28205 57.03579 49.65892
#
# Velocity S-wave (km/s) = 4.04060 4.69290 4.37891
# Velocity P-wave (km/s) = 6.87199 7.97856 7.44586
#
# Compressibility (1/GPa) = 0.01516884
#
# Stress axis : x y z
#
# Youngs Moduli (GPa) = 137.23481 94.03736 79.86267
#
# Poissons Ratio (x) = 0.24093 0.31733
# Poissons Ratio (y) = 0.35161 0.08795
# Poissons Ratio (z) = 0.54529 0.10355
#
# Static dielectric constant tensor:
#      x y z
#    x 2.128070 0.037250 -0.058130 
#    y 0.037250 2.121190 -0.022740 
#    z -0.058130 -0.022740 2.080220 
# 
# From -- ./inp_files/65681.got.cif
#   From: 2010.05.17/outbox.cif.g08.bks.cpg/sg2_33_cif.got.tgz:65681.got - 2010.06.03 11:33:40.
