data_PCOD9030204
_publ_section_title
;
Structure prediction by ZEFSAII (Michael W. Deem and Ramdas Pophale) SiO2 
 PCOD9030204
Probable space group: P -1
;
_chemical_formula_sum "Si O2"
_cell_formula_units_Z 16
_cell_length_a 8.512487
_cell_length_b 20.729879
_cell_length_c 8.760261
_cell_angle_alpha 55.643303
_cell_angle_beta 146.466768
_cell_angle_gamma 120.767557
_cell_volume 702.108229
_symmetry_space_group_name_H-M "P -1"
_symmetry_group_IT_number 2
_symmetry_cell_setting 'triclinic'
loop_
_space_group_symop_operation_xyz
x,y,z
-x,-y,-z
loop_
_atom_site_type_symbol
_atom_site_label
_atom_site_fract_x
_atom_site_fract_y
_atom_site_fract_z
Si Si1 0.555638 0.791616 0.260998
Si Si2 0.835321 0.179485 0.379985
Si Si3 0.889690 0.463155 0.730937
Si Si4 0.118524 0.688828 0.258664
Si Si5 0.602046 0.427136 0.864375
Si Si6 0.495764 0.279412 0.183361
Si Si7 0.702994 0.950619 0.343266
Si Si8 0.186091 0.995381 0.311245
O O1 0.339814 0.731470 0.259531
O O2 0.643100 0.863231 0.350293
O O3 0.863186 0.768754 0.477187
O O4 0.372096 0.819315 0.934328
O O5 0.650508 0.207280 0.334625
O O6 0.911105 0.090962 0.586696
O O7 0.962852 0.397558 0.758679
O O8 0.739817 0.421334 0.815574
O O9 0.665478 0.522188 0.418634
O O10 0.162913 0.519237 0.924050
O O11 0.301128 0.686203 0.563133
O O12 0.829832 0.730649 0.005473
O O13 0.515283 0.343161 0.978405
O O14 0.742103 0.945286 0.567230
O O15 0.000000 0.000000 0.500000
O O16 0.500000 0.000000 0.000000
O O17 0.500000 0.000000 0.500000
O O18 0.000000 0.000000 0.000000
#
# Coordination Sequence:
#
# PCOD9030204 Si02
#       8
#     2   2   2   2   2   2   2   2
#     4  12  25  48  75  99 137 191 241 293 341 427
#     4  12  26  49  72 101 140 192 238 283 357 429
#     4  10  22  42  70 101 133 181 240 273 336 414
#     4  12  27  44  68 107 143 184 229 292 351 409
#     4  10  22  42  71  99 134 184 228 285 335 415
#     4  12  27  45  67 105 148 182 226 289 361 410
#     4  12  23  47  74 104 134 180 246 292 350 426
#     4  12  26  45  73 106 141 181 226 304 367 423
#
# _framework density 22.788509999999999
#
# number of rings (size 3 to 8) (size 9 to 14) (size 15 to 20)
#    0.000    0.500    2.500    5.250    1.750    6.000 
#    0.000    0.000    0.000    0.000    0.000    0.000 
#    0.000    0.000    0.000    0.000    0.000    0.000 
#
# Total GULP energy -89304.166245 kJ/mol
# GULP energy per Si atom -5581.510390 kJ/mol
# Density = 2.273664 g / cm^3
# Si number density = 22.788510 Si / 1000 Ang^3
#
#
#
# Elastic Constant Matrix: (Units=GPa)
#
#
# Indices 1 2 3 4 5 6 
#
# 1 76.3878 18.3893 37.6223 10.7043 12.9681 -6.6429
# 2 18.3893 70.1880 19.9515 8.8368 -0.4641 -7.6112
# 3 37.6223 19.9515 176.3022 29.7274 5.3427 -10.1280
# 4 10.7043 8.8368 29.7274 39.2837 2.7497 7.4034
# 5 12.9681 -0.4641 5.3427 2.7497 56.8680 12.7965
# 6 -6.6429 -7.6112 -10.1280 7.4034 12.7965 36.9300
#
#
#
# Elastic Compliance Matrix: (Units=1/GPa)
#
#
# Indices 1 2 3 4 5 6 
#
# 1 0.016352 -0.002937 -0.002427 -0.002342 -0.004222 0.003603
# 2 -0.002937 0.015874 -0.000494 -0.003004 0.000291 0.003109
# 3 -0.002427 -0.000494 0.007294 -0.005218 -0.000486 0.002676
# 4 -0.002342 -0.003004 -0.005218 0.032401 0.001573 -0.009512
# 5 -0.004222 0.000291 -0.000486 0.001573 0.020366 -0.008205
# 6 0.003603 0.003109 0.002676 -0.009512 -0.008205 0.033851
#
#
# Mechanical properties :
#
#
# Convention : Reuss Voigt Hill
#
# Bulk Modulus (GPa) = 35.96415 52.75604 44.36010
# Shear Modulus (GPa) = 33.98562 43.07732 38.53147
#
# Velocity S-wave (km/s) = 3.86599 4.35248 4.11643
# Velocity P-wave (km/s) = 5.97861 6.96128 6.48857
#
# Compressibility (1/GPa) = 0.02780547
#
# Stress axis : x y z
#
# Youngs Moduli (GPa) = 61.15533 62.99453 137.09559
#
# Poissons Ratio (x) = 0.18499 0.33278
# Poissons Ratio (y) = 0.17959 0.06766
# Poissons Ratio (z) = 0.14844 0.03109
#
# Static dielectric constant tensor:
#      x y z
#    x 1.879330 0.036220 0.029160 
#    y 0.036220 1.800050 -0.068900 
#    z 0.029160 -0.068900 1.770800 
# 
# From -- ./inp_files/223551.got.cif
#   From: 2010.05.17/outbox.cif.g08.bks.cpg/sg2_112_cif.got.tgz:223551.got - 2010.06.03 11:33:40.
