data_PCOD9030803
_publ_section_title
;
Structure prediction by ZEFSAII (Michael W. Deem and Ramdas Pophale) SiO2 
 PCOD9030803
Probable space group: P -1
;
_chemical_formula_sum "Si O2"
_cell_formula_units_Z 15
_cell_length_a 5.432953
_cell_length_b 20.439156
_cell_length_c 5.110732
_cell_angle_alpha 83.981608
_cell_angle_beta 86.396420
_cell_angle_gamma 79.562707
_cell_volume 554.496130
_symmetry_space_group_name_H-M "P -1"
_symmetry_group_IT_number 2
_symmetry_cell_setting 'triclinic'
loop_
_space_group_symop_operation_xyz
x,y,z
-x,-y,-z
loop_
_atom_site_type_symbol
_atom_site_label
_atom_site_fract_x
_atom_site_fract_y
_atom_site_fract_z
Si Si1 0.765171 0.299812 0.822658
Si Si2 0.023496 0.451836 0.272152
Si Si3 0.057305 0.239634 0.349601
Si Si4 0.267135 0.059322 0.985062
Si Si5 0.000000 0.000000 0.500000
Si Si6 0.483778 0.188910 0.997086
Si Si7 0.133297 0.885740 0.353999
Si Si8 0.446872 0.578186 0.896588
O O1 0.920157 0.271096 0.083943
O O2 0.540643 0.256673 0.827162
O O3 0.638809 0.374738 0.872298
O O4 0.964403 0.286988 0.580967
O O5 0.788400 0.414992 0.282978
O O6 0.000000 0.500000 0.500000
O O7 0.297347 0.406739 0.251869
O O8 0.000000 0.500000 0.000000
O O9 0.943920 0.174634 0.463806
O O10 0.350543 0.215771 0.266972
O O11 0.114916 0.047801 0.254637
O O12 0.308831 0.136591 0.933273
O O13 0.096169 0.053396 0.739014
O O14 0.500000 0.000000 0.000000
O O15 0.728372 0.065234 0.515632
O O16 0.743516 0.142159 0.914111
O O17 0.500000 0.500000 0.000000
#
# Coordination Sequence:
#
# PCOD9030803 Si02
#       8
#     2   2   2   2   1   2   2   2
#     4  11  28  47  75 111 147 197 261 311 387 466
#     4  10  22  42  74 110 156 203 247 312 390 467
#     4  11  26  49  72 103 147 198 253 313 379 459
#     4  12  26  44  68 103 143 190 244 314 387 456
#     4  12  24  42  68 104 138 178 248 302 382 452
#     4  11  24  47  71  97 145 196 246 309 381 451
#     4  11  26  44  69 103 144 188 254 310 382 463
#     4  10  24  49  78 120 162 206 263 331 401 482
#
# _framework density 27.051590999999998
#
# number of rings (size 3 to 8) (size 9 to 14) (size 15 to 20)
#    0.000    1.067    2.667    2.400    1.867   10.133 
#    0.000    0.000    0.000    0.000    0.000    0.000 
#    0.000    0.000    0.000    0.000    0.000    0.000 
#
# Total GULP energy -83708.787240 kJ/mol
# GULP energy per Si atom -5580.585816 kJ/mol
# Density = 2.699002 g / cm^3
# Si number density = 27.051591 Si / 1000 Ang^3
#
#
#
# Elastic Constant Matrix: (Units=GPa)
#
#
# Indices 1 2 3 4 5 6 
#
# 1 155.0669 35.0711 61.8714 17.8753 -24.5920 -7.6099
# 2 35.0711 190.6465 60.6240 39.8105 -10.5141 -24.1026
# 3 61.8714 60.6240 209.3837 25.5212 -24.2425 -23.9190
# 4 17.8753 39.8105 25.5212 62.2592 -12.3355 -9.9159
# 5 -24.5920 -10.5141 -24.2425 -12.3355 43.6790 18.3812
# 6 -7.6099 -24.1026 -23.9190 -9.9159 18.3812 27.3470
#
#
#
# Elastic Compliance Matrix: (Units=1/GPa)
#
#
# Indices 1 2 3 4 5 6 
#
# 1 0.008042 -0.000948 -0.001907 -0.000580 0.004570 -0.003548
# 2 -0.000948 0.007022 -0.001006 -0.003452 -0.002752 0.005643
# 3 -0.001907 -0.001006 0.006159 -0.000699 0.000476 0.003396
# 4 -0.000580 -0.003452 -0.000699 0.019575 0.003627 0.000845
# 5 0.004570 -0.002752 0.000476 0.003627 0.036046 -0.023650
# 6 -0.003548 0.005643 0.003396 0.000845 -0.023650 0.059727
#
#
# Mechanical properties :
#
#
# Convention : Reuss Voigt Hill
#
# Bulk Modulus (GPa) = 74.07531 96.69223 85.38377
# Shear Modulus (GPa) = 33.60335 53.15908 43.38122
#
# Velocity S-wave (km/s) = 3.52830 4.43775 4.00890
# Velocity P-wave (km/s) = 6.63634 7.87905 7.28424
#
# Compressibility (1/GPa) = 0.01349977
#
# Stress axis : x y z
#
# Youngs Moduli (GPa) = 124.34975 142.40534 162.36329
#
# Poissons Ratio (x) = 0.13504 0.30966
# Poissons Ratio (y) = 0.11791 0.16337
# Poissons Ratio (z) = 0.23716 0.14328
#
# Static dielectric constant tensor:
#      x y z
#    x 2.008940 0.075960 0.079760 
#    y 0.075960 2.102480 0.067520 
#    z 0.079760 0.067520 2.169750 
# 
# From -- ./inp_files/10975.got.cif
#   From: 2010.05.17/outbox.cif.g08.bks.cpg/sg2_6_cif.got.tgz:10975.got - 2010.06.03 11:33:40.
