data_PCOD9030909
_publ_section_title
;
Structure prediction by ZEFSAII (Michael W. Deem and Ramdas Pophale) SiO2 
 PCOD9030909
Probable space group: P -1
;
_chemical_formula_sum "Si O2"
_cell_formula_units_Z 12
_cell_length_a 8.638477
_cell_length_b 11.283031
_cell_length_c 11.706448
_cell_angle_alpha 147.702619
_cell_angle_beta 69.374026
_cell_angle_gamma 96.375739
_cell_volume 529.309895
_symmetry_space_group_name_H-M "P -1"
_symmetry_group_IT_number 2
_symmetry_cell_setting 'triclinic'
loop_
_space_group_symop_operation_xyz
x,y,z
-x,-y,-z
loop_
_atom_site_type_symbol
_atom_site_label
_atom_site_fract_x
_atom_site_fract_y
_atom_site_fract_z
Si Si1 0.390906 0.906877 0.361349
Si Si2 0.163179 0.431485 0.814729
Si Si3 0.966823 0.197632 0.051074
Si Si4 0.865777 0.777020 0.763785
Si Si5 0.343272 0.495418 0.457854
Si Si6 0.464369 0.502039 0.175353
O O1 0.346731 0.713811 0.293337
O O2 0.500000 0.000000 0.500000
O O3 0.238160 0.144143 0.546913
O O4 0.505547 0.747196 0.098273
O O5 0.082113 0.596967 0.861545
O O6 0.336672 0.488878 0.855579
O O7 0.000000 0.500000 0.000000
O O8 0.820778 0.300438 0.272714
O O9 0.144688 0.159936 0.046637
O O10 0.935764 0.959237 0.827973
O O11 0.692418 0.751529 0.733452
O O12 0.000000 0.500000 0.500000
O O13 0.500000 0.500000 0.500000
O O14 0.379949 0.534974 0.349076
#
# Coordination Sequence:
#
# PCOD9030909 Si02
#       6
#     2   2   2   2   2   2
#     4   9  22  43  66  94 133 174 223 281 335 401
#     4  11  24  41  66  98 133 179 231 282 332 409
#     4  10  22  43  62 100 139 174 227 275 349 406
#     4   9  22  40  64  93 137 180 215 276 343 409
#     4  11  22  41  69 104 132 176 225 280 341 406
#     4  10  22  43  68 101 133 176 230 283 345 398
#
# _framework density 22.671029000000001
#
# number of rings (size 3 to 8) (size 9 to 14) (size 15 to 20)
#    0.000    2.000    1.667    0.000    0.000   14.667 
#    0.000    0.000    0.000    0.000    0.000    0.000 
#    0.000    0.000    0.000    0.000    0.000    0.000 
#
# Total GULP energy -66865.823560 kJ/mol
# GULP energy per Si atom -5572.151963 kJ/mol
# Density = 2.261943 g / cm^3
# Si number density = 22.671029 Si / 1000 Ang^3
#
#
#
# Elastic Constant Matrix: (Units=GPa)
#
#
# Indices 1 2 3 4 5 6 
#
# 1 62.6552 17.7938 20.2631 8.4119 25.7922 2.5760
# 2 17.7938 162.3729 82.5714 -0.2903 -6.5616 -19.7979
# 3 20.2631 82.5714 131.0126 12.7201 8.9575 4.3863
# 4 8.4119 -0.2903 12.7201 47.9834 0.7319 -8.4717
# 5 25.7922 -6.5616 8.9575 0.7319 30.4135 -3.7437
# 6 2.5760 -19.7979 4.3863 -8.4717 -3.7437 34.3974
#
#
#
# Elastic Compliance Matrix: (Units=1/GPa)
#
#
# Indices 1 2 3 4 5 6 
#
# 1 0.031457 -0.008111 0.003597 -0.008323 -0.030873 -0.012893
# 2 -0.008111 0.014138 -0.009663 0.006155 0.014232 0.013042
# 3 0.003597 -0.009663 0.014856 -0.006308 -0.010644 -0.010438
# 4 -0.008323 0.006155 -0.006308 0.026064 0.011168 0.012605
# 5 -0.030873 0.014232 -0.010644 0.011168 0.067704 0.021980
# 6 -0.012893 0.013042 -0.010438 0.012605 0.021980 0.044372
#
#
# Mechanical properties :
#
#
# Convention : Reuss Voigt Hill
#
# Bulk Modulus (GPa) = 31.15528 66.36635 48.76082
# Shear Modulus (GPa) = 21.03985 38.25301 29.64643
#
# Velocity S-wave (km/s) = 3.04970 4.11214 3.62011
# Velocity P-wave (km/s) = 5.11596 7.20302 6.24726
#
# Compressibility (1/GPa) = 0.03209728
#
# Stress axis : x y z
#
# Youngs Moduli (GPa) = 31.78943 70.73236 67.31118
#
# Poissons Ratio (x) = 0.57371 -0.24214
# Poissons Ratio (y) = 0.25785 0.65044
# Poissons Ratio (z) = -0.11436 0.68350
#
# Static dielectric constant tensor:
#      x y z
#    x -16.396110 4.068710 6.189490 
#    y 4.068710 0.975810 -1.310790 
#    z 6.189490 -1.310790 -0.162820 
# 
# From -- ./inp_files/57452.got.cif
#   From: 2010.05.17/outbox.cif.g08.bks.cpg/sg2_29_cif.got.tgz:57452.got - 2010.06.03 11:33:40.
