data_PCOD9030229
_publ_section_title
;
Structure prediction by ZEFSAII (Michael W. Deem and Ramdas Pophale) SiO2 
 PCOD9030229
Probable space group: P -1
;
_chemical_formula_sum "Si O2"
_cell_formula_units_Z 12
_cell_length_a 13.212107
_cell_length_b 12.706290
_cell_length_c 20.064581
_cell_angle_alpha 159.798245
_cell_angle_beta 155.875530
_cell_angle_gamma 33.984146
_cell_volume 466.426983
_symmetry_space_group_name_H-M "P -1"
_symmetry_group_IT_number 2
_symmetry_cell_setting 'triclinic'
loop_
_space_group_symop_operation_xyz
x,y,z
-x,-y,-z
loop_
_atom_site_type_symbol
_atom_site_label
_atom_site_fract_x
_atom_site_fract_y
_atom_site_fract_z
Si Si1 0.578824 0.279934 0.639505
Si Si2 0.877745 0.411350 0.470807
Si Si3 0.117430 0.938186 0.606373
Si Si4 0.572622 0.865290 0.279039
Si Si5 0.350980 0.946861 0.061030
Si Si6 0.090799 0.222799 0.964124
O O1 0.335154 0.424408 0.591649
O O2 0.797447 0.250858 0.806185
O O3 0.488495 0.954944 0.353759
O O4 0.739358 0.514170 0.821501
O O5 0.144368 0.635126 0.755159
O O6 0.834937 0.349162 0.487905
O O7 0.879388 0.094050 0.243978
O O8 0.406031 0.100236 0.863767
O O9 0.000000 0.000000 0.500000
O O10 0.874170 0.989917 0.532879
O O11 0.500000 0.500000 0.000000
O O12 0.446920 0.028935 0.241983
O O13 0.214712 0.202995 0.098528
#
# Coordination Sequence:
#
# PCOD9030229 Si02
#       6
#     2   2   2   2   2   2
#     4  11  25  42  73  99 137 187 226 282 348 400
#     4  12  23  46  72 100 144 179 227 286 336 413
#     4  10  22  42  70 102 137 183 224 285 344 398
#     4  11  22  46  71 101 137 178 231 287 340 404
#     4  11  24  41  72 102 135 187 226 278 349 401
#     4  11  24  45  67 104 140 181 230 278 343 410
#
# _framework density 25.727499999999999
#
# number of rings (size 3 to 8) (size 9 to 14) (size 15 to 20)
#    0.000    1.000    5.000    1.000    0.000    2.000 
#    0.000    3.333    0.000    0.000    0.000    0.000 
#    0.000    0.000    0.000    0.000    0.000    0.000 
#
# Total GULP energy -67011.698606 kJ/mol
# GULP energy per Si atom -5584.308217 kJ/mol
# Density = 2.566894 g / cm^3
# Si number density = 25.727500 Si / 1000 Ang^3
#
#
#
# Elastic Constant Matrix: (Units=GPa)
#
#
# Indices 1 2 3 4 5 6 
#
# 1 86.4288 48.8229 43.6245 -14.1573 25.8562 19.1653
# 2 48.8229 176.3831 57.7336 -54.3112 -1.0900 16.1219
# 3 43.6245 57.7336 131.9746 -27.0212 26.0959 -12.2266
# 4 -14.1573 -54.3112 -27.0212 54.7053 11.1321 -6.0392
# 5 25.8562 -1.0900 26.0959 11.1321 26.5239 -13.0213
# 6 19.1653 16.1219 -12.2266 -6.0392 -13.0213 57.0092
#
#
#
# Elastic Compliance Matrix: (Units=1/GPa)
#
#
# Indices 1 2 3 4 5 6 
#
# 1 0.036664 -0.004619 0.001487 0.014237 -0.053930 -0.021510
# 2 -0.004619 0.009688 -0.002290 0.006382 0.004486 0.000023
# 3 0.001487 -0.002290 0.013453 0.008485 -0.018483 -0.000290
# 4 0.014237 0.006382 0.008485 0.040291 -0.044063 -0.010567
# 5 -0.053930 0.004486 -0.018483 -0.044063 0.147743 0.041975
# 6 -0.021510 0.000023 -0.000290 -0.010567 0.041975 0.033172
#
#
# Mechanical properties :
#
#
# Convention : Reuss Voigt Hill
#
# Bulk Modulus (GPa) = 20.42406 77.23871 48.83138
# Shear Modulus (GPa) = 16.22455 43.95470 30.08963
#
# Velocity S-wave (km/s) = 2.51396 4.13785 3.42358
# Velocity P-wave (km/s) = 4.04753 7.27435 5.88637
#
# Compressibility (1/GPa) = 0.04896187
#
# Stress axis : x y z
#
# Youngs Moduli (GPa) = 27.27444 103.21952 74.33513
#
# Poissons Ratio (x) = 0.47674 -0.11053
# Poissons Ratio (y) = 0.12597 0.17021
# Poissons Ratio (z) = -0.04056 0.23635
#
# Static dielectric constant tensor:
#      x y z
#    x 2.112840 -0.027830 -0.058900 
#    y -0.027830 2.230250 0.079240 
#    z -0.058900 0.079240 2.016350 
# 
# From -- ./inp_files/612061.got.cif
#   From: 2010.05.17/outbox.cif.g08.bks.cpg/sg2_307_cif.got.tgz:612061.got - 2010.06.03 11:33:40.
