data_PCOD9030790
_publ_section_title
;
Structure prediction by ZEFSAII (Michael W. Deem and Ramdas Pophale) SiO2 
 PCOD9030790
Probable space group: P -1
;
_chemical_formula_sum "Si O2"
_cell_formula_units_Z 11
_cell_length_a 9.396242
_cell_length_b 8.827676
_cell_length_c 7.997945
_cell_angle_alpha 75.011215
_cell_angle_beta 64.505114
_cell_angle_gamma 118.788181
_cell_volume 424.116931
_symmetry_space_group_name_H-M "P -1"
_symmetry_group_IT_number 2
_symmetry_cell_setting 'triclinic'
loop_
_space_group_symop_operation_xyz
x,y,z
-x,-y,-z
loop_
_atom_site_type_symbol
_atom_site_label
_atom_site_fract_x
_atom_site_fract_y
_atom_site_fract_z
Si Si1 0.000000 0.000000 0.500000
Si Si2 0.462885 0.349586 0.306595
Si Si3 0.592201 0.093214 0.191171
Si Si4 0.843091 0.216606 0.351247
Si Si5 0.043447 0.626780 0.274806
Si Si6 0.795807 0.753302 0.216075
O O1 0.250196 0.242088 0.337100
O O2 0.926038 0.113826 0.418872
O O3 0.551514 0.246804 0.218917
O O4 0.661251 0.604307 0.164848
O O5 0.368904 0.275770 0.564826
O O6 0.754926 0.134773 0.234542
O O7 0.360725 0.863467 0.411316
O O8 0.712584 0.151316 0.939019
O O9 0.008327 0.469054 0.199914
O O10 0.000000 0.500000 0.500000
O O11 0.890193 0.668568 0.297255
O O12 0.000000 0.000000 0.000000
#
# Coordination Sequence:
#
# PCOD9030790 Si02
#       6
#     1   2   2   2   2   2
#     4  10  22  42  74 106 148 178 244 310 354 432
#     4  10  23  47  70 112 143 193 242 304 364 441
#     4  10  23  43  79 101 138 195 244 297 364 442
#     4  10  22  43  72 107 140 185 248 297 365 432
#     4  12  26  45  69 109 149 189 240 306 368 435
#     4  11  26  44  75 106 153 193 243 300 378 431
#
# _framework density 25.936242
#
# number of rings (size 3 to 8) (size 9 to 14) (size 15 to 20)
#    0.000    1.455    1.818    1.636    7.636    0.727 
#    0.000   21.818    0.000    0.000    0.000    0.000 
#    0.000    0.000    0.000    0.000    0.000    0.000 
#
# Total GULP energy -61283.892405 kJ/mol
# GULP energy per Si atom -5571.262946 kJ/mol
# Density = 2.587721 g / cm^3
# Si number density = 25.936242 Si / 1000 Ang^3
#
#
#
# Elastic Constant Matrix: (Units=GPa)
#
#
# Indices 1 2 3 4 5 6 
#
# 1 210.1590 47.8809 48.9652 -18.1719 8.0438 6.2740
# 2 47.8809 65.1011 7.1675 -28.8201 -10.2887 11.7752
# 3 48.9652 7.1675 128.7436 -7.5872 -8.5617 7.7913
# 4 -18.1719 -28.8201 -7.5872 47.2871 3.4777 -12.3303
# 5 8.0438 -10.2887 -8.5617 3.4777 44.5183 -13.2653
# 6 6.2740 11.7752 7.7913 -12.3303 -13.2653 42.9848
#
#
#
# Elastic Compliance Matrix: (Units=1/GPa)
#
#
# Indices 1 2 3 4 5 6 
#
# 1 0.006602 -0.005461 -0.002448 -0.001027 -0.002910 -0.000216
# 2 -0.005461 0.026298 0.001874 0.013524 0.006073 -0.000993
# 3 -0.002448 0.001874 0.008862 0.001275 0.002273 -0.000695
# 4 -0.001027 0.013524 0.001275 0.030516 0.002921 0.005869
# 5 -0.002910 0.006073 0.002273 0.002921 0.026825 0.007466
# 6 -0.000216 -0.000993 -0.000695 0.005869 0.007466 0.027681
#
#
# Mechanical properties :
#
#
# Convention : Reuss Voigt Hill
#
# Bulk Modulus (GPa) = 33.67963 68.00343 50.84153
# Shear Modulus (GPa) = 33.61304 46.95737 40.28520
#
# Velocity S-wave (km/s) = 3.60389 4.25960 3.94539
# Velocity P-wave (km/s) = 5.50737 7.10413 6.35609
#
# Compressibility (1/GPa) = 0.02969154
#
# Stress axis : x y z
#
# Youngs Moduli (GPa) = 151.46948 38.02622 112.83619
#
# Poissons Ratio (x) = 0.20768 0.27620
# Poissons Ratio (y) = 0.82724 -0.21146
# Poissons Ratio (z) = 0.37077 -0.07126
#
# Static dielectric constant tensor:
#      x y z
#    x 1.971550 0.052390 -0.003920 
#    y 0.052390 2.093010 0.041170 
#    z -0.003920 0.041170 2.100430 
# 
# From -- ./inp_files/152877.got.cif
#   From: 2010.05.17/outbox.cif.g08.bks.cpg/sg2_77_cif.got.tgz:152877.got - 2010.06.03 11:33:40.
