data_PCOD9030244
_publ_section_title
;
Structure prediction by ZEFSAII (Michael W. Deem and Ramdas Pophale) SiO2 
 PCOD9030244
Probable space group: P -1
;
_chemical_formula_sum "Si O2"
_cell_formula_units_Z 15
_cell_length_a 8.048335
_cell_length_b 11.010017
_cell_length_c 16.765325
_cell_angle_alpha 135.959642
_cell_angle_beta 138.451823
_cell_angle_gamma 43.635939
_cell_volume 626.921096
_symmetry_space_group_name_H-M "P -1"
_symmetry_group_IT_number 2
_symmetry_cell_setting 'triclinic'
loop_
_space_group_symop_operation_xyz
x,y,z
-x,-y,-z
loop_
_atom_site_type_symbol
_atom_site_label
_atom_site_fract_x
_atom_site_fract_y
_atom_site_fract_z
Si Si1 0.641216 0.343074 0.723506
Si Si2 0.663794 0.859441 0.563476
Si Si3 0.233051 0.059357 0.817834
Si Si4 0.000000 0.500000 0.500000
Si Si5 0.109057 0.791227 0.979700
Si Si6 0.688272 0.729239 0.915219
Si Si7 0.848212 0.533405 0.280114
Si Si8 0.412365 0.127019 0.747317
O O1 0.426975 0.321708 0.571748
O O2 0.727463 0.513688 0.814107
O O3 0.461392 0.397817 0.764155
O O4 0.904946 0.148411 0.738418
O O5 0.977448 0.727748 0.600792
O O6 0.500000 0.000000 0.500000
O O7 0.575747 0.969784 0.665874
O O8 0.335606 0.035621 0.753070
O O9 0.406071 0.875725 0.845161
O O10 0.301500 0.223136 0.965530
O O11 0.016480 0.493867 0.402749
O O12 0.092902 0.645490 0.839285
O O13 0.922896 0.777004 0.978981
O O14 0.407505 0.761659 0.103387
O O15 0.000000 0.000000 0.000000
O O16 0.847092 0.712662 0.313878
#
# Coordination Sequence:
#
# PCOD9030244 Si02
#       8
#     2   2   2   1   2   2   2   2
#     4  11  24  45  70  99 147 186 228 294 354 428
#     4  11  24  46  71 105 139 187 240 293 352 420
#     4  11  25  44  71 101 150 185 229 296 363 432
#     4  10  22  42  70 102 142 182 236 296 344 420
#     4  12  24  43  75 105 144 181 244 303 345 428
#     4  11  25  45  67 108 139 190 234 287 374 419
#     4  11  24  43  73 108 138 189 242 295 357 419
#     4  12  23  46  72 108 141 186 248 295 348 426
#
# _framework density 23.926458
#
# number of rings (size 3 to 8) (size 9 to 14) (size 15 to 20)
#    0.000    0.800    4.000    4.000    1.867    2.667 
#    0.000    0.667    0.000    0.000    0.000    0.000 
#    0.000    0.000    0.000    0.000    0.000    0.000 
#
# Total GULP energy -83709.102236 kJ/mol
# GULP energy per Si atom -5580.606816 kJ/mol
# Density = 2.387200 g / cm^3
# Si number density = 23.926458 Si / 1000 Ang^3
#
#
#
# Elastic Constant Matrix: (Units=GPa)
#
#
# Indices 1 2 3 4 5 6 
#
# 1 75.6439 6.1385 30.7217 0.0313 -28.4151 -7.4896
# 2 6.1385 98.8501 27.0531 4.1047 -17.8951 6.1362
# 3 30.7217 27.0531 100.4060 -0.4482 -40.0896 2.1841
# 4 0.0313 4.1047 -0.4482 50.5958 -9.0629 -8.1684
# 5 -28.4151 -17.8951 -40.0896 -9.0629 58.0683 1.9852
# 6 -7.4896 6.1362 2.1841 -8.1684 1.9852 32.4719
#
#
#
# Elastic Compliance Matrix: (Units=1/GPa)
#
#
# Indices 1 2 3 4 5 6 
#
# 1 0.017287 0.000604 -0.002795 0.001805 0.006857 0.004096
# 2 0.000604 0.011272 -0.002348 -0.000917 0.002080 -0.002191
# 3 -0.002795 -0.002348 0.014865 0.001630 0.008471 -0.001309
# 4 0.001805 -0.000917 0.001630 0.021640 0.004911 0.005623
# 5 0.006857 0.002080 0.008471 0.004911 0.027827 0.000153
# 6 0.004096 -0.002191 -0.001309 0.005623 0.000153 0.033648
#
#
# Mechanical properties :
#
#
# Convention : Reuss Voigt Hill
#
# Bulk Modulus (GPa) = 29.11595 44.74740 36.93167
# Shear Modulus (GPa) = 33.99857 42.29297 38.14577
#
# Velocity S-wave (km/s) = 3.77365 4.20887 3.99719
# Velocity P-wave (km/s) = 5.58414 6.50862 6.06402
#
# Compressibility (1/GPa) = 0.03434544
#
# Stress axis : x y z
#
# Youngs Moduli (GPa) = 57.84812 88.71564 67.27125
#
# Poissons Ratio (x) = -0.05355 0.18803
# Poissons Ratio (y) = -0.03492 0.15793
# Poissons Ratio (z) = 0.16169 0.20828
#
# Static dielectric constant tensor:
#      x y z
#    x 1.866900 0.182430 0.023060 
#    y 0.182430 1.637740 0.117190 
#    z 0.023060 0.117190 1.894450 
# 
# From -- ./inp_files/560071.got.cif
#   From: 2010.05.17/outbox.cif.g08.bks.cpg/sg2_281_cif.got.tgz:560071.got - 2010.06.03 11:33:40.
