data_PCOD9030008
_publ_section_title
;
Structure prediction by ZEFSAII (Michael W. Deem and Ramdas Pophale) SiO2 
 PCOD9030008
Probable space group: P -1
;
_chemical_formula_sum "Si O2"
_cell_formula_units_Z 16
_cell_length_a 8.348681
_cell_length_b 26.478129
_cell_length_c 9.620999
_cell_angle_alpha 129.156050
_cell_angle_beta 148.748233
_cell_angle_gamma 59.405867
_cell_volume 853.071997
_symmetry_space_group_name_H-M "P -1"
_symmetry_group_IT_number 2
_symmetry_cell_setting 'triclinic'
loop_
_space_group_symop_operation_xyz
x,y,z
-x,-y,-z
loop_
_atom_site_type_symbol
_atom_site_label
_atom_site_fract_x
_atom_site_fract_y
_atom_site_fract_z
Si Si1 0.046604 0.335121 0.229996
Si Si2 0.254551 0.476054 0.044940
Si Si3 0.840155 0.803555 0.656909
Si Si4 0.929483 0.053047 0.653557
Si Si5 0.927007 0.529916 0.647013
Si Si6 0.790549 0.946408 0.835764
Si Si7 0.673917 0.662854 0.257018
Si Si8 0.867714 0.195489 0.832348
O O1 0.105670 0.393738 0.268439
O O2 0.257894 0.343209 0.537701
O O3 0.695843 0.338212 0.032010
O O4 0.051967 0.262978 0.043107
O O5 0.599113 0.494754 0.387736
O O6 0.214458 0.399250 0.847476
O O7 0.000000 0.500000 0.000000
O O8 0.196405 0.514099 0.924378
O O9 0.867163 0.872912 0.720541
O O10 0.830283 0.733856 0.452449
O O11 0.494527 0.802266 0.466301
O O12 0.089077 0.804602 0.967310
O O13 0.574740 0.046020 0.432720
O O14 0.977218 0.125845 0.749726
O O15 0.000000 0.000000 0.500000
O O16 0.135377 0.048926 0.936705
O O17 0.000000 0.500000 0.500000
O O18 0.000000 0.000000 0.000000
#
# Coordination Sequence:
#
# PCOD9030008 Si02
#       8
#     2   2   2   2   2   2   2   2
#     4  10  18  30  55  77  97 123 176 224 240 279
#     4  12  24  36  52  77 110 137 164 208 267 314
#     4   8  16  28  49  72  97 129 172 207 241 295
#     4  10  19  33  54  77 106 138 168 203 256 313
#     4  12  21  36  57  80  98 132 180 214 249 297
#     4  10  19  33  53  79 103 133 174 215 248 290
#     4  10  17  32  51  75  98 132 170 210 250 298
#     4   8  16  29  47  76  99 127 166 209 249 291
#
# _framework density 18.755742999999999
#
# number of rings (size 3 to 8) (size 9 to 14) (size 15 to 20)
#    0.000    2.000    2.500    2.250    0.000    0.000 
#    0.000    0.000    5.500    0.000    0.000    0.000 
#    0.000    0.000    0.000    0.000    0.000    0.000 
#
# Total GULP energy -89207.113353 kJ/mol
# GULP energy per Si atom -5575.444585 kJ/mol
# Density = 1.871305 g / cm^3
# Si number density = 18.755743 Si / 1000 Ang^3
#
#
#
# Elastic Constant Matrix: (Units=GPa)
#
#
# Indices 1 2 3 4 5 6 
#
# 1 29.6059 17.9599 3.0711 15.3064 -0.2947 -8.4731
# 2 17.9599 139.6018 22.1168 49.2970 -5.3488 -2.4966
# 3 3.0711 22.1168 61.0925 5.0243 6.7480 -3.8434
# 4 15.3064 49.2970 5.0243 55.7629 -1.9296 0.8123
# 5 -0.2947 -5.3488 6.7480 -1.9296 17.7745 2.1244
# 6 -8.4731 -2.4966 -3.8434 0.8123 2.1244 22.6410
#
#
#
# Elastic Compliance Matrix: (Units=1/GPa)
#
#
# Indices 1 2 3 4 5 6 
#
# 1 0.045744 -0.001790 0.000787 -0.011423 -0.003445 0.017788
# 2 -0.001790 0.011317 -0.003688 -0.009049 0.003803 -0.000080
# 3 0.000787 -0.003688 0.018771 0.001000 -0.008574 0.003843
# 4 -0.011423 -0.009049 0.001000 0.029089 0.000607 -0.006204
# 5 -0.003445 0.003803 -0.008574 0.000607 0.061640 -0.008131
# 6 0.017788 -0.000080 0.003843 -0.006204 -0.008131 0.052454
#
#
# Mechanical properties :
#
#
# Convention : Reuss Voigt Hill
#
# Bulk Modulus (GPa) = 15.04869 35.17729 25.11299
# Shear Modulus (GPa) = 19.95637 31.71251 25.83444
#
# Velocity S-wave (km/s) = 3.26546 4.11641 3.71538
# Velocity P-wave (km/s) = 4.71790 6.43346 5.64127
#
# Compressibility (1/GPa) = 0.06645097
#
# Stress axis : x y z
#
# Youngs Moduli (GPa) = 21.86099 88.35905 53.27436
#
# Poissons Ratio (x) = 0.15814 -0.04195
# Poissons Ratio (y) = 0.03913 0.19648
# Poissons Ratio (z) = -0.01722 0.32588
#
# Static dielectric constant tensor:
#      x y z
#    x 1.610480 0.020030 0.006510 
#    y 0.020030 1.718490 0.028110 
#    z 0.006510 0.028110 1.661490 
# 
# From -- ./inp_files/54524.got.cif
#   From: 2010.05.17/outbox.cif.g08.bks.cpg/sg2_28_cif.got.tgz:54524.got - 2010.06.03 11:33:40.
