data_PCOD9030445
_publ_section_title
;
Structure prediction by ZEFSAII (Michael W. Deem and Ramdas Pophale) SiO2 
 PCOD9030445
Probable space group: P -1
;
_chemical_formula_sum "Si O2"
_cell_formula_units_Z 16
_cell_length_a 14.297271
_cell_length_b 8.975921
_cell_length_c 15.101772
_cell_angle_alpha 101.566805
_cell_angle_beta 33.876122
_cell_angle_gamma 124.153314
_cell_volume 730.890074
_symmetry_space_group_name_H-M "P -1"
_symmetry_group_IT_number 2
_symmetry_cell_setting 'triclinic'
loop_
_space_group_symop_operation_xyz
x,y,z
-x,-y,-z
loop_
_atom_site_type_symbol
_atom_site_label
_atom_site_fract_x
_atom_site_fract_y
_atom_site_fract_z
Si Si1 0.008164 0.848268 0.354016
Si Si2 0.520943 0.335737 0.985962
Si Si3 0.766726 0.216339 0.689095
Si Si4 0.359533 0.152514 0.356182
Si Si5 0.892414 0.584116 0.053309
Si Si6 0.767210 0.611972 0.326375
Si Si7 0.256847 0.751954 0.646398
Si Si8 0.048764 0.709626 0.635528
O O1 0.789543 0.804635 0.562204
O O2 0.911898 0.758643 0.318292
O O3 0.080493 0.746910 0.342504
O O4 0.253276 0.108365 0.195961
O O5 0.596646 0.247753 0.848483
O O6 0.774538 0.512073 0.862115
O O7 0.500000 0.500000 0.000000
O O8 0.931567 0.337639 0.485911
O O9 0.603616 0.962288 0.755347
O O10 0.611734 0.372612 0.224120
O O11 0.178163 0.958914 0.550199
O O12 0.913909 0.720797 0.131388
O O13 0.000000 0.500000 0.000000
O O14 0.046919 0.706424 0.857870
O O15 0.500000 0.500000 0.500000
O O16 0.728959 0.408272 0.348959
O O17 0.210636 0.720418 0.575115
O O18 0.500000 0.000000 0.500000
#
# Coordination Sequence:
#
# PCOD9030445 Si02
#       8
#     2   2   2   2   2   2   2   2
#     4  12  24  43  70 103 142 187 239 287 348 429
#     4  12  24  41  65 105 143 185 226 295 356 411
#     4  10  25  42  69  98 141 186 241 275 352 425
#     4  10  22  42  71  98 141 183 236 288 348 426
#     4  10  22  42  71 100 132 184 234 281 356 422
#     4  11  24  44  72 102 138 183 235 292 346 428
#     4  11  25  44  73 101 136 183 234 297 364 409
#     4  10  23  42  66  98 145 180 230 290 351 408
#
# _framework density 21.891116
#
# number of rings (size 3 to 8) (size 9 to 14) (size 15 to 20)
#    0.750    0.500    2.500    3.375    5.250    0.000 
#    0.000    1.875    0.000    0.000    0.000    0.000 
#    0.000    0.000    0.000    0.000    0.000    0.000 
#
# Total GULP energy -89087.542310 kJ/mol
# GULP energy per Si atom -5567.971394 kJ/mol
# Density = 2.184129 g / cm^3
# Si number density = 21.891116 Si / 1000 Ang^3
#
#
#
# Elastic Constant Matrix: (Units=GPa)
#
#
# Indices 1 2 3 4 5 6 
#
# 1 125.2162 47.1224 46.6200 0.4082 -12.6397 15.3446
# 2 47.1224 107.4546 43.3636 8.1913 -1.5689 9.2849
# 3 46.6200 43.3636 110.1552 -11.8460 -20.5410 9.4146
# 4 0.4082 8.1913 -11.8460 47.0282 1.1097 -9.8611
# 5 -12.6397 -1.5689 -20.5410 1.1097 28.6764 3.5602
# 6 15.3446 9.2849 9.4146 -9.8611 3.5602 36.5383
#
#
#
# Elastic Compliance Matrix: (Units=1/GPa)
#
#
# Indices 1 2 3 4 5 6 
#
# 1 0.010975 -0.003367 -0.002479 -0.000991 0.003377 -0.003711
# 2 -0.003367 0.013002 -0.004685 -0.003593 -0.003830 -0.001279
# 3 -0.002479 -0.004685 0.014133 0.003939 0.008772 -0.001202
# 4 -0.000991 -0.003593 0.003939 0.024315 0.000398 0.006838
# 5 0.003377 -0.003830 0.008772 0.000398 0.043264 -0.006813
# 6 -0.003711 -0.001279 -0.001202 0.006838 -0.006813 0.032071
#
#
# Mechanical properties :
#
#
# Convention : Reuss Voigt Hill
#
# Bulk Modulus (GPa) = 58.65545 68.55977 63.60761
# Shear Modulus (GPa) = 30.39414 36.16324 33.27869
#
# Velocity S-wave (km/s) = 3.73020 4.06884 3.90319
# Velocity P-wave (km/s) = 6.73831 7.31167 7.03084
#
# Compressibility (1/GPa) = 0.01704871
#
# Stress axis : x y z
#
# Youngs Moduli (GPa) = 91.11445 76.91225 70.75391
#
# Poissons Ratio (x) = 0.25896 0.17542
# Poissons Ratio (y) = 0.30678 0.33146
# Poissons Ratio (z) = 0.22590 0.36031
#
# Static dielectric constant tensor:
#      x y z
#    x 1.837260 0.021760 0.050710 
#    y 0.021760 1.803390 0.102570 
#    z 0.050710 0.102570 1.760460 
# 
# From -- ./inp_files/572678.got.cif
#   From: 2010.05.17/outbox.cif.g08.bks.cpg/sg2_287_cif.got.tgz:572678.got - 2010.06.03 11:33:40.
