data_PCOD9030479
_publ_section_title
;
Structure prediction by ZEFSAII (Michael W. Deem and Ramdas Pophale) SiO2 
 PCOD9030479
Probable space group: P -1
;
_chemical_formula_sum "Si O2"
_cell_formula_units_Z 15
_cell_length_a 11.030299
_cell_length_b 9.088103
_cell_length_c 11.619499
_cell_angle_alpha 42.276511
_cell_angle_beta 122.029248
_cell_angle_gamma 127.774548
_cell_volume 612.803055
_symmetry_space_group_name_H-M "P -1"
_symmetry_group_IT_number 2
_symmetry_cell_setting 'triclinic'
loop_
_space_group_symop_operation_xyz
x,y,z
-x,-y,-z
loop_
_atom_site_type_symbol
_atom_site_label
_atom_site_fract_x
_atom_site_fract_y
_atom_site_fract_z
Si Si1 0.382028 0.927752 0.374885
Si Si2 0.401867 0.658553 0.883690
Si Si3 0.584734 0.280823 0.888829
Si Si4 0.929532 0.453475 0.304280
Si Si5 0.140865 0.330922 0.324694
Si Si6 0.362363 0.438544 0.560588
Si Si7 0.000000 0.000000 0.000000
Si Si8 0.083522 0.961670 0.303631
O O1 0.326619 0.657088 0.465229
O O2 0.246448 0.014835 0.288470
O O3 0.500000 0.000000 0.500000
O O4 0.480605 0.074662 0.232901
O O5 0.253324 0.602428 0.761125
O O6 0.500000 0.500000 0.000000
O O7 0.348352 0.633759 0.001406
O O8 0.726329 0.419285 0.794205
O O9 0.439790 0.357645 0.751043
O O10 0.500000 0.000000 0.000000
O O11 0.958813 0.299250 0.511860
O O12 0.988639 0.362125 0.273536
O O13 0.006869 0.736551 0.176631
O O14 0.216021 0.265516 0.515508
O O15 0.114176 0.141259 0.321479
O O16 0.500000 0.500000 0.500000
O O17 0.021586 0.989325 0.874990
#
# Coordination Sequence:
#
# PCOD9030479 Si02
#       8
#     2   2   2   2   2   2   1   2
#     4  12  22  44  75 105 147 195 256 310 369 458
#     4  12  25  44  73 110 143 192 249 306 380 448
#     4  11  25  42  72 110 148 191 242 314 374 438
#     4  12  28  50  79 107 156 205 252 316 389 459
#     4  11  25  51  74 110 151 201 257 311 382 462
#     4  10  22  42  71 103 149 194 247 304 369 451
#     4  12  28  50  70 112 150 188 260 308 382 458
#     4  12  27  51  79 108 151 206 253 319 387 454
#
# _framework density 24.477687
#
# number of rings (size 3 to 8) (size 9 to 14) (size 15 to 20)
#    0.000    0.533    1.333    8.000    1.867    3.200 
#    4.800    0.000    0.000    0.000    0.000    0.000 
#    0.000    0.000    0.000    0.000    0.000    0.000 
#
# Total GULP energy -83664.299655 kJ/mol
# GULP energy per Si atom -5577.619977 kJ/mol
# Density = 2.442197 g / cm^3
# Si number density = 24.477687 Si / 1000 Ang^3
#
#
#
# Elastic Constant Matrix: (Units=GPa)
#
#
# Indices 1 2 3 4 5 6 
#
# 1 101.8401 16.4300 3.7610 -5.9799 2.1689 5.1553
# 2 16.4300 115.4346 36.5019 -3.3324 0.4398 -22.8310
# 3 3.7610 36.5019 142.8642 -3.9588 -13.0569 11.4104
# 4 -5.9799 -3.3324 -3.9588 36.0912 -9.7933 -4.9989
# 5 2.1689 0.4398 -13.0569 -9.7933 26.5493 0.0052
# 6 5.1553 -22.8310 11.4104 -4.9989 0.0052 31.1981
#
#
#
# Elastic Compliance Matrix: (Units=1/GPa)
#
#
# Indices 1 2 3 4 5 6 
#
# 1 0.010415 -0.002337 0.000621 0.001064 -0.000114 -0.003488
# 2 -0.002337 0.012613 -0.004168 0.001483 -0.001523 0.011378
# 3 0.000621 -0.004168 0.009028 0.001167 0.004890 -0.006268
# 4 0.001064 0.001483 0.001167 0.032289 0.012372 0.005654
# 5 -0.000114 -0.001523 0.004890 0.012372 0.044669 -0.000909
# 6 -0.003488 0.011378 -0.006268 0.005654 -0.000909 0.044155
#
#
# Mechanical properties :
#
#
# Convention : Reuss Voigt Hill
#
# Bulk Modulus (GPa) = 49.29376 52.61386 50.95381
# Shear Modulus (GPa) = 29.12048 38.99745 34.05896
#
# Velocity S-wave (km/s) = 3.45291 3.99580 3.73423
# Velocity P-wave (km/s) = 6.00656 6.54445 6.28126
#
# Compressibility (1/GPa) = 0.02028654
#
# Stress axis : x y z
#
# Youngs Moduli (GPa) = 96.01586 79.28564 110.76499
#
# Poissons Ratio (x) = 0.18532 -0.06875
# Poissons Ratio (y) = 0.22443 0.46166
# Poissons Ratio (z) = -0.05960 0.33045
#
# Static dielectric constant tensor:
#      x y z
#    x 1.890400 0.002020 -0.048310 
#    y 0.002020 1.880090 -0.002020 
#    z -0.048310 -0.002020 1.958840 
# 
# From -- ./inp_files/418777.got.cif
#   From: 2010.05.17/outbox.cif.g08.bks.cpg/sg2_210_cif.got.tgz:418777.got - 2010.06.03 11:33:40.
