data_PCOD9030236
_publ_section_title
;
Structure prediction by ZEFSAII (Michael W. Deem and Ramdas Pophale) SiO2 
 PCOD9030236
Probable space group: P -1
;
_chemical_formula_sum "Si O2"
_cell_formula_units_Z 14
_cell_length_a 9.054246
_cell_length_b 10.753457
_cell_length_c 9.692664
_cell_angle_alpha 122.451687
_cell_angle_beta 134.175809
_cell_angle_gamma 78.302172
_cell_volume 547.826721
_symmetry_space_group_name_H-M "P -1"
_symmetry_group_IT_number 2
_symmetry_cell_setting 'triclinic'
loop_
_space_group_symop_operation_xyz
x,y,z
-x,-y,-z
loop_
_atom_site_type_symbol
_atom_site_label
_atom_site_fract_x
_atom_site_fract_y
_atom_site_fract_z
Si Si1 0.886900 0.520380 0.164200
Si Si2 0.794825 0.599622 0.870798
Si Si3 0.498392 0.257296 0.415059
Si Si4 0.552172 0.253748 0.915643
Si Si5 0.209114 0.977565 0.199967
Si Si6 0.916156 0.942524 0.561254
Si Si7 0.755859 0.230047 0.314621
O O1 0.999706 0.410510 0.088018
O O2 0.062709 0.611203 0.441258
O O3 0.848041 0.631773 0.084547
O O4 0.673752 0.420725 0.036867
O O5 0.637333 0.423659 0.657796
O O6 0.680060 0.706289 0.778911
O O7 0.387963 0.141888 0.393510
O O8 0.638253 0.186083 0.358902
O O9 0.303698 0.193173 0.680631
O O10 0.682949 0.142680 0.868623
O O11 0.593347 0.248223 0.102756
O O12 0.144758 0.947393 0.300143
O O13 0.000000 0.000000 0.000000
O O14 0.110750 0.884437 0.713528
O O15 0.000000 0.000000 0.500000
#
# Coordination Sequence:
#
# PCOD9030236 Si02
#       7
#     2   2   2   2   2   2   2
#     4  10  22  43  68 105 140 180 239 282 355 413
#     4   9  20  40  71 102 137 184 232 293 336 426
#     4  10  22  42  70 102 139 186 236 279 359 409
#     4  12  26  47  72 100 146 187 231 290 350 414
#     4  12  25  45  74 101 139 188 236 287 344 426
#     4  12  29  47  71 107 141 185 236 289 353 417
#     4  11  26  45  68 107 140 185 230 297 346 416
#
# _framework density 25.555529
#
# number of rings (size 3 to 8) (size 9 to 14) (size 15 to 20)
#    0.000    1.143    1.429    3.429    4.000    5.143 
#    5.143    0.000    0.000    0.000    0.000    0.000 
#    0.000    0.000    0.000    0.000    0.000    0.000 
#
# Total GULP energy -78513.479832 kJ/mol
# GULP energy per Si atom -5608.105702 kJ/mol
# Density = 2.549736 g / cm^3
# Si number density = 25.555529 Si / 1000 Ang^3
#
#
#
# Elastic Constant Matrix: (Units=GPa)
#
#
# Indices 1 2 3 4 5 6 
#
# 1 146.2555 38.1163 26.3119 2.6705 -7.7021 8.8315
# 2 38.1163 54.5611 6.6842 -2.1097 -0.7073 1.7782
# 3 26.3119 6.6842 72.2540 -11.2839 -4.8073 5.2317
# 4 2.6705 -2.1097 -11.2839 41.7703 -1.0259 8.4938
# 5 -7.7021 -0.7073 -4.8073 -1.0259 53.3846 -0.0065
# 6 8.8315 1.7782 5.2317 8.4938 -0.0065 54.7677
#
#
#
# Elastic Compliance Matrix: (Units=1/GPa)
#
#
# Indices 1 2 3 4 5 6 
#
# 1 0.009030 -0.005980 -0.002847 -0.001471 0.000939 -0.000762
# 2 -0.005980 0.022524 0.000314 0.001601 -0.000505 -0.000045
# 3 -0.002847 0.000314 0.015813 0.004866 0.001111 -0.001816
# 4 -0.001471 0.001601 0.004866 0.026336 0.000753 -0.004364
# 5 0.000939 -0.000505 0.001111 0.000753 0.018975 -0.000356
# 6 -0.000762 -0.000045 -0.001816 -0.004364 -0.000356 0.019234
#
#
# Mechanical properties :
#
#
# Convention : Reuss Voigt Hill
#
# Bulk Modulus (GPa) = 32.95886 46.14394 39.55140
# Shear Modulus (GPa) = 35.95778 43.44840 39.70309
#
# Velocity S-wave (km/s) = 3.75513 4.12777 3.94585
# Velocity P-wave (km/s) = 5.63261 6.38855 6.02245
#
# Compressibility (1/GPa) = 0.03034086
#
# Stress axis : x y z
#
# Youngs Moduli (GPa) = 110.73899 44.39748 63.23796
#
# Poissons Ratio (x) = 0.26548 0.18006
# Poissons Ratio (y) = 0.66217 -0.01983
# Poissons Ratio (z) = 0.31531 -0.01392
#
# Static dielectric constant tensor:
#      x y z
#    x 1.956190 -0.023430 0.005020 
#    y -0.023430 2.014070 0.015200 
#    z 0.005020 0.015200 2.001550 
# 
# From -- ./inp_files/190522.got.cif
#   From: 2010.05.17/outbox.cif.g08.bks.cpg/sg2_96_cif.got.tgz:190522.got - 2010.06.03 11:33:40.
