data_PCOD9030001
_publ_section_title
;
Structure prediction by ZEFSAII (Michael W. Deem and Ramdas Pophale) SiO2 
 PCOD9030001
Probable space group: P -1
;
_chemical_formula_sum "Si O2"
_cell_formula_units_Z 16
_cell_length_a 8.855505
_cell_length_b 15.042373
_cell_length_c 11.475224
_cell_angle_alpha 123.060301
_cell_angle_beta 54.853557
_cell_angle_gamma 147.041748
_cell_volume 673.237285
_symmetry_space_group_name_H-M "P -1"
_symmetry_group_IT_number 2
_symmetry_cell_setting 'triclinic'
loop_
_space_group_symop_operation_xyz
x,y,z
-x,-y,-z
loop_
_atom_site_type_symbol
_atom_site_label
_atom_site_fract_x
_atom_site_fract_y
_atom_site_fract_z
Si Si1 0.357489 0.591755 0.195719
Si Si2 0.869909 0.823828 0.945505
Si Si3 0.332742 0.021428 0.030665
Si Si4 0.719556 0.593793 0.675506
Si Si5 0.926628 0.374591 0.029452
Si Si6 0.814660 0.146661 0.518200
Si Si7 0.897941 0.724225 0.292217
Si Si8 0.845124 0.914769 0.326172
O O1 0.302578 0.489374 0.257112
O O2 0.521187 0.762251 0.307732
O O3 0.607793 0.682224 0.050136
O O4 0.068998 0.463851 0.154807
O O5 0.769653 0.732342 0.803788
O O6 0.000000 0.000000 0.000000
O O7 0.165151 0.897189 0.907178
O O8 0.075552 0.964653 0.172092
O O9 0.586404 0.216442 0.051492
O O10 0.500000 0.000000 0.000000
O O11 0.412159 0.447641 0.646974
O O12 0.978924 0.692988 0.541482
O O13 0.054073 0.320377 0.880919
O O14 0.000000 0.500000 0.000000
O O15 0.854463 0.198914 0.672192
O O16 0.500000 0.000000 0.500000
O O17 0.914524 0.067139 0.423276
O O18 0.871468 0.838352 0.361514
#
# Coordination Sequence:
#
# PCOD9030001 Si02
#       8
#     2   2   2   2   2   2   2   2
#     4  10  22  42  69 105 141 182 226 289 375 420
#     4  11  21  37  65 100 140 177 224 279 357 416
#     4  11  22  38  65 106 138 173 218 282 362 420
#     4  11  23  43  70  96 136 188 234 290 348 423
#     4  12  25  38  69 111 146 176 229 296 360 433
#     4  12  29  48  73 101 137 196 252 294 342 420
#     4  11  25  47  71 100 146 188 235 292 359 425
#     4  10  24  47  74 100 143 186 235 299 356 426
#
# _framework density 23.765765999999999
#
# number of rings (size 3 to 8) (size 9 to 14) (size 15 to 20)
#    0.000    1.000    2.500    4.125    7.000    1.000 
#    0.000    2.500    0.000    0.000    0.000    0.000 
#    0.000    0.000    0.000    0.000    0.000    0.000 
#
# Total GULP energy -89216.875303 kJ/mol
# GULP energy per Si atom -5576.054706 kJ/mol
# Density = 2.371167 g / cm^3
# Si number density = 23.765766 Si / 1000 Ang^3
#
#
#
# Elastic Constant Matrix: (Units=GPa)
#
#
# Indices 1 2 3 4 5 6 
#
# 1 79.9006 23.2685 16.4750 -0.2238 15.2400 0.5855
# 2 23.2685 157.3351 18.9717 -10.7519 12.5264 10.5371
# 3 16.4750 18.9717 43.3798 -2.3660 18.7464 -3.6772
# 4 -0.2238 -10.7519 -2.3660 20.4988 3.2097 -5.9846
# 5 15.2400 12.5264 18.7464 3.2097 37.7275 6.6405
# 6 0.5855 10.5371 -3.6772 -5.9846 6.6405 45.2590
#
#
#
# Elastic Compliance Matrix: (Units=1/GPa)
#
#
# Indices 1 2 3 4 5 6 
#
# 1 0.014311 -0.001485 -0.003128 -0.000266 -0.003786 0.000427
# 2 -0.001485 0.007209 -0.002198 0.003250 -0.000750 -0.001298
# 3 -0.003128 -0.002198 0.033167 0.007104 -0.016248 0.006570
# 4 -0.000266 0.003250 0.007104 0.055545 -0.010767 0.008748
# 5 -0.003786 -0.000750 -0.016248 -0.010767 0.038717 -0.008201
# 6 0.000427 -0.001298 0.006570 0.008748 -0.008201 0.025286
#
#
# Mechanical properties :
#
#
# Convention : Reuss Voigt Hill
#
# Bulk Modulus (GPa) = 24.35058 44.22732 34.28895
# Shear Modulus (GPa) = 24.80835 35.49041 30.14938
#
# Velocity S-wave (km/s) = 3.23440 3.86857 3.56561
# Velocity P-wave (km/s) = 4.92106 6.21325 5.60452
#
# Compressibility (1/GPa) = 0.04106679
#
# Stress axis : x y z
#
# Youngs Moduli (GPa) = 69.87537 138.71251 30.15028
#
# Poissons Ratio (x) = 0.20594 0.09431
# Poissons Ratio (y) = 0.10374 0.06626
# Poissons Ratio (z) = 0.21857 0.30485
#
# Static dielectric constant tensor:
#      x y z
#    x 1.869230 -0.195050 0.020120 
#    y -0.195050 1.733330 -0.035840 
#    z 0.020120 -0.035840 1.972990 
# 
# From -- ./inp_files/399281.got.cif
#   From: 2010.05.17/outbox.cif.g08.bks.cpg/sg2_200_cif.got.tgz:399281.got - 2010.06.03 11:33:40.
