data_PCOD9030693
_publ_section_title
;
Structure prediction by ZEFSAII (Michael W. Deem and Ramdas Pophale) SiO2 
 PCOD9030693
Probable space group: P -1
;
_chemical_formula_sum "Si O2"
_cell_formula_units_Z 16
_cell_length_a 11.486845
_cell_length_b 6.906361
_cell_length_c 22.319399
_cell_angle_alpha 111.231408
_cell_angle_beta 148.287897
_cell_angle_gamma 56.002527
_cell_volume 744.996487
_symmetry_space_group_name_H-M "P -1"
_symmetry_group_IT_number 2
_symmetry_cell_setting 'triclinic'
loop_
_space_group_symop_operation_xyz
x,y,z
-x,-y,-z
loop_
_atom_site_type_symbol
_atom_site_label
_atom_site_fract_x
_atom_site_fract_y
_atom_site_fract_z
Si Si1 0.714953 0.054780 0.396361
Si Si2 0.119702 0.046394 0.855773
Si Si3 0.557688 0.003193 0.120549
Si Si4 0.787523 0.514458 0.825336
Si Si5 0.344400 0.285104 0.750497
Si Si6 0.921292 0.784188 0.673169
Si Si7 0.441439 0.769307 0.515812
Si Si8 0.759848 0.427287 0.939812
O O1 0.501626 0.277049 0.288514
O O2 0.635130 0.138259 0.439227
O O3 0.689144 0.828288 0.337907
O O4 0.000000 0.000000 0.500000
O O5 0.237460 0.098286 0.854335
O O6 0.866509 0.295297 0.790150
O O7 0.080396 0.826902 0.798518
O O8 0.319397 0.981292 0.989888
O O9 0.658298 0.873328 0.212847
O O10 0.446768 0.288972 0.108377
O O11 0.827168 0.405268 0.896737
O O12 0.984512 0.616966 0.918262
O O13 0.612496 0.284222 0.871414
O O14 0.107430 0.554568 0.688637
O O15 0.697883 0.762924 0.605049
O O16 0.788111 0.028082 0.602730
O O17 0.500000 0.500000 0.500000
#
# Coordination Sequence:
#
# PCOD9030693 Si02
#       8
#     2   2   2   2   2   2   2   2
#     4  12  28  45  71 101 135 191 231 283 348 407
#     4  10  22  42  72  98 140 179 226 284 338 412
#     4  10  22  44  65 106 140 179 221 278 349 407
#     4  10  23  44  70 100 139 181 230 284 345 406
#     4  12  26  42  73 101 142 181 226 285 345 428
#     4  11  26  44  70 102 133 182 230 286 343 407
#     4  11  27  50  70  97 135 179 237 292 339 398
#     4  10  22  45  69 100 144 181 219 286 350 416
#
# _framework density 21.476610000000001
#
# number of rings (size 3 to 8) (size 9 to 14) (size 15 to 20)
#    0.000    1.250    2.500    1.500    8.750    3.500 
#    0.000    0.000    0.000    0.000    0.000    0.000 
#    0.000    0.000    0.000    0.000    0.000    0.000 
#
# Total GULP energy -89460.810352 kJ/mol
# GULP energy per Si atom -5591.300647 kJ/mol
# Density = 2.142773 g / cm^3
# Si number density = 21.476610 Si / 1000 Ang^3
#
#
#
# Elastic Constant Matrix: (Units=GPa)
#
#
# Indices 1 2 3 4 5 6 
#
# 1 90.5420 37.6923 22.8619 -0.5915 -10.0105 -26.1742
# 2 37.6923 114.1589 42.5829 10.7320 -6.9324 -30.0207
# 3 22.8619 42.5829 64.1530 -0.2622 4.1997 -5.5690
# 4 -0.5915 10.7320 -0.2622 27.7777 -13.6206 -4.0912
# 5 -10.0105 -6.9324 4.1997 -13.6206 27.2336 1.5903
# 6 -26.1742 -30.0207 -5.5690 -4.0912 1.5903 39.5799
#
#
#
# Elastic Compliance Matrix: (Units=1/GPa)
#
#
# Indices 1 2 3 4 5 6 
#
# 1 0.016689 -0.001177 -0.004907 0.006832 0.009437 0.009780
# 2 -0.001177 0.015518 -0.009271 -0.003429 0.002694 0.009225
# 3 -0.004907 -0.009271 0.023419 -0.001218 -0.007988 -0.006786
# 4 0.006832 -0.003429 -0.001218 0.051759 0.027363 0.005997
# 5 0.009437 0.002694 -0.007988 0.027363 0.055338 0.007765
# 6 0.009780 0.009225 -0.006786 0.005997 0.007765 0.038083
#
#
# Mechanical properties :
#
#
# Convention : Reuss Voigt Hill
#
# Bulk Modulus (GPa) = 40.13386 52.79201 46.46294
# Shear Modulus (GPa) = 20.84893 29.96604 25.40748
#
# Velocity S-wave (km/s) = 3.11910 3.73941 3.44325
# Velocity P-wave (km/s) = 5.63024 6.57866 6.12284
#
# Compressibility (1/GPa) = 0.02491661
#
# Stress axis : x y z
#
# Youngs Moduli (GPa) = 59.91986 64.44032 42.70085
#
# Poissons Ratio (x) = 0.07586 0.20953
# Poissons Ratio (y) = 0.07054 0.39586
# Poissons Ratio (z) = 0.29402 0.59740
#
# Static dielectric constant tensor:
#      x y z
#    x 1.760730 -0.001700 0.009190 
#    y -0.001700 1.791840 0.013230 
#    z 0.009190 0.013230 1.813370 
# 
# From -- ./inp_files/364583.got.cif
#   From: 2010.05.17/outbox.cif.g08.bks.cpg/sg2_183_cif.got.tgz:364583.got - 2010.06.03 11:33:40.
