data_PCOD9030704
_publ_section_title
;
Structure prediction by ZEFSAII (Michael W. Deem and Ramdas Pophale) SiO2 
 PCOD9030704
Probable space group: P -1
;
_chemical_formula_sum "Si O2"
_cell_formula_units_Z 16
_cell_length_a 16.829256
_cell_length_b 9.816495
_cell_length_c 11.569142
_cell_angle_alpha 53.045825
_cell_angle_beta 132.794348
_cell_angle_gamma 88.113472
_cell_volume 737.936454
_symmetry_space_group_name_H-M "P -1"
_symmetry_group_IT_number 2
_symmetry_cell_setting 'triclinic'
loop_
_space_group_symop_operation_xyz
x,y,z
-x,-y,-z
loop_
_atom_site_type_symbol
_atom_site_label
_atom_site_fract_x
_atom_site_fract_y
_atom_site_fract_z
Si Si1 0.817394 0.278663 0.141737
Si Si2 0.328956 0.701849 0.801630
Si Si3 0.855260 0.949579 0.917961
Si Si4 0.832966 0.285174 0.559405
Si Si5 0.685898 0.807037 0.736086
Si Si6 0.813247 0.752219 0.646184
Si Si7 0.646747 0.713653 0.335645
Si Si8 0.663278 0.402042 0.680797
O O1 0.678419 0.347231 0.047515
O O2 0.789435 0.513272 0.012437
O O3 0.779453 0.288854 0.964274
O O4 0.000000 0.000000 0.500000
O O5 0.218881 0.690518 0.633291
O O6 0.239641 0.990165 0.558353
O O7 0.500000 0.500000 0.000000
O O8 0.770825 0.873156 0.841998
O O9 0.881197 0.042122 0.784424
O O10 0.747372 0.189402 0.774818
O O11 0.026086 0.745640 0.259404
O O12 0.687128 0.535702 0.363337
O O13 0.697710 0.827326 0.599777
O O14 0.500000 0.000000 0.500000
O O15 0.785986 0.676199 0.541303
O O16 0.000000 0.500000 0.000000
O O17 0.614163 0.637252 0.453795
O O18 0.500000 0.000000 0.000000
O O19 0.500000 0.500000 0.500000
#
# Coordination Sequence:
#
# PCOD9030704 Si02
#       8
#     2   2   2   2   2   2   2   2
#     4  12  27  47  72 105 146 189 236 297 362 426
#     4  12  26  44  72 104 141 187 243 292 353 427
#     4  10  22  42  72  99 133 186 230 290 351 423
#     4  10  22  43  70 100 138 176 237 288 353 414
#     4  12  24  45  71 107 142 186 240 295 358 423
#     4  12  25  44  73 103 139 186 243 294 346 425
#     4  11  25  44  70 104 139 179 234 293 351 422
#     4  11  25  45  69  99 143 186 226 285 364 424
#
# _framework density 21.682084
#
# number of rings (size 3 to 8) (size 9 to 14) (size 15 to 20)
#    0.000    0.750    2.500    4.500    8.750    0.000 
#    0.000    1.250    0.000    0.000    0.000    0.000 
#    0.000    0.000    0.000    0.000    0.000    0.000 
#
# Total GULP energy -89416.734653 kJ/mol
# GULP energy per Si atom -5588.545916 kJ/mol
# Density = 2.163273 g / cm^3
# Si number density = 21.682084 Si / 1000 Ang^3
#
#
#
# Elastic Constant Matrix: (Units=GPa)
#
#
# Indices 1 2 3 4 5 6 
#
# 1 65.3438 28.5541 2.7475 -8.1179 -2.1737 1.9921
# 2 28.5541 141.8437 42.5324 -2.5867 -10.7468 22.6450
# 3 2.7475 42.5324 90.7594 -9.1889 -7.4067 15.2167
# 4 -8.1179 -2.5867 -9.1889 32.9785 5.2344 -3.4643
# 5 -2.1737 -10.7468 -7.4067 5.2344 33.1445 2.9222
# 6 1.9921 22.6450 15.2167 -3.4643 2.9222 31.8729
#
#
#
# Elastic Compliance Matrix: (Units=1/GPa)
#
#
# Indices 1 2 3 4 5 6 
#
# 1 0.017617 -0.004279 0.001593 0.004755 -0.000783 0.001767
# 2 -0.004279 0.010102 -0.003636 -0.002359 0.003058 -0.005711
# 3 0.001593 -0.003636 0.013812 0.003250 0.001845 -0.003926
# 4 0.004755 -0.002359 0.003250 0.033481 -0.005363 0.003958
# 5 -0.000783 0.003058 0.001845 -0.005363 0.032953 -0.006609
# 6 0.001767 -0.005711 -0.003926 0.003958 -0.006609 0.038232
#
#
# Mechanical properties :
#
#
# Convention : Reuss Voigt Hill
#
# Bulk Modulus (GPa) = 34.61769 49.51276 42.06522
# Shear Modulus (GPa) = 29.67875 34.54002 32.10939
#
# Velocity S-wave (km/s) = 3.70376 3.99560 3.85244
# Velocity P-wave (km/s) = 5.85587 6.64618 6.26350
#
# Compressibility (1/GPa) = 0.02888697
#
# Stress axis : x y z
#
# Youngs Moduli (GPa) = 56.76244 98.98863 72.40147
#
# Poissons Ratio (x) = 0.42356 -0.11535
# Poissons Ratio (y) = 0.24288 0.26329
# Poissons Ratio (z) = -0.09043 0.35997
#
# Static dielectric constant tensor:
#      x y z
#    x 1.802270 0.011800 0.056000 
#    y 0.011800 1.764140 0.025900 
#    z 0.056000 0.025900 1.758630 
# 
# From -- ./inp_files/461920.got.cif
#   From: 2010.05.17/outbox.cif.g08.bks.cpg/sg2_231_cif.got.tgz:461920.got - 2010.06.03 11:33:40.
