data_PCOD9030843
_publ_section_title
;
Structure prediction by ZEFSAII (Michael W. Deem and Ramdas Pophale) SiO2 
 PCOD9030843
Probable space group: P -1
;
_chemical_formula_sum "Si O2"
_cell_formula_units_Z 13
_cell_length_a 16.898342
_cell_length_b 5.943746
_cell_length_c 8.891294
_cell_angle_alpha 93.709164
_cell_angle_beta 40.775340
_cell_angle_gamma 74.221384
_cell_volume 506.568298
_symmetry_space_group_name_H-M "P -1"
_symmetry_group_IT_number 2
_symmetry_cell_setting 'triclinic'
loop_
_space_group_symop_operation_xyz
x,y,z
-x,-y,-z
loop_
_atom_site_type_symbol
_atom_site_label
_atom_site_fract_x
_atom_site_fract_y
_atom_site_fract_z
Si Si1 0.186179 0.754838 0.078405
Si Si2 0.353416 0.025735 0.545262
Si Si3 0.499475 0.202784 0.130003
Si Si4 0.929218 0.506524 0.944056
Si Si5 0.942089 0.300586 0.456891
Si Si6 0.500000 0.500000 0.500000
Si Si7 0.283252 0.782215 0.361156
O O1 0.116575 0.706808 0.027690
O O2 0.155316 0.606771 0.252293
O O3 0.344824 0.642266 0.807308
O O4 0.091563 0.056151 0.269345
O O5 0.448721 0.754402 0.473155
O O6 0.288855 0.969880 0.486055
O O7 0.448565 0.151948 0.360511
O O8 0.219648 0.228765 0.838330
O O9 0.385852 0.490571 0.257723
O O10 0.648351 0.181162 0.887994
O O11 0.500000 0.000000 0.000000
O O12 0.032540 0.497416 0.664386
O O13 0.000000 0.500000 0.000000
O O14 0.861927 0.199900 0.459665
#
# Coordination Sequence:
#
# PCOD9030843 Si02
#       7
#     2   2   2   2   2   1   2
#     4  11  28  49  72 106 146 196 244 297 372 431
#     4  11  25  44  69 111 144 194 247 296 372 424
#     4   9  21  40  65 109 141 187 245 295 371 426
#     4  12  26  47  78 108 142 188 249 307 364 439
#     4  11  25  49  73 105 147 191 240 303 371 441
#     4  12  28  50  70 102 158 198 240 304 360 444
#     4  10  22  42  76 103 148 185 246 310 366 436
#
# _framework density 25.662877999999999
#
# number of rings (size 3 to 8) (size 9 to 14) (size 15 to 20)
#    0.000    1.231    1.538    2.308   10.769    3.077 
#    5.538    0.000    0.000    0.000    0.000    0.000 
#    0.000    0.000    0.000    0.000    0.000    0.000 
#
# Total GULP energy -72593.969378 kJ/mol
# GULP energy per Si atom -5584.151491 kJ/mol
# Density = 2.560447 g / cm^3
# Si number density = 25.662878 Si / 1000 Ang^3
#
#
#
# Elastic Constant Matrix: (Units=GPa)
#
#
# Indices 1 2 3 4 5 6 
#
# 1 73.5860 8.3500 26.1765 -4.6215 -3.1227 9.3577
# 2 8.3500 74.1368 48.3326 -20.2446 -18.4438 -14.7182
# 3 26.1765 48.3326 182.4775 -20.4691 -24.9399 -1.8347
# 4 -4.6215 -20.2446 -20.4691 59.1354 -7.0360 2.0678
# 5 -3.1227 -18.4438 -24.9399 -7.0360 39.6974 2.8835
# 6 9.3577 -14.7182 -1.8347 2.0678 2.8835 31.7205
#
#
#
# Elastic Compliance Matrix: (Units=1/GPa)
#
#
# Indices 1 2 3 4 5 6 
#
# 1 0.015085 -0.001590 -0.001817 0.000157 -0.000282 -0.005277
# 2 -0.001590 0.021682 -0.003539 0.006736 0.008255 0.009135
# 3 -0.001817 -0.003539 0.007273 0.001575 0.003139 -0.001073
# 4 0.000157 0.006736 0.001575 0.020652 0.007710 0.001123
# 5 -0.000282 0.008255 0.003139 0.007710 0.032295 0.000657
# 6 -0.005277 0.009135 -0.001073 0.001123 0.000657 0.037126
#
#
# Mechanical properties :
#
#
# Convention : Reuss Voigt Hill
#
# Bulk Modulus (GPa) = 33.16895 55.10207 44.13551
# Shear Modulus (GPa) = 31.63484 42.60006 37.11745
#
# Velocity S-wave (km/s) = 3.51480 4.07871 3.80721
# Velocity P-wave (km/s) = 5.42446 6.61055 6.04665
#
# Compressibility (1/GPa) = 0.03014868
#
# Stress axis : x y z
#
# Youngs Moduli (GPa) = 66.28990 46.12200 137.49330
#
# Poissons Ratio (x) = 0.07332 0.24983
# Poissons Ratio (y) = 0.10538 0.48659
# Poissons Ratio (z) = 0.12045 0.16322
#
# Static dielectric constant tensor:
#      x y z
#    x 2.074320 0.067150 0.084640 
#    y 0.067150 2.030150 -0.008290 
#    z 0.084640 -0.008290 1.969100 
# 
# From -- ./inp_files/60849.got.cif
#   From: 2010.05.17/outbox.cif.g08.bks.cpg/sg2_31_cif.got.tgz:60849.got - 2010.06.03 11:33:40.
