data_PCOD9030789
_publ_section_title
;
Structure prediction by ZEFSAII (Michael W. Deem and Ramdas Pophale) SiO2 
 PCOD9030789
Probable space group: P -1
;
_chemical_formula_sum "Si O2"
_cell_formula_units_Z 14
_cell_length_a 16.103715
_cell_length_b 22.011113
_cell_length_c 6.039166
_cell_angle_alpha 119.314585
_cell_angle_beta 54.384333
_cell_angle_gamma 161.358260
_cell_volume 540.096651
_symmetry_space_group_name_H-M "P -1"
_symmetry_group_IT_number 2
_symmetry_cell_setting 'triclinic'
loop_
_space_group_symop_operation_xyz
x,y,z
-x,-y,-z
loop_
_atom_site_type_symbol
_atom_site_label
_atom_site_fract_x
_atom_site_fract_y
_atom_site_fract_z
Si Si1 0.403741 0.868703 0.034301
Si Si2 0.265768 0.252186 0.423378
Si Si3 0.943941 0.638305 0.649181
Si Si4 0.281933 0.390956 0.320119
Si Si5 0.936381 0.520883 0.814407
Si Si6 0.665196 0.804483 0.158842
Si Si7 0.651275 0.891434 0.744412
O O1 0.660065 0.981082 0.903511
O O2 0.196043 0.690627 0.884694
O O3 0.203950 0.763182 0.357808
O O4 0.500000 0.000000 0.000000
O O5 0.209955 0.277695 0.375983
O O6 0.528404 0.441828 0.507764
O O7 0.361350 0.243992 0.133976
O O8 0.949257 0.049939 0.662509
O O9 0.959035 0.724172 0.661427
O O10 0.947534 0.604400 0.825759
O O11 0.614324 0.411400 0.687266
O O12 0.500000 0.500000 0.000000
O O13 0.000000 0.500000 0.500000
O O14 0.639714 0.314086 0.035277
O O15 0.639589 0.857743 0.444848
O O16 0.000000 0.000000 0.000000
#
# Coordination Sequence:
#
# PCOD9030789 Si02
#       7
#     2   2   2   2   2   2   2
#     4  12  27  49  76 110 151 195 258 319 378 453
#     4  10  24  46  75 110 146 200 252 310 381 452
#     4  12  25  44  74 109 149 197 248 310 374 454
#     4  11  24  46  72 107 157 196 247 310 382 451
#     4  12  26  48  75 107 151 202 250 309 384 448
#     4  10  22  42  74 106 146 190 250 306 369 450
#     4  11  23  50  77 109 149 198 254 313 381 459
#
# _framework density 25.921288000000001
#
# number of rings (size 3 to 8) (size 9 to 14) (size 15 to 20)
#    0.000    0.857    4.286    2.143    2.000    2.857 
#    5.143    2.857    0.000    0.000    0.000    0.000 
#    0.000    0.000    0.000    0.000    0.000    0.000 
#
# Total GULP energy -77970.940952 kJ/mol
# GULP energy per Si atom -5569.352925 kJ/mol
# Density = 2.586229 g / cm^3
# Si number density = 25.921288 Si / 1000 Ang^3
#
#
#
# Elastic Constant Matrix: (Units=GPa)
#
#
# Indices 1 2 3 4 5 6 
#
# 1 162.1589 -6.5648 36.3734 -8.3942 -2.1434 -16.8964
# 2 -6.5648 67.4971 31.1449 -14.7236 11.5971 -15.2325
# 3 36.3734 31.1449 168.1406 -22.0931 -27.2074 -11.8900
# 4 -8.3942 -14.7236 -22.0931 49.3596 2.2370 -0.9816
# 5 -2.1434 11.5971 -27.2074 2.2370 37.2315 -13.1826
# 6 -16.8964 -15.2325 -11.8900 -0.9816 -13.1826 24.7856
#
#
#
# Elastic Compliance Matrix: (Units=1/GPa)
#
#
# Indices 1 2 3 4 5 6 
#
# 1 0.007400 0.003108 -0.001351 0.001681 0.000771 0.006783
# 2 0.003108 0.021722 -0.004281 0.005587 -0.006435 0.010214
# 3 -0.001351 -0.004281 0.009501 0.002406 0.010403 0.006634
# 4 0.001681 0.005587 0.002406 0.023376 0.001316 0.007359
# 5 0.000771 -0.006435 0.010403 0.001316 0.045587 0.025860
# 6 0.006783 0.010214 0.006634 0.007359 0.025860 0.068475
#
#
# Mechanical properties :
#
#
# Convention : Reuss Voigt Hill
#
# Bulk Modulus (GPa) = 29.78378 57.74486 43.76432
# Shear Modulus (GPa) = 26.00082 44.73156 35.36619
#
# Velocity S-wave (km/s) = 3.17056 4.15862 3.69774
# Velocity P-wave (km/s) = 4.99182 6.73678 5.92885
#
# Compressibility (1/GPa) = 0.03357532
#
# Stress axis : x y z
#
# Youngs Moduli (GPa) = 135.14146 46.03551 105.24726
#
# Poissons Ratio (x) = -0.14308 0.14221
# Poissons Ratio (y) = -0.42002 0.45056
# Poissons Ratio (z) = 0.18260 0.19707
#
# Static dielectric constant tensor:
#      x y z
#    x 2.152990 -0.012520 0.000880 
#    y -0.012520 2.130090 -0.009290 
#    z 0.000880 -0.009290 1.977880 
# 
# From -- ./inp_files/112962.got.cif
#   From: 2010.05.17/outbox.cif.g08.bks.cpg/sg2_57_cif.got.tgz:112962.got - 2010.06.03 11:33:40.
