data_PCOD9030134
_publ_section_title
;
Structure prediction by ZEFSAII (Michael W. Deem and Ramdas Pophale) SiO2 
 PCOD9030134
Probable space group: P -1
;
_chemical_formula_sum "Si O2"
_cell_formula_units_Z 16
_cell_length_a 5.841111
_cell_length_b 6.953858
_cell_length_c 24.590644
_cell_angle_alpha 102.791165
_cell_angle_beta 51.113832
_cell_angle_gamma 90.484604
_cell_volume 746.894951
_symmetry_space_group_name_H-M "P -1"
_symmetry_group_IT_number 2
_symmetry_cell_setting 'triclinic'
loop_
_space_group_symop_operation_xyz
x,y,z
-x,-y,-z
loop_
_atom_site_type_symbol
_atom_site_label
_atom_site_fract_x
_atom_site_fract_y
_atom_site_fract_z
Si Si1 0.223054 0.545453 0.770179
Si Si2 0.987759 0.855157 0.912672
Si Si3 0.848203 0.936975 0.443438
Si Si4 0.847245 0.213265 0.312661
Si Si5 0.849470 0.427879 0.685403
Si Si6 0.153689 0.270073 0.454981
Si Si7 0.830940 0.233575 0.786507
Si Si8 0.458356 0.080801 0.923519
O O1 0.121015 0.706513 0.748376
O O2 0.556349 0.459866 0.695442
O O3 0.166941 0.670184 0.841325
O O4 0.069338 0.352265 0.785170
O O5 0.747389 0.973567 0.910690
O O6 0.769163 0.808009 0.990519
O O7 0.244714 0.955801 0.911798
O O8 0.918467 0.823583 0.482594
O O9 0.929216 0.769550 0.375613
O O10 0.500000 0.000000 0.500000
O O11 0.006708 0.129910 0.426413
O O12 0.506537 0.236989 0.386125
O O13 0.007314 0.375111 0.329612
O O14 0.018621 0.985694 0.271331
O O15 0.731250 0.377980 0.759368
O O16 0.000000 0.500000 0.500000
O O17 0.588157 0.208723 0.866140
#
# Coordination Sequence:
#
# PCOD9030134 Si02
#       8
#     2   2   2   2   2   2   2   2
#     4  11  24  40  64  94 130 167 218 274 325 397
#     4  10  22  42  69  98 136 177 226 275 333 399
#     4  11  24  42  61  91 126 162 213 270 324 398
#     4  11  23  42  62  90 126 166 213 266 330 395
#     4  11  25  40  62  94 127 164 218 271 328 398
#     4  11  24  40  63  89 122 164 212 265 329 393
#     4  11  24  40  64  95 126 171 217 268 331 396
#     4  10  22  42  69  99 133 181 224 274 334 401
#
# _framework density 21.422021999999998
#
# number of rings (size 3 to 8) (size 9 to 14) (size 15 to 20)
#    0.000    1.250    1.250    3.750    3.500   11.500 
#    0.000    0.625    0.000    0.000    0.000    0.000 
#    0.000    0.000    0.000    0.000    0.000    0.000 
#
# Total GULP energy -89155.712166 kJ/mol
# GULP energy per Si atom -5572.232010 kJ/mol
# Density = 2.137326 g / cm^3
# Si number density = 21.422022 Si / 1000 Ang^3
#
#
#
# Elastic Constant Matrix: (Units=GPa)
#
#
# Indices 1 2 3 4 5 6 
#
# 1 62.8564 29.7525 9.7972 -8.4245 -8.3919 10.9499
# 2 29.7525 123.8845 37.3444 -16.2464 -2.7493 9.1159
# 3 9.7972 37.3444 96.3581 -18.9700 -1.9480 6.9500
# 4 -8.4245 -16.2464 -18.9700 36.3101 1.6901 -6.7018
# 5 -8.3919 -2.7493 -1.9480 1.6901 31.7255 -1.5318
# 6 10.9499 9.1159 6.9500 -6.7018 -1.5318 32.1417
#
#
#
# Elastic Compliance Matrix: (Units=1/GPa)
#
#
# Indices 1 2 3 4 5 6 
#
# 1 0.019494 -0.004106 0.000408 0.001770 0.004491 -0.004982
# 2 -0.004106 0.010289 -0.003166 0.001937 -0.000514 -0.000455
# 3 0.000408 -0.003166 0.012639 0.005102 0.000295 -0.000896
# 4 0.001770 0.001937 0.005102 0.032332 -0.000558 0.004459
# 5 0.004491 -0.000514 0.000295 -0.000558 0.032711 -0.000005
# 6 -0.004982 -0.000455 -0.000896 0.004459 -0.000005 0.034062
#
#
# Mechanical properties :
#
#
# Convention : Reuss Voigt Hill
#
# Bulk Modulus (GPa) = 34.85288 48.54300 41.69794
# Shear Modulus (GPa) = 30.33614 33.78246 32.05930
#
# Velocity S-wave (km/s) = 3.76722 3.97545 3.87273
# Velocity P-wave (km/s) = 5.93528 6.61678 6.28527
#
# Compressibility (1/GPa) = 0.02869204
#
# Stress axis : x y z
#
# Youngs Moduli (GPa) = 51.29776 97.19367 79.12287
#
# Poissons Ratio (x) = 0.39911 -0.03228
# Poissons Ratio (y) = 0.21065 0.25053
# Poissons Ratio (z) = -0.02093 0.30774
#
# Static dielectric constant tensor:
#      x y z
#    x 1.995640 -0.150840 0.086790 
#    y -0.150840 1.973090 -0.062800 
#    z 0.086790 -0.062800 1.779660 
# 
# From -- ./inp_files/10588.got.cif
#   From: 2010.05.17/outbox.cif.g08.bks.cpg/sg2_6_cif.got.tgz:10588.got - 2010.06.03 11:33:40.
