data_PCOD9030726
_publ_section_title
;
Structure prediction by ZEFSAII (Michael W. Deem and Ramdas Pophale) SiO2 
 PCOD9030726
Probable space group: P -1
;
_chemical_formula_sum "Si O2"
_cell_formula_units_Z 14
_cell_length_a 9.153118
_cell_length_b 13.048096
_cell_length_c 10.766197
_cell_angle_alpha 145.802000
_cell_angle_beta 53.529410
_cell_angle_gamma 133.465901
_cell_volume 523.502605
_symmetry_space_group_name_H-M "P -1"
_symmetry_group_IT_number 2
_symmetry_cell_setting 'triclinic'
loop_
_space_group_symop_operation_xyz
x,y,z
-x,-y,-z
loop_
_atom_site_type_symbol
_atom_site_label
_atom_site_fract_x
_atom_site_fract_y
_atom_site_fract_z
Si Si1 0.697900 0.707167 0.126593
Si Si2 0.655013 0.798549 0.981163
Si Si3 0.976707 0.301002 0.587916
Si Si4 0.582204 0.135789 0.452128
Si Si5 0.033574 0.804110 0.240261
Si Si6 0.755452 0.928348 0.800018
Si Si7 0.366476 0.589323 0.531333
O O1 0.847730 0.677095 0.116128
O O2 0.612989 0.850332 0.379915
O O3 0.500000 0.500000 0.000000
O O4 0.778050 0.777559 0.017290
O O5 0.747765 0.953889 0.976178
O O6 0.583394 0.583027 0.733764
O O7 0.527090 0.902635 0.214781
O O8 0.956365 0.312140 0.757934
O O9 0.058655 0.129554 0.363316
O O10 0.161683 0.486514 0.611994
O O11 0.773315 0.234424 0.546140
O O12 0.646828 0.275810 0.439036
O O13 0.000000 0.000000 0.500000
O O14 0.214638 0.899084 0.143281
O O15 0.554614 0.736553 0.665399
#
# Coordination Sequence:
#
# PCOD9030726 Si02
#       7
#     2   2   2   2   2   2   2
#     4  12  26  45  75 108 145 192 243 302 365 432
#     4  11  24  43  75 102 145 190 244 287 375 412
#     4  10  22  42  73 104 145 190 238 298 360 423
#     4  12  25  45  71 109 145 189 245 303 356 440
#     4  10  22  43  74 105 145 195 239 293 367 430
#     4  10  23  44  75 104 148 194 240 298 362 435
#     4  11  24  46  74 106 150 189 243 301 359 430
#
# _framework density 26.742944999999999
#
# number of rings (size 3 to 8) (size 9 to 14) (size 15 to 20)
#    0.000    1.143    1.429    6.000    2.000    6.857 
#    2.571    0.714    3.143    0.857    0.000    0.000 
#    0.000    0.000    0.000    0.000    0.000    0.000 
#
# Total GULP energy -78336.038289 kJ/mol
# GULP energy per Si atom -5595.431306 kJ/mol
# Density = 2.668208 g / cm^3
# Si number density = 26.742945 Si / 1000 Ang^3
#
#
#
# Elastic Constant Matrix: (Units=GPa)
#
#
# Indices 1 2 3 4 5 6 
#
# 1 203.5592 98.4819 36.6511 -6.7191 37.3242 -22.3435
# 2 98.4819 213.7026 45.2760 -20.3858 32.6293 -42.1990
# 3 36.6511 45.2760 121.1384 8.4594 -3.6390 -3.3845
# 4 -6.7191 -20.3858 8.4594 31.7434 -1.6463 14.9444
# 5 37.3242 32.6293 -3.6390 -1.6463 36.9971 -1.7767
# 6 -22.3435 -42.1990 -3.3845 14.9444 -1.7767 67.6197
#
#
#
# Elastic Compliance Matrix: (Units=1/GPa)
#
#
# Indices 1 2 3 4 5 6 
#
# 1 0.007315 -0.001958 -0.001626 -0.000031 -0.005768 0.000970
# 2 -0.001958 0.007871 -0.002657 0.003582 -0.004914 0.003211
# 3 -0.001626 -0.002657 0.010160 -0.004214 0.004765 -0.000630
# 4 -0.000031 0.003582 -0.004214 0.037821 -0.002167 -0.006402
# 5 -0.005768 -0.004914 0.004765 -0.002167 0.037398 -0.003273
# 6 0.000970 0.003211 -0.000630 -0.006402 -0.003273 0.018410
#
#
# Mechanical properties :
#
#
# Convention : Reuss Voigt Hill
#
# Bulk Modulus (GPa) = 77.73259 99.91315 88.82287
# Shear Modulus (GPa) = 36.83392 51.13813 43.98602
#
# Velocity S-wave (km/s) = 3.71527 4.37763 4.05998
# Velocity P-wave (km/s) = 6.89449 7.93682 7.43395
#
# Compressibility (1/GPa) = 0.01286462
#
# Stress axis : x y z
#
# Youngs Moduli (GPa) = 136.69752 127.05396 98.42557
#
# Poissons Ratio (x) = 0.24871 0.16001
# Poissons Ratio (y) = 0.26759 0.26156
# Poissons Ratio (z) = 0.22223 0.33764
#
# Static dielectric constant tensor:
#      x y z
#    x 2.054920 0.004700 0.010390 
#    y 0.004700 2.169170 0.024160 
#    z 0.010390 0.024160 2.124250 
# 
# From -- ./inp_files/391562.got.cif
#   From: 2010.05.17/outbox.cif.g08.bks.cpg/sg2_196_cif.got.tgz:391562.got - 2010.06.03 11:33:40.
