data_PCOD9030451
_publ_section_title
;
Structure prediction by ZEFSAII (Michael W. Deem and Ramdas Pophale) SiO2 
 PCOD9030451
Probable space group: P -1
;
_chemical_formula_sum "Si O2"
_cell_formula_units_Z 16
_cell_length_a 14.820516
_cell_length_b 11.862960
_cell_length_c 8.131369
_cell_angle_alpha 70.400287
_cell_angle_beta 70.259098
_cell_angle_gamma 31.473902
_cell_volume 699.279004
_symmetry_space_group_name_H-M "P -1"
_symmetry_group_IT_number 2
_symmetry_cell_setting 'triclinic'
loop_
_space_group_symop_operation_xyz
x,y,z
-x,-y,-z
loop_
_atom_site_type_symbol
_atom_site_label
_atom_site_fract_x
_atom_site_fract_y
_atom_site_fract_z
Si Si1 0.980390 0.123226 0.702549
Si Si2 0.378368 0.945549 0.366054
Si Si3 0.352722 0.438780 0.126508
Si Si4 0.344749 0.791583 0.731718
Si Si5 0.019249 0.829820 0.685249
Si Si6 0.389748 0.493795 0.718757
Si Si7 0.536512 0.009432 0.157700
Si Si8 0.129615 0.257927 0.076627
O O1 0.811558 0.363132 0.756392
O O2 0.045410 0.107184 0.493903
O O3 0.145141 0.963599 0.800163
O O4 0.944361 0.022605 0.731047
O O5 0.342122 0.919376 0.572482
O O6 0.456747 0.756051 0.299482
O O7 0.518326 0.906624 0.321879
O O8 0.222554 0.163380 0.246325
O O9 0.523805 0.328064 0.142420
O O10 0.397969 0.252020 0.178042
O O11 0.321464 0.522087 0.924465
O O12 0.421030 0.602621 0.666022
O O13 0.225364 0.639406 0.632752
O O14 0.973005 0.759450 0.846387
O O15 0.719795 0.885485 0.082852
O O16 0.500000 0.000000 0.000000
O O17 0.000000 0.500000 0.000000
#
# Coordination Sequence:
#
# PCOD9030451 Si02
#       8
#     2   2   2   2   2   2   2   2
#     4  10  24  45  67 105 144 178 227 282 346 410
#     4  11  22  45  69  95 135 179 237 277 333 414
#     4  12  25  42  69 101 144 182 224 287 347 405
#     4  11  25  43  68 105 140 181 220 280 354 412
#     4  10  22  42  71 100 139 182 229 280 336 416
#     4  11  23  41  71 103 138 178 227 281 343 413
#     4  10  23  45  66  94 129 177 234 282 333 401
#     4  11  22  37  71 101 124 177 237 284 330 393
#
# _framework density 22.880709
#
# number of rings (size 3 to 8) (size 9 to 14) (size 15 to 20)
#    0.000    1.250    3.750    2.250    3.500    4.500 
#    0.000    0.625    0.000    0.000    0.000    0.000 
#    0.000    0.000    0.000    0.000    0.000    0.000 
#
# Total GULP energy -89451.907832 kJ/mol
# GULP energy per Si atom -5590.744240 kJ/mol
# Density = 2.282863 g / cm^3
# Si number density = 22.880709 Si / 1000 Ang^3
#
#
#
# Elastic Constant Matrix: (Units=GPa)
#
#
# Indices 1 2 3 4 5 6 
#
# 1 85.5985 34.6308 16.2172 -1.1607 -18.1164 10.2610
# 2 34.6308 149.3437 22.1921 4.1960 -1.4556 25.1677
# 3 16.2172 22.1921 56.1928 -7.2505 -21.8672 15.2902
# 4 -1.1607 4.1960 -7.2505 33.7102 7.9676 0.5857
# 5 -18.1164 -1.4556 -21.8672 7.9676 42.1696 -16.7870
# 6 10.2610 25.1677 15.2902 0.5857 -16.7870 37.3097
#
#
#
# Elastic Compliance Matrix: (Units=1/GPa)
#
#
# Indices 1 2 3 4 5 6 
#
# 1 0.014367 -0.003384 -0.000854 -0.000805 0.006389 0.001569
# 2 -0.003384 0.008909 -0.002883 -0.000564 -0.004974 -0.006126
# 3 -0.000854 -0.002883 0.024505 0.003214 0.010334 -0.003264
# 4 -0.000805 -0.000564 0.003214 0.031974 -0.006364 -0.004081
# 5 0.006389 -0.004974 0.010334 -0.006364 0.038785 0.014913
# 6 0.001569 -0.006126 -0.003264 -0.004081 0.014913 0.038616
#
#
# Mechanical properties :
#
#
# Convention : Reuss Voigt Hill
#
# Bulk Modulus (GPa) = 29.81666 48.57948 39.19807
# Shear Modulus (GPa) = 27.38577 37.17755 32.28166
#
# Velocity S-wave (km/s) = 3.46337 4.03531 3.76023
# Velocity P-wave (km/s) = 5.39007 6.55662 6.00176
#
# Compressibility (1/GPa) = 0.03353830
#
# Stress axis : x y z
#
# Youngs Moduli (GPa) = 69.60622 112.24812 40.80741
#
# Poissons Ratio (x) = 0.37984 0.03486
# Poissons Ratio (y) = 0.23554 0.11764
# Poissons Ratio (z) = 0.05947 0.32360
#
# Static dielectric constant tensor:
#      x y z
#    x 1.882710 -0.021300 -0.022950 
#    y -0.021300 1.823990 0.005480 
#    z -0.022950 0.005480 1.897560 
# 
# From -- ./inp_files/272316.got.cif
#   From: 2010.05.17/outbox.cif.g08.bks.cpg/sg2_137_cif.got.tgz:272316.got - 2010.06.03 11:33:40.
