data_PCOD9030685
_publ_section_title
;
Structure prediction by ZEFSAII (Michael W. Deem and Ramdas Pophale) SiO2 
 PCOD9030685
Probable space group: P -1
;
_chemical_formula_sum "Si O2"
_cell_formula_units_Z 16
_cell_length_a 9.773657
_cell_length_b 8.355448
_cell_length_c 11.457866
_cell_angle_alpha 54.768190
_cell_angle_beta 103.039652
_cell_angle_gamma 116.799799
_cell_volume 681.434430
_symmetry_space_group_name_H-M "P -1"
_symmetry_group_IT_number 2
_symmetry_cell_setting 'triclinic'
loop_
_space_group_symop_operation_xyz
x,y,z
-x,-y,-z
loop_
_atom_site_type_symbol
_atom_site_label
_atom_site_fract_x
_atom_site_fract_y
_atom_site_fract_z
Si Si1 0.090463 0.369438 0.132821
Si Si2 0.384747 0.575376 0.510032
Si Si3 0.115380 0.277592 0.444933
Si Si4 0.054577 0.949130 0.156949
Si Si5 0.215707 0.496535 0.727050
Si Si6 0.630410 0.414143 0.044469
Si Si7 0.612294 0.984687 0.730715
Si Si8 0.779267 0.037787 0.513118
O O1 0.071705 0.335190 0.283479
O O2 0.270661 0.515189 0.082198
O O3 0.047051 0.138646 0.159303
O O4 0.000000 0.500000 0.000000
O O5 0.500000 0.500000 0.500000
O O6 0.221138 0.479609 0.452734
O O7 0.349050 0.491641 0.670075
O O8 0.432247 0.824863 0.399948
O O9 0.959465 0.142875 0.539388
O O10 0.212489 0.131536 0.507407
O O11 0.939611 0.699280 0.259071
O O12 0.229679 0.965487 0.188746
O O13 0.000000 0.000000 0.000000
O O14 0.247391 0.475932 0.876288
O O15 0.236000 0.743133 0.614685
O O16 0.533511 0.168479 0.160045
O O17 0.500000 0.500000 0.000000
O O18 0.661986 0.915885 0.644584
#
# Coordination Sequence:
#
# PCOD9030685 Si02
#       8
#     2   2   2   2   2   2   2   2
#     4  12  27  45  71 103 142 188 230 287 349 419
#     4  11  28  41  66 103 140 178 223 294 351 409
#     4  11  23  44  67 101 144 172 231 285 351 410
#     4  12  23  45  69 101 131 180 238 283 336 416
#     4  11  25  43  72  99 136 176 237 280 349 415
#     4  12  24  46  71 100 135 188 232 282 343 419
#     4  11  24  45  72  98 137 183 235 283 351 415
#     4  10  22  42  72  98 129 181 221 286 344 414
#
# _framework density 23.479880000000001
#
# number of rings (size 3 to 8) (size 9 to 14) (size 15 to 20)
#    0.000    0.750    3.750    2.250    8.750    4.000 
#    0.000    0.625    0.000    0.000    0.000    0.000 
#    0.000    0.000    0.000    0.000    0.000    0.000 
#
# Total GULP energy -89357.712598 kJ/mol
# GULP energy per Si atom -5584.857037 kJ/mol
# Density = 2.342644 g / cm^3
# Si number density = 23.479880 Si / 1000 Ang^3
#
#
#
# Elastic Constant Matrix: (Units=GPa)
#
#
# Indices 1 2 3 4 5 6 
#
# 1 94.7968 -3.9390 11.6826 -7.2852 0.7371 0.9256
# 2 -3.9390 53.9087 13.6385 -15.2006 0.7065 21.5099
# 3 11.6826 13.6385 93.5509 -7.3678 1.5387 6.3863
# 4 -7.2852 -15.2006 -7.3678 35.7822 3.7850 -1.2149
# 5 0.7371 0.7065 1.5387 3.7850 34.5796 -8.0252
# 6 0.9256 21.5099 6.3863 -1.2149 -8.0252 35.6512
#
#
#
# Elastic Compliance Matrix: (Units=1/GPa)
#
#
# Indices 1 2 3 4 5 6 
#
# 1 0.011113 0.002833 -0.001403 0.003222 -0.001018 -0.001866
# 2 0.002833 0.030874 -0.002389 0.013234 -0.006510 -0.019288
# 3 -0.001403 -0.002389 0.011356 0.001089 -0.000703 -0.000678
# 4 0.003222 0.013234 0.001089 0.034814 -0.006163 -0.008465
# 5 -0.001018 -0.006510 -0.000703 -0.006163 0.032368 0.011156
# 6 -0.001866 -0.019288 -0.000678 -0.008465 0.011156 0.042079
#
#
# Mechanical properties :
#
#
# Convention : Reuss Voigt Hill
#
# Bulk Modulus (GPa) = 19.44510 31.66896 25.55703
# Shear Modulus (GPa) = 27.52321 35.92753 31.72537
#
# Velocity S-wave (km/s) = 3.42746 3.91595 3.67982
# Velocity P-wave (km/s) = 4.89519 5.82779 5.38173
#
# Compressibility (1/GPa) = 0.05142684
#
# Stress axis : x y z
#
# Youngs Moduli (GPa) = 89.98278 32.38949 88.05564
#
# Poissons Ratio (x) = -0.09177 0.12354
# Poissons Ratio (y) = -0.25495 0.21035
# Poissons Ratio (z) = 0.12625 0.07737
#
# Static dielectric constant tensor:
#      x y z
#    x 1.897900 0.017620 0.009300 
#    y 0.017620 1.948860 -0.062640 
#    z 0.009300 -0.062640 2.064300 
# 
# From -- ./inp_files/297707.got.cif
#   From: 2010.05.17/outbox.cif.g08.bks.cpg/sg2_149_cif.got.tgz:297707.got - 2010.06.03 11:33:40.
