data_PCOD9030325
_publ_section_title
;
Structure prediction by ZEFSAII (Michael W. Deem and Ramdas Pophale) SiO2 
 PCOD9030325
Probable space group: P -1
;
_chemical_formula_sum "Si O2"
_cell_formula_units_Z 10
_cell_length_a 8.225432
_cell_length_b 11.421404
_cell_length_c 7.836454
_cell_angle_alpha 66.155221
_cell_angle_beta 85.161609
_cell_angle_gamma 38.290382
_cell_volume 380.373721
_symmetry_space_group_name_H-M "P -1"
_symmetry_group_IT_number 2
_symmetry_cell_setting 'triclinic'
loop_
_space_group_symop_operation_xyz
x,y,z
-x,-y,-z
loop_
_atom_site_type_symbol
_atom_site_label
_atom_site_fract_x
_atom_site_fract_y
_atom_site_fract_z
Si Si1 0.879529 0.606297 0.138161
Si Si2 0.665541 0.177583 0.416042
Si Si3 0.856604 0.328605 0.748768
Si Si4 0.525412 0.323288 0.952680
Si Si5 0.055247 0.236322 0.420743
O O1 0.552946 0.763877 0.072588
O O2 0.059825 0.385638 0.361192
O O3 0.948252 0.701866 0.139348
O O4 0.000000 0.500000 0.000000
O O5 0.440421 0.399227 0.422063
O O6 0.557471 0.282407 0.174031
O O7 0.000000 0.000000 0.500000
O O8 0.687759 0.009799 0.538488
O O9 0.770897 0.253410 0.894421
O O10 0.000197 0.210827 0.624612
O O11 0.228076 0.590237 0.775974
#
# Coordination Sequence:
#
# PCOD9030325 Si02
#       5
#     2   2   2   2   2
#     4  10  22  42  70  92 134 176 208 272 327 375
#     4  12  24  40  71  99 125 179 219 258 334 387
#     4  12  22  46  70  92 139 169 211 282 315 380
#     4  10  24  44  66  97 134 168 221 266 324 388
#     4  10  25  44  64 102 129 170 223 261 327 388
#
# _framework density 26.289935
#
# number of rings (size 3 to 8) (size 9 to 14) (size 15 to 20)
#    1.200    0.000    4.000    1.800    2.800    1.600 
#    0.000    1.000    0.000    0.000    0.000    0.000 
#    0.000    0.000    0.000    0.000    0.000    0.000 
#
# Total GULP energy -55908.259183 kJ/mol
# GULP energy per Si atom -5590.825918 kJ/mol
# Density = 2.623010 g / cm^3
# Si number density = 26.289935 Si / 1000 Ang^3
#
#
#
# Elastic Constant Matrix: (Units=GPa)
#
#
# Indices 1 2 3 4 5 6 
#
# 1 201.0821 18.4742 24.1467 -2.1740 9.0579 9.5742
# 2 18.4742 98.7064 13.2192 -26.2996 1.8651 20.4185
# 3 24.1467 13.2192 84.5766 2.3608 7.9957 2.7574
# 4 -2.1740 -26.2996 2.3608 31.0894 -1.6188 -4.6636
# 5 9.0579 1.8651 7.9957 -1.6188 45.7064 1.7201
# 6 9.5742 20.4185 2.7574 -4.6636 1.7201 16.8975
#
#
#
# Elastic Compliance Matrix: (Units=1/GPa)
#
#
# Indices 1 2 3 4 5 6 
#
# 1 0.005306 -0.000392 -0.001302 -0.000247 -0.000729 -0.002314
# 2 -0.000392 0.017309 -0.002466 0.012300 0.000878 -0.016986
# 3 -0.001302 -0.002466 0.012828 -0.003111 -0.002032 0.000973
# 4 -0.000247 0.012300 -0.003111 0.042478 0.001696 -0.002664
# 5 -0.000729 0.000878 -0.002032 0.001696 0.022483 -0.002136
# 6 -0.002314 -0.016986 0.000973 -0.002664 -0.002136 0.080340
#
#
# Mechanical properties :
#
#
# Convention : Reuss Voigt Hill
#
# Bulk Modulus (GPa) = 36.86969 55.11615 45.99292
# Shear Modulus (GPa) = 25.23904 40.64031 32.93967
#
# Velocity S-wave (km/s) = 3.10179 3.93600 3.54353
# Velocity P-wave (km/s) = 5.18487 6.45495 5.85445
#
# Compressibility (1/GPa) = 0.02712255
#
# Stress axis : x y z
#
# Youngs Moduli (GPa) = 188.47126 57.77345 77.95394
#
# Poissons Ratio (x) = 0.02264 0.10152
# Poissons Ratio (y) = 0.07387 0.19223
# Poissons Ratio (z) = 0.24544 0.14247
#
# Static dielectric constant tensor:
#      x y z
#    x 2.295890 0.015760 -0.086510 
#    y 0.015760 2.019770 -0.043350 
#    z -0.086510 -0.043350 2.058720 
# 
# From -- ./inp_files/59067.got.cif
#   From: 2010.05.17/outbox.cif.g08.bks.cpg/sg2_30_cif.got.tgz:59067.got - 2010.06.03 11:33:40.
