data_PCOD9030180
_publ_section_title
;
Structure prediction by ZEFSAII (Michael W. Deem and Ramdas Pophale) SiO2 
 PCOD9030180
Probable space group: P -1
;
_chemical_formula_sum "Si O2"
_cell_formula_units_Z 12
_cell_length_a 14.135234
_cell_length_b 10.040586
_cell_length_c 7.284295
_cell_angle_alpha 84.216110
_cell_angle_beta 82.253720
_cell_angle_gamma 146.515571
_cell_volume 520.421776
_symmetry_space_group_name_H-M "P -1"
_symmetry_group_IT_number 2
_symmetry_cell_setting 'triclinic'
loop_
_space_group_symop_operation_xyz
x,y,z
-x,-y,-z
loop_
_atom_site_type_symbol
_atom_site_label
_atom_site_fract_x
_atom_site_fract_y
_atom_site_fract_z
Si Si1 0.121218 0.239704 0.802531
Si Si2 0.642317 0.543540 0.630233
Si Si3 0.653818 0.293269 0.857664
Si Si4 0.110523 0.505431 0.897222
Si Si5 0.452024 0.278403 0.347929
Si Si6 0.786874 0.267290 0.524219
O O1 0.172395 0.254723 0.577116
O O2 0.036019 0.286941 0.833033
O O3 0.333720 0.493140 0.791590
O O4 0.000000 0.000000 0.000000
O O5 0.612625 0.396875 0.812801
O O6 0.472219 0.318283 0.559604
O O7 0.629011 0.676351 0.695511
O O8 0.720237 0.315626 0.643794
O O9 0.810932 0.465977 0.944748
O O10 0.500000 0.000000 0.000000
O O11 0.244220 0.735482 0.680432
O O12 0.000000 0.500000 0.000000
O O13 0.328223 0.004156 0.362433
O O14 0.000000 0.500000 0.500000
#
# Coordination Sequence:
#
# PCOD9030180 Si02
#       6
#     2   2   2   2   2   2
#     4  10  22  42  70 100 137 182 233 288 351 413
#     4   9  21  44  72 103 141 186 232 295 359 420
#     4  12  25  43  71 108 140 187 239 292 359 424
#     4  12  26  43  69 104 142 186 236 292 354 422
#     4   9  21  44  74  98 140 187 228 294 359 414
#     4  12  24  47  69 102 142 188 240 293 349 423
#
# _framework density 23.058221
#
# number of rings (size 3 to 8) (size 9 to 14) (size 15 to 20)
#    1.000    0.333    3.333    2.000    2.333    3.333 
#    3.000    3.333    0.000    0.000    0.000    0.000 
#    0.000    0.000    0.000    0.000    0.000    0.000 
#
# Total GULP energy -66919.274680 kJ/mol
# GULP energy per Si atom -5576.606223 kJ/mol
# Density = 2.300574 g / cm^3
# Si number density = 23.058221 Si / 1000 Ang^3
#
#
#
# Elastic Constant Matrix: (Units=GPa)
#
#
# Indices 1 2 3 4 5 6 
#
# 1 102.7469 33.9123 31.0671 -8.6297 23.2983 -39.2085
# 2 33.9123 83.9653 16.2026 -20.0574 2.1480 -16.9449
# 3 31.0671 16.2026 97.5895 -10.3855 13.6887 -8.5747
# 4 -8.6297 -20.0574 -10.3855 47.2110 -10.7064 -0.5999
# 5 23.2983 2.1480 13.6887 -10.7064 43.8599 -3.7601
# 6 -39.2085 -16.9449 -8.5747 -0.5999 -3.7601 43.6955
#
#
#
# Elastic Compliance Matrix: (Units=1/GPa)
#
#
# Indices 1 2 3 4 5 6 
#
# 1 0.019333 -0.004234 -0.003127 -0.000583 -0.007995 0.014396
# 2 -0.004234 0.015780 -0.000847 0.006585 0.003567 0.002551
# 3 -0.003127 -0.000847 0.011670 0.001233 -0.001722 -0.000976
# 4 -0.000583 0.006585 0.001233 0.025570 0.006114 0.003150
# 5 -0.007995 0.003567 -0.001722 0.006114 0.028595 -0.003584
# 6 0.014396 0.002551 -0.000976 0.003150 -0.003584 0.036336
#
#
# Mechanical properties :
#
#
# Convention : Reuss Voigt Hill
#
# Bulk Modulus (GPa) = 32.93235 49.62953 41.28094
# Shear Modulus (GPa) = 30.52040 40.49458 35.50749
#
# Velocity S-wave (km/s) = 3.64211 4.19524 3.92842
# Velocity P-wave (km/s) = 5.65684 6.71096 6.20632
#
# Compressibility (1/GPa) = 0.03036528
#
# Stress axis : x y z
#
# Youngs Moduli (GPa) = 51.72406 63.37154 85.68772
#
# Poissons Ratio (x) = 0.26834 0.26798
# Poissons Ratio (y) = 0.21902 0.07261
# Poissons Ratio (z) = 0.16176 0.05370
#
# Static dielectric constant tensor:
#      x y z
#    x 1.926210 0.025090 -0.037910 
#    y 0.025090 1.887390 0.001540 
#    z -0.037910 0.001540 1.907450 
# 
# From -- ./inp_files/294835.got.cif
#   From: 2010.05.17/outbox.cif.g08.bks.cpg/sg2_148_cif.got.tgz:294835.got - 2010.06.03 11:33:40.
