data_PCOD9030072
_publ_section_title
;
Structure prediction by ZEFSAII (Michael W. Deem and Ramdas Pophale) SiO2 
 PCOD9030072
Probable space group: P -1
;
_chemical_formula_sum "Si O2"
_cell_formula_units_Z 16
_cell_length_a 12.250698
_cell_length_b 27.504243
_cell_length_c 8.312751
_cell_angle_alpha 151.689153
_cell_angle_beta 141.635229
_cell_angle_gamma 26.859508
_cell_volume 600.149035
_symmetry_space_group_name_H-M "P -1"
_symmetry_group_IT_number 2
_symmetry_cell_setting 'triclinic'
loop_
_space_group_symop_operation_xyz
x,y,z
-x,-y,-z
loop_
_atom_site_type_symbol
_atom_site_label
_atom_site_fract_x
_atom_site_fract_y
_atom_site_fract_z
Si Si1 0.176043 0.349516 0.853346
Si Si2 0.670796 0.823483 0.792255
Si Si3 0.300236 0.661265 0.874187
Si Si4 0.172447 0.031267 0.673054
Si Si5 0.591632 0.684102 0.493832
Si Si6 0.890295 0.003404 0.048552
Si Si7 0.440108 0.414024 0.515969
Si Si8 0.911420 0.291238 0.571104
O O1 0.242560 0.241287 0.476100
O O2 0.053149 0.338785 0.830090
O O3 0.399423 0.327930 0.111381
O O4 0.000000 0.500000 0.000000
O O5 0.759919 0.705934 0.682160
O O6 0.381227 0.929127 0.745189
O O7 0.726241 0.917943 0.174710
O O8 0.298365 0.563042 0.701021
O O9 0.273102 0.643067 0.604492
O O10 0.517717 0.645617 0.141053
O O11 0.064641 0.821685 0.104319
O O12 0.085252 0.965829 0.293708
O O13 0.660847 0.578733 0.406669
O O14 0.360416 0.837081 0.746798
O O15 0.895835 0.878343 0.696183
O O16 0.000000 0.000000 0.000000
O O17 0.718860 0.340812 0.633118
#
# Coordination Sequence:
#
# PCOD9030072 Si02
#       8
#     2   2   2   2   2   2   2   2
#     4  12  26  46  71 104 135 177 236 279 335 407
#     4  11  23  43  68 101 132 174 230 282 334 404
#     4  11  22  44  67  96 131 178 235 271 333 407
#     4  10  22  42  69  95 132 175 230 281 331 396
#     4  11  25  41  68  98 140 178 220 284 350 399
#     4  11  23  43  63 100 139 175 226 277 343 409
#     4  12  25  45  67 104 138 180 224 281 344 407
#     4  12  24  44  74  98 135 184 227 283 334 402
#
# _framework density 26.660045
#
# number of rings (size 3 to 8) (size 9 to 14) (size 15 to 20)
#    0.000    0.750    3.750    3.750    3.500    3.000 
#    0.000    2.500    0.000    0.000    0.000    0.000 
#    0.000    0.000    0.000    0.000    0.000    0.000 
#
# Total GULP energy -89643.095586 kJ/mol
# GULP energy per Si atom -5602.693474 kJ/mol
# Density = 2.659937 g / cm^3
# Si number density = 26.660045 Si / 1000 Ang^3
#
#
#
# Elastic Constant Matrix: (Units=GPa)
#
#
# Indices 1 2 3 4 5 6 
#
# 1 129.4901 19.9757 28.7450 9.8826 41.0255 19.0684
# 2 19.9757 71.1695 18.8989 21.5082 7.9941 -1.7977
# 3 28.7450 18.8989 96.7540 17.9753 37.0156 -1.0162
# 4 9.8826 21.5082 17.9753 23.3602 3.9337 12.3502
# 5 41.0255 7.9941 37.0156 3.9337 54.0517 8.9844
# 6 19.0684 -1.7977 -1.0162 12.3502 8.9844 42.0820
#
#
#
# Elastic Compliance Matrix: (Units=1/GPa)
#
#
# Indices 1 2 3 4 5 6 
#
# 1 0.010949 -0.002712 -0.000284 0.001383 -0.007158 -0.003962
# 2 -0.002712 0.022977 0.002650 -0.027323 -0.002983 0.010930
# 3 -0.000284 0.002650 0.018532 -0.019203 -0.012982 0.009096
# 4 0.001383 -0.027323 -0.019203 0.097692 0.014695 -0.034065
# 5 -0.007158 -0.002983 -0.012982 0.014695 0.033640 -0.008692
# 6 -0.003962 0.010930 0.009096 -0.034065 -0.008692 0.038098
#
#
# Mechanical properties :
#
#
# Convention : Reuss Voigt Hill
#
# Bulk Modulus (GPa) = 19.31737 48.07253 33.69495
# Shear Modulus (GPa) = 20.84760 39.21838 30.03299
#
# Velocity S-wave (km/s) = 2.79942 3.83959 3.36000
# Velocity P-wave (km/s) = 4.20839 6.14227 5.26489
#
# Compressibility (1/GPa) = 0.05176689
#
# Stress axis : x y z
#
# Youngs Moduli (GPa) = 91.32876 43.52165 53.96106
#
# Poissons Ratio (x) = 0.11803 0.01530
# Poissons Ratio (y) = 0.24768 -0.14298
# Poissons Ratio (z) = 0.02589 -0.11532
#
# Static dielectric constant tensor:
#      x y z
#    x 2.205520 -0.028630 -0.021010 
#    y -0.028630 2.087500 -0.000410 
#    z -0.021010 -0.000410 2.090520 
# 
# From -- ./inp_files/217320.got.cif
#   From: 2010.05.17/outbox.cif.g08.bks.cpg/sg2_109_cif.got.tgz:217320.got - 2010.06.03 11:33:40.
