data_PCOD9030858
_publ_section_title
;
Structure prediction by ZEFSAII (Michael W. Deem and Ramdas Pophale) SiO2 
 PCOD9030858
Probable space group: P -1
;
_chemical_formula_sum "Si O2"
_cell_formula_units_Z 14
_cell_length_a 15.032132
_cell_length_b 7.496262
_cell_length_c 5.187122
_cell_angle_alpha 96.032693
_cell_angle_beta 69.955431
_cell_angle_gamma 85.921429
_cell_volume 542.459699
_symmetry_space_group_name_H-M "P -1"
_symmetry_group_IT_number 2
_symmetry_cell_setting 'triclinic'
loop_
_space_group_symop_operation_xyz
x,y,z
-x,-y,-z
loop_
_atom_site_type_symbol
_atom_site_label
_atom_site_fract_x
_atom_site_fract_y
_atom_site_fract_z
Si Si1 0.121768 0.776147 0.764319
Si Si2 0.289176 0.504317 0.793888
Si Si3 0.937016 0.894287 0.740780
Si Si4 0.282748 0.816019 0.234799
Si Si5 0.455199 0.202008 0.157291
Si Si6 0.263204 0.183108 0.114738
Si Si7 0.440705 0.703329 0.414341
O O1 0.191637 0.608857 0.785822
O O2 0.179519 0.828590 0.464172
O O3 0.014490 0.750574 0.784418
O O4 0.106553 0.951489 0.990953
O O5 0.381331 0.541405 0.539880
O O6 0.303572 0.622869 0.053991
O O7 0.276800 0.305832 0.874125
O O8 0.848768 0.799274 0.702744
O O9 0.000000 0.000000 0.500000
O O10 0.354571 0.838091 0.399736
O O11 0.290212 0.967723 0.037373
O O12 0.340520 0.227927 0.255824
O O13 0.505239 0.230497 0.383535
O O14 0.488951 0.319750 0.902093
O O15 0.500000 0.000000 0.000000
#
# Coordination Sequence:
#
# PCOD9030858 Si02
#       7
#     2   2   2   2   2   2   2
#     4  10  22  42  76  97 145 190 230 302 379 421
#     4  11  24  47  71 110 143 193 237 303 361 438
#     4  11  22  45  73 103 137 192 239 300 373 434
#     4  11  22  48  72 101 149 188 239 302 362 431
#     4  12  25  44  74 109 145 198 249 297 360 436
#     4  12  26  43  75 107 139 191 251 294 363 445
#     4  11  24  47  72  99 155 195 233 307 365 414
#
# _framework density 25.808368999999999
#
# number of rings (size 3 to 8) (size 9 to 14) (size 15 to 20)
#    0.000    0.857    5.714    0.429    2.000    1.714 
#   10.286    2.857    0.000    0.000    0.000    0.000 
#    0.000    0.000    0.000    0.000    0.000    0.000 
#
# Total GULP energy -78296.572321 kJ/mol
# GULP energy per Si atom -5592.612309 kJ/mol
# Density = 2.574963 g / cm^3
# Si number density = 25.808369 Si / 1000 Ang^3
#
#
#
# Elastic Constant Matrix: (Units=GPa)
#
#
# Indices 1 2 3 4 5 6 
#
# 1 279.9569 48.9247 47.3644 -10.8963 -0.4139 -23.2644
# 2 48.9247 156.8339 49.9068 -31.8769 -2.1389 -18.1122
# 3 47.3644 49.9068 134.4360 -23.3354 1.9431 10.7757
# 4 -10.8963 -31.8769 -23.3354 35.7614 0.0590 -4.4915
# 5 -0.4139 -2.1389 1.9431 0.0590 37.6141 -10.9797
# 6 -23.2644 -18.1122 10.7757 -4.4915 -10.9797 38.4930
#
#
#
# Elastic Compliance Matrix: (Units=1/GPa)
#
#
# Indices 1 2 3 4 5 6 
#
# 1 0.004169 -0.000375 -0.001537 0.000321 0.001008 0.003099
# 2 -0.000375 0.009730 -0.002738 0.007617 0.002653 0.006764
# 3 -0.001537 -0.002738 0.009962 0.002929 -0.002240 -0.005303
# 4 0.000321 0.007617 0.002929 0.037776 0.002592 0.008105
# 5 0.001008 0.002653 -0.002240 0.002592 0.030186 0.011397
# 6 0.003099 0.006764 -0.005303 0.008105 0.011397 0.036716
#
#
# Mechanical properties :
#
#
# Convention : Reuss Voigt Hill
#
# Bulk Modulus (GPa) = 68.67445 95.95763 82.31604
# Shear Modulus (GPa) = 35.04026 50.70909 42.87468
#
# Velocity S-wave (km/s) = 3.68871 4.43745 4.08029
# Velocity P-wave (km/s) = 6.69397 7.96970 7.35953
#
# Compressibility (1/GPa) = 0.01456146
#
# Stress axis : x y z
#
# Youngs Moduli (GPa) = 239.86865 102.77496 100.37657
#
# Poissons Ratio (x) = 0.03850 0.15428
# Poissons Ratio (y) = 0.08986 0.27487
# Poissons Ratio (z) = 0.36867 0.28144
#
# Static dielectric constant tensor:
#      x y z
#    x 2.105620 -0.021120 0.008210 
#    y -0.021120 2.089610 0.009150 
#    z 0.008210 0.009150 2.033180 
# 
# From -- ./inp_files/90642.got.cif
#   From: 2010.05.17/outbox.cif.g08.bks.cpg/sg2_46_cif.got.tgz:90642.got - 2010.06.03 11:33:40.
