data_PCOD9030294
_publ_section_title
;
Structure prediction by ZEFSAII (Michael W. Deem and Ramdas Pophale) SiO2 
 PCOD9030294
Probable space group: P -1
;
_chemical_formula_sum "Si O2"
_cell_formula_units_Z 14
_cell_length_a 9.565339
_cell_length_b 7.701111
_cell_length_c 21.230741
_cell_angle_alpha 46.857230
_cell_angle_beta 33.488766
_cell_angle_gamma 45.602844
_cell_volume 596.274673
_symmetry_space_group_name_H-M "P -1"
_symmetry_group_IT_number 2
_symmetry_cell_setting 'triclinic'
loop_
_space_group_symop_operation_xyz
x,y,z
-x,-y,-z
loop_
_atom_site_type_symbol
_atom_site_label
_atom_site_fract_x
_atom_site_fract_y
_atom_site_fract_z
Si Si1 0.429899 0.730379 0.515447
Si Si2 0.865478 0.965559 0.724058
Si Si3 0.644958 0.631279 0.205544
Si Si4 0.414862 0.956397 0.973146
Si Si5 0.034154 0.414441 0.581070
Si Si6 0.935257 0.874141 0.119438
Si Si7 0.499179 0.196985 0.298705
O O1 0.500000 0.500000 0.500000
O O2 0.657982 0.644449 0.503673
O O3 0.535875 0.027180 0.591131
O O4 0.125697 0.799205 0.633597
O O5 0.643044 0.170241 0.714731
O O6 0.688025 0.833822 0.862145
O O7 0.966392 0.156808 0.681268
O O8 0.702326 0.773723 0.085758
O O9 0.619612 0.373066 0.253393
O O10 0.839639 0.649507 0.183789
O O11 0.196802 0.817536 0.079267
O O12 0.500000 0.000000 0.000000
O O13 0.000000 0.500000 0.500000
O O14 0.799751 0.627955 0.652077
O O15 0.695771 0.072741 0.198574
O O16 0.000000 0.000000 0.000000
#
# Coordination Sequence:
#
# PCOD9030294 Si02
#       7
#     2   2   2   2   2   2   2
#     4  12  28  44  72 109 141 186 242 298 366 430
#     4   9  21  43  68 101 145 178 240 289 355 431
#     4   8  21  43  73 101 143 194 234 295 366 412
#     4   9  20  38  73 105 145 188 240 293 358 427
#     4  11  24  45  73 102 138 194 235 293 369 427
#     4  10  22  42  70 108 139 187 247 289 355 428
#     4  11  25  45  76 104 150 186 243 303 356 438
#
# _framework density 23.479112000000001
#
# number of rings (size 3 to 8) (size 9 to 14) (size 15 to 20)
#    0.857    1.143    1.429    0.429    4.000    5.143 
#    0.000    1.429    0.000    7.714    0.000    0.000 
#    0.000    0.000    0.000    0.000    0.000    0.000 
#
# Total GULP energy -78184.269974 kJ/mol
# GULP energy per Si atom -5584.590712 kJ/mol
# Density = 2.342567 g / cm^3
# Si number density = 23.479112 Si / 1000 Ang^3
#
#
#
# Elastic Constant Matrix: (Units=GPa)
#
#
# Indices 1 2 3 4 5 6 
#
# 1 119.8140 34.7562 29.3831 1.3870 -13.2953 13.3779
# 2 34.7562 116.5341 39.7375 12.6606 7.2159 16.0378
# 3 29.3831 39.7375 115.6913 31.3528 6.4699 5.3513
# 4 1.3870 12.6606 31.3528 36.3051 7.8783 -3.3585
# 5 -13.2953 7.2159 6.4699 7.8783 28.2558 -4.4995
# 6 13.3779 16.0378 5.3513 -3.3585 -4.4995 26.1448
#
#
#
# Elastic Compliance Matrix: (Units=1/GPa)
#
#
# Indices 1 2 3 4 5 6 
#
# 1 0.010473 -0.002476 -0.002292 0.001052 0.005425 -0.002303
# 2 -0.002476 0.011386 -0.002358 -0.001521 -0.004085 -0.006133
# 3 -0.002292 -0.002358 0.012914 -0.010201 -0.000824 -0.001477
# 4 0.001052 -0.001521 -0.010201 0.038864 -0.006608 0.006338
# 5 0.005425 -0.004085 -0.000824 -0.006608 0.042018 0.006281
# 6 -0.002303 -0.006133 -0.001477 0.006338 0.006281 0.045386
#
#
# Mechanical properties :
#
#
# Convention : Reuss Voigt Hill
#
# Bulk Modulus (GPa) = 48.72445 62.19922 55.46183
# Shear Modulus (GPa) = 27.45244 34.68531 31.06888
#
# Velocity S-wave (km/s) = 3.42311 3.84771 3.64160
# Velocity P-wave (km/s) = 6.03497 6.80358 6.43077
#
# Compressibility (1/GPa) = 0.02052358
#
# Stress axis : x y z
#
# Youngs Moduli (GPa) = 95.48081 87.82895 77.43294
#
# Poissons Ratio (x) = 0.21742 0.17745
# Poissons Ratio (y) = 0.23636 0.18257
# Poissons Ratio (z) = 0.21881 0.20708
#
# Static dielectric constant tensor:
#      x y z
#    x 2.908050 -0.812690 -0.460620 
#    y -0.812690 2.543210 0.309300 
#    z -0.460620 0.309300 2.129620 
# 
# From -- ./inp_files/586648.got.cif
#   From: 2010.05.17/outbox.cif.g08.bks.cpg/sg2_294_cif.got.tgz:586648.got - 2010.06.03 11:33:40.
