data_PCOD9030357
_publ_section_title
;
Structure prediction by ZEFSAII (Michael W. Deem and Ramdas Pophale) SiO2 
 PCOD9030357
Probable space group: P -1
;
_chemical_formula_sum "Si O2"
_cell_formula_units_Z 16
_cell_length_a 20.199144
_cell_length_b 7.907785
_cell_length_c 8.794962
_cell_angle_alpha 127.357116
_cell_angle_beta 119.207534
_cell_angle_gamma 46.513761
_cell_volume 804.115364
_symmetry_space_group_name_H-M "P -1"
_symmetry_group_IT_number 2
_symmetry_cell_setting 'triclinic'
loop_
_space_group_symop_operation_xyz
x,y,z
-x,-y,-z
loop_
_atom_site_type_symbol
_atom_site_label
_atom_site_fract_x
_atom_site_fract_y
_atom_site_fract_z
Si Si1 0.543808 0.712653 0.331458
Si Si2 0.276699 0.537202 0.146359
Si Si3 0.903036 0.663381 0.893335
Si Si4 0.739021 0.275426 0.438262
Si Si5 0.909528 0.255724 0.471287
Si Si6 0.597780 0.419165 0.929962
Si Si7 0.905085 0.144193 0.063572
Si Si8 0.279802 0.076848 0.984296
O O1 0.643946 0.532923 0.419293
O O2 0.480957 0.606662 0.242775
O O3 0.500000 0.000000 0.500000
O O4 0.557516 0.656258 0.133793
O O5 0.253202 0.707145 0.363874
O O6 0.341481 0.563949 0.119731
O O7 0.181162 0.637197 0.009065
O O8 0.320364 0.243254 0.085298
O O9 0.904829 0.497558 0.666332
O O10 0.819162 0.731596 0.944804
O O11 0.000000 0.500000 0.000000
O O12 0.886026 0.928944 0.965307
O O13 0.822377 0.259796 0.436318
O O14 0.733980 0.042346 0.246471
O O15 0.913062 0.249057 0.290405
O O16 0.000000 0.000000 0.500000
O O17 0.659671 0.161221 0.962172
O O18 0.000000 0.000000 0.000000
#
# Coordination Sequence:
#
# PCOD9030357 Si02
#       8
#     2   2   2   2   2   2   2   2
#     4  10  22  42  70  95 134 179 222 272 342 397
#     4  12  24  41  68  99 135 173 225 277 329 401
#     4  12  22  40  68  91 129 177 214 271 330 387
#     4  11  23  41  67  99 130 178 223 271 336 401
#     4  12  23  42  69  94 133 178 221 270 333 394
#     4  10  23  44  65  98 134 171 224 282 326 397
#     4  12  25  40  62 100 135 171 230 275 325 400
#     4  11  22  44  66  94 134 178 217 271 341 385
#
# _framework density 19.897642999999999
#
# number of rings (size 3 to 8) (size 9 to 14) (size 15 to 20)
#    0.000    0.750    5.000    3.000    0.000    3.000 
#    0.000    8.750    0.000    0.000    0.000    0.000 
#    0.000    0.000    0.000    0.000    0.000    0.000 
#
# Total GULP energy -89472.834530 kJ/mol
# GULP energy per Si atom -5592.052158 kJ/mol
# Density = 1.985236 g / cm^3
# Si number density = 19.897643 Si / 1000 Ang^3
#
#
#
# Elastic Constant Matrix: (Units=GPa)
#
#
# Indices 1 2 3 4 5 6 
#
# 1 128.5801 32.4698 43.2518 -8.1094 -18.0623 -10.0039
# 2 32.4698 81.0192 38.9457 3.1347 -3.5890 -13.7825
# 3 43.2518 38.9457 174.5477 11.7280 -16.2169 -1.3132
# 4 -8.1094 3.1347 11.7280 31.5835 -0.7437 6.4555
# 5 -18.0623 -3.5890 -16.2169 -0.7437 32.8803 2.2439
# 6 -10.0039 -13.7825 -1.3132 6.4555 2.2439 42.0682
#
#
#
# Elastic Compliance Matrix: (Units=1/GPa)
#
#
# Indices 1 2 3 4 5 6 
#
# 1 0.009970 -0.003069 -0.001605 0.003451 0.004390 0.000551
# 2 -0.003069 0.015703 -0.002705 -0.002359 -0.001686 0.004782
# 3 -0.001605 -0.002705 0.007114 -0.002572 0.002326 -0.000775
# 4 0.003451 -0.002359 -0.002572 0.034891 0.001532 -0.005468
# 5 0.004390 -0.001686 0.002326 0.001532 0.033924 -0.001480
# 6 0.000551 0.004782 -0.000775 -0.005468 -0.001480 0.026363
#
#
# Mechanical properties :
#
#
# Convention : Reuss Voigt Hill
#
# Bulk Modulus (GPa) = 55.47305 68.16462 61.81884
# Shear Modulus (GPa) = 33.61723 39.27172 36.44447
#
# Velocity S-wave (km/s) = 4.11482 4.44744 4.28436
# Velocity P-wave (km/s) = 7.10742 7.79134 7.45722
#
# Compressibility (1/GPa) = 0.01802677
#
# Stress axis : x y z
#
# Youngs Moduli (GPa) = 100.30507 63.68066 140.57462
#
# Poissons Ratio (x) = 0.19543 0.22569
# Poissons Ratio (y) = 0.30783 0.38032
# Poissons Ratio (z) = 0.16104 0.17229
#
# Static dielectric constant tensor:
#      x y z
#    x 1.686480 -0.035370 0.018770 
#    y -0.035370 1.689440 0.035470 
#    z 0.018770 0.035470 1.671390 
# 
# From -- ./inp_files/215327.got.cif
#   From: 2010.05.17/outbox.cif.g08.bks.cpg/sg2_108_cif.got.tgz:215327.got - 2010.06.03 11:33:40.
