data_PCOD9030669
_publ_section_title
;
Structure prediction by ZEFSAII (Michael W. Deem and Ramdas Pophale) SiO2 
 PCOD9030669
Probable space group: P -1
;
_chemical_formula_sum "Si O2"
_cell_formula_units_Z 14
_cell_length_a 15.996708
_cell_length_b 12.366869
_cell_length_c 8.846581
_cell_angle_alpha 55.912720
_cell_angle_beta 129.042128
_cell_angle_gamma 156.957946
_cell_volume 530.971896
_symmetry_space_group_name_H-M "P -1"
_symmetry_group_IT_number 2
_symmetry_cell_setting 'triclinic'
loop_
_space_group_symop_operation_xyz
x,y,z
-x,-y,-z
loop_
_atom_site_type_symbol
_atom_site_label
_atom_site_fract_x
_atom_site_fract_y
_atom_site_fract_z
Si Si1 0.291821 0.892575 0.929816
Si Si2 0.059530 0.385475 0.007569
Si Si3 0.224719 0.944217 0.367507
Si Si4 0.611614 0.430709 0.206364
Si Si5 0.629541 0.174756 0.355141
Si Si6 0.173721 0.088560 0.805258
Si Si7 0.323361 0.194649 0.570056
O O1 0.231533 0.689116 0.944078
O O2 0.393679 0.121990 0.768446
O O3 0.068102 0.709587 0.905972
O O4 0.441960 0.008758 0.149957
O O5 0.921739 0.230643 0.814473
O O6 0.062379 0.233014 0.161039
O O7 0.474100 0.250694 0.343859
O O8 0.234791 0.808160 0.548902
O O9 0.197500 0.020187 0.408858
O O10 0.739625 0.434569 0.302247
O O11 0.777387 0.726424 0.197258
O O12 0.407626 0.257330 0.993803
O O13 0.500000 0.000000 0.500000
O O14 0.183843 0.099835 0.628076
O O15 0.500000 0.500000 0.500000
#
# Coordination Sequence:
#
# PCOD9030669 Si02
#       7
#     2   2   2   2   2   2   2
#     4  10  19  33  52  74 106 132 171 210 249 301
#     4   9  18  33  52  75  98 137 172 211 249 291
#     4  10  19  30  51  76 107 132 165 208 254 305
#     4   9  15  29  50  72  98 128 171 214 242 282
#     4  10  17  32  52  78 101 131 171 213 249 296
#     4   9  16  30  51  75  99 128 173 213 248 287
#     4  11  20  31  49  80 107 132 166 211 256 299
#
# _framework density 26.366744000000001
#
# number of rings (size 3 to 8) (size 9 to 14) (size 15 to 20)
#    0.000    2.286    7.143    0.000    0.000    1.143 
#    0.000    0.000    0.000    5.143    0.000    3.000 
#    0.000    0.000    0.000    0.000    0.000    0.000 
#
# Total GULP energy -78087.410477 kJ/mol
# GULP energy per Si atom -5577.672177 kJ/mol
# Density = 2.630673 g / cm^3
# Si number density = 26.366744 Si / 1000 Ang^3
#
#
#
# Elastic Constant Matrix: (Units=GPa)
#
#
# Indices 1 2 3 4 5 6 
#
# 1 120.6203 55.7336 35.8524 2.1510 12.9250 -44.4434
# 2 55.7336 194.8161 65.4047 -26.3746 -0.6178 -67.6495
# 3 35.8524 65.4047 94.4354 -24.1319 -2.8888 -19.8276
# 4 2.1510 -26.3746 -24.1319 40.3605 -15.2547 -7.6403
# 5 12.9250 -0.6178 -2.8888 -15.2547 31.3524 -1.8117
# 6 -44.4434 -67.6495 -19.8276 -7.6403 -1.8117 56.5099
#
#
#
# Elastic Compliance Matrix: (Units=1/GPa)
#
#
# Indices 1 2 3 4 5 6 
#
# 1 0.013803 -0.000525 -0.005157 -0.006067 -0.008705 0.007318
# 2 -0.000525 0.014408 -0.001695 0.015300 0.008863 0.018593
# 3 -0.005157 -0.001695 0.018485 0.015002 0.011256 0.002790
# 4 -0.006067 0.015300 0.015002 0.063321 0.036643 0.028544
# 5 -0.008705 0.008863 0.011256 0.036643 0.055359 0.014442
# 6 0.007318 0.018593 0.002790 0.028544 0.014442 0.051012
#
#
# Mechanical properties :
#
#
# Convention : Reuss Voigt Hill
#
# Bulk Modulus (GPa) = 31.30634 80.42812 55.86723
# Shear Modulus (GPa) = 20.67918 42.50329 31.59124
#
# Velocity S-wave (km/s) = 2.80356 4.01933 3.46518
# Velocity P-wave (km/s) = 4.73066 7.21872 6.10283
#
# Compressibility (1/GPa) = 0.03194242
#
# Stress axis : x y z
#
# Youngs Moduli (GPa) = 72.44566 69.40465 54.09925
#
# Poissons Ratio (x) = 0.03646 0.27897
# Poissons Ratio (y) = 0.03806 0.09169
# Poissons Ratio (z) = 0.37358 0.11764
#
# Static dielectric constant tensor:
#      x y z
#    x 2.116700 0.043120 0.070410 
#    y 0.043120 2.157320 -0.027930 
#    z 0.070410 -0.027930 2.103920 
# 
# From -- ./inp_files/347191.got.cif
#   From: 2010.05.17/outbox.cif.g08.bks.cpg/sg2_174_cif.got.tgz:347191.got - 2010.06.03 11:33:40.
