data_PCOD9030281
_publ_section_title
;
Structure prediction by ZEFSAII (Michael W. Deem and Ramdas Pophale) SiO2 
 PCOD9030281
Probable space group: P -1
;
_chemical_formula_sum "Si O2"
_cell_formula_units_Z 14
_cell_length_a 9.030351
_cell_length_b 15.989736
_cell_length_c 5.239858
_cell_angle_alpha 102.981124
_cell_angle_beta 67.318334
_cell_angle_gamma 125.349426
_cell_volume 569.383442
_symmetry_space_group_name_H-M "P -1"
_symmetry_group_IT_number 2
_symmetry_cell_setting 'triclinic'
loop_
_space_group_symop_operation_xyz
x,y,z
-x,-y,-z
loop_
_atom_site_type_symbol
_atom_site_label
_atom_site_fract_x
_atom_site_fract_y
_atom_site_fract_z
Si Si1 0.868997 0.715520 0.086150
Si Si2 0.753208 0.897752 0.853548
Si Si3 0.623563 0.485812 0.118068
Si Si4 0.467805 0.307063 0.433586
Si Si5 0.898131 0.221150 0.536990
Si Si6 0.208220 0.986682 0.601395
Si Si7 0.190131 0.610343 0.382614
O O1 0.801078 0.600001 0.128429
O O2 0.694018 0.729141 0.264747
O O3 0.027401 0.785216 0.238343
O O4 0.940203 0.734152 0.762906
O O5 0.618100 0.780148 0.780988
O O6 0.975112 0.930832 0.740752
O O7 0.737234 0.958782 0.669691
O O8 0.706956 0.932333 0.170123
O O9 0.499416 0.412650 0.381005
O O10 0.500000 0.500000 0.000000
O O11 0.701501 0.420832 0.902121
O O12 0.669942 0.337862 0.432828
O O13 0.753088 0.103578 0.469112
O O14 0.839648 0.302998 0.642027
O O15 0.000000 0.500000 0.500000
#
# Coordination Sequence:
#
# PCOD9030281 Si02
#       7
#     2   2   2   2   2   2   2
#     4  12  25  44  74 103 145 186 243 285 354 432
#     4  10  23  41  73 104 138 180 245 297 349 414
#     4  12  26  45  72 105 142 190 242 296 347 432
#     4  12  27  44  73 107 143 192 240 298 356 424
#     4  12  26  46  73 108 146 191 230 299 365 420
#     4  10  22  42  70 106 139 179 239 302 352 415
#     4  12  28  46  70 105 151 191 235 293 361 433
#
# _framework density 24.588000000000001
#
# number of rings (size 3 to 8) (size 9 to 14) (size 15 to 20)
#    0.000    0.571    4.286    3.000    8.000    1.143 
#    0.000    1.429    0.000    0.000    0.000    0.000 
#    0.000    0.000    0.000    0.000    0.000    0.000 
#
# Total GULP energy -78436.929029 kJ/mol
# GULP energy per Si atom -5602.637788 kJ/mol
# Density = 2.453204 g / cm^3
# Si number density = 24.588000 Si / 1000 Ang^3
#
#
#
# Elastic Constant Matrix: (Units=GPa)
#
#
# Indices 1 2 3 4 5 6 
#
# 1 82.6696 21.0534 23.9867 10.4527 5.1312 -7.2619
# 2 21.0534 131.6673 10.0667 37.0558 -4.7925 -13.0235
# 3 23.9867 10.0667 81.4361 22.1959 2.1654 -2.4573
# 4 10.4527 37.0558 22.1959 49.0622 2.6863 7.6110
# 5 5.1312 -4.7925 2.1654 2.6863 29.6140 13.9745
# 6 -7.2619 -13.0235 -2.4573 7.6110 13.9745 40.5925
#
#
#
# Elastic Compliance Matrix: (Units=1/GPa)
#
#
# Indices 1 2 3 4 5 6 
#
# 1 0.014164 -0.001718 -0.003667 -0.000339 -0.003933 0.003178
# 2 -0.001718 0.010909 0.001888 -0.009518 0.000461 0.004933
# 3 -0.003667 0.001888 0.015398 -0.007979 -0.000697 0.002618
# 4 -0.000339 -0.009518 -0.007979 0.032763 0.000867 -0.010039
# 5 -0.003933 0.000461 -0.000697 0.000867 0.041616 -0.015087
# 6 0.003178 0.004933 0.002618 -0.010039 -0.015087 0.034021
#
#
# Mechanical properties :
#
#
# Convention : Reuss Voigt Hill
#
# Bulk Modulus (GPa) = 29.86997 45.10962 37.48980
# Shear Modulus (GPa) = 29.93611 39.89813 34.91712
#
# Velocity S-wave (km/s) = 3.49307 4.03260 3.77249
# Velocity P-wave (km/s) = 5.33322 6.32997 5.85285
#
# Compressibility (1/GPa) = 0.03347843
#
# Stress axis : x y z
#
# Youngs Moduli (GPa) = 70.60204 91.67161 64.94144
#
# Poissons Ratio (x) = 0.15747 0.23812
# Poissons Ratio (y) = 0.12128 -0.12262
# Poissons Ratio (z) = 0.25887 -0.17310
#
# Static dielectric constant tensor:
#      x y z
#    x 1.976550 0.021990 -0.019270 
#    y 0.021990 1.975130 -0.035080 
#    z -0.019270 -0.035080 2.052810 
# 
# From -- ./inp_files/39652.got.cif
#   From: 2010.05.17/outbox.cif.g08.bks.cpg/sg2_20_cif.got.tgz:39652.got - 2010.06.03 11:33:40.
