data_PCOD9030348
_publ_section_title
;
Structure prediction by ZEFSAII (Michael W. Deem and Ramdas Pophale) SiO2 
 PCOD9030348
Probable space group: P -1
;
_chemical_formula_sum "Si O2"
_cell_formula_units_Z 16
_cell_length_a 9.468447
_cell_length_b 18.781748
_cell_length_c 16.206684
_cell_angle_alpha 152.639401
_cell_angle_beta 34.896622
_cell_angle_gamma 141.394019
_cell_volume 742.221374
_symmetry_space_group_name_H-M "P -1"
_symmetry_group_IT_number 2
_symmetry_cell_setting 'triclinic'
loop_
_space_group_symop_operation_xyz
x,y,z
-x,-y,-z
loop_
_atom_site_type_symbol
_atom_site_label
_atom_site_fract_x
_atom_site_fract_y
_atom_site_fract_z
Si Si1 0.187967 0.507493 0.088880
Si Si2 0.973978 0.591491 0.764413
Si Si3 0.481067 0.485152 0.212783
Si Si4 0.512588 0.271206 0.388495
Si Si5 0.784864 0.710312 0.618168
Si Si6 0.096365 0.992249 0.354024
Si Si7 0.695779 0.315447 0.065335
Si Si8 0.758972 0.123282 0.518161
O O1 0.185209 0.414789 0.081480
O O2 0.269357 0.696924 0.260148
O O3 0.898461 0.467720 0.155576
O O4 0.351447 0.448866 0.878669
O O5 0.793799 0.573458 0.753722
O O6 0.209351 0.733259 0.782921
O O7 0.109503 0.441877 0.558913
O O8 0.472063 0.602955 0.414634
O O9 0.613537 0.349664 0.047731
O O10 0.357432 0.309468 0.422264
O O11 0.361297 0.109703 0.331870
O O12 0.563429 0.727935 0.804589
O O13 0.035155 0.845542 0.623282
O O14 0.898768 0.049235 0.447527
O O15 0.000000 0.000000 0.500000
O O16 0.148102 0.819974 0.137468
O O17 0.500000 0.000000 0.500000
#
# Coordination Sequence:
#
# PCOD9030348 Si02
#       8
#     2   2   2   2   2   2   2   2
#     4  11  24  44  70  96 131 173 221 272 322 396
#     4  11  22  41  67  97 132 170 217 275 330 385
#     4  12  24  39  67 102 129 169 224 274 320 387
#     4  11  22  43  67  93 130 175 221 264 329 393
#     4  10  22  42  70  95 129 175 220 271 323 395
#     4  11  25  43  66  94 133 177 213 271 335 387
#     4  12  23  42  68 100 130 170 230 266 320 395
#     4  10  24  45  67  95 133 173 215 267 334 391
#
# _framework density 21.556912000000001
#
# number of rings (size 3 to 8) (size 9 to 14) (size 15 to 20)
#    0.000    1.000    2.500    5.250    0.000    7.000 
#    2.250    0.625    0.000    0.000    0.000    0.000 
#    0.000    0.000    0.000    0.000    0.000    0.000 
#
# Total GULP energy -89387.854516 kJ/mol
# GULP energy per Si atom -5586.740907 kJ/mol
# Density = 2.150785 g / cm^3
# Si number density = 21.556912 Si / 1000 Ang^3
#
#
#
# Elastic Constant Matrix: (Units=GPa)
#
#
# Indices 1 2 3 4 5 6 
#
# 1 110.6397 52.3637 4.4140 12.5808 4.0050 12.7263
# 2 52.3637 166.3226 28.3845 -9.0773 12.9731 22.5974
# 3 4.4140 28.3845 47.2935 -9.9124 5.5874 -3.5834
# 4 12.5808 -9.0773 -9.9124 25.4321 -7.0389 1.1464
# 5 4.0050 12.9731 5.5874 -7.0389 21.1324 -6.8652
# 6 12.7263 22.5974 -3.5834 1.1464 -6.8652 36.1247
#
#
#
# Elastic Compliance Matrix: (Units=1/GPa)
#
#
# Indices 1 2 3 4 5 6 
#
# 1 0.012109 -0.003563 -0.000507 -0.008332 -0.003561 -0.002499
# 2 -0.003563 0.009250 -0.004633 0.002140 -0.005018 -0.006012
# 3 -0.000507 -0.004633 0.026136 0.008739 0.000738 0.005532
# 4 -0.008332 0.002140 0.008739 0.052019 0.016569 0.003961
# 5 -0.003561 -0.005018 0.000738 0.016569 0.061476 0.015624
# 6 -0.002499 -0.006012 0.005532 0.003961 0.015624 0.035716
#
#
# Mechanical properties :
#
#
# Convention : Reuss Voigt Hill
#
# Bulk Modulus (GPa) = 33.23481 54.95335 44.09408
# Shear Modulus (GPa) = 22.30738 32.47741 27.39240
#
# Velocity S-wave (km/s) = 3.22034 3.88569 3.56856
# Velocity P-wave (km/s) = 5.41093 6.75863 6.12198
#
# Compressibility (1/GPa) = 0.03008894
#
# Stress axis : x y z
#
# Youngs Moduli (GPa) = 82.58474 108.10814 38.26134
#
# Poissons Ratio (x) = 0.38521 0.01939
# Poissons Ratio (y) = 0.29426 0.17727
# Poissons Ratio (z) = 0.04184 0.50088
#
# Static dielectric constant tensor:
#      x y z
#    x 1.767490 -0.000010 -0.000500 
#    y -0.000010 1.843690 0.009080 
#    z -0.000500 0.009080 1.818990 
# 
# From -- ./inp_files/507328.got.cif
#   From: 2010.05.17/outbox.cif.g08.bks.cpg/sg2_254_cif.got.tgz:507328.got - 2010.06.03 11:33:40.
