data_PCOD9030762
_publ_section_title
;
Structure prediction by ZEFSAII (Michael W. Deem and Ramdas Pophale) SiO2 
 PCOD9030762
Probable space group: P -1
;
_chemical_formula_sum "Si O2"
_cell_formula_units_Z 14
_cell_length_a 15.135394
_cell_length_b 6.641562
_cell_length_c 7.760665
_cell_angle_alpha 87.467901
_cell_angle_beta 134.048560
_cell_angle_gamma 93.515381
_cell_volume 559.657435
_symmetry_space_group_name_H-M "P -1"
_symmetry_group_IT_number 2
_symmetry_cell_setting 'triclinic'
loop_
_space_group_symop_operation_xyz
x,y,z
-x,-y,-z
loop_
_atom_site_type_symbol
_atom_site_label
_atom_site_fract_x
_atom_site_fract_y
_atom_site_fract_z
Si Si1 0.635802 0.906883 0.577228
Si Si2 0.615807 0.296616 0.302327
Si Si3 0.838691 0.545306 0.482787
Si Si4 0.030331 0.821880 0.416313
Si Si5 0.572103 0.372544 0.852494
Si Si6 0.108323 0.112563 0.248091
Si Si7 0.245973 0.294453 0.972244
O O1 0.516729 0.765335 0.380839
O O2 0.762227 0.834242 0.665838
O O3 0.673766 0.879954 0.829860
O O4 0.616917 0.114322 0.444595
O O5 0.742821 0.428611 0.479244
O O6 0.506902 0.439715 0.201020
O O7 0.603062 0.258011 0.078386
O O8 0.931001 0.686597 0.714329
O O9 0.902584 0.384681 0.453302
O O10 0.765117 0.691059 0.250968
O O11 0.896085 0.749629 0.163911
O O12 0.000000 0.000000 0.500000
O O13 0.126315 0.938961 0.418289
O O14 0.687383 0.486069 0.907038
O O15 0.000000 0.000000 0.000000
#
# Coordination Sequence:
#
# PCOD9030762 Si02
#       7
#     2   2   2   2   2   2   2
#     4  12  23  45  68 105 138 182 240 295 346 421
#     4  10  22  42  74 100 132 189 237 290 350 417
#     4  11  24  48  72 104 143 190 232 293 355 419
#     4  12  25  46  72 106 142 187 238 287 356 426
#     4  10  23  45  67 100 140 184 239 286 357 418
#     4  12  25  44  73 106 142 184 240 293 350 423
#     4  11  25  44  67 103 147 183 230 293 356 418
#
# _framework density 25.015301000000001
#
# number of rings (size 3 to 8) (size 9 to 14) (size 15 to 20)
#    0.000    0.857    5.714    1.286    0.000    1.143 
#   10.286    0.000    0.000    0.000    0.000    0.000 
#    0.000    0.000    0.000    0.000    0.000    0.000 
#
# Total GULP energy -78105.458503 kJ/mol
# GULP energy per Si atom -5578.961322 kJ/mol
# Density = 2.495836 g / cm^3
# Si number density = 25.015301 Si / 1000 Ang^3
#
#
#
# Elastic Constant Matrix: (Units=GPa)
#
#
# Indices 1 2 3 4 5 6 
#
# 1 89.9559 44.6697 23.0644 6.6270 17.1657 16.9559
# 2 44.6697 114.2236 96.2142 -0.0798 -2.5930 10.5738
# 3 23.0644 96.2142 143.9295 -1.9529 6.7764 7.0292
# 4 6.6270 -0.0798 -1.9529 46.0199 17.2840 7.6596
# 5 17.1657 -2.5930 6.7764 17.2840 34.8682 5.8591
# 6 16.9559 10.5738 7.0292 7.6596 5.8591 45.8685
#
#
#
# Elastic Compliance Matrix: (Units=1/GPa)
#
#
# Indices 1 2 3 4 5 6 
#
# 1 0.018362 -0.012049 0.005889 0.002635 -0.011739 -0.003853
# 2 -0.012049 0.029232 -0.018286 -0.004069 0.013771 -0.000562
# 3 0.005889 -0.018286 0.018740 0.003568 -0.009636 -0.000198
# 4 0.002635 -0.004069 0.003568 0.027883 -0.015568 -0.003250
# 5 -0.011739 0.013771 -0.009636 -0.015568 0.045161 -0.000527
# 6 -0.003853 -0.000562 -0.000198 -0.003250 -0.000527 0.023996
#
#
# Mechanical properties :
#
#
# Convention : Reuss Voigt Hill
#
# Bulk Modulus (GPa) = 57.33705 75.11173 66.22439
# Shear Modulus (GPa) = 22.92738 37.62870 30.27804
#
# Velocity S-wave (km/s) = 3.03072 3.88264 3.48283
# Velocity P-wave (km/s) = 5.93444 7.08459 6.53487
#
# Compressibility (1/GPa) = 0.01744073
#
# Stress axis : x y z
#
# Youngs Moduli (GPa) = 54.45934 34.20954 53.36236
#
# Poissons Ratio (x) = 0.41220 -0.31424
# Poissons Ratio (y) = 0.65620 0.97579
# Poissons Ratio (z) = -0.32070 0.62556
#
# Static dielectric constant tensor:
#      x y z
#    x 2.092140 -0.020330 -0.054280 
#    y -0.020330 1.983690 0.002570 
#    z -0.054280 0.002570 2.036070 
# 
# From -- ./inp_files/323784.got.cif
#   From: 2010.05.17/outbox.cif.g08.bks.cpg/sg2_162_cif.got.tgz:323784.got - 2010.06.03 11:33:40.
