data_PCOD9030684
_publ_section_title
;
Structure prediction by ZEFSAII (Michael W. Deem and Ramdas Pophale) SiO2 
 PCOD9030684
Probable space group: P -1
;
_chemical_formula_sum "Si O2"
_cell_formula_units_Z 14
_cell_length_a 8.677322
_cell_length_b 12.034683
_cell_length_c 7.984961
_cell_angle_alpha 64.028230
_cell_angle_beta 68.107945
_cell_angle_gamma 41.316730
_cell_volume 493.575348
_symmetry_space_group_name_H-M "P -1"
_symmetry_group_IT_number 2
_symmetry_cell_setting 'triclinic'
loop_
_space_group_symop_operation_xyz
x,y,z
-x,-y,-z
loop_
_atom_site_type_symbol
_atom_site_label
_atom_site_fract_x
_atom_site_fract_y
_atom_site_fract_z
Si Si1 0.425623 0.247719 0.778803
Si Si2 0.906197 0.552771 0.810473
Si Si3 0.000000 0.000000 0.500000
Si Si4 0.102191 0.189337 0.524365
Si Si5 0.336803 0.538452 0.217127
Si Si6 0.401022 0.997831 0.840933
Si Si7 0.946132 0.134965 0.065488
Si Si8 0.500000 0.500000 0.500000
O O1 0.510357 0.076942 0.766575
O O2 0.530451 0.326958 0.642467
O O3 0.160305 0.397211 0.724697
O O4 0.465198 0.184555 0.998876
O O5 0.827164 0.727143 0.662418
O O6 0.730610 0.546785 0.803403
O O7 0.000000 0.500000 0.000000
O O8 0.965786 0.875693 0.536797
O O9 0.046225 0.931431 0.718590
O O10 0.303161 0.039010 0.667355
O O11 0.862631 0.342790 0.627600
O O12 0.551559 0.446455 0.315203
O O13 0.289911 0.675254 0.020379
O O14 0.154154 0.125440 0.962810
O O15 0.000000 0.000000 0.000000
#
# Coordination Sequence:
#
# PCOD9030684 Si02
#       8
#     2   2   1   2   2   2   2   1
#     4  11  23  42  70 106 137 188 243 299 364 432
#     4  12  24  45  72 102 143 192 244 297 366 451
#     4  12  24  36  68 110 142 178 244 298 358 442
#     4  11  22  41  67 101 135 189 236 289 361 435
#     4  11  22  43  69  99 138 189 241 291 363 436
#     4  10  22  42  72  97 142 187 243 295 357 434
#     4  11  20  40  67 102 137 189 233 294 361 432
#     4  12  24  38  72 104 136 184 246 294 366 432
#
# _framework density 28.364460999999999
#
# number of rings (size 3 to 8) (size 9 to 14) (size 15 to 20)
#    0.000    0.857    7.143    3.000    0.000    0.000 
#    0.000    2.857    0.000    0.000    0.000    0.000 
#    0.000    0.000    0.000    0.000    0.000    0.000 
#
# Total GULP energy -77980.744271 kJ/mol
# GULP energy per Si atom -5570.053162 kJ/mol
# Density = 2.829990 g / cm^3
# Si number density = 28.364461 Si / 1000 Ang^3
#
#
#
# Elastic Constant Matrix: (Units=GPa)
#
#
# Indices 1 2 3 4 5 6 
#
# 1 130.1698 67.2973 42.9075 -19.2287 -14.2701 49.5095
# 2 67.2973 94.2626 47.7018 -33.8391 3.0278 40.2667
# 3 42.9075 47.7018 244.8086 -37.3177 9.5868 38.0259
# 4 -19.2287 -33.8391 -37.3177 59.5675 9.4275 2.4447
# 5 -14.2701 3.0278 9.5868 9.4275 45.8095 9.7281
# 6 49.5095 40.2667 38.0259 2.4447 9.7281 82.8947
#
#
#
# Elastic Compliance Matrix: (Units=1/GPa)
#
#
# Indices 1 2 3 4 5 6 
#
# 1 0.014959 -0.008983 -0.000580 -0.001499 0.006756 -0.005054
# 2 -0.008983 0.024048 -0.000181 0.011764 -0.005511 -0.005934
# 3 -0.000580 -0.000181 0.005045 0.003181 -0.001497 -0.001798
# 4 -0.001499 0.011764 0.003181 0.026182 -0.005950 -0.006352
# 5 0.006756 -0.005511 -0.001497 -0.005950 0.026605 -0.003618
# 6 -0.005054 -0.005934 -0.001798 -0.006352 -0.003618 0.019401
#
#
# Mechanical properties :
#
#
# Convention : Reuss Voigt Hill
#
# Bulk Modulus (GPa) = 40.70765 87.22825 63.96795
# Shear Modulus (GPa) = 34.74314 58.40997 46.57656
#
# Velocity S-wave (km/s) = 3.50363 4.54284 4.05665
# Velocity P-wave (km/s) = 5.54527 7.63779 6.67405
#
# Compressibility (1/GPa) = 0.02456541
#
# Stress axis : x y z
#
# Youngs Moduli (GPa) = 66.85087 41.58335 198.23549
#
# Poissons Ratio (x) = 0.37353 0.11491
# Poissons Ratio (y) = 0.60049 0.03582
# Poissons Ratio (z) = 0.03875 0.00751
#
# Static dielectric constant tensor:
#      x y z
#    x 1.823590 -0.059060 -0.381230 
#    y -0.059060 2.471310 0.255020 
#    z -0.381230 0.255020 1.949750 
# 
# From -- ./inp_files/174925.got.cif
#   From: 2010.05.17/outbox.cif.g08.bks.cpg/sg2_88_cif.got.tgz:174925.got - 2010.06.03 11:33:40.
