data_PCOD9030282
_publ_section_title
;
Structure prediction by ZEFSAII (Michael W. Deem and Ramdas Pophale) SiO2 
 PCOD9030282
Probable space group: P -1
;
_chemical_formula_sum "Si O2"
_cell_formula_units_Z 15
_cell_length_a 17.946235
_cell_length_b 11.979632
_cell_length_c 6.607348
_cell_angle_alpha 59.861816
_cell_angle_beta 134.353362
_cell_angle_gamma 141.463860
_cell_volume 629.603856
_symmetry_space_group_name_H-M "P -1"
_symmetry_group_IT_number 2
_symmetry_cell_setting 'triclinic'
loop_
_space_group_symop_operation_xyz
x,y,z
-x,-y,-z
loop_
_atom_site_type_symbol
_atom_site_label
_atom_site_fract_x
_atom_site_fract_y
_atom_site_fract_z
Si Si1 0.937926 0.778619 0.944570
Si Si2 0.546081 0.753785 0.347308
Si Si3 0.509862 0.864278 0.558228
Si Si4 0.224235 0.470831 0.513190
Si Si5 0.000000 0.000000 0.500000
Si Si6 0.987936 0.362968 0.469981
Si Si7 0.305313 0.358103 0.085381
Si Si8 0.769308 0.019661 0.178597
O O1 0.861566 0.621445 0.774100
O O2 0.021219 0.952710 0.810131
O O3 0.812361 0.736456 0.875447
O O4 0.023701 0.764251 0.275993
O O5 0.503244 0.837534 0.328873
O O6 0.412360 0.571070 0.143857
O O7 0.603132 0.691739 0.666209
O O8 0.666759 0.892487 0.286587
O O9 0.377030 0.667152 0.577665
O O10 0.500000 0.000000 0.500000
O O11 0.663316 0.943986 0.857059
O O12 0.128840 0.463251 0.504826
O O13 0.238812 0.337057 0.757831
O O14 0.893464 0.021984 0.373784
O O15 0.000000 0.500000 0.500000
O O16 0.848595 0.224247 0.189882
#
# Coordination Sequence:
#
# PCOD9030282 Si02
#       8
#     2   2   2   2   1   2   2   2
#     4  11  24  44  72 103 147 188 235 304 362 438
#     4  11  24  42  71 104 145 184 232 302 365 426
#     4  12  30  46  72 107 149 195 244 298 361 438
#     4  11  24  46  70 105 144 191 236 300 366 432
#     4  12  26  48  74 112 148 190 242 302 380 440
#     4  11  29  47  72 102 144 199 250 294 356 440
#     4  10  22  42  70 106 139 180 232 296 368 430
#     4  12  28  47  73 111 145 190 239 309 368 433
#
# _framework density 23.824503
#
# number of rings (size 3 to 8) (size 9 to 14) (size 15 to 20)
#    0.000    0.800    5.333    0.000    7.467    2.133 
#    0.000    0.000    0.000    0.000    0.000    0.000 
#    0.000    0.000    0.000    0.000    0.000    0.000 
#
# Total GULP energy -83806.959164 kJ/mol
# GULP energy per Si atom -5587.130611 kJ/mol
# Density = 2.377028 g / cm^3
# Si number density = 23.824503 Si / 1000 Ang^3
#
#
#
# Elastic Constant Matrix: (Units=GPa)
#
#
# Indices 1 2 3 4 5 6 
#
# 1 113.5069 43.5640 11.0180 0.6048 -23.8537 -13.3558
# 2 43.5640 92.1974 -4.7091 9.2377 -8.5282 -0.2195
# 3 11.0180 -4.7091 49.0009 11.2788 -11.2705 4.2600
# 4 0.6048 9.2377 11.2788 29.4722 -1.8453 -10.7868
# 5 -23.8537 -8.5282 -11.2705 -1.8453 26.0715 -3.4344
# 6 -13.3558 -0.2195 4.2600 -10.7868 -3.4344 46.1294
#
#
#
# Elastic Compliance Matrix: (Units=1/GPa)
#
#
# Indices 1 2 3 4 5 6 
#
# 1 0.014917 -0.006810 -0.003495 0.006415 0.011279 0.006949
# 2 -0.006810 0.015122 0.005199 -0.008177 -0.000182 -0.004305
# 3 -0.003495 0.005199 0.027346 -0.013714 0.008552 -0.006083
# 4 0.006415 -0.008177 -0.013714 0.046981 0.002470 0.014255
# 5 0.011279 -0.000182 0.008552 0.002470 0.053414 0.007029
# 6 0.006949 -0.004305 -0.006083 0.014255 0.007029 0.028088
#
#
# Mechanical properties :
#
#
# Convention : Reuss Voigt Hill
#
# Bulk Modulus (GPa) = 21.19905 39.38344 30.29124
# Shear Modulus (GPa) = 23.60688 33.99012 28.79850
#
# Velocity S-wave (km/s) = 3.15122 3.78125 3.48052
# Velocity P-wave (km/s) = 4.70718 5.96911 5.37531
#
# Compressibility (1/GPa) = 0.04717193
#
# Stress axis : x y z
#
# Youngs Moduli (GPa) = 67.03946 66.13061 36.56887
#
# Poissons Ratio (x) = 0.45033 0.12781
# Poissons Ratio (y) = 0.45652 -0.19011
# Poissons Ratio (z) = 0.23431 -0.34380
#
# Static dielectric constant tensor:
#      x y z
#    x 1.621020 -0.401330 -0.176080 
#    y -0.401330 1.334280 -0.310240 
#    z -0.176080 -0.310240 1.706660 
# 
# From -- ./inp_files/52747.got.cif
#   From: 2010.05.17/outbox.cif.g08.bks.cpg/sg2_27_cif.got.tgz:52747.got - 2010.06.03 11:33:40.
