data_PCOD9030007
_publ_section_title
;
Structure prediction by ZEFSAII (Michael W. Deem and Ramdas Pophale) SiO2 
 PCOD9030007
Probable space group: P -1
;
_chemical_formula_sum "Si O2"
_cell_formula_units_Z 16
_cell_length_a 9.082889
_cell_length_b 9.147672
_cell_length_c 12.332867
_cell_angle_alpha 58.565260
_cell_angle_beta 65.654501
_cell_angle_gamma 61.493938
_cell_volume 749.865249
_symmetry_space_group_name_H-M "P -1"
_symmetry_group_IT_number 2
_symmetry_cell_setting 'triclinic'
loop_
_space_group_symop_operation_xyz
x,y,z
-x,-y,-z
loop_
_atom_site_type_symbol
_atom_site_label
_atom_site_fract_x
_atom_site_fract_y
_atom_site_fract_z
Si Si1 0.190064 0.481155 0.983592
Si Si2 0.631291 0.443144 0.681665
Si Si3 0.439358 0.077333 0.673130
Si Si4 0.152577 0.433833 0.568769
Si Si5 0.676656 0.228733 0.268982
Si Si6 0.178379 0.014645 0.483748
Si Si7 0.448177 0.175897 0.875183
Si Si8 0.849416 0.579738 0.732891
O O1 0.232081 0.666646 0.877746
O O2 0.310206 0.331099 0.925076
O O3 0.211378 0.417542 0.126650
O O4 0.000000 0.500000 0.000000
O O5 0.729055 0.445446 0.539048
O O6 0.453044 0.610657 0.680985
O O7 0.601553 0.255376 0.779999
O O8 0.742642 0.485673 0.728260
O O9 0.288667 0.231491 0.594673
O O10 0.397527 0.126542 0.791723
O O11 0.427708 0.881764 0.720192
O O12 0.629728 0.080615 0.588511
O O13 0.000000 0.500000 0.500000
O O14 0.051461 0.463935 0.700407
O O15 0.802011 0.078097 0.367847
O O16 0.163050 0.224796 0.388081
O O17 0.000000 0.000000 0.500000
O O18 0.500000 0.000000 0.000000
#
# Coordination Sequence:
#
# PCOD9030007 Si02
#       8
#     2   2   2   2   2   2   2   2
#     4  11  25  48  67  98 143 187 238 285 357 430
#     4  10  22  43  70 101 135 184 231 291 350 425
#     4  12  24  45  72 105 143 185 241 295 351 424
#     4  10  22  42  69 106 136 173 234 296 350 413
#     4  11  23  44  76 101 137 189 236 286 355 429
#     4  12  25  42  73 110 144 184 235 297 356 422
#     4  11  27  43  67 102 143 183 240 296 351 411
#     4  11  23  43  73  99 140 187 237 284 358 427
#
# _framework density 21.337168999999999
#
# number of rings (size 3 to 8) (size 9 to 14) (size 15 to 20)
#    0.000    1.000    2.500    4.125    3.500    2.500 
#    4.500    1.250    0.000    0.000    0.000    0.000 
#    0.000    0.000    0.000    0.000    0.000    0.000 
#
# Total GULP energy -89311.722311 kJ/mol
# GULP energy per Si atom -5581.982644 kJ/mol
# Density = 2.128860 g / cm^3
# Si number density = 21.337169 Si / 1000 Ang^3
#
#
#
# Elastic Constant Matrix: (Units=GPa)
#
#
# Indices 1 2 3 4 5 6 
#
# 1 114.2858 42.0559 52.5720 -15.8628 -9.6163 5.2332
# 2 42.0559 79.3992 44.2534 -16.7661 -8.8436 -0.0500
# 3 52.5720 44.2534 128.3809 -18.4314 -10.2661 13.6846
# 4 -15.8628 -16.7661 -18.4314 42.7150 4.5348 -7.0611
# 5 -9.6163 -8.8436 -10.2661 4.5348 39.1921 2.3583
# 6 5.2332 -0.0500 13.6846 -7.0611 2.3583 36.0525
#
#
#
# Elastic Compliance Matrix: (Units=1/GPa)
#
#
# Indices 1 2 3 4 5 6 
#
# 1 0.012046 -0.004229 -0.003169 0.001274 0.001046 -0.000370
# 2 -0.004229 0.018163 -0.004145 0.004114 0.001323 0.002932
# 3 -0.003169 -0.004145 0.011190 0.001289 0.001287 -0.003625
# 4 0.001274 0.004114 0.001289 0.027035 -0.001835 0.004747
# 5 0.001046 0.001323 0.001287 -0.001835 0.026785 -0.002750
# 6 -0.000370 0.002932 -0.003625 0.004747 -0.002750 0.030281
#
#
# Mechanical properties :
#
#
# Convention : Reuss Voigt Hill
#
# Bulk Modulus (GPa) = 54.60672 66.64759 60.62715
# Shear Modulus (GPa) = 32.32284 35.80424 34.06354
#
# Velocity S-wave (km/s) = 3.89634 4.10081 3.99988
# Velocity P-wave (km/s) = 6.77420 7.32976 7.05745
#
# Compressibility (1/GPa) = 0.01831276
#
# Stress axis : x y z
#
# Youngs Moduli (GPa) = 83.01724 55.05795 89.36352
#
# Poissons Ratio (x) = 0.23283 0.28319
# Poissons Ratio (y) = 0.35106 0.37042
# Poissons Ratio (z) = 0.26308 0.22822
#
# Static dielectric constant tensor:
#      x y z
#    x 1.791980 -0.005010 0.015850 
#    y -0.005010 1.706670 -0.052650 
#    z 0.015850 -0.052650 1.737390 
# 
# From -- ./inp_files/381303.got.cif
#   From: 2010.05.17/outbox.cif.g08.bks.cpg/sg2_191_cif.got.tgz:381303.got - 2010.06.03 11:33:40.
