data_PCOD9030836
_publ_section_title
;
Structure prediction by ZEFSAII (Michael W. Deem and Ramdas Pophale) SiO2 
 PCOD9030836
Probable space group: P -1
;
_chemical_formula_sum "Si O2"
_cell_formula_units_Z 16
_cell_length_a 17.208525
_cell_length_b 8.764819
_cell_length_c 16.404708
_cell_angle_alpha 139.187260
_cell_angle_beta 153.550338
_cell_angle_gamma 34.509456
_cell_volume 622.593792
_symmetry_space_group_name_H-M "P -1"
_symmetry_group_IT_number 2
_symmetry_cell_setting 'triclinic'
loop_
_space_group_symop_operation_xyz
x,y,z
-x,-y,-z
loop_
_atom_site_type_symbol
_atom_site_label
_atom_site_fract_x
_atom_site_fract_y
_atom_site_fract_z
Si Si1 0.144476 0.809420 0.177217
Si Si2 0.183795 0.206383 0.257569
Si Si3 0.789256 0.521593 0.313456
Si Si4 0.854878 0.323334 0.495687
Si Si5 0.486086 0.774511 0.253196
Si Si6 0.251145 0.266985 0.801635
Si Si7 0.622394 0.725272 0.891608
Si Si8 0.836025 0.993893 0.097559
O O1 0.157894 0.062253 0.256097
O O2 0.348615 0.534442 0.234868
O O3 0.055946 0.837958 0.196807
O O4 0.989594 0.772295 0.957135
O O5 0.169355 0.493593 0.373833
O O6 0.391495 0.993249 0.322868
O O7 0.649885 0.763111 0.340109
O O8 0.690957 0.601352 0.163571
O O9 0.819089 0.226211 0.235487
O O10 0.000000 0.500000 0.500000
O O11 0.628806 0.478293 0.308274
O O12 0.014586 0.378400 0.619563
O O13 0.000000 0.000000 0.500000
O O14 0.303314 0.860715 0.053830
O O15 0.292436 0.324214 0.955302
O O16 0.390638 0.953047 0.782159
O O17 0.745815 0.834258 0.997305
#
# Coordination Sequence:
#
# PCOD9030836 Si02
#       8
#     2   2   2   2   2   2   2   2
#     4  10  22  42  75  98 147 181 244 300 362 419
#     4  10  23  45  70 109 137 193 241 293 362 436
#     4  12  25  45  69 101 146 192 234 295 361 431
#     4  12  26  44  70 107 151 188 239 303 359 428
#     4  11  25  43  75 101 147 189 246 292 358 428
#     4  11  25  41  66 103 145 184 244 293 359 422
#     4  11  24  41  71 104 141 186 242 308 349 426
#     4  11  25  44  73 105 139 192 245 293 361 430
#
# _framework density 25.698938999999999
#
# number of rings (size 3 to 8) (size 9 to 14) (size 15 to 20)
#    0.000    1.000    3.750    1.875    7.000    0.000 
#    0.000    0.000    0.000    2.250    0.000    0.000 
#    0.000    0.000    0.000    0.000    0.000    0.000 
#
# Total GULP energy -89242.071144 kJ/mol
# GULP energy per Si atom -5577.629446 kJ/mol
# Density = 2.564045 g / cm^3
# Si number density = 25.698939 Si / 1000 Ang^3
#
#
#
# Elastic Constant Matrix: (Units=GPa)
#
#
# Indices 1 2 3 4 5 6 
#
# 1 135.7989 49.7145 13.4677 2.8169 -7.5532 -33.8866
# 2 49.7145 165.3217 32.3314 10.7700 -0.1606 -34.0485
# 3 13.4677 32.3314 53.1545 5.6520 -8.0570 -11.9803
# 4 2.8169 10.7700 5.6520 34.3943 -5.5311 6.0539
# 5 -7.5532 -0.1606 -8.0570 -5.5311 26.8935 -10.5317
# 6 -33.8866 -34.0485 -11.9803 6.0539 -10.5317 56.7213
#
#
#
# Elastic Compliance Matrix: (Units=1/GPa)
#
#
# Indices 1 2 3 4 5 6 
#
# 1 0.009723 -0.001826 0.000821 -0.000569 0.005161 0.005905
# 2 -0.001826 0.008111 -0.003632 -0.002478 -0.000841 0.003119
# 3 0.000821 -0.003632 0.023560 -0.002293 0.008820 0.005169
# 4 -0.000569 -0.002478 -0.002293 0.031752 0.003706 -0.005012
# 5 0.005161 -0.000841 0.008820 0.003706 0.047038 0.012780
# 6 0.005905 0.003119 0.005169 -0.005012 0.012780 0.027030
#
#
# Mechanical properties :
#
#
# Convention : Reuss Voigt Hill
#
# Bulk Modulus (GPa) = 31.13309 60.58914 45.86111
# Shear Modulus (GPa) = 29.90518 40.85259 35.37889
#
# Velocity S-wave (km/s) = 3.41497 3.99138 3.71437
# Velocity P-wave (km/s) = 5.26215 6.69845 6.02326
#
# Compressibility (1/GPa) = 0.03212017
#
# Stress axis : x y z
#
# Youngs Moduli (GPa) = 102.84453 123.28495 42.44509
#
# Poissons Ratio (x) = 0.22515 -0.03485
# Poissons Ratio (y) = 0.18782 0.15416
# Poissons Ratio (z) = -0.08444 0.44776
#
# Static dielectric constant tensor:
#      x y z
#    x 2.136950 0.078540 -0.041500 
#    y 0.078540 2.142700 -0.019480 
#    z -0.041500 -0.019480 2.083230 
# 
# From -- ./inp_files/575600.got.cif
#   From: 2010.05.17/outbox.cif.g08.bks.cpg/sg2_288_cif.got.tgz:575600.got - 2010.06.03 11:33:40.
