data_PCOD9030093
_publ_section_title
;
Structure prediction by ZEFSAII (Michael W. Deem and Ramdas Pophale) SiO2 
 PCOD9030093
Probable space group: P -1
;
_chemical_formula_sum "Si O2"
_cell_formula_units_Z 12
_cell_length_a 11.790982
_cell_length_b 6.396240
_cell_length_c 8.518299
_cell_angle_alpha 113.274492
_cell_angle_beta 113.985295
_cell_angle_gamma 59.077921
_cell_volume 489.109830
_symmetry_space_group_name_H-M "P -1"
_symmetry_group_IT_number 2
_symmetry_cell_setting 'triclinic'
loop_
_space_group_symop_operation_xyz
x,y,z
-x,-y,-z
loop_
_atom_site_type_symbol
_atom_site_label
_atom_site_fract_x
_atom_site_fract_y
_atom_site_fract_z
Si Si1 0.224203 0.253600 0.572869
Si Si2 0.365992 0.831383 0.302296
Si Si3 0.142913 0.627946 0.070308
Si Si4 0.393586 0.556968 0.812858
Si Si5 0.014418 0.556720 0.283223
Si Si6 0.638626 0.947275 0.967075
O O1 0.300041 0.410397 0.736930
O O2 0.143017 0.411171 0.422799
O O3 0.107980 0.253300 0.623368
O O4 0.329641 0.989395 0.487137
O O5 0.236072 0.777876 0.164552
O O6 0.503621 0.573955 0.311566
O O7 0.386897 0.985489 0.212122
O O8 0.057960 0.677258 0.197997
O O9 0.250270 0.335006 0.043968
O O10 0.038776 0.643706 0.877634
O O11 0.500000 0.500000 0.000000
O O12 0.313279 0.854357 0.864709
O O13 0.500000 0.000000 0.000000
#
# Coordination Sequence:
#
# PCOD9030093 Si02
#       6
#     2   2   2   2   2   2
#     4  11  23  45  67 101 139 171 223 278 336 381
#     4  11  23  42  72 100 134 170 219 288 330 391
#     4  11  23  47  70 100 131 182 229 256 339 402
#     4  10  22  42  69  96 130 174 216 275 336 390
#     4  10  24  45  65  97 140 180 224 267 318 413
#     4  11  22  42  71 100 132 171 227 273 332 400
#
# _framework density 24.534368000000001
#
# number of rings (size 3 to 8) (size 9 to 14) (size 15 to 20)
#    0.000    1.333    3.333    2.500    2.333    1.333 
#   15.000    1.667    0.000    0.000    0.000    0.000 
#    0.000    0.000    0.000    0.000    0.000    0.000 
#
# Total GULP energy -67194.280958 kJ/mol
# GULP energy per Si atom -5599.523413 kJ/mol
# Density = 2.447853 g / cm^3
# Si number density = 24.534368 Si / 1000 Ang^3
#
#
#
# Elastic Constant Matrix: (Units=GPa)
#
#
# Indices 1 2 3 4 5 6 
#
# 1 145.3992 14.9466 39.7476 12.2330 -23.6862 5.3331
# 2 14.9466 57.3288 35.2829 15.7487 -1.6208 -11.3527
# 3 39.7476 35.2829 83.1628 7.3950 -11.4044 -1.9792
# 4 12.2330 15.7487 7.3950 39.3950 -9.5181 -3.5824
# 5 -23.6862 -1.6208 -11.4044 -9.5181 62.7389 6.2974
# 6 5.3331 -11.3527 -1.9792 -3.5824 6.2974 28.7449
#
#
#
# Elastic Compliance Matrix: (Units=1/GPa)
#
#
# Indices 1 2 3 4 5 6 
#
# 1 0.008520 0.000019 -0.003648 -0.001582 0.002573 -0.002585
# 2 0.000019 0.029313 -0.011887 -0.009483 -0.003881 0.010424
# 3 -0.003648 -0.011887 0.018839 0.002672 0.002439 -0.002922
# 4 -0.001582 -0.009483 0.002672 0.030154 0.004263 -0.000444
# 5 0.002573 -0.003881 0.002439 0.004263 0.018437 -0.005350
# 6 -0.002585 0.010424 -0.002922 -0.000444 -0.005350 0.040301
#
#
# Mechanical properties :
#
#
# Convention : Reuss Voigt Hill
#
# Bulk Modulus (GPa) = 39.00040 51.76057 45.38048
# Shear Modulus (GPa) = 27.00620 39.23667 33.12144
#
# Velocity S-wave (km/s) = 3.32135 4.00341 3.67822
# Velocity P-wave (km/s) = 5.53527 6.52017 6.04781
#
# Compressibility (1/GPa) = 0.02564076
#
# Stress axis : x y z
#
# Youngs Moduli (GPa) = 117.36922 34.11425 53.08221
#
# Poissons Ratio (x) = -0.00066 0.19366
# Poissons Ratio (y) = -0.00228 0.63097
# Poissons Ratio (z) = 0.42821 0.40551
#
# Static dielectric constant tensor:
#      x y z
#    x 1.951400 -0.006500 -0.016340 
#    y -0.006500 2.006290 0.004830 
#    z -0.016340 0.004830 1.973000 
# 
# From -- ./inp_files/230041.got.cif
#   From: 2010.05.17/outbox.cif.g08.bks.cpg/sg2_116_cif.got.tgz:230041.got - 2010.06.03 11:33:40.
