data_PCOD9030404
_publ_section_title
;
Structure prediction by ZEFSAII (Michael W. Deem and Ramdas Pophale) SiO2 
 PCOD9030404
Probable space group: P -1
;
_chemical_formula_sum "Si O2"
_cell_formula_units_Z 15
_cell_length_a 6.231030
_cell_length_b 9.645201
_cell_length_c 17.145429
_cell_angle_alpha 109.461617
_cell_angle_beta 106.430810
_cell_angle_gamma 36.321841
_cell_volume 575.282083
_symmetry_space_group_name_H-M "P -1"
_symmetry_group_IT_number 2
_symmetry_cell_setting 'triclinic'
loop_
_space_group_symop_operation_xyz
x,y,z
-x,-y,-z
loop_
_atom_site_type_symbol
_atom_site_label
_atom_site_fract_x
_atom_site_fract_y
_atom_site_fract_z
Si Si1 0.298651 0.701825 0.175436
Si Si2 0.398632 0.858860 0.032140
Si Si3 0.500000 0.500000 0.000000
Si Si4 0.677307 0.677746 0.605668
Si Si5 0.531304 0.864967 0.876984
Si Si6 0.742127 0.980793 0.702816
Si Si7 0.420070 0.433525 0.270838
Si Si8 0.502232 0.824150 0.450631
O O1 0.239649 0.655084 0.244321
O O2 0.442216 0.792170 0.224466
O O3 0.487140 0.492557 0.094987
O O4 0.903031 0.919944 0.136387
O O5 0.596175 0.621121 0.045304
O O6 0.596272 0.803866 0.963223
O O7 0.356479 0.027424 0.109034
O O8 0.000000 0.000000 0.000000
O O9 0.600618 0.885264 0.667103
O O10 0.629598 0.574540 0.644986
O O11 0.445672 0.779291 0.521164
O O12 0.104521 0.443454 0.584254
O O13 0.690548 0.660577 0.799971
O O14 0.153232 0.758680 0.732181
O O15 0.742742 0.049491 0.627922
O O16 0.500000 0.000000 0.500000
#
# Coordination Sequence:
#
# PCOD9030404 Si02
#       8
#     2   2   1   2   2   2   2   2
#     4  11  24  43  61  97 133 170 224 273 324 385
#     4  11  23  43  65  89 122 171 220 273 328 382
#     4  12  24  40  68  92 126 178 222 268 328 380
#     4  10  22  42  70  98 132 176 213 265 326 394
#     4  10  24  42  62  91 129 165 220 274 323 390
#     4  10  23  44  66  96 135 172 217 274 322 389
#     4  11  24  42  64  98 133 169 222 268 326 386
#     4   9  20  43  70 100 132 168 217 261 326 395
#
# _framework density 26.074162000000001
#
# number of rings (size 3 to 8) (size 9 to 14) (size 15 to 20)
#    0.000    1.600    2.667    0.800    1.867    6.400 
#    4.800    9.333    0.000    0.000    0.000    0.000 
#    0.000    0.000    0.000    0.000    0.000    0.000 
#
# Total GULP energy -83570.997828 kJ/mol
# GULP energy per Si atom -5571.399855 kJ/mol
# Density = 2.601482 g / cm^3
# Si number density = 26.074162 Si / 1000 Ang^3
#
#
#
# Elastic Constant Matrix: (Units=GPa)
#
#
# Indices 1 2 3 4 5 6 
#
# 1 51.7641 32.1184 21.0432 1.5145 0.8551 19.1436
# 2 32.1184 73.9526 23.9153 5.2685 1.3218 22.8306
# 3 21.0432 23.9153 109.2480 9.2138 2.4188 21.0097
# 4 1.5145 5.2685 9.2138 40.7392 20.1977 -4.0924
# 5 0.8551 1.3218 2.4188 20.1977 47.5523 -7.9360
# 6 19.1436 22.8306 21.0097 -4.0924 -7.9360 58.9904
#
#
#
# Elastic Compliance Matrix: (Units=1/GPa)
#
#
# Indices 1 2 3 4 5 6 
#
# 1 0.028248 -0.010153 -0.002412 0.000988 -0.001271 -0.004481
# 2 -0.010153 0.019791 -0.001413 -0.002264 -0.000005 -0.004019
# 3 -0.002412 -0.001413 0.010634 -0.002472 0.000157 -0.002608
# 4 0.000988 -0.002264 -0.002472 0.032062 -0.013131 0.001894
# 5 -0.001271 -0.000005 0.000157 -0.013131 0.027139 0.003099
# 6 -0.004481 -0.004019 -0.002608 0.001894 0.003099 0.021439
#
#
# Mechanical properties :
#
#
# Convention : Reuss Voigt Hill
#
# Bulk Modulus (GPa) = 32.55469 43.23539 37.89504
# Shear Modulus (GPa) = 28.16808 39.98223 34.07515
#
# Velocity S-wave (km/s) = 3.29037 3.92012 3.61897
# Velocity P-wave (km/s) = 5.19113 6.09159 5.65930
#
# Compressibility (1/GPa) = 0.03071754
#
# Stress axis : x y z
#
# Youngs Moduli (GPa) = 35.40120 50.52912 94.03799
#
# Poissons Ratio (x) = 0.51300 0.22682
# Poissons Ratio (y) = 0.35941 0.13286
# Poissons Ratio (z) = 0.08539 0.07139
#
# Static dielectric constant tensor:
#      x y z
#    x 1.968200 0.014280 -0.000760 
#    y 0.014280 2.126580 -0.012960 
#    z -0.000760 -0.012960 2.055430 
# 
# From -- ./inp_files/547398.got.cif
#   From: 2010.05.17/outbox.cif.g08.bks.cpg/sg2_274_cif.got.tgz:547398.got - 2010.06.03 11:33:40.
