data_PCOD9030091
_publ_section_title
;
Structure prediction by ZEFSAII (Michael W. Deem and Ramdas Pophale) SiO2 
 PCOD9030091
Probable space group: P -1
;
_chemical_formula_sum "Si O2"
_cell_formula_units_Z 16
_cell_length_a 20.633765
_cell_length_b 8.100406
_cell_length_c 18.249738
_cell_angle_alpha 76.583584
_cell_angle_beta 166.775559
_cell_angle_gamma 102.819400
_cell_volume 678.651486
_symmetry_space_group_name_H-M "P -1"
_symmetry_group_IT_number 2
_symmetry_cell_setting 'triclinic'
loop_
_space_group_symop_operation_xyz
x,y,z
-x,-y,-z
loop_
_atom_site_type_symbol
_atom_site_label
_atom_site_fract_x
_atom_site_fract_y
_atom_site_fract_z
Si Si1 0.492027 0.035673 0.714995
Si Si2 0.686958 0.072607 0.633229
Si Si3 0.214933 0.312230 0.892244
Si Si4 0.155649 0.202792 0.586755
Si Si5 0.254309 0.618084 0.249193
Si Si6 0.033035 0.756966 0.844039
Si Si7 0.215697 0.807098 0.682583
Si Si8 0.803746 0.499336 0.517904
O O1 0.213748 0.100690 0.443501
O O2 0.409429 0.980092 0.547621
O O3 0.709964 0.188741 0.930306
O O4 0.645632 0.874678 0.935941
O O5 0.670041 0.273546 0.607656
O O6 0.500000 0.000000 0.500000
O O7 0.000000 0.000000 0.000000
O O8 0.979039 0.311333 0.568904
O O9 0.028110 0.354493 0.754285
O O10 0.482604 0.435505 0.168817
O O11 0.154708 0.344886 0.509079
O O12 0.890513 0.215510 0.348479
O O13 0.169506 0.008074 0.593750
O O14 0.450043 0.228005 0.952464
O O15 0.500000 0.500000 0.500000
O O16 0.151106 0.741852 0.057630
O O17 0.000000 0.500000 0.000000
O O18 0.898421 0.580126 0.690287
#
# Coordination Sequence:
#
# PCOD9030091 Si02
#       8
#     2   2   2   2   2   2   2   2
#     4  12  25  46  70  93 131 179 223 273 316 396
#     4  12  23  45  69  99 127 170 229 268 325 389
#     4  12  27  43  66 102 134 174 217 276 329 381
#     4  10  22  42  69  96 129 175 215 269 318 394
#     4  12  26  42  69 100 133 171 212 278 335 389
#     4  12  26  47  67  95 133 181 221 262 333 395
#     4  10  22  42  69  97 128 172 226 258 320 392
#     4  12  27  43  65 100 139 172 215 273 337 384
#
# _framework density 23.576165
#
# number of rings (size 3 to 8) (size 9 to 14) (size 15 to 20)
#    0.000    0.500    2.500    5.250    3.500    6.000 
#    0.000    0.000    0.000    0.000    0.000    0.000 
#    0.000    0.000    0.000    0.000    0.000    0.000 
#
# Total GULP energy -89648.152211 kJ/mol
# GULP energy per Si atom -5603.009513 kJ/mol
# Density = 2.352251 g / cm^3
# Si number density = 23.576165 Si / 1000 Ang^3
#
#
#
# Elastic Constant Matrix: (Units=GPa)
#
#
# Indices 1 2 3 4 5 6 
#
# 1 39.8373 -2.8797 19.5851 7.9414 7.6584 -13.6453
# 2 -2.8797 52.1635 30.7180 18.3668 2.4429 -10.3762
# 3 19.5851 30.7180 119.5365 16.3989 17.4846 -12.4510
# 4 7.9414 18.3668 16.3989 53.9552 -7.0461 3.2197
# 5 7.6584 2.4429 17.4846 -7.0461 43.9622 1.9915
# 6 -13.6453 -10.3762 -12.4510 3.2197 1.9915 46.5128
#
#
#
# Elastic Compliance Matrix: (Units=1/GPa)
#
#
# Indices 1 2 3 4 5 6 
#
# 1 0.035852 0.011032 -0.005156 -0.009105 -0.006835 0.012522
# 2 0.011032 0.029222 -0.006503 -0.010522 -0.003048 0.008873
# 3 -0.005156 -0.006503 0.011575 -0.001027 -0.003525 0.000357
# 4 -0.009105 -0.010522 -0.001027 0.025111 0.006936 -0.007329
# 5 -0.006835 -0.003048 -0.003525 0.006936 0.026859 -0.005259
# 6 0.012522 0.008873 0.000357 -0.007329 -0.005259 0.027980
#
#
# Mechanical properties :
#
#
# Convention : Reuss Voigt Hill
#
# Bulk Modulus (GPa) = 13.26340 34.04268 23.65304
# Shear Modulus (GPa) = 27.32451 39.82697 33.57574
#
# Velocity S-wave (km/s) = 3.40809 4.11456 3.77787
# Velocity P-wave (km/s) = 4.59616 6.08634 5.39297
#
# Compressibility (1/GPa) = 0.07539547
#
# Stress axis : x y z
#
# Youngs Moduli (GPa) = 27.89211 34.22090 86.39055
#
# Poissons Ratio (x) = -0.37754 0.44544
# Poissons Ratio (y) = -0.30772 0.56183
# Poissons Ratio (z) = 0.14382 0.22255
#
# Static dielectric constant tensor:
#      x y z
#    x 1.910480 -0.030480 -0.042560 
#    y -0.030480 1.912080 0.007950 
#    z -0.042560 0.007950 1.849240 
# 
# From -- ./inp_files/601940.got.cif
#   From: 2010.05.17/outbox.cif.g08.bks.cpg/sg2_301_cif.got.tgz:601940.got - 2010.06.03 11:33:40.
