data_PCOD9030327
_publ_section_title
;
Structure prediction by ZEFSAII (Michael W. Deem and Ramdas Pophale) SiO2 
 PCOD9030327
Probable space group: P -1
;
_chemical_formula_sum "Si O2"
_cell_formula_units_Z 13
_cell_length_a 9.384207
_cell_length_b 10.877052
_cell_length_c 6.690523
_cell_angle_alpha 100.704895
_cell_angle_beta 62.867460
_cell_angle_gamma 88.380104
_cell_volume 592.183733
_symmetry_space_group_name_H-M "P -1"
_symmetry_group_IT_number 2
_symmetry_cell_setting 'triclinic'
loop_
_space_group_symop_operation_xyz
x,y,z
-x,-y,-z
loop_
_atom_site_type_symbol
_atom_site_label
_atom_site_fract_x
_atom_site_fract_y
_atom_site_fract_z
Si Si1 0.746416 0.350202 0.018108
Si Si2 0.974307 0.197057 0.076657
Si Si3 0.769485 0.019162 0.321022
Si Si4 0.111371 0.440242 0.229373
Si Si5 0.463417 0.327756 0.879276
Si Si6 0.487906 0.970505 0.227846
Si Si7 0.500000 0.500000 0.500000
O O1 0.855339 0.222697 0.971769
O O2 0.867251 0.447385 0.902269
O O3 0.618660 0.340650 0.920757
O O4 0.645680 0.398562 0.293088
O O5 0.874857 0.133012 0.288765
O O6 0.123139 0.098405 0.882939
O O7 0.030065 0.326127 0.153868
O O8 0.694710 0.990869 0.571190
O O9 0.610098 0.046425 0.293851
O O10 0.000000 0.500000 0.500000
O O11 0.300665 0.382407 0.125024
O O12 0.464501 0.178474 0.803125
O O13 0.471016 0.407045 0.693530
O O14 0.500000 0.000000 0.000000
#
# Coordination Sequence:
#
# PCOD9030327 Si02
#       7
#     2   2   2   2   2   2   1
#     4  11  25  42  68 101 135 181 232 277 348 405
#     4  11  23  47  66 100 141 180 224 291 343 404
#     4  10  24  45  70  96 138 182 229 278 346 403
#     4  11  25  42  67 100 141 178 227 282 347 410
#     4  11  24  46  69 102 136 181 236 276 339 418
#     4  11  23  44  71 104 131 181 232 282 336 410
#     4  10  22  42  70  92 136 182 228 276 332 402
#
# _framework density 21.952646000000001
#
# number of rings (size 3 to 8) (size 9 to 14) (size 15 to 20)
#    0.000    1.231    1.538    4.154    6.462    2.462 
#    0.000    2.308    0.000    0.000    0.000    0.000 
#    0.000    0.000    0.000    0.000    0.000    0.000 
#
# Total GULP energy -72383.428726 kJ/mol
# GULP energy per Si atom -5567.956056 kJ/mol
# Density = 2.190268 g / cm^3
# Si number density = 21.952646 Si / 1000 Ang^3
#
#
#
# Elastic Constant Matrix: (Units=GPa)
#
#
# Indices 1 2 3 4 5 6 
#
# 1 86.4064 35.2038 37.8128 -15.7358 -12.4870 8.5878
# 2 35.2038 81.8761 34.4454 -13.6637 -4.5843 21.6109
# 3 37.8128 34.4454 147.6630 -36.4041 -26.2358 16.0962
# 4 -15.7358 -13.6637 -36.4041 27.6382 2.5406 -1.7811
# 5 -12.4870 -4.5843 -26.2358 2.5406 26.3454 -2.4885
# 6 8.5878 21.6109 16.0962 -1.7811 -2.4885 30.0078
#
#
#
# Elastic Compliance Matrix: (Units=1/GPa)
#
#
# Indices 1 2 3 4 5 6 
#
# 1 0.015724 -0.005516 -0.000606 0.004961 0.005463 0.000545
# 2 -0.005516 0.018537 -0.000998 0.004161 -0.001836 -0.011142
# 3 -0.000606 -0.000998 0.013440 0.015565 0.010999 -0.004481
# 4 0.004961 0.004161 0.015565 0.059930 0.012020 -0.008211
# 5 0.005463 -0.001836 0.010999 0.012020 0.049900 -0.001290
# 6 0.000545 -0.011142 -0.004481 -0.008211 -0.001290 0.043002
#
#
# Mechanical properties :
#
#
# Convention : Reuss Voigt Hill
#
# Bulk Modulus (GPa) = 29.88379 58.98552 44.43466
# Shear Modulus (GPa) = 22.13100 30.69718 26.41409
#
# Velocity S-wave (km/s) = 3.17854 3.74349 3.47252
# Velocity P-wave (km/s) = 5.20704 6.75372 6.03017
#
# Compressibility (1/GPa) = 0.03346295
#
# Stress axis : x y z
#
# Youngs Moduli (GPa) = 63.59524 53.94505 74.40469
#
# Poissons Ratio (x) = 0.29757 0.04506
# Poissons Ratio (y) = 0.35081 0.07423
# Poissons Ratio (z) = 0.03851 0.05382
#
# Static dielectric constant tensor:
#      x y z
#    x 1.822650 0.015200 0.039420 
#    y 0.015200 1.821390 -0.003180 
#    z 0.039420 -0.003180 1.778910 
# 
# From -- ./inp_files/28649.got.cif
#   From: 2010.05.17/outbox.cif.g08.bks.cpg/sg2_15_cif.got.tgz:28649.got - 2010.06.03 11:33:40.
