data_PCOD9030806
_publ_section_title
;
Structure prediction by ZEFSAII (Michael W. Deem and Ramdas Pophale) SiO2 
 PCOD9030806
Probable space group: P -1
;
_chemical_formula_sum "Si O2"
_cell_formula_units_Z 15
_cell_length_a 15.583471
_cell_length_b 18.758010
_cell_length_c 9.041866
_cell_angle_alpha 137.918087
_cell_angle_beta 127.692014
_cell_angle_gamma 21.625594
_cell_volume 618.944345
_symmetry_space_group_name_H-M "P -1"
_symmetry_group_IT_number 2
_symmetry_cell_setting 'triclinic'
loop_
_space_group_symop_operation_xyz
x,y,z
-x,-y,-z
loop_
_atom_site_type_symbol
_atom_site_label
_atom_site_fract_x
_atom_site_fract_y
_atom_site_fract_z
Si Si1 0.129365 0.204775 0.411285
Si Si2 0.488904 0.190689 0.563092
Si Si3 0.208075 0.404933 0.103350
Si Si4 0.875955 0.222325 0.212202
Si Si5 0.916728 0.960018 0.541848
Si Si6 0.716424 0.838392 0.796733
Si Si7 0.500000 0.500000 0.000000
Si Si8 0.124053 0.608471 0.036390
O O1 0.168451 0.239223 0.361897
O O2 0.899843 0.438970 0.630245
O O3 0.064621 0.139809 0.208976
O O4 0.372309 0.995210 0.445785
O O5 0.703994 0.059933 0.503521
O O6 0.347595 0.229449 0.376325
O O7 0.318477 0.428311 0.829664
O O8 0.231629 0.458988 0.067360
O O9 0.000000 0.500000 0.000000
O O10 0.462244 0.125225 0.976286
O O11 0.627835 0.435415 0.186544
O O12 0.881467 0.235387 0.415945
O O13 0.000000 0.000000 0.000000
O O14 0.766929 0.201159 0.777441
O O15 0.039638 0.802939 0.281801
O O16 0.902342 0.724997 0.934900
#
# Coordination Sequence:
#
# PCOD9030806 Si02
#       8
#     2   2   2   2   2   2   1   2
#     4  11  22  42  69  92 134 181 215 268 336 387
#     4  11  22  43  64  94 142 177 213 267 325 386
#     4  12  23  42  65  92 137 183 222 264 320 394
#     4   9  20  41  69  95 118 167 222 271 334 395
#     4  10  23  43  66  96 127 173 216 272 333 388
#     4  12  26  40  64 103 141 178 223 265 321 393
#     4  10  22  42  74  90 124 166 222 278 340 392
#     4  12  25  39  65 101 134 173 226 267 317 395
#
# _framework density 24.234812000000002
#
# number of rings (size 3 to 8) (size 9 to 14) (size 15 to 20)
#    0.000    1.067    5.333    1.600    3.733    2.133 
#    0.000    0.667    0.000    8.000    0.000    0.000 
#    0.000    0.000    0.000    0.000    0.000    0.000 
#
# Total GULP energy -83661.799790 kJ/mol
# GULP energy per Si atom -5577.453319 kJ/mol
# Density = 2.417965 g / cm^3
# Si number density = 24.234812 Si / 1000 Ang^3
#
#
#
# Elastic Constant Matrix: (Units=GPa)
#
#
# Indices 1 2 3 4 5 6 
#
# 1 44.6375 3.8555 -0.8491 -10.2643 -4.4337 5.5778
# 2 3.8555 152.6537 36.2023 -6.9569 -7.2243 3.5322
# 3 -0.8491 36.2023 136.1343 15.8041 -4.6599 2.1561
# 4 -10.2643 -6.9569 15.8041 42.9113 -8.1500 3.7520
# 5 -4.4337 -7.2243 -4.6599 -8.1500 26.5846 -0.6022
# 6 5.5778 3.5322 2.1561 3.7520 -0.6022 23.3807
#
#
#
# Elastic Compliance Matrix: (Units=1/GPa)
#
#
# Indices 1 2 3 4 5 6 
#
# 1 0.025870 0.000347 -0.000556 0.008365 0.006710 -0.007342
# 2 0.000347 0.007319 -0.002146 0.002643 0.002450 -0.001352
# 3 -0.000556 -0.002146 0.008319 -0.003629 -0.000324 0.000264
# 4 0.008365 0.002643 -0.003629 0.029619 0.010409 -0.006545
# 5 0.006710 0.002450 -0.000324 0.010409 0.042478 -0.002517
# 6 -0.007342 -0.001352 0.000264 -0.006545 -0.002517 0.045687
#
#
# Mechanical properties :
#
#
# Convention : Reuss Voigt Hill
#
# Bulk Modulus (GPa) = 27.17554 45.76032 36.46793
# Shear Modulus (GPa) = 28.36606 38.18978 33.27792
#
# Velocity S-wave (km/s) = 3.42492 3.97397 3.70962
# Velocity P-wave (km/s) = 5.18439 6.32295 5.78176
#
# Compressibility (1/GPa) = 0.03679780
#
# Stress axis : x y z
#
# Youngs Moduli (GPa) = 38.65534 136.63897 120.20858
#
# Poissons Ratio (x) = -0.04744 0.06685
# Poissons Ratio (y) = -0.01342 0.25793
# Poissons Ratio (z) = 0.02150 0.29318
#
# Static dielectric constant tensor:
#      x y z
#    x 1.966250 0.037030 -0.011000 
#    y 0.037030 1.934410 -0.030970 
#    z -0.011000 -0.030970 2.064950 
# 
# From -- ./inp_files/337969.got.cif
#   From: 2010.05.17/outbox.cif.g08.bks.cpg/sg2_169_cif.got.tgz:337969.got - 2010.06.03 11:33:40.
