data_PCOD9030114
_publ_section_title
;
Structure prediction by ZEFSAII (Michael W. Deem and Ramdas Pophale) SiO2 
 PCOD9030114
Probable space group: P -1
;
_chemical_formula_sum "Si O2"
_cell_formula_units_Z 16
_cell_length_a 20.715170
_cell_length_b 9.326618
_cell_length_c 16.090143
_cell_angle_alpha 49.590937
_cell_angle_beta 161.673942
_cell_angle_gamma 133.330415
_cell_volume 710.927829
_symmetry_space_group_name_H-M "P -1"
_symmetry_group_IT_number 2
_symmetry_cell_setting 'triclinic'
loop_
_space_group_symop_operation_xyz
x,y,z
-x,-y,-z
loop_
_atom_site_type_symbol
_atom_site_label
_atom_site_fract_x
_atom_site_fract_y
_atom_site_fract_z
Si Si1 0.829268 0.782621 0.376291
Si Si2 0.758820 0.935207 0.838461
Si Si3 0.372578 0.340206 0.652931
Si Si4 0.830863 0.956050 0.611149
Si Si5 0.355559 0.773016 0.507820
Si Si6 0.286008 0.344156 0.264292
Si Si7 0.213918 0.666508 0.951673
Si Si8 0.471267 0.104736 0.147238
O O1 0.669298 0.749762 0.272129
O O2 0.993091 0.654440 0.638236
O O3 0.673407 0.765950 0.113323
O O4 0.000000 0.000000 0.500000
O O5 0.573383 0.924345 0.681161
O O6 0.686979 0.772255 0.741508
O O7 0.819440 0.139398 0.782924
O O8 0.945803 0.904724 0.136198
O O9 0.178594 0.197811 0.415775
O O10 0.351999 0.558820 0.553618
O O11 0.594332 0.346582 0.872852
O O12 0.762077 0.815546 0.660769
O O13 0.663852 0.072977 0.338297
O O14 0.396632 0.803590 0.643837
O O15 0.500000 0.500000 0.500000
O O16 0.160335 0.492107 0.019303
O O17 0.311020 0.878597 0.037298
#
# Coordination Sequence:
#
# PCOD9030114 Si02
#       8
#     2   2   2   2   2   2   2   2
#     4  10  25  44  69  97 130 175 232 281 328 387
#     4  11  24  38  64 100 138 173 211 271 334 408
#     4  11  24  45  66 101 130 177 226 277 326 398
#     4  11  24  39  68  99 129 178 218 269 342 400
#     4  11  23  42  63  96 139 170 220 268 337 400
#     4  12  19  41  66  98 134 174 218 266 341 397
#     4  10  22  42  69  97 133 177 218 275 333 395
#     4  10  22  43  65  92 131 175 216 279 332 383
#
# _framework density 22.505800000000001
#
# number of rings (size 3 to 8) (size 9 to 14) (size 15 to 20)
#    0.000    1.250    5.000    0.375    5.250    6.500 
#    0.000    0.625    0.000    0.000    0.000    0.000 
#    0.000    0.000    0.000    0.000    0.000    0.000 
#
# Total GULP energy -89167.667540 kJ/mol
# GULP energy per Si atom -5572.979221 kJ/mol
# Density = 2.245458 g / cm^3
# Si number density = 22.505800 Si / 1000 Ang^3
#
#
#
# Elastic Constant Matrix: (Units=GPa)
#
#
# Indices 1 2 3 4 5 6 
#
# 1 40.0881 11.8293 -7.6425 1.6995 -2.5384 -5.8410
# 2 11.8293 62.1257 21.8865 -5.6594 -3.4128 -23.2671
# 3 -7.6425 21.8865 124.8475 -21.8005 -1.4684 -11.9780
# 4 1.6995 -5.6594 -21.8005 28.0688 4.6634 -5.1333
# 5 -2.5384 -3.4128 -1.4684 4.6634 19.9820 5.3984
# 6 -5.8410 -23.2671 -11.9780 -5.1333 5.3984 41.3302
#
#
#
# Elastic Compliance Matrix: (Units=1/GPa)
#
#
# Indices 1 2 3 4 5 6 
#
# 1 0.027498 -0.005768 0.002627 -0.001069 0.002704 0.000915
# 2 -0.005768 0.023090 -0.002198 0.005865 -0.001695 0.012497
# 3 0.002627 -0.002198 0.010332 0.008417 -0.002181 0.003459
# 4 -0.001069 0.005865 0.008417 0.048057 -0.013324 0.013299
# 5 0.002704 -0.001695 -0.002181 -0.013324 0.055789 -0.010146
# 6 0.000915 0.012497 0.003459 0.013299 -0.010146 0.035339
#
#
# Mechanical properties :
#
#
# Convention : Reuss Voigt Hill
#
# Bulk Modulus (GPa) = 19.90320 31.02309 25.46315
# Shear Modulus (GPa) = 21.97514 31.27540 26.62527
#
# Velocity S-wave (km/s) = 3.12816 3.73186 3.44327
# Velocity P-wave (km/s) = 4.68081 5.69064 5.21025
#
# Compressibility (1/GPa) = 0.05024318
#
# Stress axis : x y z
#
# Youngs Moduli (GPa) = 36.36673 43.30849 96.78799
#
# Poissons Ratio (x) = 0.24979 -0.25428
# Poissons Ratio (y) = 0.20975 0.21272
# Poissons Ratio (z) = -0.09554 0.09518
#
# Static dielectric constant tensor:
#      x y z
#    x 1.876890 0.014650 -0.032770 
#    y 0.014650 1.954640 0.183820 
#    z -0.032770 0.183820 2.377760 
# 
# From -- ./inp_files/308211.got.cif
#   From: 2010.05.17/outbox.cif.g08.bks.cpg/sg2_155_cif.got.tgz:308211.got - 2010.06.03 11:33:40.
