data_PCOD9030041
_publ_section_title
;
Structure prediction by ZEFSAII (Michael W. Deem and Ramdas Pophale) SiO2 
 PCOD9030041
Probable space group: P -1
;
_chemical_formula_sum "Si O2"
_cell_formula_units_Z 9
_cell_length_a 11.227435
_cell_length_b 8.710087
_cell_length_c 7.132392
_cell_angle_alpha 33.959434
_cell_angle_beta 74.472510
_cell_angle_gamma 65.123984
_cell_volume 348.905644
_symmetry_space_group_name_H-M "P -1"
_symmetry_group_IT_number 2
_symmetry_cell_setting 'triclinic'
loop_
_space_group_symop_operation_xyz
x,y,z
-x,-y,-z
loop_
_atom_site_type_symbol
_atom_site_label
_atom_site_fract_x
_atom_site_fract_y
_atom_site_fract_z
Si Si1 0.384220 0.318122 0.035266
Si Si2 0.837118 0.551421 0.482285
Si Si3 0.000000 0.000000 0.000000
Si Si4 0.549639 0.685751 0.547633
Si Si5 0.081636 0.687332 0.700931
O O1 0.403960 0.317117 0.252433
O O2 0.422399 0.986819 0.281807
O O3 0.497474 0.425162 0.798257
O O4 0.236127 0.530869 0.837842
O O5 0.681142 0.658127 0.408289
O O6 0.919693 0.302098 0.538958
O O7 0.884824 0.822888 0.198069
O O8 0.888854 0.291371 0.876751
O O9 0.000000 0.000000 0.500000
O O10 0.000000 0.500000 0.000000
#
# Coordination Sequence:
#
# PCOD9030041 Si02
#       5
#     2   2   1   2   2
#     4  10  23  42  64  98 133 172 221 274 330 396
#     4  11  24  42  68  99 129 184 218 276 334 389
#     4  10  24  40  64 100 132 168 230 268 322 404
#     4  10  22  42  69  93 129 177 225 272 325 393
#     4  12  27  43  65 101 141 177 216 276 341 398
#
# _framework density 25.79494
#
# number of rings (size 3 to 8) (size 9 to 14) (size 15 to 20)
#    0.000    1.333    0.000    4.000    9.333    1.778 
#    0.000    0.000    0.000    0.000    0.000    0.000 
#    0.000    0.000    0.000    0.000    0.000    0.000 
#
# Total GULP energy -50207.320666 kJ/mol
# GULP energy per Si atom -5578.591185 kJ/mol
# Density = 2.573623 g / cm^3
# Si number density = 25.794940 Si / 1000 Ang^3
#
#
#
# Elastic Constant Matrix: (Units=GPa)
#
#
# Indices 1 2 3 4 5 6 
#
# 1 136.9743 47.7939 44.3893 4.9052 13.6420 -35.5501
# 2 47.7939 119.6470 42.2024 1.8310 1.7486 -20.3927
# 3 44.3893 42.2024 153.4723 -17.3542 -23.4919 0.3921
# 4 4.9052 1.8310 -17.3542 35.3637 4.1867 6.6342
# 5 13.6420 1.7486 -23.4919 4.1867 62.0908 -1.3201
# 6 -35.5501 -20.3927 0.3921 6.6342 -1.3201 39.4932
#
#
#
# Elastic Compliance Matrix: (Units=1/GPa)
#
#
# Indices 1 2 3 4 5 6 
#
# 1 0.012958 -0.001371 -0.004655 -0.005767 -0.003929 0.011840
# 2 -0.001371 0.010850 -0.003033 -0.002661 -0.000870 0.004817
# 3 -0.004655 -0.003033 0.010118 0.006530 0.004351 -0.006808
# 4 -0.005767 -0.002661 0.006530 0.034602 0.001216 -0.012402
# 5 -0.003929 -0.000870 0.004351 0.001216 0.018481 -0.003616
# 6 0.011840 0.004817 -0.006808 -0.012402 -0.003616 0.040496
#
#
# Mechanical properties :
#
#
# Convention : Reuss Voigt Hill
#
# Bulk Modulus (GPa) = 63.25781 75.42942 69.34362
# Shear Modulus (GPa) = 33.13611 45.77007 39.45309
#
# Velocity S-wave (km/s) = 3.58802 4.21691 3.91511
# Velocity P-wave (km/s) = 6.46078 7.28115 6.88320
#
# Compressibility (1/GPa) = 0.01580832
#
# Stress axis : x y z
#
# Youngs Moduli (GPa) = 77.17107 92.16749 98.83202
#
# Poissons Ratio (x) = 0.12633 0.46004
# Poissons Ratio (y) = 0.10577 0.29981
# Poissons Ratio (z) = 0.35922 0.27959
#
# Static dielectric constant tensor:
#      x y z
#    x 2.090090 0.117480 0.241960 
#    y 0.117480 2.133470 0.162380 
#    z 0.241960 0.162380 2.260490 
# 
# From -- ./inp_files/634.got.cif
#   From: 2010.05.17/outbox.cif.g08.bks.cpg/sg2_1_cif.got.tgz:634.got - 2010.06.03 11:33:40.
