data_PCOD9030849
_publ_section_title
;
Structure prediction by ZEFSAII (Michael W. Deem and Ramdas Pophale) SiO2 
 PCOD9030849
Probable space group: P -1
;
_chemical_formula_sum "Si O2"
_cell_formula_units_Z 14
_cell_length_a 11.266494
_cell_length_b 16.779543
_cell_length_c 9.221366
_cell_angle_alpha 145.997060
_cell_angle_beta 45.693767
_cell_angle_gamma 147.006557
_cell_volume 530.844675
_symmetry_space_group_name_H-M "P -1"
_symmetry_group_IT_number 2
_symmetry_cell_setting 'triclinic'
loop_
_space_group_symop_operation_xyz
x,y,z
-x,-y,-z
loop_
_atom_site_type_symbol
_atom_site_label
_atom_site_fract_x
_atom_site_fract_y
_atom_site_fract_z
Si Si1 0.012917 0.846058 0.345076
Si Si2 0.830384 0.213418 0.632568
Si Si3 0.393695 0.088549 0.171168
Si Si4 0.483576 0.228504 0.839926
Si Si5 0.833820 0.499401 0.443461
Si Si6 0.194549 0.458535 0.155500
Si Si7 0.821145 0.892728 0.863305
O O1 0.118729 0.766608 0.212319
O O2 0.917090 0.866575 0.601549
O O3 0.206979 0.021380 0.348655
O O4 0.839845 0.693614 0.148730
O O5 0.690689 0.272821 0.804918
O O6 0.045961 0.348867 0.556658
O O7 0.682150 0.993421 0.387721
O O8 0.592947 0.309463 0.328231
O O9 0.278164 0.023323 0.011828
O O10 0.500000 0.000000 0.000000
O O11 0.575749 0.344562 0.788788
O O12 0.380379 0.272877 0.116295
O O13 0.817002 0.583755 0.730663
O O14 0.996867 0.459744 0.291434
O O15 0.000000 0.000000 0.000000
#
# Coordination Sequence:
#
# PCOD9030849 Si02
#       7
#     2   2   2   2   2   2   2
#     4  12  25  45  70 108 153 194 241 306 377 439
#     4  10  22  42  76 107 141 190 253 310 361 439
#     4  12  26  50  82 109 144 198 254 304 368 444
#     4  10  22  43  72 100 144 198 247 296 371 432
#     4  10  23  44  72 114 144 185 256 314 364 427
#     4  10  23  41  71 107 150 187 250 310 367 438
#     4  12  28  48  74 111 155 198 244 304 379 446
#
# _framework density 26.373065
#
# number of rings (size 3 to 8) (size 9 to 14) (size 15 to 20)
#    0.000    1.143    2.857    2.143    4.000    4.000 
#    0.000    0.714    0.000    0.000    0.000    0.000 
#    0.000    0.000    0.000    0.000    0.000    0.000 
#
# Total GULP energy -78331.074766 kJ/mol
# GULP energy per Si atom -5595.076769 kJ/mol
# Density = 2.631304 g / cm^3
# Si number density = 26.373065 Si / 1000 Ang^3
#
#
#
# Elastic Constant Matrix: (Units=GPa)
#
#
# Indices 1 2 3 4 5 6 
#
# 1 118.5772 33.7686 39.2348 1.3799 37.7295 -20.3687
# 2 33.7686 234.2576 65.5210 -16.0950 30.6214 -16.8336
# 3 39.2348 65.5210 123.2743 -21.4128 33.7886 -0.5554
# 4 1.3799 -16.0950 -21.4128 49.3356 -1.2998 2.2432
# 5 37.7295 30.6214 33.7886 -1.2998 42.7345 -14.8487
# 6 -20.3687 -16.8336 -0.5554 2.2432 -14.8487 37.4826
#
#
#
# Elastic Compliance Matrix: (Units=1/GPa)
#
#
# Indices 1 2 3 4 5 6 
#
# 1 0.012286 -0.000025 -0.001921 -0.001559 -0.008140 0.003506
# 2 -0.000025 0.005258 -0.002328 0.000592 -0.001270 0.001774
# 3 -0.001921 -0.002328 0.013279 0.005083 -0.008980 -0.005754
# 4 -0.001559 0.000592 0.005083 0.022768 -0.003505 -0.003258
# 5 -0.008140 -0.001270 -0.008980 -0.003505 0.042653 0.011980
# 6 0.003506 0.001774 -0.005754 -0.003258 0.011980 0.034237
#
#
# Mechanical properties :
#
#
# Convention : Reuss Voigt Hill
#
# Bulk Modulus (GPa) = 44.89225 83.68421 64.28823
# Shear Modulus (GPa) = 34.14066 48.41618 41.27842
#
# Velocity S-wave (km/s) = 3.60186 4.28929 3.96052
# Velocity P-wave (km/s) = 5.86147 7.50537 6.73377
#
# Compressibility (1/GPa) = 0.02227556
#
# Stress axis : x y z
#
# Youngs Moduli (GPa) = 81.39040 190.19950 75.30796
#
# Poissons Ratio (x) = 0.00475 0.14468
# Poissons Ratio (y) = 0.00203 0.17528
# Poissons Ratio (z) = 0.15636 0.44270
#
# Static dielectric constant tensor:
#      x y z
#    x 2.135320 0.057100 -0.130560 
#    y 0.057100 2.027540 -0.024250 
#    z -0.130560 -0.024250 2.156620 
# 
# From -- ./inp_files/280070.got.cif
#   From: 2010.05.17/outbox.cif.g08.bks.cpg/sg2_141_cif.got.tgz:280070.got - 2010.06.03 11:33:40.
