data_PCOD9030703
_publ_section_title
;
Structure prediction by ZEFSAII (Michael W. Deem and Ramdas Pophale) SiO2 
 PCOD9030703
Probable space group: P -1
;
_chemical_formula_sum "Si O2"
_cell_formula_units_Z 14
_cell_length_a 5.449018
_cell_length_b 7.840794
_cell_length_c 20.869231
_cell_angle_alpha 107.169777
_cell_angle_beta 103.114935
_cell_angle_gamma 119.214403
_cell_volume 665.899708
_symmetry_space_group_name_H-M "P -1"
_symmetry_group_IT_number 2
_symmetry_cell_setting 'triclinic'
loop_
_space_group_symop_operation_xyz
x,y,z
-x,-y,-z
loop_
_atom_site_type_symbol
_atom_site_label
_atom_site_fract_x
_atom_site_fract_y
_atom_site_fract_z
Si Si1 0.623924 0.485709 0.147198
Si Si2 0.663759 0.074106 0.585815
Si Si3 0.638554 0.090026 0.320381
Si Si4 0.161094 0.444202 0.312987
Si Si5 0.728126 0.733063 0.302726
Si Si6 0.843942 0.396557 0.910983
Si Si7 0.507793 0.120981 0.182720
O O1 0.811387 0.657326 0.236467
O O2 0.384598 0.534738 0.112616
O O3 0.425557 0.243189 0.142578
O O4 0.874051 0.520289 0.114128
O O5 0.771835 0.322881 0.636522
O O6 0.985069 0.101172 0.615468
O O7 0.500000 0.000000 0.500000
O O8 0.449310 0.909721 0.612318
O O9 0.443719 0.106720 0.254443
O O10 0.001443 0.281725 0.345981
O O11 0.582404 0.855353 0.282846
O O12 0.481785 0.522218 0.307875
O O13 0.888795 0.294489 0.227615
O O14 0.636223 0.128128 0.873027
O O15 0.000000 0.500000 0.000000
#
# Coordination Sequence:
#
# PCOD9030703 Si02
#       7
#     2   2   2   2   2   2   2
#     4  12  24  45  75 101 144 187 239 290 347 429
#     4  11  23  39  60  94 138 177 223 296 359 410
#     4   9  21  40  63  95 129 173 238 279 346 413
#     4   9  21  39  59  94 125 171 237 283 335 418
#     4  11  20  39  69  92 128 182 237 286 345 414
#     4  12  28  47  70 108 148 184 230 295 361 423
#     4  10  22  42  72  99 133 183 242 284 349 413
#
# _framework density 21.024187000000001
#
# number of rings (size 3 to 8) (size 9 to 14) (size 15 to 20)
#    0.857    0.571    2.857    2.143    0.000    9.714 
#    0.000    1.429    0.000    0.000    0.000    0.000 
#    0.000    0.000    0.000    0.000    0.000    0.000 
#
# Total GULP energy -78009.758916 kJ/mol
# GULP energy per Si atom -5572.125637 kJ/mol
# Density = 2.097634 g / cm^3
# Si number density = 21.024187 Si / 1000 Ang^3
#
#
#
# Elastic Constant Matrix: (Units=GPa)
#
#
# Indices 1 2 3 4 5 6 
#
# 1 92.2326 55.5405 54.7295 -9.7602 7.1000 1.8949
# 2 55.5405 149.0576 64.7613 -20.0936 1.0164 -5.6211
# 3 54.7295 64.7613 147.8416 1.1070 13.5213 6.6911
# 4 -9.7602 -20.0936 1.1070 19.9981 1.5138 -4.9513
# 5 7.1000 1.0164 13.5213 1.5138 27.0653 -10.2852
# 6 1.8949 -5.6211 6.6911 -4.9513 -10.2852 43.7020
#
#
#
# Elastic Compliance Matrix: (Units=1/GPa)
#
#
# Indices 1 2 3 4 5 6 
#
# 1 0.016185 -0.003600 -0.004193 0.004556 -0.002496 -0.000594
# 2 -0.003600 0.011553 -0.004354 0.010904 0.003759 0.004429
# 3 -0.004193 -0.004354 0.010962 -0.007659 -0.005377 -0.004190
# 4 0.004556 0.010904 -0.007659 0.066005 0.002499 0.010444
# 5 -0.002496 0.003759 -0.005377 0.002499 0.044646 0.012205
# 6 -0.000594 0.004429 -0.004190 0.010444 0.012205 0.028175
#
#
# Mechanical properties :
#
#
# Convention : Reuss Voigt Hill
#
# Bulk Modulus (GPa) = 69.41775 82.13272 75.77523
# Shear Modulus (GPa) = 24.19864 32.42645 28.31255
#
# Velocity S-wave (km/s) = 3.39631 3.93152 3.67368
# Velocity P-wave (km/s) = 6.96201 7.73045 7.35627
#
# Compressibility (1/GPa) = 0.01440554
#
# Stress axis : x y z
#
# Youngs Moduli (GPa) = 61.78660 86.55574 91.22116
#
# Poissons Ratio (x) = 0.31159 0.38253
# Poissons Ratio (y) = 0.22243 0.39718
# Poissons Ratio (z) = 0.25910 0.37687
#
# Static dielectric constant tensor:
#      x y z
#    x 1.846190 -0.017240 0.004820 
#    y -0.017240 1.781990 -0.020900 
#    z 0.004820 -0.020900 1.732680 
# 
# From -- ./inp_files/548115.got.cif
#   From: 2010.05.17/outbox.cif.g08.bks.cpg/sg2_275_cif.got.tgz:548115.got - 2010.06.03 11:33:40.
