data_PCOD9030476
_publ_section_title
;
Structure prediction by ZEFSAII (Michael W. Deem and Ramdas Pophale) SiO2 
 PCOD9030476
Probable space group: P -1
;
_chemical_formula_sum "Si O2"
_cell_formula_units_Z 8
_cell_length_a 11.571437
_cell_length_b 7.357458
_cell_length_c 14.343248
_cell_angle_alpha 151.823642
_cell_angle_beta 28.924938
_cell_angle_gamma 140.740988
_cell_volume 278.861285
_symmetry_space_group_name_H-M "P -1"
_symmetry_group_IT_number 2
_symmetry_cell_setting 'triclinic'
loop_
_space_group_symop_operation_xyz
x,y,z
-x,-y,-z
loop_
_atom_site_type_symbol
_atom_site_label
_atom_site_fract_x
_atom_site_fract_y
_atom_site_fract_z
Si Si1 0.849574 0.703382 0.779211
Si Si2 0.102606 0.514060 0.796474
Si Si3 0.334122 0.665802 0.085322
Si Si4 0.478755 0.841752 0.547667
O O1 0.798210 0.359483 0.734191
O O2 0.000000 0.500000 0.500000
O O3 0.593287 0.862913 0.993918
O O4 0.954964 0.064777 0.927945
O O5 0.266168 0.558623 0.606771
O O6 0.273903 0.319867 0.662295
O O7 0.859581 0.294566 0.840908
O O8 0.415355 0.224624 0.820195
O O9 0.500000 0.000000 0.500000
#
# Coordination Sequence:
#
# PCOD9030476 Si02
#       4
#     2   2   2   2
#     4  10  22  42  71 103 142 180 231 291 345 412
#     4  10  23  46  72  99 140 186 229 286 350 411
#     4  10  23  43  70 100 140 181 234 286 341 419
#     4  10  22  42  75 102 135 185 235 284 346 414
#
# _framework density 28.688099000000001
#
# number of rings (size 3 to 8) (size 9 to 14) (size 15 to 20)
#    0.000    2.000    0.000    3.000    7.000    1.000 
#    0.000   23.750    5.500    0.000    0.000    0.000 
#    0.000    0.000    0.000    0.000    0.000    0.000 
#
# Total GULP energy -44810.423876 kJ/mol
# GULP energy per Si atom -5601.302985 kJ/mol
# Density = 2.862280 g / cm^3
# Si number density = 28.688099 Si / 1000 Ang^3
#
#
#
# Elastic Constant Matrix: (Units=GPa)
#
#
# Indices 1 2 3 4 5 6 
#
# 1 232.9506 92.7704 81.5551 -43.0261 -21.3787 8.3555
# 2 92.7704 110.1971 41.2267 -42.8972 10.5294 -7.6080
# 3 81.5551 41.2267 173.6829 -23.4137 8.1734 -5.6247
# 4 -43.0261 -42.8972 -23.4137 46.3545 -15.7809 1.7811
# 5 -21.3787 10.5294 8.1734 -15.7809 66.1950 -12.4597
# 6 8.3555 -7.6080 -5.6247 1.7811 -12.4597 67.6761
#
#
#
# Elastic Compliance Matrix: (Units=1/GPa)
#
#
# Indices 1 2 3 4 5 6 
#
# 1 0.008285 -0.005387 -0.002449 0.002988 0.004338 -0.001112
# 2 -0.005387 0.018368 -0.000164 0.011307 -0.001544 0.002134
# 3 -0.002449 -0.000164 0.007123 0.000684 -0.001367 0.000606
# 4 0.002988 0.011307 0.000684 0.037962 0.008416 0.001509
# 5 0.004338 -0.001544 -0.001367 0.008416 0.019405 0.002528
# 6 -0.001112 0.002134 0.000606 0.001509 0.002528 0.015630
#
#
# Mechanical properties :
#
#
# Convention : Reuss Voigt Hill
#
# Bulk Modulus (GPa) = 56.25972 105.32613 80.79292
# Shear Modulus (GPa) = 38.85048 56.13033 47.49040
#
# Velocity S-wave (km/s) = 3.68399 4.42811 4.07308
# Velocity P-wave (km/s) = 6.14403 7.93336 7.09532
#
# Compressibility (1/GPa) = 0.01777471
#
# Stress axis : x y z
#
# Youngs Moduli (GPa) = 120.69374 54.44340 140.39428
#
# Poissons Ratio (x) = 0.29329 0.34385
# Poissons Ratio (y) = 0.65019 0.02306
# Poissons Ratio (z) = 0.29560 0.00894
#
# Static dielectric constant tensor:
#      x y z
#    x 2.358870 -0.004690 0.100230 
#    y -0.004690 2.448200 -0.110460 
#    z 0.100230 -0.110460 2.286730 
# 
# From -- ./inp_files/156326.got.cif
#   From: 2010.05.17/outbox.cif.g08.bks.cpg/sg2_79_cif.got.tgz:156326.got - 2010.06.03 11:33:40.
