data_PCOD9030582
_publ_section_title
;
Structure prediction by ZEFSAII (Michael W. Deem and Ramdas Pophale) SiO2 
 PCOD9030582
Probable space group: P -1
;
_chemical_formula_sum "Si O2"
_cell_formula_units_Z 15
_cell_length_a 7.775995
_cell_length_b 12.719100
_cell_length_c 14.404702
_cell_angle_alpha 130.434023
_cell_angle_beta 72.458473
_cell_angle_gamma 68.485287
_cell_volume 653.858668
_symmetry_space_group_name_H-M "P -1"
_symmetry_group_IT_number 2
_symmetry_cell_setting 'triclinic'
loop_
_space_group_symop_operation_xyz
x,y,z
-x,-y,-z
loop_
_atom_site_type_symbol
_atom_site_label
_atom_site_fract_x
_atom_site_fract_y
_atom_site_fract_z
Si Si1 0.669202 0.703065 0.147112
Si Si2 0.583286 0.308251 0.494269
Si Si3 0.716547 0.806184 0.546711
Si Si4 0.278328 0.784625 0.383858
Si Si5 0.289095 0.477948 0.151563
Si Si6 0.639247 0.772138 0.843054
Si Si7 0.294988 0.764117 0.778121
Si Si8 0.000000 0.500000 0.500000
O O1 0.514964 0.752237 0.295504
O O2 0.521255 0.932656 0.269110
O O3 0.641406 0.612072 0.014139
O O4 0.000000 0.500000 0.000000
O O5 0.435006 0.247953 0.483251
O O6 0.785605 0.188165 0.481671
O O7 0.382919 0.562220 0.685750
O O8 0.722354 0.237734 0.330295
O O9 0.869175 0.704187 0.564757
O O10 0.959160 0.684258 0.358384
O O11 0.395878 0.567392 0.206281
O O12 0.000000 0.000000 0.500000
O O13 0.405769 0.292450 0.097119
O O14 0.553512 0.719680 0.739809
O O15 0.955455 0.618090 0.668906
O O16 0.500000 0.000000 0.000000
O O17 0.000000 0.000000 0.000000
#
# Coordination Sequence:
#
# PCOD9030582 Si02
#       8
#     2   2   2   2   2   2   2   1
#     4  12  28  47  74 107 147 194 255 306 370 437
#     4  11  26  47  69 103 148 188 239 299 368 434
#     4  11  24  45  74 104 141 194 245 303 374 439
#     4  12  26  50  74 104 146 199 246 304 366 434
#     4  11  25  46  72 103 144 186 247 303 364 434
#     4  11  23  42  70 104 136 179 235 291 360 429
#     4  11  26  44  68 106 142 186 231 292 365 431
#     4  10  22  42  72 100 140 180 236 294 364 428
#
# _framework density 22.940736999999999
#
# number of rings (size 3 to 8) (size 9 to 14) (size 15 to 20)
#    0.000    0.800    4.000    2.000    5.600    3.200 
#    0.000    0.000    0.000    0.000    0.000    0.000 
#    0.000    0.000    0.000    0.000    0.000    0.000 
#
# Total GULP energy -83572.574655 kJ/mol
# GULP energy per Si atom -5571.504977 kJ/mol
# Density = 2.288852 g / cm^3
# Si number density = 22.940737 Si / 1000 Ang^3
#
#
#
# Elastic Constant Matrix: (Units=GPa)
#
#
# Indices 1 2 3 4 5 6 
#
# 1 54.1613 33.6456 19.3213 16.3674 19.3627 -2.2253
# 2 33.6456 148.5661 52.7721 16.4359 14.6215 -16.0653
# 3 19.3213 52.7721 109.1338 32.1985 7.5567 -4.3613
# 4 16.3674 16.4359 32.1985 46.0080 2.0239 5.6475
# 5 19.3627 14.6215 7.5567 2.0239 39.9136 -3.3877
# 6 -2.2253 -16.0653 -4.3613 5.6475 -3.3877 38.0329
#
#
#
# Elastic Compliance Matrix: (Units=1/GPa)
#
#
# Indices 1 2 3 4 5 6 
#
# 1 0.027542 -0.004367 0.000388 -0.008005 -0.011431 -0.000018
# 2 -0.004367 0.009379 -0.003742 0.000448 -0.000362 0.003178
# 3 0.000388 -0.003742 0.013466 -0.008329 -0.000847 0.001147
# 4 -0.008005 0.000448 -0.008329 0.030785 0.003267 -0.005515
# 5 -0.011431 -0.000362 -0.000847 0.003267 0.030841 0.001343
# 6 -0.000018 0.003178 0.001147 -0.005515 0.001343 0.028705
#
#
# Mechanical properties :
#
#
# Convention : Reuss Voigt Hill
#
# Bulk Modulus (GPa) = 28.61646 58.14882 43.38264
# Shear Modulus (GPa) = 29.79605 38.53239 34.16422
#
# Velocity S-wave (km/s) = 3.60783 4.10280 3.86325
# Velocity P-wave (km/s) = 5.46411 6.91711 6.23309
#
# Compressibility (1/GPa) = 0.03494492
#
# Stress axis : x y z
#
# Youngs Moduli (GPa) = 36.30777 106.62166 74.26292
#
# Poissons Ratio (x) = 0.46558 -0.02880
# Poissons Ratio (y) = 0.15854 0.27790
# Poissons Ratio (z) = -0.01408 0.39899
#
# Static dielectric constant tensor:
#      x y z
#    x 1.802770 -0.055840 0.090570 
#    y -0.055840 1.846100 0.050930 
#    z 0.090570 0.050930 1.703020 
# 
# From -- ./inp_files/500816.got.cif
#   From: 2010.05.17/outbox.cif.g08.bks.cpg/sg2_251_cif.got.tgz:500816.got - 2010.06.03 11:33:40.
