data_PCOD9030150
_publ_section_title
;
Structure prediction by ZEFSAII (Michael W. Deem and Ramdas Pophale) SiO2 
 PCOD9030150
Probable space group: P -1
;
_chemical_formula_sum "Si O2"
_cell_formula_units_Z 14
_cell_length_a 5.403417
_cell_length_b 15.042896
_cell_length_c 20.675856
_cell_angle_alpha 159.601101
_cell_angle_beta 95.064020
_cell_angle_gamma 86.953069
_cell_volume 581.370751
_symmetry_space_group_name_H-M "P -1"
_symmetry_group_IT_number 2
_symmetry_cell_setting 'triclinic'
loop_
_space_group_symop_operation_xyz
x,y,z
-x,-y,-z
loop_
_atom_site_type_symbol
_atom_site_label
_atom_site_fract_x
_atom_site_fract_y
_atom_site_fract_z
Si Si1 0.135626 0.697559 0.012160
Si Si2 0.354131 0.911725 0.297763
Si Si3 0.439040 0.082173 0.183886
Si Si4 0.898971 0.235716 0.513489
Si Si5 0.726341 0.658057 0.885492
Si Si6 0.180808 0.550481 0.477784
Si Si7 0.441427 0.282778 0.711182
O O1 0.241798 0.793332 0.148028
O O2 0.275067 0.876917 0.082868
O O3 0.182256 0.397291 0.801053
O O4 0.856577 0.731959 0.007852
O O5 0.627549 0.070009 0.401017
O O6 0.132675 0.080439 0.432262
O O7 0.402278 0.693197 0.202011
O O8 0.282453 0.279320 0.276578
O O9 0.595076 0.259433 0.360148
O O10 0.617705 0.913146 0.031473
O O11 0.887920 0.498383 0.732908
O O12 0.937118 0.319328 0.496909
O O13 0.520144 0.446217 0.761690
O O14 0.000000 0.500000 0.500000
O O15 0.500000 0.000000 0.500000
#
# Coordination Sequence:
#
# PCOD9030150 Si02
#       7
#     2   2   2   2   2   2   2
#     4  11  24  44  69 103 141 183 238 289 347 414
#     4  12  26  46  70 106 141 188 240 288 345 416
#     4  10  22  42  69  99 136 177 234 285 356 411
#     4  12  27  45  73 104 145 181 237 292 352 418
#     4  11  25  43  70 101 143 187 227 293 351 417
#     4  11  23  44  73 101 133 186 231 293 350 422
#     4  11  24  43  70 100 144 187 234 286 351 413
#
# _framework density 24.081019000000001
#
# number of rings (size 3 to 8) (size 9 to 14) (size 15 to 20)
#    0.000    0.857    2.857    3.857    8.000    2.286 
#    0.000    2.857    0.000    0.000    0.000    0.000 
#    0.000    0.000    0.000    0.000    0.000    0.000 
#
# Total GULP energy -78161.171782 kJ/mol
# GULP energy per Si atom -5582.940842 kJ/mol
# Density = 2.402621 g / cm^3
# Si number density = 24.081019 Si / 1000 Ang^3
#
#
#
# Elastic Constant Matrix: (Units=GPa)
#
#
# Indices 1 2 3 4 5 6 
#
# 1 84.4083 9.8069 36.5735 8.4632 -17.0133 -8.0532
# 2 9.8069 61.4121 -2.7691 3.4477 -0.9411 1.4465
# 3 36.5735 -2.7691 119.4588 16.9485 -22.9523 -3.5018
# 4 8.4632 3.4477 16.9485 39.0116 -16.9903 -1.9658
# 5 -17.0133 -0.9411 -22.9523 -16.9903 42.3978 6.8614
# 6 -8.0532 1.4465 -3.5018 -1.9658 6.8614 29.2549
#
#
#
# Elastic Compliance Matrix: (Units=1/GPa)
#
#
# Indices 1 2 3 4 5 6 
#
# 1 0.014766 -0.002570 -0.003885 0.000354 0.003430 0.002946
# 2 -0.002570 0.016878 0.001304 -0.001758 -0.000428 -0.001404
# 3 -0.003885 0.001304 0.010555 -0.002446 0.003336 -0.000817
# 4 0.000354 -0.001758 -0.002446 0.031808 0.011639 -0.000701
# 5 0.003430 -0.000428 0.003336 0.011639 0.032302 -0.005429
# 6 0.002946 -0.001404 -0.000817 -0.000701 -0.005429 0.036191
#
#
# Mechanical properties :
#
#
# Convention : Reuss Voigt Hill
#
# Bulk Modulus (GPa) = 31.35116 39.16686 35.25901
# Shear Modulus (GPa) = 30.59333 36.91070 33.75201
#
# Velocity S-wave (km/s) = 3.56818 3.91931 3.74786
# Velocity P-wave (km/s) = 5.47934 6.06475 5.77946
#
# Compressibility (1/GPa) = 0.03189675
#
# Stress axis : x y z
#
# Youngs Moduli (GPa) = 67.72258 59.24938 94.74320
#
# Poissons Ratio (x) = 0.15226 0.36809
# Poissons Ratio (y) = 0.17404 -0.12355
# Poissons Ratio (z) = 0.26311 -0.07726
#
# Static dielectric constant tensor:
#      x y z
#    x 2.132230 0.054460 0.027770 
#    y 0.054460 1.900650 -0.001650 
#    z 0.027770 -0.001650 2.010650 
# 
# From -- ./inp_files/27040.got.cif
#   From: 2010.05.17/outbox.cif.g08.bks.cpg/sg2_14_cif.got.tgz:27040.got - 2010.06.03 11:33:40.
