data_PCOD9030268
_publ_section_title
;
Structure prediction by ZEFSAII (Michael W. Deem and Ramdas Pophale) SiO2 
 PCOD9030268
Probable space group: P -1
;
_chemical_formula_sum "Si O2"
_cell_formula_units_Z 14
_cell_length_a 11.347717
_cell_length_b 12.285482
_cell_length_c 12.995793
_cell_angle_alpha 126.489150
_cell_angle_beta 158.077847
_cell_angle_gamma 58.154285
_cell_volume 542.073340
_symmetry_space_group_name_H-M "P -1"
_symmetry_group_IT_number 2
_symmetry_cell_setting 'triclinic'
loop_
_space_group_symop_operation_xyz
x,y,z
-x,-y,-z
loop_
_atom_site_type_symbol
_atom_site_label
_atom_site_fract_x
_atom_site_fract_y
_atom_site_fract_z
Si Si1 0.429333 0.082524 0.213395
Si Si2 0.211217 0.533113 0.355415
Si Si3 0.731331 0.156666 0.190831
Si Si4 0.000000 0.000000 0.000000
Si Si5 0.182349 0.365231 0.568369
Si Si6 0.130711 0.704881 0.933101
Si Si7 0.699923 0.717872 0.961203
Si Si8 0.000000 0.000000 0.500000
O O1 0.308769 0.198518 0.105193
O O2 0.300679 0.083257 0.224983
O O3 0.794917 0.062267 0.473394
O O4 0.266654 0.940610 0.958720
O O5 0.500000 0.500000 0.500000
O O6 0.383898 0.613540 0.636052
O O7 0.016097 0.395782 0.155044
O O8 0.990956 0.630765 0.170763
O O9 0.369280 0.195256 0.941533
O O10 0.003064 0.270875 0.454155
O O11 0.793771 0.083591 0.304844
O O12 0.201095 0.863941 0.102452
O O13 0.000000 0.500000 0.500000
O O14 0.111533 0.302662 0.363031
O O15 0.553891 0.364580 0.886251
#
# Coordination Sequence:
#
# PCOD9030268 Si02
#       8
#     2   2   2   1   2   2   2   1
#     4  11  25  46  73 113 153 204 255 317 385 465
#     4  12  26  49  72 107 146 198 260 314 388 463
#     4  11  24  43  73 109 153 194 261 314 386 455
#     4  12  26  52  74 112 164 208 252 320 394 478
#     4  12  26  49  76 111 153 203 259 321 385 463
#     4  12  27  49  74 112 155 202 259 317 395 463
#     4  11  26  44  78 109 147 199 255 326 377 453
#     4  10  22  42  70 104 150 192 256 318 366 458
#
# _framework density 25.826764000000001
#
# number of rings (size 3 to 8) (size 9 to 14) (size 15 to 20)
#    0.000    0.571    1.429    6.857    8.000    1.714 
#    5.143    0.000    0.000    0.000    0.000    0.000 
#    0.000    0.000    0.000    0.000    0.000    0.000 
#
# Total GULP energy -77955.849734 kJ/mol
# GULP energy per Si atom -5568.274981 kJ/mol
# Density = 2.576798 g / cm^3
# Si number density = 25.826764 Si / 1000 Ang^3
#
#
#
# Elastic Constant Matrix: (Units=GPa)
#
#
# Indices 1 2 3 4 5 6 
#
# 1 90.0730 33.4178 28.6518 -6.6083 33.0433 4.6848
# 2 33.4178 166.3367 39.2908 -17.1893 25.6666 14.6830
# 3 28.6518 39.2908 108.2704 -30.9646 21.9852 12.6842
# 4 -6.6083 -17.1893 -30.9646 44.0188 1.3532 12.0448
# 5 33.0433 25.6666 21.9852 1.3532 49.8475 5.7000
# 6 4.6848 14.6830 12.6842 12.0448 5.7000 35.1947
#
#
#
# Elastic Compliance Matrix: (Units=1/GPa)
#
#
# Indices 1 2 3 4 5 6 
#
# 1 0.015398 -0.001266 -0.001548 0.000961 -0.008916 0.000152
# 2 -0.001266 0.007422 -0.000464 0.003424 -0.002467 -0.003533
# 3 -0.001548 -0.000464 0.015645 0.013193 -0.004970 -0.008949
# 4 0.000961 0.003424 0.013193 0.038737 -0.007166 -0.018408
# 5 -0.008916 -0.002467 -0.004970 -0.007166 0.029434 0.001692
# 6 0.000152 -0.003533 -0.008949 -0.018408 0.001692 0.039118
#
#
# Mechanical properties :
#
#
# Convention : Reuss Voigt Hill
#
# Bulk Modulus (GPa) = 31.33985 63.04454 47.19220
# Shear Modulus (GPa) = 30.68494 43.36685 37.02589
#
# Velocity S-wave (km/s) = 3.45063 4.10218 3.79043
# Velocity P-wave (km/s) = 5.29498 6.84841 6.12117
#
# Compressibility (1/GPa) = 0.03190825
#
# Stress axis : x y z
#
# Youngs Moduli (GPa) = 64.94556 134.72897 63.91850
#
# Poissons Ratio (x) = 0.17059 0.09893
# Poissons Ratio (y) = 0.08223 0.02968
# Poissons Ratio (z) = 0.10052 0.06257
#
# Static dielectric constant tensor:
#      x y z
#    x 2.109170 -0.157210 -0.061710 
#    y -0.157210 2.183170 0.143200 
#    z -0.061710 0.143200 2.060950 
# 
# From -- ./inp_files/67563.got.cif
#   From: 2010.05.17/outbox.cif.g08.bks.cpg/sg2_34_cif.got.tgz:67563.got - 2010.06.03 11:33:40.
