data_PCOD9030656
_publ_section_title
;
Structure prediction by ZEFSAII (Michael W. Deem and Ramdas Pophale) SiO2 
 PCOD9030656
Probable space group: P -1
;
_chemical_formula_sum "Si O2"
_cell_formula_units_Z 14
_cell_length_a 11.347798
_cell_length_b 8.157289
_cell_length_c 19.670472
_cell_angle_alpha 133.517629
_cell_angle_beta 29.407007
_cell_angle_gamma 114.669289
_cell_volume 556.720640
_symmetry_space_group_name_H-M "P -1"
_symmetry_group_IT_number 2
_symmetry_cell_setting 'triclinic'
loop_
_space_group_symop_operation_xyz
x,y,z
-x,-y,-z
loop_
_atom_site_type_symbol
_atom_site_label
_atom_site_fract_x
_atom_site_fract_y
_atom_site_fract_z
Si Si1 0.166825 0.717466 0.959864
Si Si2 0.439162 0.795946 0.625867
Si Si3 0.395404 0.234952 0.029057
Si Si4 0.604882 0.834832 0.704993
Si Si5 0.087398 0.035796 0.212391
Si Si6 0.177584 0.720992 0.366817
Si Si7 0.563615 0.172712 0.601300
O O1 0.255502 0.419815 0.812162
O O2 0.432997 0.729151 0.801389
O O3 0.155981 0.776692 0.062157
O O4 0.885915 0.965633 0.141872
O O5 0.500000 0.500000 0.500000
O O6 0.563255 0.808459 0.639342
O O7 0.568292 0.901548 0.534013
O O8 0.329702 0.511133 0.170503
O O9 0.143989 0.201590 0.175196
O O10 0.456894 0.136959 0.892969
O O11 0.683478 0.029330 0.863648
O O12 0.934971 0.679196 0.508876
O O13 0.785587 0.148448 0.427685
O O14 0.349912 0.751592 0.349164
O O15 0.000000 0.000000 0.500000
#
# Coordination Sequence:
#
# PCOD9030656 Si02
#       7
#     2   2   2   2   2   2   2
#     4  11  26  49  75 107 148 198 252 294 358 448
#     4  12  30  54  72 104 150 206 251 302 366 437
#     4  10  22  42  72 112 152 183 235 296 379 446
#     4  11  25  47  76 107 147 197 238 305 374 439
#     4  10  22  42  75 111 143 190 233 305 366 431
#     4  12  24  43  71 117 153 183 237 310 382 438
#     4  12  25  48  78 111 146 190 251 311 362 436
#
# _framework density 25.147262000000001
#
# number of rings (size 3 to 8) (size 9 to 14) (size 15 to 20)
#    0.000    0.857    4.286    1.714    6.000    2.286 
#   10.286    0.000    0.000    0.000    0.000    0.000 
#    0.000    0.000    0.000    0.000    0.000    0.000 
#
# Total GULP energy -78317.700137 kJ/mol
# GULP energy per Si atom -5594.121438 kJ/mol
# Density = 2.509003 g / cm^3
# Si number density = 25.147262 Si / 1000 Ang^3
#
#
#
# Elastic Constant Matrix: (Units=GPa)
#
#
# Indices 1 2 3 4 5 6 
#
# 1 76.3898 29.7548 20.5519 14.6621 4.7730 17.0372
# 2 29.7548 125.9138 68.7570 7.4757 5.1426 15.1014
# 3 20.5519 68.7570 145.6440 8.7212 10.3349 -3.5159
# 4 14.6621 7.4757 8.7212 42.2482 6.6140 -3.9237
# 5 4.7730 5.1426 10.3349 6.6140 44.4203 1.2431
# 6 17.0372 15.1014 -3.5159 -3.9237 1.2431 23.7741
#
#
#
# Elastic Compliance Matrix: (Units=1/GPa)
#
#
# Indices 1 2 3 4 5 6 
#
# 1 0.018586 -0.001218 -0.001963 -0.007140 0.000056 -0.014018
# 2 -0.001218 0.012478 -0.005867 -0.001411 0.000490 -0.008180
# 3 -0.001963 -0.005867 0.010169 0.000526 -0.001745 0.006815
# 4 -0.007140 -0.001411 0.000526 0.027870 -0.003646 0.010881
# 5 0.000056 0.000490 -0.001745 -0.003646 0.023467 -0.002438
# 6 -0.014018 -0.008180 0.006815 0.010881 -0.002438 0.060235
#
#
# Mechanical properties :
#
#
# Convention : Reuss Voigt Hill
#
# Bulk Modulus (GPa) = 43.21524 65.11944 54.16734
# Shear Modulus (GPa) = 27.99348 37.34743 32.67046
#
# Velocity S-wave (km/s) = 3.34006 3.85794 3.60830
# Velocity P-wave (km/s) = 5.66541 6.76731 6.24072
#
# Compressibility (1/GPa) = 0.02313998
#
# Stress axis : x y z
#
# Youngs Moduli (GPa) = 53.80260 80.14094 98.33345
#
# Poissons Ratio (x) = 0.09757 0.19301
# Poissons Ratio (y) = 0.06551 0.57689
# Poissons Ratio (z) = 0.10560 0.47016
#
# Static dielectric constant tensor:
#      x y z
#    x 1.975480 0.036270 -0.029240 
#    y 0.036270 2.129500 0.012490 
#    z -0.029240 0.012490 1.995720 
# 
# From -- ./inp_files/429270.got.cif
#   From: 2010.05.17/outbox.cif.g08.bks.cpg/sg2_215_cif.got.tgz:429270.got - 2010.06.03 11:33:40.
