data_PCOD9030264
_publ_section_title
;
Structure prediction by ZEFSAII (Michael W. Deem and Ramdas Pophale) SiO2 
 PCOD9030264
Probable space group: P -1
;
_chemical_formula_sum "Si O2"
_cell_formula_units_Z 13
_cell_length_a 10.343239
_cell_length_b 11.576530
_cell_length_c 5.086749
_cell_angle_alpha 78.580429
_cell_angle_beta 95.171769
_cell_angle_gamma 65.876002
_cell_volume 534.826979
_symmetry_space_group_name_H-M "P -1"
_symmetry_group_IT_number 2
_symmetry_cell_setting 'triclinic'
loop_
_space_group_symop_operation_xyz
x,y,z
-x,-y,-z
loop_
_atom_site_type_symbol
_atom_site_label
_atom_site_fract_x
_atom_site_fract_y
_atom_site_fract_z
Si Si1 0.627773 0.255937 0.438588
Si Si2 0.500000 0.500000 0.500000
Si Si3 0.937140 0.901842 0.140503
Si Si4 0.592156 0.646064 0.009802
Si Si5 0.095669 0.759870 0.744061
Si Si6 0.600901 0.073184 0.941888
Si Si7 0.095608 0.489905 0.774337
O O1 0.651519 0.350188 0.614310
O O2 0.759471 0.219859 0.277882
O O3 0.608562 0.138862 0.632287
O O4 0.463973 0.375174 0.279482
O O5 0.569558 0.551222 0.248412
O O6 0.987507 0.856183 0.463948
O O7 0.013938 0.786634 0.995584
O O8 0.764759 0.972232 0.071437
O O9 0.000000 0.000000 0.000000
O O10 0.474734 0.796727 0.950041
O O11 0.749827 0.633703 0.096677
O O12 0.129452 0.614055 0.737332
O O13 0.500000 0.000000 0.000000
O O14 0.000000 0.500000 0.500000
O O15 0.000000 0.500000 0.000000
#
# Coordination Sequence:
#
# PCOD9030264 Si02
#       7
#     2   1   2   2   2   2   2
#     4  11  24  44  75 110 137 196 245 313 374 442
#     4  10  22  42  70 104 144 172 246 304 370 432
#     4  12  26  49  75 111 152 198 255 310 368 452
#     4  11  26  45  75 105 146 188 248 308 377 440
#     4  12  27  46  81 107 149 198 253 311 377 444
#     4  11  28  46  71 104 152 196 249 302 373 443
#     4  12  30  49  73 110 152 197 247 308 385 453
#
# _framework density 24.306926000000001
#
# number of rings (size 3 to 8) (size 9 to 14) (size 15 to 20)
#    0.000    0.615    3.077    2.769   12.923    0.615 
#    0.000    0.000    0.000    0.000    0.000    0.000 
#    0.000    0.000    0.000    0.000    0.000    0.000 
#
# Total GULP energy -72463.610421 kJ/mol
# GULP energy per Si atom -5574.123879 kJ/mol
# Density = 2.425160 g / cm^3
# Si number density = 24.306926 Si / 1000 Ang^3
#
#
#
# Elastic Constant Matrix: (Units=GPa)
#
#
# Indices 1 2 3 4 5 6 
#
# 1 217.7169 43.0735 67.7879 -14.2721 11.8019 -26.6253
# 2 43.0735 62.5180 1.9076 -10.1258 7.1312 -5.5688
# 3 67.7879 1.9076 139.3156 -9.1336 8.5153 -8.5333
# 4 -14.2721 -10.1258 -9.1336 37.5910 3.2475 -8.5847
# 5 11.8019 7.1312 8.5153 3.2475 38.4033 -18.9753
# 6 -26.6253 -5.5688 -8.5333 -8.5847 -18.9753 43.2254
#
#
#
# Elastic Compliance Matrix: (Units=1/GPa)
#
#
# Indices 1 2 3 4 5 6 
#
# 1 0.006877 -0.004176 -0.003017 0.001547 0.001130 0.003905
# 2 -0.004176 0.019920 0.002258 0.004591 -0.003367 -0.000127
# 3 -0.003017 0.002258 0.008816 0.001698 -0.001709 -0.000240
# 4 0.001547 0.004591 0.001698 0.030652 -0.000459 0.007765
# 5 0.001130 -0.003367 -0.001709 -0.000459 0.034036 0.014775
# 6 0.003905 -0.000127 -0.000240 0.007765 0.014775 0.033505
#
#
# Mechanical properties :
#
#
# Convention : Reuss Voigt Hill
#
# Bulk Modulus (GPa) = 38.84593 71.67650 55.26122
# Shear Modulus (GPa) = 32.83947 44.29603 38.56775
#
# Velocity S-wave (km/s) = 3.67963 4.27354 3.98766
# Velocity P-wave (km/s) = 5.83687 7.34187 6.63220
#
# Compressibility (1/GPa) = 0.02574272
#
# Stress axis : x y z
#
# Youngs Moduli (GPa) = 145.42210 50.20036 113.42764
#
# Poissons Ratio (x) = 0.20965 0.34224
# Poissons Ratio (y) = 0.60731 -0.25616
# Poissons Ratio (z) = 0.43877 -0.11337
#
# Static dielectric constant tensor:
#      x y z
#    x 1.789460 -0.340750 -0.088920 
#    y -0.340750 2.262050 -0.469150 
#    z -0.088920 -0.469150 1.782750 
# 
# From -- ./inp_files/23335.got.cif
#   From: 2010.05.17/outbox.cif.g08.bks.cpg/sg2_12_cif.got.tgz:23335.got - 2010.06.03 11:33:40.
