data_PCOD9030957
_publ_section_title
;
Structure prediction by ZEFSAII (Michael W. Deem and Ramdas Pophale) SiO2 
 PCOD9030957
Probable space group: P -1
;
_chemical_formula_sum "Si O2"
_cell_formula_units_Z 14
_cell_length_a 5.220051
_cell_length_b 15.887012
_cell_length_c 8.445235
_cell_angle_alpha 94.063748
_cell_angle_beta 89.297646
_cell_angle_gamma 128.936160
_cell_volume 542.941832
_symmetry_space_group_name_H-M "P -1"
_symmetry_group_IT_number 2
_symmetry_cell_setting 'triclinic'
loop_
_space_group_symop_operation_xyz
x,y,z
-x,-y,-z
loop_
_atom_site_type_symbol
_atom_site_label
_atom_site_fract_x
_atom_site_fract_y
_atom_site_fract_z
Si Si1 0.747523 0.858088 0.380521
Si Si2 0.378058 0.093655 0.063599
Si Si3 0.834684 0.575465 0.880701
Si Si4 0.432389 0.946593 0.252859
Si Si5 0.548165 0.262305 0.316442
Si Si6 0.778546 0.369892 0.803957
Si Si7 0.614222 0.460903 0.360038
O O1 0.709306 0.948109 0.338958
O O2 0.573067 0.817710 0.546476
O O3 0.522351 0.751515 0.256156
O O4 0.111497 0.895017 0.357173
O O5 0.382344 0.186726 0.152891
O O6 0.497832 0.052314 0.192156
O O7 0.608780 0.118173 0.915888
O O8 0.000000 0.000000 0.000000
O O9 0.712145 0.453320 0.859647
O O10 0.521529 0.562030 0.822862
O O11 0.083380 0.647982 0.743032
O O12 0.025813 0.629090 0.048550
O O13 0.479975 0.341799 0.389141
O O14 0.009161 0.433800 0.657457
O O15 0.500000 0.500000 0.500000
#
# Coordination Sequence:
#
# PCOD9030957 Si02
#       7
#     2   2   2   2   2   2   2
#     4  12  26  47  72 115 142 200 236 312 368 442
#     4  11  25  54  76 108 144 197 243 316 365 447
#     4  10  22  43  63 105 136 199 242 302 356 442
#     4  11  27  49  78 105 146 191 249 301 377 434
#     4  11  27  44  71 109 149 192 252 300 375 439
#     4  10  23  41  68  98 149 185 253 295 362 430
#     4  11  23  42  71 106 150 198 241 308 363 440
#
# _framework density 25.785450000000001
#
# number of rings (size 3 to 8) (size 9 to 14) (size 15 to 20)
#    0.000    1.143    1.429    3.000    6.000    6.857 
#    5.143    0.000    0.000    0.000    0.000    0.000 
#    0.000    0.000    0.000    0.000    0.000    0.000 
#
# Total GULP energy -78168.792673 kJ/mol
# GULP energy per Si atom -5583.485191 kJ/mol
# Density = 2.572676 g / cm^3
# Si number density = 25.785450 Si / 1000 Ang^3
#
#
#
# Elastic Constant Matrix: (Units=GPa)
#
#
# Indices 1 2 3 4 5 6 
#
# 1 80.0987 28.7614 24.9137 -0.1226 -7.0685 -11.1974
# 2 28.7614 78.4829 29.1231 4.3069 -15.4397 -5.2335
# 3 24.9137 29.1231 132.2970 -1.3989 -29.4513 -2.2247
# 4 -0.1226 4.3069 -1.3989 55.4646 -2.5769 3.2750
# 5 -7.0685 -15.4397 -29.4513 -2.5769 43.8065 -0.9719
# 6 -11.1974 -5.2335 -2.2247 3.2750 -0.9719 19.5727
#
#
#
# Elastic Compliance Matrix: (Units=1/GPa)
#
#
# Indices 1 2 3 4 5 6 
#
# 1 0.015764 -0.004607 -0.001867 -0.000110 -0.000173 0.007585
# 2 -0.004607 0.016014 -0.001830 -0.001239 0.003638 0.001827
# 3 -0.001867 -0.001830 0.009539 0.000652 0.005498 -0.000309
# 4 -0.000110 -0.001239 0.000652 0.018386 0.000991 -0.003347
# 5 -0.000173 0.003638 0.005498 0.000991 0.027897 0.002718
# 6 0.007585 0.001827 -0.000309 -0.003347 0.002718 0.056579
#
#
# Mechanical properties :
#
#
# Convention : Reuss Voigt Hill
#
# Bulk Modulus (GPa) = 40.46913 50.71943 45.59428
# Shear Modulus (GPa) = 29.58173 37.64079 33.61126
#
# Velocity S-wave (km/s) = 3.39075 3.82484 3.61431
# Velocity P-wave (km/s) = 5.57299 6.26245 5.92775
#
# Compressibility (1/GPa) = 0.02471019
#
# Stress axis : x y z
#
# Youngs Moduli (GPa) = 63.43497 62.44349 104.83403
#
# Poissons Ratio (x) = 0.28765 0.19570
# Poissons Ratio (y) = 0.29222 0.19188
# Poissons Ratio (z) = 0.11842 0.11429
#
# Static dielectric constant tensor:
#      x y z
#    x 2.142440 0.005440 0.041030 
#    y 0.005440 2.042850 -0.037190 
#    z 0.041030 -0.037190 2.063950 
# 
# From -- ./inp_files/139152.got.cif
#   From: 2010.05.17/outbox.cif.g08.bks.cpg/sg2_70_cif.got.tgz:139152.got - 2010.06.03 11:33:40.
