data_PCOD9030337
_publ_section_title
;
Structure prediction by ZEFSAII (Michael W. Deem and Ramdas Pophale) SiO2 
 PCOD9030337
Probable space group: P -1
;
_chemical_formula_sum "Si O2"
_cell_formula_units_Z 12
_cell_length_a 5.189040
_cell_length_b 20.294449
_cell_length_c 10.642561
_cell_angle_alpha 32.207831
_cell_angle_beta 121.608118
_cell_angle_gamma 120.105704
_cell_volume 504.547107
_symmetry_space_group_name_H-M "P -1"
_symmetry_group_IT_number 2
_symmetry_cell_setting 'triclinic'
loop_
_space_group_symop_operation_xyz
x,y,z
-x,-y,-z
loop_
_atom_site_type_symbol
_atom_site_label
_atom_site_fract_x
_atom_site_fract_y
_atom_site_fract_z
Si Si1 0.668189 0.782965 0.464968
Si Si2 0.767282 0.890149 0.055483
Si Si3 0.933240 0.641973 0.392517
Si Si4 0.305089 0.048456 0.572532
Si Si5 0.314401 0.697535 0.744718
Si Si6 0.522406 0.509982 0.290148
O O1 0.961613 0.710170 0.650877
O O2 0.601737 0.826054 0.239603
O O3 0.761566 0.905667 0.377111
O O4 0.409662 0.706750 0.607878
O O5 0.930774 0.785278 0.197837
O O6 0.466131 0.053263 0.186780
O O7 0.000000 0.000000 0.000000
O O8 0.708924 0.611969 0.264083
O O9 0.762254 0.557874 0.595575
O O10 0.242120 0.587006 0.524621
O O11 0.489785 0.174964 0.358129
O O12 0.000000 0.000000 0.500000
O O13 0.413283 0.579403 0.029523
#
# Coordination Sequence:
#
# PCOD9030337 Si02
#       6
#     2   2   2   2   2   2
#     4  10  23  42  65 101 142 189 226 285 368 427
#     4  12  24  48  72 105 155 187 237 291 367 447
#     4  10  25  41  75 101 139 193 234 295 366 408
#     4  10  25  40  70 105 138 189 242 293 354 414
#     4  10  22  42  70  93 146 180 234 298 351 414
#     4  10  22  47  67 105 140 178 252 299 342 425
#
# _framework density 23.783705000000001
#
# number of rings (size 3 to 8) (size 9 to 14) (size 15 to 20)
#    1.000    0.667    1.667    1.500    2.333    8.667 
#    0.000    5.000    0.000    0.000    0.000    0.000 
#    0.000    0.000    0.000    0.000    0.000    0.000 
#
# Total GULP energy -67187.282781 kJ/mol
# GULP energy per Si atom -5598.940232 kJ/mol
# Density = 2.372957 g / cm^3
# Si number density = 23.783705 Si / 1000 Ang^3
#
#
#
# Elastic Constant Matrix: (Units=GPa)
#
#
# Indices 1 2 3 4 5 6 
#
# 1 148.3533 25.4394 48.7851 -10.6570 5.0744 -12.1699
# 2 25.4394 126.1695 35.3033 -24.5260 3.9329 -4.6237
# 3 48.7851 35.3033 112.2134 -14.4063 11.6475 10.1411
# 4 -10.6570 -24.5260 -14.4063 24.7855 -5.3586 2.3086
# 5 5.0744 3.9329 11.6475 -5.3586 29.5903 11.1076
# 6 -12.1699 -4.6237 10.1411 2.3086 11.1076 34.5119
#
#
#
# Elastic Compliance Matrix: (Units=1/GPa)
#
#
# Indices 1 2 3 4 5 6 
#
# 1 0.008498 -0.000378 -0.003783 0.000321 -0.001564 0.004540
# 2 -0.000378 0.010340 -0.002117 0.008903 0.000746 0.001038
# 3 -0.003783 -0.002117 0.012279 0.003588 -0.001367 -0.005026
# 4 0.000321 0.008903 0.003588 0.054045 0.009553 -0.006438
# 5 -0.001564 0.000746 -0.001367 0.009553 0.041505 -0.014047
# 6 0.004540 0.001038 -0.005026 -0.006438 -0.014047 0.037144
#
#
# Mechanical properties :
#
#
# Convention : Reuss Voigt Hill
#
# Bulk Modulus (GPa) = 53.87241 67.31021 60.59131
# Shear Modulus (GPa) = 27.38933 36.25810 31.82371
#
# Velocity S-wave (km/s) = 3.39721 3.90871 3.66190
# Velocity P-wave (km/s) = 6.17156 6.98091 6.58867
#
# Compressibility (1/GPa) = 0.01856238
#
# Stress axis : x y z
#
# Youngs Moduli (GPa) = 117.67165 96.71289 81.44086
#
# Poissons Ratio (x) = 0.03652 0.30805
# Poissons Ratio (y) = 0.04444 0.17242
# Poissons Ratio (z) = 0.44510 0.20475
#
# Static dielectric constant tensor:
#      x y z
#    x 1.896830 0.040500 -0.041740 
#    y 0.040500 1.970630 -0.026140 
#    z -0.041740 -0.026140 1.835760 
# 
# From -- ./inp_files/138393.got.cif
#   From: 2010.05.17/outbox.cif.g08.bks.cpg/sg2_70_cif.got.tgz:138393.got - 2010.06.03 11:33:40.
