data_PCOD9030222
_publ_section_title
;
Structure prediction by ZEFSAII (Michael W. Deem and Ramdas Pophale) SiO2 
 PCOD9030222
Probable space group: P -1
;
_chemical_formula_sum "Si O2"
_cell_formula_units_Z 16
_cell_length_a 9.559454
_cell_length_b 14.972918
_cell_length_c 27.693242
_cell_angle_alpha 159.647560
_cell_angle_beta 146.208835
_cell_angle_gamma 43.475610
_cell_volume 736.794268
_symmetry_space_group_name_H-M "P -1"
_symmetry_group_IT_number 2
_symmetry_cell_setting 'triclinic'
loop_
_space_group_symop_operation_xyz
x,y,z
-x,-y,-z
loop_
_atom_site_type_symbol
_atom_site_label
_atom_site_fract_x
_atom_site_fract_y
_atom_site_fract_z
Si Si1 0.886904 0.287855 0.271098
Si Si2 0.235184 0.239484 0.572763
Si Si3 0.198585 0.459962 0.260948
Si Si4 0.208373 0.642224 0.251105
Si Si5 0.377316 0.683097 0.091920
Si Si6 0.671891 0.518794 0.177857
Si Si7 0.457889 0.283284 0.420659
Si Si8 0.419837 0.009287 0.061002
O O1 0.909174 0.589054 0.413626
O O2 0.688490 0.197957 0.212760
O O3 0.167796 0.248093 0.340319
O O4 0.755843 0.113626 0.098393
O O5 0.546952 0.361903 0.714139
O O6 0.197600 0.283970 0.641065
O O7 0.160982 0.932522 0.381262
O O8 0.295253 0.607530 0.313214
O O9 0.341222 0.606344 0.423019
O O10 0.261877 0.176792 0.130671
O O11 0.897789 0.456670 0.178361
O O12 0.937609 0.421020 0.051755
O O13 0.486524 0.644384 0.156589
O O14 0.470928 0.992178 0.260210
O O15 0.500000 0.500000 0.000000
O O16 0.534425 0.236115 0.020222
O O17 0.500000 0.500000 0.500000
#
# Coordination Sequence:
#
# PCOD9030222 Si02
#       8
#     2   2   2   2   2   2   2   2
#     4  10  22  43  71  98 142 175 230 282 352 397
#     4  10  23  45  70 103 134 188 217 288 343 418
#     4  12  24  43  69  99 141 178 231 282 344 409
#     4  11  24  45  73  98 141 176 237 274 352 405
#     4  12  28  45  70 101 140 179 232 288 337 411
#     4  11  25  42  71 100 138 182 231 280 352 398
#     4  12  29  44  69 104 140 182 230 287 341 408
#     4  10  22  42  70 102 133 182 224 289 340 415
#
# _framework density 21.715695
#
# number of rings (size 3 to 8) (size 9 to 14) (size 15 to 20)
#    0.000    1.000    2.500    3.375    8.750    2.000 
#    4.500    0.000    0.000    0.000    0.000    0.000 
#    0.000    0.000    0.000    0.000    0.000    0.000 
#
# Total GULP energy -89558.947710 kJ/mol
# GULP energy per Si atom -5597.434232 kJ/mol
# Density = 2.166627 g / cm^3
# Si number density = 21.715695 Si / 1000 Ang^3
#
#
#
# Elastic Constant Matrix: (Units=GPa)
#
#
# Indices 1 2 3 4 5 6 
#
# 1 78.3119 12.4160 17.1105 2.3843 -4.2383 -7.4149
# 2 12.4160 96.4648 39.5309 7.8918 -0.7585 -0.1637
# 3 17.1105 39.5309 74.6310 20.3463 -2.8127 0.3192
# 4 2.3843 7.8918 20.3463 31.7837 -12.1961 -6.8445
# 5 -4.2383 -0.7585 -2.8127 -12.1961 22.2060 9.0002
# 6 -7.4149 -0.1637 0.3192 -6.8445 9.0002 23.1586
#
#
#
# Elastic Compliance Matrix: (Units=1/GPa)
#
#
# Indices 1 2 3 4 5 6 
#
# 1 0.014148 -0.000500 -0.003833 0.003350 0.002113 0.004748
# 2 -0.000500 0.013324 -0.007375 0.001593 0.000113 0.000463
# 3 -0.003833 -0.007375 0.022013 -0.014606 -0.004541 -0.004135
# 4 0.003350 0.001593 -0.014606 0.050860 0.023934 0.007015
# 5 0.002113 0.000113 -0.004541 0.023934 0.065097 -0.017485
# 6 0.004748 0.000463 -0.004135 0.007015 -0.017485 0.053630
#
#
# Mechanical properties :
#
#
# Convention : Reuss Voigt Hill
#
# Bulk Modulus (GPa) = 38.35859 43.05804 40.70831
# Shear Modulus (GPa) = 19.90619 27.45301 23.67960
#
# Velocity S-wave (km/s) = 3.03095 3.55942 3.30576
# Velocity P-wave (km/s) = 5.47277 6.06331 5.77559
#
# Compressibility (1/GPa) = 0.02606978
#
# Stress axis : x y z
#
# Youngs Moduli (GPa) = 70.68100 75.04982 45.42761
#
# Poissons Ratio (x) = 0.03750 0.17412
# Poissons Ratio (y) = 0.03532 0.33504
# Poissons Ratio (z) = 0.27091 0.55352
#
# Static dielectric constant tensor:
#      x y z
#    x 1.780580 -0.006420 0.001530 
#    y -0.006420 1.766780 0.017590 
#    z 0.001530 0.017590 1.791050 
# 
# From -- ./inp_files/617343.got.cif
#   From: 2010.05.17/outbox.cif.g08.bks.cpg/sg2_309_cif.got.tgz:617343.got - 2010.06.03 11:33:40.
