data_PCOD9030681
_publ_section_title
;
Structure prediction by ZEFSAII (Michael W. Deem and Ramdas Pophale) SiO2 
 PCOD9030681
Probable space group: P -1
;
_chemical_formula_sum "Si O2"
_cell_formula_units_Z 16
_cell_length_a 13.733649
_cell_length_b 14.093600
_cell_length_c 11.167717
_cell_angle_alpha 150.119699
_cell_angle_beta 72.114794
_cell_angle_gamma 128.186692
_cell_volume 686.698740
_symmetry_space_group_name_H-M "P -1"
_symmetry_group_IT_number 2
_symmetry_cell_setting 'triclinic'
loop_
_space_group_symop_operation_xyz
x,y,z
-x,-y,-z
loop_
_atom_site_type_symbol
_atom_site_label
_atom_site_fract_x
_atom_site_fract_y
_atom_site_fract_z
Si Si1 0.322004 0.292690 0.855097
Si Si2 0.830179 0.243915 0.827607
Si Si3 0.689699 0.572660 0.732159
Si Si4 0.142216 0.631705 0.776799
Si Si5 0.677491 0.288789 0.769406
Si Si6 0.149094 0.186935 0.315129
Si Si7 0.873055 0.517042 0.718648
Si Si8 0.611358 0.753698 0.641784
O O1 0.237162 0.017375 0.511276
O O2 0.500000 0.500000 0.000000
O O3 0.285975 0.269855 0.984410
O O4 0.290226 0.447263 0.972663
O O5 0.729899 0.286128 0.874072
O O6 0.838435 0.239034 0.960104
O O7 0.000000 0.500000 0.000000
O O8 0.790962 0.777531 0.804113
O O9 0.744197 0.431265 0.587118
O O10 0.509015 0.337570 0.511739
O O11 0.139709 0.403008 0.551189
O O12 0.985359 0.493785 0.628435
O O13 0.292277 0.938502 0.998993
O O14 0.783619 0.345702 0.687257
O O15 0.500000 0.000000 0.500000
O O16 0.271240 0.259696 0.438801
O O17 0.993068 0.861233 0.048538
O O18 0.500000 0.500000 0.500000
#
# Coordination Sequence:
#
# PCOD9030681 Si02
#       8
#     2   2   2   2   2   2   2   2
#     4  11  24  44  71 100 142 180 227 295 349 405
#     4  12  26  44  67 103 137 184 234 284 349 422
#     4  10  22  42  72  97 137 178 230 285 350 405
#     4  11  24  42  69  97 141 180 235 277 347 427
#     4  11  24  44  69 103 133 179 239 285 355 418
#     4  10  23  45  69 102 134 188 227 284 352 418
#     4  10  23  42  66 100 140 175 230 286 350 411
#     4   9  21  43  67 100 134 175 232 283 343 410
#
# _framework density 23.299882
#
# number of rings (size 3 to 8) (size 9 to 14) (size 15 to 20)
#    0.000    1.500    2.500    1.125    5.250    6.000 
#    0.000    8.750    0.000    0.000    0.000    0.000 
#    0.000    0.000    0.000    0.000    0.000    0.000 
#
# Total GULP energy -89312.944688 kJ/mol
# GULP energy per Si atom -5582.059043 kJ/mol
# Density = 2.324685 g / cm^3
# Si number density = 23.299882 Si / 1000 Ang^3
#
#
#
# Elastic Constant Matrix: (Units=GPa)
#
#
# Indices 1 2 3 4 5 6 
#
# 1 188.9793 19.5992 51.7689 0.3865 3.0740 -3.4114
# 2 19.5992 104.6137 46.7284 0.6905 7.6512 -0.8256
# 3 51.7689 46.7284 112.2465 -0.7219 -17.2554 16.4325
# 4 0.3865 0.6905 -0.7219 35.9038 -6.8483 8.2220
# 5 3.0740 7.6512 -17.2554 -6.8483 36.0603 10.7942
# 6 -3.4114 -0.8256 16.4325 8.2220 10.7942 35.5895
#
#
#
# Elastic Compliance Matrix: (Units=1/GPa)
#
#
# Indices 1 2 3 4 5 6 
#
# 1 0.006856 0.001714 -0.005619 -0.002630 -0.005833 0.005668
# 2 0.001714 0.014931 -0.010455 -0.005242 -0.012399 0.010309
# 3 -0.005619 -0.010455 0.021906 0.009052 0.020662 -0.019254
# 4 -0.002630 -0.005242 0.009052 0.035762 0.017923 -0.018251
# 5 -0.005833 -0.012399 0.020662 0.017923 0.053342 -0.030706
# 6 0.005668 0.010309 -0.019254 -0.018251 -0.030706 0.051300
#
#
# Mechanical properties :
#
#
# Convention : Reuss Voigt Hill
#
# Bulk Modulus (GPa) = 66.78833 71.33695 69.06264
# Shear Modulus (GPa) = 22.95610 40.69357 31.82484
#
# Velocity S-wave (km/s) = 3.14227 4.18367 3.69979
# Velocity P-wave (km/s) = 6.47240 7.34988 6.92505
#
# Compressibility (1/GPa) = 0.01497268
#
# Stress axis : x y z
#
# Youngs Moduli (GPa) = 145.86569 66.97615 45.64906
#
# Poissons Ratio (x) = -0.11481 0.25650
# Poissons Ratio (y) = -0.25003 0.47727
# Poissons Ratio (z) = 0.81960 0.70025
#
# Static dielectric constant tensor:
#      x y z
#    x 1.923850 0.308520 0.058880 
#    y 0.308520 -3.300270 -0.983690 
#    z 0.058880 -0.983690 1.788020 
# 
# From -- ./inp_files/456017.got.cif
#   From: 2010.05.17/outbox.cif.g08.bks.cpg/sg2_229_cif.got.tgz:456017.got - 2010.06.03 11:33:40.
