data_PCOD9030235
_publ_section_title
;
Structure prediction by ZEFSAII (Michael W. Deem and Ramdas Pophale) SiO2 
 PCOD9030235
Probable space group: P -1
;
_chemical_formula_sum "Si O2"
_cell_formula_units_Z 16
_cell_length_a 8.411695
_cell_length_b 15.267870
_cell_length_c 9.324728
_cell_angle_alpha 116.845505
_cell_angle_beta 59.453769
_cell_angle_gamma 138.866568
_cell_volume 673.425627
_symmetry_space_group_name_H-M "P -1"
_symmetry_group_IT_number 2
_symmetry_cell_setting 'triclinic'
loop_
_space_group_symop_operation_xyz
x,y,z
-x,-y,-z
loop_
_atom_site_type_symbol
_atom_site_label
_atom_site_fract_x
_atom_site_fract_y
_atom_site_fract_z
Si Si1 0.787130 0.860290 0.085056
Si Si2 0.571254 0.025398 0.728496
Si Si3 0.494989 0.828069 0.950067
Si Si4 0.556667 0.376116 0.775144
Si Si5 0.702003 0.510721 0.503997
Si Si6 0.258041 0.781040 0.478167
Si Si7 0.962229 0.438142 0.128558
Si Si8 0.085193 0.997152 0.308835
O O1 0.552085 0.782259 0.027467
O O2 0.711000 0.727096 0.093991
O O3 0.858736 0.935388 0.258913
O O4 0.000000 0.000000 0.000000
O O5 0.425356 0.038469 0.921356
O O6 0.670181 0.130076 0.631177
O O7 0.392801 0.881237 0.626606
O O8 0.799392 0.066038 0.748289
O O9 0.216869 0.718664 0.938882
O O10 0.678091 0.862953 0.765479
O O11 0.570417 0.429756 0.652689
O O12 0.642476 0.293538 0.644061
O O13 0.779219 0.495921 0.863469
O O14 0.500000 0.500000 0.500000
O O15 0.810336 0.459401 0.318667
O O16 0.955492 0.663984 0.540849
O O17 0.000000 0.500000 0.000000
O O18 0.000000 0.000000 0.500000
#
# Coordination Sequence:
#
# PCOD9030235 Si02
#       8
#     2   2   2   2   2   2   2   2
#     4  10  22  43  65 100 143 182 225 287 363 415
#     4  11  23  42  70 101 142 181 238 291 334 433
#     4  11  23  45  67 103 139 182 238 284 353 421
#     4  11  22  46  74  99 141 191 241 285 360 426
#     4  11  27  46  72 108 140 185 242 300 350 421
#     4  10  22  42  70 102 139 185 237 284 351 415
#     4  11  22  44  76  98 138 192 236 288 346 434
#     4  11  26  39  66 100 139 187 227 289 356 408
#
# _framework density 23.759119999999999
#
# number of rings (size 3 to 8) (size 9 to 14) (size 15 to 20)
#    0.000    1.250    2.500    3.375    8.750    0.000 
#    4.500    0.625    0.000    0.000    0.000    0.000 
#    0.000    0.000    0.000    0.000    0.000    0.000 
#
# Total GULP energy -89077.720092 kJ/mol
# GULP energy per Si atom -5567.357506 kJ/mol
# Density = 2.370504 g / cm^3
# Si number density = 23.759120 Si / 1000 Ang^3
#
#
#
# Elastic Constant Matrix: (Units=GPa)
#
#
# Indices 1 2 3 4 5 6 
#
# 1 74.1238 41.2235 28.7032 -16.4763 25.4468 -1.9156
# 2 41.2235 131.7975 49.2168 -0.6574 23.2424 23.8848
# 3 28.7032 49.2168 133.3538 -15.1817 43.0915 1.6816
# 4 -16.4763 -0.6574 -15.1817 40.1767 -6.9359 8.7044
# 5 25.4468 23.2424 43.0915 -6.9359 41.9710 -5.9891
# 6 -1.9156 23.8848 1.6816 8.7044 -5.9891 32.6167
#
#
#
# Elastic Compliance Matrix: (Units=1/GPa)
#
#
# Indices 1 2 3 4 5 6 
#
# 1 0.021025 -0.005682 0.001503 0.007059 -0.009742 0.001646
# 2 -0.005682 0.012453 -0.002697 -0.001516 -0.002264 -0.009325
# 3 0.001503 -0.002697 0.012421 0.003595 -0.011820 -0.001707
# 4 0.007059 -0.001516 0.003595 0.030148 -0.003190 -0.007292
# 5 -0.009742 -0.002264 -0.011820 -0.003190 0.044113 0.010646
# 6 0.001646 -0.009325 -0.001707 -0.007292 0.010646 0.041573
#
#
# Mechanical properties :
#
#
# Convention : Reuss Voigt Hill
#
# Bulk Modulus (GPa) = 31.10737 64.17358 47.64047
# Shear Modulus (GPa) = 26.85247 37.62831 32.24039
#
# Velocity S-wave (km/s) = 3.36549 3.98394 3.68770
# Velocity P-wave (km/s) = 5.31255 6.94486 6.18281
#
# Compressibility (1/GPa) = 0.03214673
#
# Stress axis : x y z
#
# Youngs Moduli (GPa) = 47.56144 80.29990 80.50998
#
# Poissons Ratio (x) = 0.45630 -0.12097
# Poissons Ratio (y) = 0.27027 0.21710
# Poissons Ratio (z) = -0.07147 0.21653
#
# Static dielectric constant tensor:
#      x y z
#    x 1.012520 -0.184720 0.621760 
#    y -0.184720 1.948270 0.079880 
#    z 0.621760 0.079880 1.509860 
# 
# From -- ./inp_files/208233.got.cif
#   From: 2010.05.17/outbox.cif.g08.bks.cpg/sg2_105_cif.got.tgz:208233.got - 2010.06.03 11:33:40.
