data_PCOD9030916
_publ_section_title
;
Structure prediction by ZEFSAII (Michael W. Deem and Ramdas Pophale) SiO2 
 PCOD9030916
Probable space group: P -1
;
_chemical_formula_sum "Si O2"
_cell_formula_units_Z 14
_cell_length_a 11.785748
_cell_length_b 18.114124
_cell_length_c 5.267226
_cell_angle_alpha 126.048500
_cell_angle_beta 57.093239
_cell_angle_gamma 132.324417
_cell_volume 651.538963
_symmetry_space_group_name_H-M "P -1"
_symmetry_group_IT_number 2
_symmetry_cell_setting 'triclinic'
loop_
_space_group_symop_operation_xyz
x,y,z
-x,-y,-z
loop_
_atom_site_type_symbol
_atom_site_label
_atom_site_fract_x
_atom_site_fract_y
_atom_site_fract_z
Si Si1 0.438796 0.578739 0.796449
Si Si2 0.063902 0.304225 0.077775
Si Si3 0.562094 0.926190 0.174331
Si Si4 0.609373 0.683141 0.310354
Si Si5 0.071680 0.426563 0.825842
Si Si6 0.884788 0.047503 0.750281
Si Si7 0.607855 0.877238 0.517598
O O1 0.500000 0.500000 0.500000
O O2 0.532555 0.668321 0.648834
O O3 0.254935 0.513564 0.831645
O O4 0.483500 0.613863 0.104326
O O5 0.048650 0.352231 0.459862
O O6 0.248439 0.338988 0.897249
O O7 0.017036 0.353017 0.997498
O O8 0.970610 0.174817 0.921079
O O9 0.525353 0.845576 0.285311
O O10 0.500000 0.000000 0.500000
O O11 0.496931 0.876198 0.875703
O O12 0.750928 0.991037 0.017876
O O13 0.671179 0.802371 0.379980
O O14 0.000000 0.500000 0.000000
O O15 0.760911 0.997006 0.563963
O O16 0.000000 0.000000 0.500000
#
# Coordination Sequence:
#
# PCOD9030916 Si02
#       7
#     2   2   2   2   2   2   2
#     4  12  23  43  70  94 129 172 229 283 339 388
#     4  12  23  44  72  98 135 177 223 272 352 394
#     4  10  22  43  62  88 140 182 216 263 324 394
#     4  12  22  41  70 104 124 175 221 281 335 401
#     4  12  28  48  65  97 138 177 228 285 330 405
#     4  10  24  41  70 103 137 173 217 279 335 402
#     4  10  23  41  65  98 140 167 222 269 327 404
#
# _framework density 21.487586
#
# number of rings (size 3 to 8) (size 9 to 14) (size 15 to 20)
#    0.857    0.000    4.286    3.000    2.000    1.714 
#    7.714    0.000    0.000    0.000    0.000    0.000 
#    0.000    0.000    0.000    0.000    0.000    0.000 
#
# Total GULP energy -78054.603727 kJ/mol
# GULP energy per Si atom -5575.328838 kJ/mol
# Density = 2.143868 g / cm^3
# Si number density = 21.487586 Si / 1000 Ang^3
#
#
#
# Elastic Constant Matrix: (Units=GPa)
#
#
# Indices 1 2 3 4 5 6 
#
# 1 84.0033 20.3329 52.4396 5.6031 -4.4042 -23.0208
# 2 20.3329 48.8184 27.4640 10.9183 12.6560 -21.9827
# 3 52.4396 27.4640 142.6327 6.9210 8.8262 -16.7020
# 4 5.6031 10.9183 6.9210 39.2806 -7.9553 8.9743
# 5 -4.4042 12.6560 8.8262 -7.9553 42.3040 -4.7884
# 6 -23.0208 -21.9827 -16.7020 8.9743 -4.7884 36.2949
#
#
#
# Elastic Compliance Matrix: (Units=1/GPa)
#
#
# Indices 1 2 3 4 5 6 
#
# 1 0.018816 -0.000100 -0.005737 -0.003293 0.003760 0.010545
# 2 -0.000100 0.042482 -0.003160 -0.020098 -0.012727 0.027503
# 3 -0.005737 -0.003160 0.009693 -0.000083 -0.001839 -0.001314
# 4 -0.003293 -0.020098 -0.000083 0.038785 0.010433 -0.022514
# 5 0.003760 -0.012727 -0.001839 0.010433 0.029635 -0.004839
# 6 0.010545 0.027503 -0.001314 -0.022514 -0.004839 0.055222
#
#
# Mechanical properties :
#
#
# Convention : Reuss Voigt Hill
#
# Bulk Modulus (GPa) = 18.86860 52.88082 35.87471
# Shear Modulus (GPa) = 21.71162 35.25709 28.48435
#
# Velocity S-wave (km/s) = 3.18217 4.05509 3.64485
# Velocity P-wave (km/s) = 4.72248 6.82557 5.86899
#
# Compressibility (1/GPa) = 0.05299810
#
# Stress axis : x y z
#
# Youngs Moduli (GPa) = 53.14598 23.53923 103.17225
#
# Poissons Ratio (x) = 0.00235 0.59188
# Poissons Ratio (y) = 0.00530 0.32602
# Poissons Ratio (z) = 0.30489 0.07438
#
# Static dielectric constant tensor:
#      x y z
#    x 1.880580 -0.065340 0.026850 
#    y -0.065340 1.843630 0.021240 
#    z 0.026850 0.021240 1.806600 
# 
# From -- ./inp_files/81655.got.cif
#   From: 2010.05.17/outbox.cif.g08.bks.cpg/sg2_41_cif.got.tgz:81655.got - 2010.06.03 11:33:40.
