data_PCOD9030494
_publ_section_title
;
Structure prediction by ZEFSAII (Michael W. Deem and Ramdas Pophale) SiO2 
 PCOD9030494
Probable space group: P -1
;
_chemical_formula_sum "Si O2"
_cell_formula_units_Z 14
_cell_length_a 9.347432
_cell_length_b 9.648789
_cell_length_c 12.688037
_cell_angle_alpha 127.671040
_cell_angle_beta 50.592000
_cell_angle_gamma 134.610929
_cell_volume 600.347492
_symmetry_space_group_name_H-M "P -1"
_symmetry_group_IT_number 2
_symmetry_cell_setting 'triclinic'
loop_
_space_group_symop_operation_xyz
x,y,z
-x,-y,-z
loop_
_atom_site_type_symbol
_atom_site_label
_atom_site_fract_x
_atom_site_fract_y
_atom_site_fract_z
Si Si1 0.576904 0.261597 0.840531
Si Si2 0.289981 0.506040 0.567891
Si Si3 0.538084 0.919287 0.551024
Si Si4 0.700078 0.407338 0.163432
Si Si5 0.030574 0.110811 0.372511
Si Si6 0.148334 0.781432 0.136429
Si Si7 0.677996 0.641935 0.826410
O O1 0.516689 0.051002 0.714925
O O2 0.774143 0.306098 0.845916
O O3 0.647518 0.438563 0.801619
O O4 0.392936 0.257946 0.000322
O O5 0.500000 0.500000 0.500000
O O6 0.253487 0.583050 0.730836
O O7 0.115855 0.291051 0.501957
O O8 0.362106 0.683756 0.533746
O O9 0.780427 0.961000 0.447398
O O10 0.500000 0.000000 0.500000
O O11 0.494375 0.406264 0.210296
O O12 0.908877 0.622371 0.131768
O O13 0.701498 0.213364 0.025569
O O14 0.095414 0.214203 0.273260
O O15 0.151967 0.983466 0.262991
#
# Coordination Sequence:
#
# PCOD9030494 Si02
#       7
#     2   2   2   2   2   2   2
#     4  10  23  44  70 102 139 188 226 283 349 410
#     4  12  24  42  71 104 139 183 230 283 344 412
#     4  12  29  46  69 102 143 185 234 287 350 416
#     4  10  22  42  71 106 139 180 233 283 340 416
#     4  12  26  45  73 104 139 182 232 292 345 405
#     4  10  23  42  73 103 139 180 235 283 340 414
#     4  10  23  44  73 100 143 181 228 287 346 410
#
# _framework density 23.319827
#
# number of rings (size 3 to 8) (size 9 to 14) (size 15 to 20)
#    0.000    1.143    1.429    3.429    4.000    6.286 
#    0.000    0.714    0.000    0.000    0.000    0.000 
#    0.000    0.000    0.000    0.000    0.000    0.000 
#
# Total GULP energy -78239.063613 kJ/mol
# GULP energy per Si atom -5588.504544 kJ/mol
# Density = 2.326675 g / cm^3
# Si number density = 23.319827 Si / 1000 Ang^3
#
#
#
# Elastic Constant Matrix: (Units=GPa)
#
#
# Indices 1 2 3 4 5 6 
#
# 1 50.3227 13.9238 26.1815 13.5120 4.0202 -10.5960
# 2 13.9238 75.1556 41.7301 15.8810 -2.7168 -12.6604
# 3 26.1815 41.7301 136.6453 12.9676 5.8830 -9.2253
# 4 13.5120 15.8810 12.9676 30.2082 -8.1386 4.6773
# 5 4.0202 -2.7168 5.8830 -8.1386 28.0926 2.8883
# 6 -10.5960 -12.6604 -9.2253 4.6773 2.8883 35.0043
#
#
#
# Elastic Compliance Matrix: (Units=1/GPa)
#
#
# Indices 1 2 3 4 5 6 
#
# 1 0.028687 0.001550 -0.003240 -0.016499 -0.009224 0.011356
# 2 0.001550 0.018929 -0.004551 -0.010178 -0.001166 0.007573
# 3 -0.003240 -0.004551 0.009521 -0.000879 -0.002244 0.000185
# 4 -0.016499 -0.010178 -0.000879 0.054086 0.019050 -0.017706
# 5 -0.009224 -0.001166 -0.002244 0.019050 0.043817 -0.009966
# 6 0.011356 0.007573 0.000185 -0.017706 -0.009966 0.037981
#
#
# Mechanical properties :
#
#
# Convention : Reuss Voigt Hill
#
# Bulk Modulus (GPa) = 22.39313 47.31048 34.85180
# Shear Modulus (GPa) = 22.68720 30.68023 26.68371
#
# Velocity S-wave (km/s) = 3.12247 3.63109 3.38635
# Velocity P-wave (km/s) = 4.75639 6.15723 5.50158
#
# Compressibility (1/GPa) = 0.04465655
#
# Stress axis : x y z
#
# Youngs Moduli (GPa) = 34.85921 52.82773 105.02790
#
# Poissons Ratio (x) = -0.08191 0.34033
# Poissons Ratio (y) = -0.05405 0.47794
# Poissons Ratio (z) = 0.11296 0.24040
#
# Static dielectric constant tensor:
#      x y z
#    x 2.254140 -0.287600 0.123950 
#    y -0.287600 2.449890 -0.323390 
#    z 0.123950 -0.323390 2.162890 
# 
# From -- ./inp_files/383156.got.cif
#   From: 2010.05.17/outbox.cif.g08.bks.cpg/sg2_192_cif.got.tgz:383156.got - 2010.06.03 11:33:40.
