data_PCOD9030774
_publ_section_title
;
Structure prediction by ZEFSAII (Michael W. Deem and Ramdas Pophale) SiO2 
 PCOD9030774
Probable space group: P -1
;
_chemical_formula_sum "Si O2"
_cell_formula_units_Z 15
_cell_length_a 8.369761
_cell_length_b 8.463506
_cell_length_c 11.684349
_cell_angle_alpha 104.744118
_cell_angle_beta 84.490461
_cell_angle_gamma 119.959532
_cell_volume 693.003171
_symmetry_space_group_name_H-M "P -1"
_symmetry_group_IT_number 2
_symmetry_cell_setting 'triclinic'
loop_
_space_group_symop_operation_xyz
x,y,z
-x,-y,-z
loop_
_atom_site_type_symbol
_atom_site_label
_atom_site_fract_x
_atom_site_fract_y
_atom_site_fract_z
Si Si1 0.916588 0.597915 0.661314
Si Si2 0.500000 0.000000 0.000000
Si Si3 0.020499 0.008258 0.362917
Si Si4 0.604659 0.986791 0.729064
Si Si5 0.692659 0.610220 0.267620
Si Si6 0.797814 0.390105 0.046590
Si Si7 0.648262 0.388823 0.819610
Si Si8 0.293758 0.610713 0.574235
O O1 0.959920 0.800789 0.652919
O O2 0.841960 0.548107 0.785300
O O3 0.748999 0.448040 0.565407
O O4 0.096653 0.579635 0.626139
O O5 0.715877 0.170618 0.035448
O O6 0.444914 0.053112 0.140320
O O7 0.199486 0.994943 0.311311
O O8 0.000000 0.000000 0.500000
O O9 0.837987 0.829151 0.296276
O O10 0.613915 0.185582 0.744378
O O11 0.450744 0.819719 0.632139
O O12 0.778183 0.501230 0.173453
O O13 0.508459 0.573470 0.210781
O O14 0.660884 0.530240 0.383763
O O15 0.656574 0.381010 0.954639
O O16 0.000000 0.500000 0.000000
#
# Coordination Sequence:
#
# PCOD9030774 Si02
#       8
#     2   1   2   2   2   2   2   2
#     4  11  25  43  65 104 136 177 240 284 355 425
#     4  10  22  42  74 102 140 178 242 282 354 426
#     4  12  26  44  70 102 140 185 238 289 356 425
#     4  11  24  44  70 102 136 186 232 290 360 414
#     4  12  23  45  68  99 138 182 232 288 351 416
#     4  11  23  45  74 102 142 188 236 298 356 424
#     4  11  26  42  69 104 138 180 233 289 355 424
#     4  11  23  42  72  94 136 184 224 293 346 419
#
# _framework density 21.644922999999999
#
# number of rings (size 3 to 8) (size 9 to 14) (size 15 to 20)
#    0.000    0.800    2.667    5.200    3.733    1.600 
#    0.000    0.667    0.000    0.000    0.000    0.000 
#    0.000    0.000    0.000    0.000    0.000    0.000 
#
# Total GULP energy -83653.123376 kJ/mol
# GULP energy per Si atom -5576.874892 kJ/mol
# Density = 2.159566 g / cm^3
# Si number density = 21.644923 Si / 1000 Ang^3
#
#
#
# Elastic Constant Matrix: (Units=GPa)
#
#
# Indices 1 2 3 4 5 6 
#
# 1 79.2939 -10.0898 1.6480 -10.9828 1.0599 4.7006
# 2 -10.0898 90.8137 9.5050 18.7461 -1.4967 6.2401
# 3 1.6480 9.5050 63.0799 -0.1577 -5.5139 -6.7268
# 4 -10.9828 18.7461 -0.1577 27.1878 1.4148 1.2073
# 5 1.0599 -1.4967 -5.5139 1.4148 27.6635 -8.7218
# 6 4.7006 6.2401 -6.7268 1.2073 -8.7218 37.3194
#
#
#
# Elastic Compliance Matrix: (Units=1/GPa)
#
#
# Indices 1 2 3 4 5 6 
#
# 1 0.013615 0.000670 -0.000868 0.005237 -0.001733 -0.002558
# 2 0.000670 0.013315 -0.002317 -0.008809 -0.000094 -0.002465
# 3 -0.000868 -0.002317 0.017140 0.000892 0.004750 0.004667
# 4 0.005237 -0.008809 0.000892 0.045197 -0.003201 -0.001236
# 5 -0.001733 -0.000094 0.004750 -0.003201 0.040695 0.010704
# 6 -0.002558 -0.002465 0.004667 -0.001236 0.010704 0.030913
#
#
# Mechanical properties :
#
#
# Convention : Reuss Voigt Hill
#
# Bulk Modulus (GPa) = 25.61512 26.14597 25.88054
# Shear Modulus (GPa) = 27.94580 33.90909 30.92745
#
# Velocity S-wave (km/s) = 3.59709 3.96233 3.78412
# Velocity P-wave (km/s) = 5.39555 5.74797 5.57455
#
# Compressibility (1/GPa) = 0.03903944
#
# Stress axis : x y z
#
# Youngs Moduli (GPa) = 73.45025 75.10504 58.34350
#
# Poissons Ratio (x) = -0.05030 0.05062
# Poissons Ratio (y) = -0.04919 0.13517
# Poissons Ratio (z) = 0.06373 0.17401
#
# Static dielectric constant tensor:
#      x y z
#    x 1.758960 -0.012100 0.010630 
#    y -0.012100 1.796130 0.005480 
#    z 0.010630 0.005480 1.782370 
# 
# From -- ./inp_files/179408.got.cif
#   From: 2010.05.17/outbox.cif.g08.bks.cpg/sg2_90_cif.got.tgz:179408.got - 2010.06.03 11:33:40.
