data_PCOD9030562
_publ_section_title
;
Structure prediction by ZEFSAII (Michael W. Deem and Ramdas Pophale) SiO2 
 PCOD9030562
Probable space group: P -1
;
_chemical_formula_sum "Si O2"
_cell_formula_units_Z 16
_cell_length_a 10.927582
_cell_length_b 5.423617
_cell_length_c 16.358686
_cell_angle_alpha 106.287353
_cell_angle_beta 54.099123
_cell_angle_gamma 122.242147
_cell_volume 663.508693
_symmetry_space_group_name_H-M "P -1"
_symmetry_group_IT_number 2
_symmetry_cell_setting 'triclinic'
loop_
_space_group_symop_operation_xyz
x,y,z
-x,-y,-z
loop_
_atom_site_type_symbol
_atom_site_label
_atom_site_fract_x
_atom_site_fract_y
_atom_site_fract_z
Si Si1 0.531692 0.953102 0.733540
Si Si2 0.229161 0.900638 0.753332
Si Si3 0.905573 0.792960 0.942410
Si Si4 0.729837 0.456754 0.446194
Si Si5 0.828075 0.867465 0.806327
Si Si6 0.462700 0.741380 0.926368
Si Si7 0.410643 0.376301 0.624528
Si Si8 0.098388 0.652126 0.319395
O O1 0.480483 0.851951 0.837139
O O2 0.502062 0.688458 0.660930
O O3 0.388754 0.032973 0.764589
O O4 0.731568 0.183832 0.677357
O O5 0.248614 0.187837 0.727696
O O6 0.256816 0.729027 0.651772
O O7 0.050044 0.708363 0.848040
O O8 0.874940 0.949919 0.890218
O O9 0.723663 0.525173 0.010247
O O10 0.000000 0.000000 0.000000
O O11 0.564502 0.290568 0.552586
O O12 0.672439 0.663290 0.436642
O O13 0.917567 0.596123 0.423986
O O14 0.620804 0.671063 0.867882
O O15 0.906259 0.653601 0.730742
O O16 0.874820 0.132569 0.749093
O O17 0.500000 0.000000 0.000000
#
# Coordination Sequence:
#
# PCOD9030562 Si02
#       8
#     2   2   2   2   2   2   2   2
#     4  10  25  42  66  96 139 183 224 299 345 417
#     4  11  23  42  65  97 140 172 234 288 363 403
#     4  12  25  39  68 103 134 186 240 301 345 427
#     4  10  22  42  71  99 132 182 237 278 358 431
#     4  11  25  47  69 100 144 187 236 289 360 417
#     4  11  26  47  70  96 145 194 241 285 362 429
#     4  10  22  44  69  99 137 179 225 297 357 417
#     4  11  24  45  74 101 138 190 232 287 352 427
#
# _framework density 24.114228000000001
#
# number of rings (size 3 to 8) (size 9 to 14) (size 15 to 20)
#    0.000    1.250    1.250    3.750    7.000    2.000 
#    0.000    0.625    0.000    0.000    0.000    0.000 
#    0.000    0.000    0.000    0.000    0.000    0.000 
#
# Total GULP energy -89371.930295 kJ/mol
# GULP energy per Si atom -5585.745643 kJ/mol
# Density = 2.405934 g / cm^3
# Si number density = 24.114228 Si / 1000 Ang^3
#
#
#
# Elastic Constant Matrix: (Units=GPa)
#
#
# Indices 1 2 3 4 5 6 
#
# 1 97.1110 18.2902 23.3230 -24.1547 -18.5343 15.1372
# 2 18.2902 78.9339 24.3396 -4.7486 -10.3217 15.0140
# 3 23.3230 24.3396 101.6189 -17.3518 -30.7764 9.3713
# 4 -24.1547 -4.7486 -17.3518 37.0916 19.1943 -9.8005
# 5 -18.5343 -10.3217 -30.7764 19.1943 49.7593 -5.5758
# 6 15.1372 15.0140 9.3713 -9.8005 -5.5758 36.2535
#
#
#
# Elastic Compliance Matrix: (Units=1/GPa)
#
#
# Indices 1 2 3 4 5 6 
#
# 1 0.013100 -0.001730 -0.000881 0.006637 0.001129 -0.002557
# 2 -0.001730 0.014918 -0.002783 -0.002469 0.001094 -0.005235
# 3 -0.000881 -0.002783 0.012982 0.001721 0.006417 -0.000383
# 4 0.006637 -0.002469 0.001721 0.039470 -0.011448 0.006715
# 5 0.001129 0.001094 0.006417 -0.011448 0.028993 -0.001219
# 6 -0.002557 -0.005235 -0.000383 0.006715 -0.001219 0.032546
#
#
# Mechanical properties :
#
#
# Convention : Reuss Voigt Hill
#
# Bulk Modulus (GPa) = 33.10074 45.50768 39.30421
# Shear Modulus (GPa) = 30.69919 38.73495 34.71707
#
# Velocity S-wave (km/s) = 3.57189 4.01223 3.79844
# Velocity P-wave (km/s) = 5.54686 6.35426 5.96424
#
# Compressibility (1/GPa) = 0.03021080
#
# Stress axis : x y z
#
# Youngs Moduli (GPa) = 76.33567 67.03110 77.02764
#
# Poissons Ratio (x) = 0.11599 0.06787
# Poissons Ratio (y) = 0.13209 0.21440
# Poissons Ratio (z) = 0.06726 0.18658
#
# Static dielectric constant tensor:
#      x y z
#    x 2.010380 -0.075200 -0.022350 
#    y -0.075200 2.012030 -0.000580 
#    z -0.022350 -0.000580 1.955020 
# 
# From -- ./inp_files/488168.got.cif
#   From: 2010.05.17/outbox.cif.g08.bks.cpg/sg2_245_cif.got.tgz:488168.got - 2010.06.03 11:33:40.
