data_PCOD9030090
_publ_section_title
;
Structure prediction by ZEFSAII (Michael W. Deem and Ramdas Pophale) SiO2 
 PCOD9030090
Probable space group: P -1
;
_chemical_formula_sum "Si O2"
_cell_formula_units_Z 16
_cell_length_a 12.032089
_cell_length_b 9.224664
_cell_length_c 17.897138
_cell_angle_alpha 138.444876
_cell_angle_beta 37.948791
_cell_angle_gamma 141.792615
_cell_volume 710.999436
_symmetry_space_group_name_H-M "P -1"
_symmetry_group_IT_number 2
_symmetry_cell_setting 'triclinic'
loop_
_space_group_symop_operation_xyz
x,y,z
-x,-y,-z
loop_
_atom_site_type_symbol
_atom_site_label
_atom_site_fract_x
_atom_site_fract_y
_atom_site_fract_z
Si Si1 0.137104 0.535080 0.710711
Si Si2 0.276845 0.350036 0.422173
Si Si3 0.502541 0.055559 0.224108
Si Si4 0.374645 0.153139 0.630187
Si Si5 0.302615 0.103406 0.067953
Si Si6 0.922105 0.029277 0.141514
Si Si7 0.549380 0.640731 0.107188
Si Si8 0.983547 0.050118 0.699289
O O1 0.236173 0.480603 0.564443
O O2 0.302371 0.714163 0.752642
O O3 0.009410 0.277019 0.721260
O O4 0.032374 0.694944 0.798609
O O5 0.334435 0.144182 0.342354
O O6 0.463190 0.559257 0.356872
O O7 0.090529 0.197049 0.406189
O O8 0.454581 0.826530 0.216950
O O9 0.558614 0.992055 0.087510
O O10 0.255243 0.073502 0.740605
O O11 0.196832 0.099673 0.643265
O O12 0.500000 0.000000 0.500000
O O13 0.436106 0.400346 0.126852
O O14 0.119316 0.039850 0.080550
O O15 0.182615 0.983725 0.161630
O O16 0.790540 0.822903 0.068517
O O17 0.500000 0.500000 0.000000
#
# Coordination Sequence:
#
# PCOD9030090 Si02
#       8
#     2   2   2   2   2   2   2   2
#     4  11  23  44  65  99 134 176 220 266 331 394
#     4  12  24  44  67  98 137 170 222 272 327 392
#     4  10  23  41  71  95 132 180 211 275 330 383
#     4  11  23  45  67  94 130 172 218 270 328 385
#     4  10  23  46  65  99 134 167 228 267 327 391
#     4  10  22  42  69  96 129 175 214 277 326 382
#     4   9  20  39  64  97 125 169 218 266 318 382
#     4  11  26  42  67 100 131 175 218 270 331 390
#
# _framework density 22.503533000000001
#
# number of rings (size 3 to 8) (size 9 to 14) (size 15 to 20)
#    0.000    1.500    2.500    1.500    1.750    6.000 
#    4.500    0.000    0.000    0.000    0.000    0.000 
#    0.000    0.000    0.000    0.000    0.000    0.000 
#
# Total GULP energy -89401.930166 kJ/mol
# GULP energy per Si atom -5587.620635 kJ/mol
# Density = 2.245231 g / cm^3
# Si number density = 22.503533 Si / 1000 Ang^3
#
#
#
# Elastic Constant Matrix: (Units=GPa)
#
#
# Indices 1 2 3 4 5 6 
#
# 1 19.5912 13.5075 -16.0191 15.4655 -61.1247 -4.4906
# 2 13.5075 100.1369 5.7637 19.5132 -17.9695 2.9032
# 3 -16.0191 5.7637 76.7635 10.0707 -56.1845 -8.0940
# 4 15.4655 19.5132 10.0707 29.5142 -2.2497 11.9207
# 5 -61.1247 -17.9695 -56.1845 -2.2497 -47.0699 -2.6213
# 6 -4.4906 2.9032 -8.0940 11.9207 -2.6213 32.3842
#
#
#
# Elastic Compliance Matrix: (Units=1/GPa)
#
#
# Indices 1 2 3 4 5 6 
#
# 1 0.015147 -0.002872 -0.004803 -0.006364 -0.012673 0.002474
# 2 -0.002872 0.011633 -0.000475 -0.006329 0.000116 0.000779
# 3 -0.004803 -0.000475 0.009126 -0.001349 -0.004509 0.001789
# 4 -0.006364 -0.006329 -0.001349 0.050040 0.010912 -0.018189
# 5 -0.012673 0.000116 -0.004509 0.010912 0.000412 -0.006878
# 6 0.002474 0.000779 0.001789 -0.018189 -0.006878 0.037738
#
#
# Mechanical properties :
#
#
# Convention : Reuss Voigt Hill
#
# Bulk Modulus (GPa) = 51.01319 22.55511 36.78415
# Shear Modulus (GPa) = 34.02937 15.84834 24.93886
#
# Velocity S-wave (km/s) = 3.89289 2.65667 3.33260
# Velocity P-wave (km/s) = 6.55167 4.41080 5.58478
#
# Compressibility (1/GPa) = 0.01960277
#
# Stress axis : x y z
#
# Youngs Moduli (GPa) = 66.02013 85.96412 109.57975
#
# Poissons Ratio (x) = 0.24693 0.52635
# Poissons Ratio (y) = 0.18964 0.05211
# Poissons Ratio (z) = 0.31712 0.04088
#
# Static dielectric constant tensor:
#      x y z
#    x 1.865950 -0.019750 0.033400 
#    y -0.019750 1.887860 -0.034060 
#    z 0.033400 -0.034060 1.835370 
# 
# From -- ./inp_files/402789.got.cif
#   From: 2010.05.17/outbox.cif.g08.bks.cpg/sg2_202_cif.got.tgz:402789.got - 2010.06.03 11:33:40.
