data_PCOD9030046
_publ_section_title
;
Structure prediction by ZEFSAII (Michael W. Deem and Ramdas Pophale) SiO2 
 PCOD9030046
Probable space group: P -1
;
_chemical_formula_sum "Si O2"
_cell_formula_units_Z 16
_cell_length_a 15.983583
_cell_length_b 13.584892
_cell_length_c 7.794279
_cell_angle_alpha 120.880893
_cell_angle_beta 85.820634
_cell_angle_gamma 145.966487
_cell_volume 552.291418
_symmetry_space_group_name_H-M "P -1"
_symmetry_group_IT_number 2
_symmetry_cell_setting 'triclinic'
loop_
_space_group_symop_operation_xyz
x,y,z
-x,-y,-z
loop_
_atom_site_type_symbol
_atom_site_label
_atom_site_fract_x
_atom_site_fract_y
_atom_site_fract_z
Si Si1 0.860982 0.693668 0.714162
Si Si2 0.559124 0.515090 0.686730
Si Si3 0.764430 0.091654 0.673266
Si Si4 0.087592 0.594570 0.374402
Si Si5 0.955126 0.812212 0.170018
Si Si6 0.476986 0.914549 0.692436
Si Si7 0.781151 0.494958 0.237777
Si Si8 0.372385 0.476592 0.843940
O O1 0.773294 0.709932 0.779351
O O2 0.646378 0.339197 0.407896
O O3 0.953382 0.773550 0.590378
O O4 0.971984 0.790433 0.956147
O O5 0.500000 0.500000 0.500000
O O6 0.560163 0.621837 0.916973
O O7 0.371150 0.190509 0.495052
O O8 0.094655 0.347400 0.825402
O O9 0.591871 0.981000 0.593935
O O10 0.921296 0.326345 0.019896
O O11 0.294789 0.772172 0.528083
O O12 0.000000 0.500000 0.500000
O O13 0.148884 0.787913 0.429110
O O14 0.736482 0.617169 0.047018
O O15 0.162711 0.148809 0.494024
O O16 0.666750 0.228083 0.034843
O O17 0.599213 0.367051 0.117928
#
# Coordination Sequence:
#
# PCOD9030046 Si02
#       8
#     2   2   2   2   2   2   2   2
#     4  11  24  40  70 100 125 187 233 277 368 423
#     4  11  22  44  69  99 141 184 237 299 353 427
#     4  10  27  48  75 108 149 200 245 300 381 440
#     4  11  27  47  71 114 149 191 250 305 371 445
#     4   9  22  42  63  99 129 175 238 279 351 436
#     4  11  26  45  76 108 148 190 244 308 368 446
#     4  10  22  42  69  93 140 177 233 292 357 426
#     4   9  21  43  63  94 136 177 222 297 343 411
#
# _framework density 28.970212
#
# number of rings (size 3 to 8) (size 9 to 14) (size 15 to 20)
#    0.750    1.000    1.250    0.750   12.250    2.000 
#    0.000    1.250    0.000    0.000    0.000    0.000 
#    0.000    0.000    0.000    0.000    0.000    0.000 
#
# Total GULP energy -89483.499442 kJ/mol
# GULP energy per Si atom -5592.718715 kJ/mol
# Density = 2.890427 g / cm^3
# Si number density = 28.970212 Si / 1000 Ang^3
#
#
#
# Elastic Constant Matrix: (Units=GPa)
#
#
# Indices 1 2 3 4 5 6 
#
# 1 157.2243 69.1340 34.8082 -8.6746 3.9434 -5.4125
# 2 69.1340 112.1912 50.6719 -28.1304 19.5427 -11.8423
# 3 34.8082 50.6719 130.1401 -31.5447 4.3947 10.7631
# 4 -8.6746 -28.1304 -31.5447 51.8263 3.9809 9.3455
# 5 3.9434 19.5427 4.3947 3.9809 47.0131 0.6416
# 6 -5.4125 -11.8423 10.7631 9.3455 0.6416 44.4731
#
#
#
# Elastic Compliance Matrix: (Units=1/GPa)
#
#
# Indices 1 2 3 4 5 6 
#
# 1 0.009079 -0.006274 -0.000661 -0.002466 0.002116 0.000082
# 2 -0.006274 0.017619 -0.003770 0.006097 -0.007011 0.003660
# 3 -0.000661 -0.003770 0.011045 0.005434 0.000197 -0.004902
# 4 -0.002466 0.006097 0.005434 0.026891 -0.005037 -0.005570
# 5 0.002116 -0.007011 0.000197 -0.005037 0.024429 -0.000951
# 6 0.000082 0.003660 -0.004902 -0.005570 -0.000951 0.025841
#
#
# Mechanical properties :
#
#
# Convention : Reuss Voigt Hill
#
# Bulk Modulus (GPa) = 61.23124 78.75374 69.99249
# Shear Modulus (GPa) = 35.27108 44.99192 40.13150
#
# Velocity S-wave (km/s) = 3.49305 3.94514 3.72596
# Velocity P-wave (km/s) = 6.11967 6.92788 6.53628
#
# Compressibility (1/GPa) = 0.01633153
#
# Stress axis : x y z
#
# Youngs Moduli (GPa) = 110.13933 56.75707 90.53953
#
# Poissons Ratio (x) = 0.35612 0.05988
# Poissons Ratio (y) = 0.69106 0.34135
# Poissons Ratio (z) = 0.07284 0.21398
#
# Static dielectric constant tensor:
#      x y z
#    x 2.336000 -0.058250 0.178620 
#    y -0.058250 3.059820 -0.533240 
#    z 0.178620 -0.533240 2.731950 
# 
# From -- ./inp_files/315881.got.cif
#   From: 2010.05.17/outbox.cif.g08.bks.cpg/sg2_158_cif.got.tgz:315881.got - 2010.06.03 11:33:40.
