data_PCOD9030266
_publ_section_title
;
Structure prediction by ZEFSAII (Michael W. Deem and Ramdas Pophale) SiO2 
 PCOD9030266
Probable space group: P -1
;
_chemical_formula_sum "Si O2"
_cell_formula_units_Z 15
_cell_length_a 7.476475
_cell_length_b 16.020043
_cell_length_c 4.823060
_cell_angle_alpha 74.362735
_cell_angle_beta 74.235022
_cell_angle_gamma 72.537784
_cell_volume 519.082790
_symmetry_space_group_name_H-M "P -1"
_symmetry_group_IT_number 2
_symmetry_cell_setting 'triclinic'
loop_
_space_group_symop_operation_xyz
x,y,z
-x,-y,-z
loop_
_atom_site_type_symbol
_atom_site_label
_atom_site_fract_x
_atom_site_fract_y
_atom_site_fract_z
Si Si1 0.484774 0.314050 0.185977
Si Si2 0.804742 0.521184 0.383682
Si Si3 0.814805 0.331134 0.429038
Si Si4 0.703080 0.126491 0.068092
Si Si5 0.070913 0.157825 0.179557
Si Si6 0.351952 0.980684 0.309040
Si Si7 0.500000 0.500000 0.000000
Si Si8 0.142848 0.302601 0.708294
O O1 0.623983 0.311789 0.399032
O O2 0.577804 0.227232 0.044960
O O3 0.279955 0.308561 0.389297
O O4 0.502762 0.403145 0.942587
O O5 0.797802 0.437315 0.258500
O O6 0.638227 0.523626 0.672182
O O7 0.816723 0.618796 0.183564
O O8 0.000000 0.500000 0.500000
O O9 0.968302 0.246492 0.310163
O O10 0.917449 0.326087 0.692455
O O11 0.602283 0.070559 0.374192
O O12 0.910436 0.125611 0.104193
O O13 0.734554 0.086913 0.784112
O O14 0.198393 0.073051 0.352972
O O15 0.199688 0.201973 0.882173
O O16 0.500000 0.000000 0.000000
#
# Coordination Sequence:
#
# PCOD9030266 Si02
#       8
#     2   2   2   2   2   2   1   2
#     4  10  24  45  68 108 143 194 250 306 384 445
#     4   9  21  42  64 100 146 188 246 305 374 445
#     4  10  24  42  70  99 143 194 243 303 379 444
#     4  11  27  46  76 106 149 198 244 317 387 462
#     4  11  26  43  73 102 140 193 247 309 380 455
#     4  12  27  48  76 110 147 193 253 317 387 464
#     4  10  22  42  70 104 146 190 244 314 364 454
#     4  10  23  45  65 104 145 189 249 313 366 465
#
# _framework density 28.897124999999999
#
# number of rings (size 3 to 8) (size 9 to 14) (size 15 to 20)
#    0.000    1.600    0.000    2.000   14.933    2.667 
#   12.000    0.000    0.000    0.000    0.000    0.000 
#    0.000    0.000    0.000    0.000    0.000    0.000 
#
# Total GULP energy -83862.185306 kJ/mol
# GULP energy per Si atom -5590.812354 kJ/mol
# Density = 2.883135 g / cm^3
# Si number density = 28.897125 Si / 1000 Ang^3
#
#
#
# Elastic Constant Matrix: (Units=GPa)
#
#
# Indices 1 2 3 4 5 6 
#
# 1 124.9467 18.2341 22.8309 19.1717 -14.0949 15.9167
# 2 18.2341 164.9208 52.7641 -9.3776 8.4532 -21.8487
# 3 22.8309 52.7641 116.4937 0.0092 -6.3362 10.9676
# 4 19.1717 -9.3776 0.0092 52.3921 8.0871 5.3529
# 5 -14.0949 8.4532 -6.3362 8.0871 40.5695 8.4936
# 6 15.9167 -21.8487 10.9676 5.3529 8.4936 49.7038
#
#
#
# Elastic Compliance Matrix: (Units=1/GPa)
#
#
# Indices 1 2 3 4 5 6 
#
# 1 0.010373 -0.002281 -0.000223 -0.004636 0.005972 -0.004796
# 2 -0.002281 0.009008 -0.004509 0.002609 -0.005211 0.006294
# 3 -0.000223 -0.004509 0.011348 -0.000811 0.003839 -0.004984
# 4 -0.004636 0.002609 -0.000811 0.022171 -0.007041 0.001626
# 5 0.005972 -0.005211 0.003839 -0.007041 0.031851 -0.009735
# 6 -0.004796 0.006294 -0.004984 0.001626 -0.009735 0.027010
#
#
# Mechanical properties :
#
#
# Convention : Reuss Voigt Hill
#
# Bulk Modulus (GPa) = 59.86921 66.00216 62.93569
# Shear Modulus (GPa) = 38.06474 49.36856 43.71665
#
# Velocity S-wave (km/s) = 3.63333 4.13779 3.89374
# Velocity P-wave (km/s) = 6.19391 6.76154 6.48394
#
# Compressibility (1/GPa) = 0.01670308
#
# Stress axis : x y z
#
# Youngs Moduli (GPa) = 96.40340 111.01655 88.11855
#
# Poissons Ratio (x) = 0.25319 0.01967
# Poissons Ratio (y) = 0.21986 0.39734
# Poissons Ratio (z) = 0.02152 0.50059
#
# Static dielectric constant tensor:
#      x y z
#    x 2.139270 0.117450 -0.085860 
#    y 0.117450 2.346040 0.031330 
#    z -0.085860 0.031330 2.174910 
# 
# From -- ./inp_files/34337.got.cif
#   From: 2010.05.17/outbox.cif.g08.bks.cpg/sg2_18_cif.got.tgz:34337.got - 2010.06.03 11:33:40.
