data_PCOD9030477
_publ_section_title
;
Structure prediction by ZEFSAII (Michael W. Deem and Ramdas Pophale) SiO2 
 PCOD9030477
Probable space group: P -1
;
_chemical_formula_sum "Si O2"
_cell_formula_units_Z 16
_cell_length_a 25.920086
_cell_length_b 9.112183
_cell_length_c 9.442019
_cell_angle_alpha 102.765134
_cell_angle_beta 38.234339
_cell_angle_gamma 132.444667
_cell_volume 749.624467
_symmetry_space_group_name_H-M "P -1"
_symmetry_group_IT_number 2
_symmetry_cell_setting 'triclinic'
loop_
_space_group_symop_operation_xyz
x,y,z
-x,-y,-z
loop_
_atom_site_type_symbol
_atom_site_label
_atom_site_fract_x
_atom_site_fract_y
_atom_site_fract_z
Si Si1 0.513399 0.460605 0.623338
Si Si2 0.697328 0.677887 0.738334
Si Si3 0.643368 0.270292 0.665763
Si Si4 0.064465 0.439502 0.807375
Si Si5 0.861899 0.582816 0.640706
Si Si6 0.794747 0.819793 0.256892
Si Si7 0.458654 0.034789 0.732450
Si Si8 0.004818 0.909451 0.677189
O O1 0.500000 0.500000 0.500000
O O2 0.690870 0.714673 0.328781
O O3 0.448710 0.195139 0.738979
O O4 0.425762 0.440018 0.916080
O O5 0.695002 0.494114 0.689319
O O6 0.687345 0.694146 0.595771
O O7 0.861201 0.968799 0.502374
O O8 0.779700 0.360088 0.407851
O O9 0.583526 0.215523 0.625785
O O10 0.500000 0.000000 0.000000
O O11 0.077080 0.442033 0.611429
O O12 0.000000 0.500000 0.000000
O O13 0.942032 0.132588 0.043633
O O14 0.933150 0.696691 0.666952
O O15 0.911275 0.821215 0.522484
O O16 0.690205 0.272862 0.956602
O O17 0.873118 0.779291 0.033407
O O18 0.500000 0.000000 0.500000
#
# Coordination Sequence:
#
# PCOD9030477 Si02
#       8
#     2   2   2   2   2   2   2   2
#     4  12  31  45  72 105 150 196 245 310 367 426
#     4  12  25  45  74 107 139 190 246 299 363 431
#     4  12  25  46  77 106 142 195 241 300 367 435
#     4  11  26  42  72 108 148 185 238 297 368 431
#     4  10  22  42  71 103 144 190 231 298 360 440
#     4  11  24  45  71 100 139 186 241 297 357 435
#     4  12  27  47  74 107 148 194 248 296 367 443
#     4  10  22  43  75 103 143 185 240 293 372 438
#
# _framework density 21.344021000000001
#
# number of rings (size 3 to 8) (size 9 to 14) (size 15 to 20)
#    0.000    0.750    5.000    1.500   12.250    0.000 
#    0.000    0.625    0.000    0.000    0.000    0.000 
#    0.000    0.000    0.000    0.000    0.000    0.000 
#
# Total GULP energy -89235.281323 kJ/mol
# GULP energy per Si atom -5577.205083 kJ/mol
# Density = 2.129544 g / cm^3
# Si number density = 21.344021 Si / 1000 Ang^3
#
#
#
# Elastic Constant Matrix: (Units=GPa)
#
#
# Indices 1 2 3 4 5 6 
#
# 1 107.7651 49.1210 42.4928 7.3934 -13.4099 22.3144
# 2 49.1210 97.8772 37.8484 14.2690 -5.7217 28.2074
# 3 42.4928 37.8484 122.9597 8.8796 -4.5774 7.0972
# 4 7.3934 14.2690 8.8796 53.5493 5.8825 -1.2115
# 5 -13.4099 -5.7217 -4.5774 5.8825 41.6318 -3.0845
# 6 22.3144 28.2074 7.0972 -1.2115 -3.0845 33.1753
#
#
#
# Elastic Compliance Matrix: (Units=1/GPa)
#
#
# Indices 1 2 3 4 5 6 
#
# 1 0.013807 -0.004005 -0.003072 -0.000805 0.003306 -0.004946
# 2 -0.004005 0.017266 -0.002974 -0.003864 0.000453 -0.011449
# 3 -0.003072 -0.002974 0.009994 -0.000378 -0.000065 0.002437
# 4 -0.000805 -0.003864 -0.000378 0.020348 -0.003386 0.004336
# 5 0.003306 0.000453 -0.000065 -0.003386 0.025593 -0.000340
# 6 -0.004946 -0.011449 0.002437 0.004336 -0.000340 0.042810
#
#
# Mechanical properties :
#
#
# Convention : Reuss Voigt Hill
#
# Bulk Modulus (GPa) = 47.69795 65.28072 56.48933
# Shear Modulus (GPa) = 31.86539 38.94726 35.40633
#
# Velocity S-wave (km/s) = 3.86805 4.27633 4.07731
# Velocity P-wave (km/s) = 6.50729 7.41850 6.97778
#
# Compressibility (1/GPa) = 0.02096526
#
# Stress axis : x y z
#
# Youngs Moduli (GPa) = 72.42532 57.91589 100.06018
#
# Poissons Ratio (x) = 0.23198 0.30738
# Poissons Ratio (y) = 0.29009 0.29756
# Poissons Ratio (z) = 0.22249 0.17223
#
# Static dielectric constant tensor:
#      x y z
#    x 1.779680 0.006860 0.080810 
#    y 0.006860 1.736890 -0.082320 
#    z 0.080810 -0.082320 1.903930 
# 
# From -- ./inp_files/352226.got.cif
#   From: 2010.05.17/outbox.cif.g08.bks.cpg/sg2_177_cif.got.tgz:352226.got - 2010.06.03 11:33:40.
