data_PCOD9030164
_publ_section_title
;
Structure prediction by ZEFSAII (Michael W. Deem and Ramdas Pophale) SiO2 
 PCOD9030164
Probable space group: P -1
;
_chemical_formula_sum "Si O2"
_cell_formula_units_Z 13
_cell_length_a 20.027959
_cell_length_b 8.024433
_cell_length_c 18.996619
_cell_angle_alpha 149.769013
_cell_angle_beta 159.257420
_cell_angle_gamma 41.317974
_cell_volume 515.909499
_symmetry_space_group_name_H-M "P -1"
_symmetry_group_IT_number 2
_symmetry_cell_setting 'triclinic'
loop_
_space_group_symop_operation_xyz
x,y,z
-x,-y,-z
loop_
_atom_site_type_symbol
_atom_site_label
_atom_site_fract_x
_atom_site_fract_y
_atom_site_fract_z
Si Si1 0.757153 0.519254 0.631752
Si Si2 0.746307 0.451930 0.361535
Si Si3 0.214327 0.466775 0.176862
Si Si4 0.468747 0.323345 0.167606
Si Si5 0.862352 0.312107 0.229398
Si Si6 0.782733 0.254368 0.856305
Si Si7 0.500000 0.500000 0.000000
O O1 0.692490 0.505199 0.643820
O O2 0.591965 0.222259 0.317262
O O3 0.758784 0.885933 0.733623
O O4 0.982111 0.526572 0.840972
O O5 0.634016 0.500344 0.338017
O O6 0.984251 0.587792 0.648437
O O7 0.661386 0.588634 0.258983
O O8 0.679530 0.035608 0.136591
O O9 0.299817 0.759033 0.309406
O O10 0.000000 0.500000 0.000000
O O11 0.199631 0.108017 0.990901
O O12 0.338606 0.553442 0.148142
O O13 0.000000 0.500000 0.500000
O O14 0.672758 0.438129 0.094791
#
# Coordination Sequence:
#
# PCOD9030164 Si02
#       7
#     2   2   2   2   2   2   1
#     4  10  24  41  67  99 134 181 227 287 350 403
#     4  10  25  41  67  94 138 180 228 282 340 414
#     4  10  23  43  72 102 134 182 233 287 353 409
#     4  11  24  44  61 100 137 181 230 279 342 416
#     4  10  22  44  70 100 138 178 228 292 342 419
#     4  10  22  43  66  98 135 176 227 289 343 409
#     4  10  22  42  70 100 126 180 232 276 350 412
#
# _framework density 25.198218000000001
#
# number of rings (size 3 to 8) (size 9 to 14) (size 15 to 20)
#    0.000    1.846    0.000    2.308    8.615    6.769 
#    0.000    3.077    0.000    0.000    0.000    0.000 
#    0.000    0.000    0.000    0.000    0.000    0.000 
#
# Total GULP energy -72507.823948 kJ/mol
# GULP energy per Si atom -5577.524919 kJ/mol
# Density = 2.514087 g / cm^3
# Si number density = 25.198218 Si / 1000 Ang^3
#
#
#
# Elastic Constant Matrix: (Units=GPa)
#
#
# Indices 1 2 3 4 5 6 
#
# 1 172.4753 65.1130 27.2260 -15.3948 19.4477 -6.4348
# 2 65.1130 94.5347 41.5006 -28.1781 15.8325 -28.2495
# 3 27.2260 41.5006 85.6774 -11.2750 20.1609 -21.6412
# 4 -15.3948 -28.1781 -11.2750 42.8090 -13.6618 13.8931
# 5 19.4477 15.8325 20.1609 -13.6618 49.8489 -11.2744
# 6 -6.4348 -28.2495 -21.6412 13.8931 -11.2744 36.2875
#
#
#
# Elastic Compliance Matrix: (Units=1/GPa)
#
#
# Indices 1 2 3 4 5 6 
#
# 1 0.008458 -0.007016 0.000048 -0.000904 -0.002313 -0.004305
# 2 -0.007016 0.023365 -0.005767 0.008560 0.002483 0.011000
# 3 0.000048 -0.005767 0.016389 -0.002440 -0.004384 0.004865
# 4 -0.000904 0.008560 -0.002440 0.031659 0.006129 -0.005169
# 5 -0.002313 0.002483 -0.004384 0.006129 0.024576 0.004197
# 6 -0.004305 0.011000 0.004865 -0.005169 0.004197 0.041542
#
#
# Mechanical properties :
#
#
# Convention : Reuss Voigt Hill
#
# Bulk Modulus (GPa) = 43.97026 68.92962 56.44994
# Shear Modulus (GPa) = 27.92637 40.37892 34.15264
#
# Velocity S-wave (km/s) = 3.33268 4.00741 3.68551
# Velocity P-wave (km/s) = 5.68301 6.98761 6.36881
#
# Compressibility (1/GPa) = 0.02274264
#
# Stress axis : x y z
#
# Youngs Moduli (GPa) = 118.22573 42.79874 61.01514
#
# Poissons Ratio (x) = 0.30027 -0.00294
# Poissons Ratio (y) = 0.82946 0.35190
# Poissons Ratio (z) = -0.00570 0.24684
#
# Static dielectric constant tensor:
#      x y z
#    x 1.897750 -0.355640 -0.228900 
#    y -0.355640 0.567080 -0.648540 
#    z -0.228900 -0.648540 1.750540 
# 
# From -- ./inp_files/601084.got.cif
#   From: 2010.05.17/outbox.cif.g08.bks.cpg/sg2_301_cif.got.tgz:601084.got - 2010.06.03 11:33:40.
