data_PCOD9030469
_publ_section_title
;
Structure prediction by ZEFSAII (Michael W. Deem and Ramdas Pophale) SiO2 
 PCOD9030469
Probable space group: P -1
;
_chemical_formula_sum "Si O2"
_cell_formula_units_Z 12
_cell_length_a 9.538611
_cell_length_b 9.109885
_cell_length_c 6.849622
_cell_angle_alpha 54.397987
_cell_angle_beta 112.945429
_cell_angle_gamma 117.297290
_cell_volume 423.790031
_symmetry_space_group_name_H-M "P -1"
_symmetry_group_IT_number 2
_symmetry_cell_setting 'triclinic'
loop_
_space_group_symop_operation_xyz
x,y,z
-x,-y,-z
loop_
_atom_site_type_symbol
_atom_site_label
_atom_site_fract_x
_atom_site_fract_y
_atom_site_fract_z
Si Si1 0.974360 0.982929 0.230083
Si Si2 0.274603 0.464086 0.870312
Si Si3 0.396891 0.792656 0.277355
Si Si4 0.513761 0.795262 0.907724
Si Si5 0.063820 0.622939 0.132705
Si Si6 0.253592 0.223442 0.424039
O O1 0.148085 0.043283 0.379412
O O2 0.856416 0.806335 0.418789
O O3 0.906522 0.160136 0.090795
O O4 0.000000 0.000000 0.000000
O O5 0.366179 0.332153 0.917755
O O6 0.087936 0.424747 0.768156
O O7 0.385040 0.681848 0.765518
O O8 0.417408 0.806650 0.042065
O O9 0.227820 0.627767 0.325407
O O10 0.567143 0.768014 0.440863
O O11 0.389933 0.983871 0.232394
O O12 0.000000 0.500000 0.000000
O O13 0.726599 0.604378 0.848616
#
# Coordination Sequence:
#
# PCOD9030469 Si02
#       6
#     2   2   2   2   2   2
#     4  10  23  46  74 102 142 189 230 285 366 426
#     4  10  23  44  69 100 144 186 237 285 354 432
#     4  11  23  40  71 106 139 181 241 293 349 415
#     4  10  22  42  71 102 137 194 231 285 366 410
#     4  11  23  42  68 100 140 192 227 289 358 414
#     4  10  24  41  72 112 136 179 240 298 339 427
#
# _framework density 28.315909999999999
#
# number of rings (size 3 to 8) (size 9 to 14) (size 15 to 20)
#    0.000    1.667    1.667    2.000    9.333    1.333 
#    0.000    0.000    0.000   15.000    0.000    0.000 
#    0.000    0.000    0.000    0.000    0.000    0.000 
#
# Total GULP energy -67150.959421 kJ/mol
# GULP energy per Si atom -5595.913285 kJ/mol
# Density = 2.825146 g / cm^3
# Si number density = 28.315910 Si / 1000 Ang^3
#
#
#
# Elastic Constant Matrix: (Units=GPa)
#
#
# Indices 1 2 3 4 5 6 
#
# 1 210.7924 73.8212 51.5962 15.5598 13.2581 14.5686
# 2 73.8212 185.0470 54.9158 3.5036 12.0770 12.9481
# 3 51.5962 54.9158 79.7703 28.4025 12.6500 11.0885
# 4 15.5598 3.5036 28.4025 52.2778 19.8426 13.9991
# 5 13.2581 12.0770 12.6500 19.8426 74.1492 8.8936
# 6 14.5686 12.9481 11.0885 13.9991 8.8936 55.1039
#
#
#
# Elastic Compliance Matrix: (Units=1/GPa)
#
#
# Indices 1 2 3 4 5 6 
#
# 1 0.006002 -0.001521 -0.002727 0.000088 -0.000305 -0.000654
# 2 -0.001521 0.007612 -0.005169 0.003361 -0.000858 -0.001062
# 3 -0.002727 -0.005169 0.021601 -0.010843 0.000515 0.000260
# 4 0.000088 0.003361 -0.010843 0.028234 -0.005683 -0.004887
# 5 -0.000305 -0.000858 0.000515 -0.005683 0.015213 -0.000833
# 6 -0.000654 -0.001062 0.000260 -0.004887 -0.000833 0.019893
#
#
# Mechanical properties :
#
#
# Convention : Reuss Voigt Hill
#
# Bulk Modulus (GPa) = 61.04925 92.91957 76.98441
# Shear Modulus (GPa) = 40.70001 55.99128 48.34565
#
# Velocity S-wave (km/s) = 3.79536 4.45160 4.13651
# Velocity P-wave (km/s) = 6.38852 7.70122 7.07538
#
# Compressibility (1/GPa) = 0.01638022
#
# Stress axis : x y z
#
# Youngs Moduli (GPa) = 166.60768 131.37984 46.29343
#
# Poissons Ratio (x) = 0.19984 0.12625
# Poissons Ratio (y) = 0.25343 0.23930
# Poissons Ratio (z) = 0.45436 0.67912
#
# Static dielectric constant tensor:
#      x y z
#    x 2.197510 0.004550 -0.020830 
#    y 0.004550 2.264750 -0.026270 
#    z -0.020830 -0.026270 2.305380 
# 
# From -- ./inp_files/394808.got.cif
#   From: 2010.05.17/outbox.cif.g08.bks.cpg/sg2_198_cif.got.tgz:394808.got - 2010.06.03 11:33:40.
