data_PCOD9030898
_publ_section_title
;
Structure prediction by ZEFSAII (Michael W. Deem and Ramdas Pophale) SiO2 
 PCOD9030898
Probable space group: P -1
;
_chemical_formula_sum "Si O2"
_cell_formula_units_Z 16
_cell_length_a 21.144945
_cell_length_b 17.517494
_cell_length_c 8.745411
_cell_angle_alpha 138.967165
_cell_angle_beta 31.080170
_cell_angle_gamma 152.190357
_cell_volume 780.107284
_symmetry_space_group_name_H-M "P -1"
_symmetry_group_IT_number 2
_symmetry_cell_setting 'triclinic'
loop_
_space_group_symop_operation_xyz
x,y,z
-x,-y,-z
loop_
_atom_site_type_symbol
_atom_site_label
_atom_site_fract_x
_atom_site_fract_y
_atom_site_fract_z
Si Si1 0.653227 0.872529 0.621928
Si Si2 0.406808 0.835164 0.534498
Si Si3 0.653612 0.375542 0.922654
Si Si4 0.001975 0.138577 0.739407
Si Si5 0.893734 0.223205 0.818583
Si Si6 0.708540 0.013794 0.399638
Si Si7 0.767233 0.692655 0.202862
Si Si8 0.989996 0.323061 0.440565
O O1 0.686440 0.913690 0.437363
O O2 0.719584 0.790371 0.408970
O O3 0.757658 0.040335 0.751790
O O4 0.455391 0.747378 0.897906
O O5 0.411353 0.725800 0.251994
O O6 0.518598 0.901430 0.555841
O O7 0.500000 0.000000 0.500000
O O8 0.213937 0.748541 0.832998
O O9 0.861639 0.502629 0.685266
O O10 0.630469 0.500044 0.158700
O O11 0.999382 0.218577 0.716267
O O12 0.166704 0.273138 0.708510
O O13 0.000000 0.000000 0.500000
O O14 0.832268 0.054960 0.066925
O O15 0.983879 0.337714 0.655964
O O16 0.806857 0.192117 0.537408
O O17 0.932032 0.756364 0.860571
#
# Coordination Sequence:
#
# PCOD9030898 Si02
#       8
#     2   2   2   2   2   2   2   2
#     4  11  20  38  67  89 127 166 204 252 315 370
#     4  12  23  43  65  86 129 164 220 253 297 376
#     4  10  22  43  61  90 127 172 198 262 314 360
#     4  11  20  35  64  95 125 155 211 254 309 367
#     4  11  22  39  67  92 118 172 204 259 307 362
#     4  10  23  40  62  96 119 167 213 250 301 381
#     4   9  21  39  60  92 131 160 203 253 313 375
#     4   8  22  40  61  91 126 154 209 250 321 353
#
# _framework density 20.509998
#
# number of rings (size 3 to 8) (size 9 to 14) (size 15 to 20)
#    0.750    1.000    3.750    0.375    1.750    4.000 
#    2.250    3.125    0.000    0.000    0.000    0.000 
#    0.000    0.000    0.000    0.000    0.000    0.000 
#
# Total GULP energy -89179.681328 kJ/mol
# GULP energy per Si atom -5573.730083 kJ/mol
# Density = 2.046332 g / cm^3
# Si number density = 20.509998 Si / 1000 Ang^3
#
#
#
# Elastic Constant Matrix: (Units=GPa)
#
#
# Indices 1 2 3 4 5 6 
#
# 1 72.5877 20.3679 19.9654 12.7659 -0.0602 17.0275
# 2 20.3679 85.0957 11.3632 4.0847 -0.5210 4.4319
# 3 19.9654 11.3632 56.8314 5.9068 9.2349 -1.6095
# 4 12.7659 4.0847 5.9068 26.6059 -1.3293 6.6238
# 5 -0.0602 -0.5210 9.2349 -1.3293 27.3906 -4.0948
# 6 17.0275 4.4319 -1.6095 6.6238 -4.0948 17.1023
#
#
#
# Elastic Compliance Matrix: (Units=1/GPa)
#
#
# Indices 1 2 3 4 5 6 
#
# 1 0.022106 -0.003083 -0.007249 -0.003393 -0.000837 -0.020779
# 2 -0.003083 0.012716 -0.001581 -0.000040 0.000739 -0.000182
# 3 -0.007249 -0.001581 0.022160 -0.003936 -0.006252 0.009740
# 4 -0.003393 -0.000040 -0.003936 0.043525 0.001413 -0.013502
# 5 -0.000837 0.000739 -0.006252 0.001413 0.040058 0.009097
# 6 -0.020779 -0.000182 0.009740 -0.013502 0.009097 0.087530
#
#
# Mechanical properties :
#
#
# Convention : Reuss Voigt Hill
#
# Bulk Modulus (GPa) = 30.16077 35.32308 32.74192
# Shear Modulus (GPa) = 19.01337 25.07431 22.04384
#
# Velocity S-wave (km/s) = 3.04802 3.50028 3.28195
# Velocity P-wave (km/s) = 5.20812 5.79618 5.51000
#
# Compressibility (1/GPa) = 0.03315565
#
# Stress axis : x y z
#
# Youngs Moduli (GPa) = 45.23729 78.63854 45.12725
#
# Poissons Ratio (x) = 0.24245 0.32714
# Poissons Ratio (y) = 0.13947 0.07132
# Poissons Ratio (z) = 0.32794 0.12429
#
# Static dielectric constant tensor:
#      x y z
#    x 1.770340 0.031060 -0.013300 
#    y 0.031060 1.761360 -0.038330 
#    z -0.013300 -0.038330 1.783990 
# 
# From -- ./inp_files/348912.got.cif
#   From: 2010.05.17/outbox.cif.g08.bks.cpg/sg2_175_cif.got.tgz:348912.got - 2010.06.03 11:33:40.
