data_PCOD9030350
_publ_section_title
;
Structure prediction by ZEFSAII (Michael W. Deem and Ramdas Pophale) SiO2 
 PCOD9030350
Probable space group: P -1
;
_chemical_formula_sum "Si O2"
_cell_formula_units_Z 13
_cell_length_a 8.435257
_cell_length_b 9.258418
_cell_length_c 15.139328
_cell_angle_alpha 142.142458
_cell_angle_beta 121.502235
_cell_angle_gamma 49.048657
_cell_volume 547.989718
_symmetry_space_group_name_H-M "P -1"
_symmetry_group_IT_number 2
_symmetry_cell_setting 'triclinic'
loop_
_space_group_symop_operation_xyz
x,y,z
-x,-y,-z
loop_
_atom_site_type_symbol
_atom_site_label
_atom_site_fract_x
_atom_site_fract_y
_atom_site_fract_z
Si Si1 0.532911 0.093559 0.348053
Si Si2 0.074927 0.343780 0.804623
Si Si3 0.500000 0.000000 0.500000
Si Si4 0.989447 0.943132 0.072681
Si Si5 0.471374 0.737537 0.857820
Si Si6 0.778799 0.210910 0.768753
Si Si7 0.264192 0.544340 0.374684
O O1 0.510119 0.035996 0.414185
O O2 0.319442 0.301222 0.339773
O O3 0.678016 0.244885 0.461429
O O4 0.675500 0.820553 0.207411
O O5 0.980326 0.230036 0.797056
O O6 0.964893 0.331562 0.674541
O O7 0.994917 0.656154 0.943706
O O8 0.703273 0.058308 0.604846
O O9 0.171406 0.909255 0.177136
O O10 0.772714 0.172372 0.158617
O O11 0.000000 0.000000 0.000000
O O12 0.596395 0.515319 0.860201
O O13 0.573737 0.592029 0.725701
O O14 0.500000 0.000000 0.000000
#
# Coordination Sequence:
#
# PCOD9030350 Si02
#       7
#     2   2   1   2   2   2   2
#     4  11  24  42  67  98 135 177 226 278 336 405
#     4  11  23  45  71  99 130 181 230 278 340 411
#     4  12  26  46  66 102 142 178 226 282 346 398
#     4  12  28  43  68 109 139 178 230 286 350 404
#     4  11  22  45  72  99 136 179 232 279 343 415
#     4  11  26  47  70  99 140 186 228 282 346 406
#     4  10  22  42  70  95 129 178 230 266 337 409
#
# _framework density 23.723075000000001
#
# number of rings (size 3 to 8) (size 9 to 14) (size 15 to 20)
#    0.000    0.923    6.154    1.846    6.462    0.615 
#    0.000    1.538    0.000    0.000    0.000    0.000 
#    0.000    0.000    0.000    0.000    0.000    0.000 
#
# Total GULP energy -72472.859072 kJ/mol
# GULP energy per Si atom -5574.835313 kJ/mol
# Density = 2.366908 g / cm^3
# Si number density = 23.723075 Si / 1000 Ang^3
#
#
#
# Elastic Constant Matrix: (Units=GPa)
#
#
# Indices 1 2 3 4 5 6 
#
# 1 57.6899 42.3212 11.2462 8.2260 -3.9487 25.7836
# 2 42.3212 138.7317 25.8683 -19.9848 -25.8666 2.6625
# 3 11.2462 25.8683 57.1272 -22.2062 -5.5751 4.3380
# 4 8.2260 -19.9848 -22.2062 38.0250 -9.8805 -8.2191
# 5 -3.9487 -25.8666 -5.5751 -9.8805 21.3094 0.0999
# 6 25.7836 2.6625 4.3380 -8.2191 0.0999 28.5018
#
#
#
# Elastic Compliance Matrix: (Units=1/GPa)
#
#
# Indices 1 2 3 4 5 6 
#
# 1 -0.068023 0.046210 0.036678 0.104261 0.101044 0.081349
# 2 0.046210 -0.018084 -0.023153 -0.056151 -0.045235 -0.052623
# 3 0.036678 -0.023153 0.007351 -0.033917 -0.034916 -0.041795
# 4 0.104261 -0.056151 -0.033917 -0.096057 -0.101730 -0.111254
# 5 0.101044 -0.045235 -0.034916 -0.101730 -0.045042 -0.111046
# 6 0.081349 -0.052623 -0.041795 -0.111254 -0.111046 -0.058921
#
#
# Mechanical properties :
#
#
# Convention : Reuss Voigt Hill
#
# Bulk Modulus (GPa) = 24.56284 45.82446 35.19365
# Shear Modulus (GPa) = -12.99799 29.17477 8.08839
#
# Velocity S-wave (km/s) = -2.34328 3.51066 1.84849
# Velocity P-wave (km/s) = 1.74791 5.98259 4.40718
#
# Compressibility (1/GPa) = 0.04071190
#
# Stress axis : x y z
#
# Youngs Moduli (GPa) = -14.70084 -55.29687 136.04370
#
# Poissons Ratio (x) = 2.55525 -4.98985
# Poissons Ratio (y) = 0.67932 3.14989
# Poissons Ratio (z) = 0.53920 -1.28032
#
# Static dielectric constant tensor:
#      x y z
#    x 1.907040 0.010440 0.057760 
#    y 0.010440 1.914200 -0.000100 
#    z 0.057760 -0.000100 1.933800 
# 
# From -- ./inp_files/236103.got.cif
#   From: 2010.05.17/outbox.cif.g08.bks.cpg/sg2_119_cif.got.tgz:236103.got - 2010.06.03 11:33:40.
