data_PCOD9030241
_publ_section_title
;
Structure prediction by ZEFSAII (Michael W. Deem and Ramdas Pophale) SiO2 
 PCOD9030241
Probable space group: P -1
;
_chemical_formula_sum "Si O2"
_cell_formula_units_Z 16
_cell_length_a 9.235035
_cell_length_b 28.975138
_cell_length_c 9.304473
_cell_angle_alpha 144.629064
_cell_angle_beta 60.413506
_cell_angle_gamma 144.517319
_cell_volume 721.232590
_symmetry_space_group_name_H-M "P -1"
_symmetry_group_IT_number 2
_symmetry_cell_setting 'triclinic'
loop_
_space_group_symop_operation_xyz
x,y,z
-x,-y,-z
loop_
_atom_site_type_symbol
_atom_site_label
_atom_site_fract_x
_atom_site_fract_y
_atom_site_fract_z
Si Si1 0.962109 0.164274 0.229545
Si Si2 0.915582 0.212552 0.879307
Si Si3 0.677407 0.951447 0.366889
Si Si4 0.478639 0.868746 0.576482
Si Si5 0.521163 0.558099 0.988586
Si Si6 0.685295 0.346514 0.706883
Si Si7 0.777128 0.634268 0.610069
Si Si8 0.728697 0.851186 0.832650
O O1 0.793964 0.176079 0.404204
O O2 0.149742 0.254038 0.221216
O O3 0.174984 0.202745 0.329660
O O4 0.708516 0.003553 0.906876
O O5 0.617908 0.125336 0.740753
O O6 0.909685 0.113791 0.645183
O O7 0.172148 0.341969 0.979843
O O8 0.966723 0.269618 0.156876
O O9 0.621840 0.913659 0.464974
O O10 0.720634 0.891668 0.094161
O O11 0.405375 0.754676 0.389108
O O12 0.269759 0.433469 0.683421
O O13 0.500000 0.500000 0.000000
O O14 0.486545 0.638839 0.193815
O O15 0.573488 0.261941 0.395434
O O16 0.000000 0.500000 0.000000
O O17 0.500000 0.500000 0.500000
O O18 0.000000 0.000000 0.000000
#
# Coordination Sequence:
#
# PCOD9030241 Si02
#       8
#     2   2   2   2   2   2   2   2
#     4  11  24  46  79 106 148 194 253 301 386 445
#     4  10  24  42  70 109 142 193 245 302 377 443
#     4  11  26  42  73 108 153 185 246 321 372 437
#     4  11  26  46  76 110 147 195 246 318 373 449
#     4  11  25  46  76 103 149 198 250 299 375 455
#     4  12  28  46  73 111 153 197 253 310 374 450
#     4  10  22  42  70 102 140 190 239 298 363 446
#     4  12  27  47  74 109 150 197 254 310 374 452
#
# _framework density 22.184242000000001
#
# number of rings (size 3 to 8) (size 9 to 14) (size 15 to 20)
#    0.000    1.000    2.500    2.250   12.250    2.500 
#    0.000    0.625    0.000    0.000    0.000    0.000 
#    0.000    0.000    0.000    0.000    0.000    0.000 
#
# Total GULP energy -89127.871993 kJ/mol
# GULP energy per Si atom -5570.492000 kJ/mol
# Density = 2.213375 g / cm^3
# Si number density = 22.184242 Si / 1000 Ang^3
#
#
#
# Elastic Constant Matrix: (Units=GPa)
#
#
# Indices 1 2 3 4 5 6 
#
# 1 116.0676 54.7302 30.5394 -6.4775 -8.7638 -20.1998
# 2 54.7302 118.1236 45.5753 4.5881 -4.0002 -28.2684
# 3 30.5394 45.5753 119.8014 -0.7436 9.6280 -8.2982
# 4 -6.4775 4.5881 -0.7436 40.0874 -10.5236 -3.2088
# 5 -8.7638 -4.0002 9.6280 -10.5236 39.4389 2.3203
# 6 -20.1998 -28.2684 -8.2982 -3.2088 2.3203 38.1673
#
#
#
# Elastic Compliance Matrix: (Units=1/GPa)
#
#
# Indices 1 2 3 4 5 6 
#
# 1 0.011994 -0.004317 -0.001460 0.003519 0.003351 0.002925
# 2 -0.004317 0.013582 -0.003642 -0.001652 0.000466 0.006816
# 3 -0.001460 -0.003642 0.010291 -0.000580 -0.003297 -0.001081
# 4 0.003519 -0.001652 -0.000580 0.028006 0.008089 0.002375
# 5 0.003351 0.000466 -0.003297 0.008089 0.029092 0.000313
# 6 0.002925 0.006816 -0.001081 0.002375 0.000313 0.032742
#
#
# Mechanical properties :
#
#
# Convention : Reuss Voigt Hill
#
# Bulk Modulus (GPa) = 58.72247 68.40916 63.56581
# Shear Modulus (GPa) = 33.28392 38.41522 35.84957
#
# Velocity S-wave (km/s) = 3.87763 4.16582 4.02430
# Velocity P-wave (km/s) = 6.82465 7.35136 7.09289
#
# Compressibility (1/GPa) = 0.01702926
#
# Stress axis : x y z
#
# Youngs Moduli (GPa) = 83.37588 73.62597 97.16882
#
# Poissons Ratio (x) = 0.31785 0.14186
# Poissons Ratio (y) = 0.35994 0.35389
# Poissons Ratio (z) = 0.12173 0.26815
#
# Static dielectric constant tensor:
#      x y z
#    x 1.844380 0.022020 -0.032510 
#    y 0.022020 1.832610 -0.040710 
#    z -0.032510 -0.040710 1.946220 
# 
# From -- ./inp_files/227749.got.cif
#   From: 2010.05.17/outbox.cif.g08.bks.cpg/sg2_114_cif.got.tgz:227749.got - 2010.06.03 11:33:40.
