data_PCOD9030984
_publ_section_title
;
Structure prediction by ZEFSAII (Michael W. Deem and Ramdas Pophale) SiO2 
 PCOD9030984
Probable space group: P -1
;
_chemical_formula_sum "Si O2"
_cell_formula_units_Z 16
_cell_length_a 8.817691
_cell_length_b 12.057758
_cell_length_c 8.129929
_cell_angle_alpha 107.436962
_cell_angle_beta 55.285277
_cell_angle_gamma 86.095892
_cell_volume 645.698949
_symmetry_space_group_name_H-M "P -1"
_symmetry_group_IT_number 2
_symmetry_cell_setting 'triclinic'
loop_
_space_group_symop_operation_xyz
x,y,z
-x,-y,-z
loop_
_atom_site_type_symbol
_atom_site_label
_atom_site_fract_x
_atom_site_fract_y
_atom_site_fract_z
Si Si1 0.866393 0.467180 0.928947
Si Si2 0.533393 0.513552 0.676045
Si Si3 0.910375 0.012961 0.377226
Si Si4 0.482405 0.929862 0.214707
Si Si5 0.322494 0.874173 0.951804
Si Si6 0.171032 0.274747 0.057434
Si Si7 0.131352 0.374361 0.447430
Si Si8 0.769675 0.254284 0.347460
O O1 0.790941 0.597903 0.943283
O O2 0.013343 0.366934 0.680083
O O3 0.673572 0.438405 0.088359
O O4 0.000000 0.500000 0.000000
O O5 0.500000 0.500000 0.500000
O O6 0.667796 0.599050 0.644133
O O7 0.656680 0.373058 0.578086
O O8 0.701216 0.996610 0.532098
O O9 0.851198 0.140240 0.368898
O O10 0.000000 0.000000 0.500000
O O11 0.088072 0.923691 0.128279
O O12 0.403793 0.859247 0.083816
O O13 0.649764 0.830802 0.166690
O O14 0.589749 0.020941 0.117128
O O15 0.355549 0.778526 0.737492
O O16 0.164754 0.262617 0.254648
O O17 0.951175 0.283366 0.157310
O O18 0.000000 0.500000 0.500000
#
# Coordination Sequence:
#
# PCOD9030984 Si02
#       8
#     2   2   2   2   2   2   2   2
#     4  11  22  43  66  93 131 172 220 274 319 385
#     4  12  24  43  69  96 134 170 217 271 323 387
#     4  10  22  43  65  94 131 167 216 266 321 387
#     4  10  22  43  65  94 128 167 212 264 328 387
#     4  10  23  42  68  91 132 166 211 273 320 380
#     4  11  23  42  67  93 132 172 216 266 328 387
#     4  10  22  43  63  93 132 170 216 271 321 383
#     4  12  23  43  68  95 131 173 214 269 325 383
#
# _framework density 24.779350999999998
#
# number of rings (size 3 to 8) (size 9 to 14) (size 15 to 20)
#    0.000    1.250    5.000    1.125    1.750    2.500 
#    4.500    1.250    0.000    0.000    0.000    0.000 
#    0.000    0.000    0.000    0.000    0.000    0.000 
#
# Total GULP energy -89343.372789 kJ/mol
# GULP energy per Si atom -5583.960799 kJ/mol
# Density = 2.472295 g / cm^3
# Si number density = 24.779351 Si / 1000 Ang^3
#
#
#
# Elastic Constant Matrix: (Units=GPa)
#
#
# Indices 1 2 3 4 5 6 
#
# 1 110.1530 18.8546 47.8017 4.5820 -17.9705 20.2187
# 2 18.8546 32.6707 19.7273 1.6716 2.8088 -2.4522
# 3 47.8017 19.7273 142.3837 -3.8804 -39.2926 13.6148
# 4 4.5820 1.6716 -3.8804 32.3783 0.7502 -1.8555
# 5 -17.9705 2.8088 -39.2926 0.7502 40.9041 3.4028
# 6 20.2187 -2.4522 13.6148 -1.8555 3.4028 43.0588
#
#
#
# Elastic Compliance Matrix: (Units=1/GPa)
#
#
# Indices 1 2 3 4 5 6 
#
# 1 0.013217 -0.007853 -0.001133 -0.002129 0.005866 -0.006851
# 2 -0.007853 0.042337 -0.008416 -0.001162 -0.015245 0.009914
# 3 -0.001133 -0.008416 0.012516 0.001529 0.012476 -0.004824
# 4 -0.002129 -0.001162 0.001529 0.031536 -0.000116 0.001818
# 5 0.005866 -0.015245 0.012476 -0.000116 0.040957 -0.010809
# 6 -0.006851 0.009914 -0.004824 0.001818 -0.010809 0.029463
#
#
# Mechanical properties :
#
#
# Convention : Reuss Voigt Hill
#
# Bulk Modulus (GPa) = 30.06203 50.88606 40.47405
# Shear Modulus (GPa) = 23.15671 36.52315 29.83993
#
# Velocity S-wave (km/s) = 3.06030 3.84335 3.47396
# Velocity P-wave (km/s) = 4.96442 6.34629 5.69741
#
# Compressibility (1/GPa) = 0.03326455
#
# Stress axis : x y z
#
# Youngs Moduli (GPa) = 75.65818 23.62021 79.89923
#
# Poissons Ratio (x) = 0.18549 0.09057
# Poissons Ratio (y) = 0.59414 0.67244
# Poissons Ratio (z) = 0.08576 0.19879
#
# Static dielectric constant tensor:
#      x y z
#    x 2.336570 -0.132640 -0.089770 
#    y -0.132640 2.019950 0.023820 
#    z -0.089770 0.023820 2.071000 
# 
# From -- ./inp_files/188162.got.cif
#   From: 2010.05.17/outbox.cif.g08.bks.cpg/sg2_95_cif.got.tgz:188162.got - 2010.06.03 11:33:40.
