data_PCOD9030603
_publ_section_title
;
Structure prediction by ZEFSAII (Michael W. Deem and Ramdas Pophale) SiO2 
 PCOD9030603
Probable space group: P -1
;
_chemical_formula_sum "Si O2"
_cell_formula_units_Z 16
_cell_length_a 10.233761
_cell_length_b 9.793923
_cell_length_c 16.203104
_cell_angle_alpha 110.758904
_cell_angle_beta 43.794076
_cell_angle_gamma 139.958195
_cell_volume 647.497823
_symmetry_space_group_name_H-M "P -1"
_symmetry_group_IT_number 2
_symmetry_cell_setting 'triclinic'
loop_
_space_group_symop_operation_xyz
x,y,z
-x,-y,-z
loop_
_atom_site_type_symbol
_atom_site_label
_atom_site_fract_x
_atom_site_fract_y
_atom_site_fract_z
Si Si1 0.240888 0.551480 0.031092
Si Si2 0.835498 0.019743 0.138241
Si Si3 0.685994 0.276690 0.805542
Si Si4 0.476789 0.542237 0.405725
Si Si5 0.791817 0.043866 0.652313
Si Si6 0.735758 0.012051 0.376680
Si Si7 0.684203 0.696185 0.727396
Si Si8 0.743055 0.402679 0.297654
O O1 0.440884 0.709935 0.056150
O O2 0.952055 0.472894 0.292627
O O3 0.339050 0.914158 0.216328
O O4 0.464215 0.652075 0.877889
O O5 0.486946 0.799023 0.215637
O O6 0.811578 0.020873 0.248290
O O7 0.022139 0.279591 0.085050
O O8 0.000000 0.000000 0.000000
O O9 0.003392 0.464200 0.863087
O O10 0.112655 0.302651 0.531574
O O11 0.601439 0.775809 0.420691
O O12 0.513804 0.529386 0.288883
O O13 0.646278 0.511891 0.368110
O O14 0.828484 0.909865 0.649173
O O15 0.549377 0.869953 0.652233
O O16 0.500000 0.000000 0.500000
O O17 0.056031 0.229188 0.324747
#
# Coordination Sequence:
#
# PCOD9030603 Si02
#       8
#     2   2   2   2   2   2   2   2
#     4  10  24  44  73 108 145 184 245 302 375 430
#     4  12  26  49  75 103 149 205 250 295 359 442
#     4  10  22  42  72 102 141 186 239 294 365 425
#     4  11  26  47  75 105 146 195 240 304 373 439
#     4  11  23  43  77 106 144 186 238 304 380 436
#     4  12  31  49  74 108 151 199 255 297 361 441
#     4  11  25  47  73 112 147 185 243 311 369 443
#     4   9  21  44  72 113 135 185 238 305 374 437
#
# _framework density 24.710507
#
# number of rings (size 3 to 8) (size 9 to 14) (size 15 to 20)
#    0.750    0.500    1.250    3.750    3.500   10.000 
#    2.250    0.000    0.000    0.000    0.000    0.000 
#    0.000    0.000    0.000    0.000    0.000    0.000 
#
# Total GULP energy -89392.929959 kJ/mol
# GULP energy per Si atom -5587.058122 kJ/mol
# Density = 2.465427 g / cm^3
# Si number density = 24.710507 Si / 1000 Ang^3
#
#
#
# Elastic Constant Matrix: (Units=GPa)
#
#
# Indices 1 2 3 4 5 6 
#
# 1 82.9472 36.9714 23.3144 0.5443 -8.3550 21.8342
# 2 36.9714 112.6750 18.9657 24.5061 -4.7478 6.8061
# 3 23.3144 18.9657 131.4638 22.1995 -9.5432 -8.2975
# 4 0.5443 24.5061 22.1995 48.8949 -0.7607 -3.3435
# 5 -8.3550 -4.7478 -9.5432 -0.7607 36.4891 8.7797
# 6 21.8342 6.8061 -8.2975 -3.3435 8.7797 49.4261
#
#
#
# Elastic Compliance Matrix: (Units=1/GPa)
#
#
# Indices 1 2 3 4 5 6 
#
# 1 0.018012 -0.005428 -0.003185 0.003469 0.004664 -0.008338
# 2 -0.005428 0.011898 0.000297 -0.006009 0.000168 0.000373
# 3 -0.003185 0.000297 0.009036 -0.004034 0.001003 0.002432
# 4 0.003469 -0.006009 -0.004034 0.025277 -0.000621 0.000438
# 5 0.004664 0.000168 0.001003 -0.000621 0.030520 -0.007378
# 6 -0.008338 0.000373 0.002432 0.000438 -0.007378 0.025613
#
#
# Mechanical properties :
#
#
# Convention : Reuss Voigt Hill
#
# Bulk Modulus (GPa) = 44.81572 53.95431 49.38502
# Shear Modulus (GPa) = 34.61963 43.48432 39.05198
#
# Velocity S-wave (km/s) = 3.74707 4.19949 3.97971
# Velocity P-wave (km/s) = 6.07424 6.73767 6.41454
#
# Compressibility (1/GPa) = 0.02231360
#
# Stress axis : x y z
#
# Youngs Moduli (GPa) = 55.51737 84.04865 110.66654
#
# Poissons Ratio (x) = 0.45626 0.35244
# Poissons Ratio (y) = 0.30137 -0.03284
# Poissons Ratio (z) = 0.17681 -0.02494
#
# Static dielectric constant tensor:
#      x y z
#    x 2.020860 0.007430 0.044220 
#    y 0.007430 1.925770 0.033380 
#    z 0.044220 0.033380 2.087770 
# 
# From -- ./inp_files/568814.got.cif
#   From: 2010.05.17/outbox.cif.g08.bks.cpg/sg2_285_cif.got.tgz:568814.got - 2010.06.03 11:33:40.
