data_PCOD9030470
_publ_section_title
;
Structure prediction by ZEFSAII (Michael W. Deem and Ramdas Pophale) SiO2 
 PCOD9030470
Probable space group: P -1
;
_chemical_formula_sum "Si O2"
_cell_formula_units_Z 12
_cell_length_a 7.485964
_cell_length_b 9.435387
_cell_length_c 9.940540
_cell_angle_alpha 56.140462
_cell_angle_beta 59.301661
_cell_angle_gamma 50.634306
_cell_volume 437.056284
_symmetry_space_group_name_H-M "P -1"
_symmetry_group_IT_number 2
_symmetry_cell_setting 'triclinic'
loop_
_space_group_symop_operation_xyz
x,y,z
-x,-y,-z
loop_
_atom_site_type_symbol
_atom_site_label
_atom_site_fract_x
_atom_site_fract_y
_atom_site_fract_z
Si Si1 0.238947 0.596518 0.756872
Si Si2 0.072619 0.412971 0.717829
Si Si3 0.397465 0.359098 0.080806
Si Si4 0.278711 0.007737 0.997109
Si Si5 0.166091 0.999892 0.315195
Si Si6 0.458085 0.183835 0.509742
O O1 0.239754 0.498836 0.666287
O O2 0.291510 0.435924 0.933121
O O3 0.409671 0.693769 0.651541
O O4 0.968423 0.770374 0.785773
O O5 0.183166 0.321431 0.580565
O O6 0.806500 0.586806 0.758117
O O7 0.107155 0.224825 0.892116
O O8 0.614203 0.143060 0.087529
O O9 0.500000 0.500000 0.000000
O O10 0.175521 0.923637 0.200057
O O11 0.500000 0.000000 0.000000
O O12 0.414373 0.903217 0.348074
O O13 0.000000 0.000000 0.500000
O O14 0.500000 0.000000 0.500000
#
# Coordination Sequence:
#
# PCOD9030470 Si02
#       6
#     2   2   2   2   2   2
#     4  11  23  45  72 103 139 191 242 279 354 435
#     4  12  25  46  74 101 143 193 239 288 345 437
#     4  12  28  43  71 111 144 178 239 302 356 410
#     4  12  22  43  75 101 138 187 241 284 348 421
#     4  10  22  42  71 102 139 187 239 281 345 429
#     4  11  26  44  71 108 146 183 234 302 361 410
#
# _framework density 27.456416999999998
#
# number of rings (size 3 to 8) (size 9 to 14) (size 15 to 20)
#    0.000    0.667    5.000    2.000    2.333    4.667 
#    0.000    1.667    0.000    0.000    0.000    0.000 
#    0.000    0.000    0.000    0.000    0.000    0.000 
#
# Total GULP energy -67107.612086 kJ/mol
# GULP energy per Si atom -5592.301007 kJ/mol
# Density = 2.739393 g / cm^3
# Si number density = 27.456417 Si / 1000 Ang^3
#
#
#
# Elastic Constant Matrix: (Units=GPa)
#
#
# Indices 1 2 3 4 5 6 
#
# 1 57.8749 33.7748 25.2116 3.9450 -15.0406 11.7310
# 2 33.7748 176.8321 48.7489 36.9725 -9.2033 18.8798
# 3 25.2116 48.7489 179.3728 18.9126 -6.8441 22.3033
# 4 3.9450 36.9725 18.9126 58.3861 0.5121 4.1858
# 5 -15.0406 -9.2033 -6.8441 0.5121 40.9611 -12.9229
# 6 11.7310 18.8798 22.3033 4.1858 -12.9229 48.5764
#
#
#
# Elastic Compliance Matrix: (Units=1/GPa)
#
#
# Indices 1 2 3 4 5 6 
#
# 1 0.022020 -0.003481 -0.001859 0.001369 0.006503 -0.001499
# 2 -0.003481 0.007596 -0.000974 -0.004163 -0.000103 -0.001333
# 3 -0.001859 -0.000974 0.006479 -0.001196 -0.000490 -0.002174
# 4 0.001369 -0.004163 -0.001196 0.020076 -0.000928 -0.000140
# 5 0.006503 -0.000103 -0.000490 -0.000928 0.028733 0.006418
# 6 -0.001499 -0.001333 -0.002174 -0.000140 0.006418 0.024184
#
#
# Mechanical properties :
#
#
# Convention : Reuss Voigt Hill
#
# Bulk Modulus (GPa) = 42.61385 69.95003 56.28194
# Shear Modulus (GPa) = 38.59828 50.00768 44.30298
#
# Velocity S-wave (km/s) = 3.75347 4.27236 4.02129
# Velocity P-wave (km/s) = 5.85994 7.06183 6.48877
#
# Compressibility (1/GPa) = 0.02346655
#
# Stress axis : x y z
#
# Youngs Moduli (GPa) = 45.41223 131.64984 154.34954
#
# Poissons Ratio (x) = 0.45830 0.28690
# Poissons Ratio (y) = 0.15809 0.15039
# Poissons Ratio (z) = 0.08441 0.12828
#
# Static dielectric constant tensor:
#      x y z
#    x 2.239660 -0.052080 -0.000600 
#    y -0.052080 2.135480 0.047820 
#    z -0.000600 0.047820 2.336090 
# 
# From -- ./inp_files/377842.got.cif
#   From: 2010.05.17/outbox.cif.g08.bks.cpg/sg2_189_cif.got.tgz:377842.got - 2010.06.03 11:33:40.
