data_PCOD9030142
_publ_section_title
;
Structure prediction by ZEFSAII (Michael W. Deem and Ramdas Pophale) SiO2 
 PCOD9030142
Probable space group: P -1
;
_chemical_formula_sum "Si O2"
_cell_formula_units_Z 14
_cell_length_a 6.526694
_cell_length_b 14.756411
_cell_length_c 14.353517
_cell_angle_alpha 149.962406
_cell_angle_beta 72.781505
_cell_angle_gamma 118.569630
_cell_volume 585.430012
_symmetry_space_group_name_H-M "P -1"
_symmetry_group_IT_number 2
_symmetry_cell_setting 'triclinic'
loop_
_space_group_symop_operation_xyz
x,y,z
-x,-y,-z
loop_
_atom_site_type_symbol
_atom_site_label
_atom_site_fract_x
_atom_site_fract_y
_atom_site_fract_z
Si Si1 0.797050 0.276496 0.800726
Si Si2 0.898405 0.613501 0.316363
Si Si3 0.080929 0.983860 0.109730
Si Si4 0.280992 0.050310 0.334619
Si Si5 0.280184 0.592390 0.350353
Si Si6 0.435884 0.312329 0.000343
Si Si7 0.081091 0.332687 0.307223
O O1 0.868998 0.267290 0.677073
O O2 0.839921 0.123519 0.727089
O O3 0.534995 0.257025 0.844441
O O4 0.000000 0.500000 0.000000
O O5 0.811880 0.780878 0.497385
O O6 0.678624 0.415701 0.123386
O O7 0.008494 0.546929 0.327745
O O8 0.143213 0.210852 0.269401
O O9 0.803389 0.871541 0.087024
O O10 0.240249 0.978667 0.170216
O O11 0.094383 0.853541 0.903575
O O12 0.557840 0.173540 0.439388
O O13 0.365583 0.497631 0.169728
O O14 0.295444 0.468294 0.327924
O O15 0.000000 0.500000 0.500000
#
# Coordination Sequence:
#
# PCOD9030142 Si02
#       7
#     2   2   2   2   2   2   2
#     4  10  23  40  64  96 130 175 224 263 326 385
#     4  10  22  44  65  94 135 176 220 272 316 388
#     4  10  23  44  67  97 136 168 217 280 328 395
#     4  11  24  42  65  96 135 172 219 269 327 393
#     4  10  23  43  68  94 132 175 216 270 332 385
#     4   9  22  41  64  95 130 171 222 268 326 382
#     4  10  22  42  69  99 127 171 222 268 336 397
#
# _framework density 23.914045000000002
#
# number of rings (size 3 to 8) (size 9 to 14) (size 15 to 20)
#    0.000    2.000    0.000    1.286   12.000    1.714 
#    5.143    4.286    0.000    0.000    0.000    0.000 
#    0.000    0.000    0.000    0.000    0.000    0.000 
#
# Total GULP energy -78115.238103 kJ/mol
# GULP energy per Si atom -5579.659864 kJ/mol
# Density = 2.385962 g / cm^3
# Si number density = 23.914045 Si / 1000 Ang^3
#
#
#
# Elastic Constant Matrix: (Units=GPa)
#
#
# Indices 1 2 3 4 5 6 
#
# 1 65.7694 -5.0467 18.7821 7.1425 -4.3924 -8.3625
# 2 -5.0467 67.3387 12.9578 18.2133 -2.5554 -22.0343
# 3 18.7821 12.9578 78.1766 7.8963 -14.0803 -7.3109
# 4 7.1425 18.2133 7.8963 45.9074 8.0783 -10.1196
# 5 -4.3924 -2.5554 -14.0803 8.0783 32.5384 -3.1679
# 6 -8.3625 -22.0343 -7.3109 -10.1196 -3.1679 31.5337
#
#
#
# Elastic Compliance Matrix: (Units=1/GPa)
#
#
# Indices 1 2 3 4 5 6 
#
# 1 0.018093 0.005304 -0.003772 -0.003232 0.002697 0.006864
# 2 0.005304 0.022614 -0.002053 -0.006988 0.004796 0.014972
# 3 -0.003772 -0.002053 0.015581 -0.002211 0.006732 0.001144
# 4 -0.003232 -0.006988 -0.002211 0.027309 -0.008561 0.001651
# 5 0.002697 0.004796 0.006732 -0.008561 0.037156 0.006613
# 6 0.006864 0.014972 0.001144 0.001651 0.006613 0.045453
#
#
# Mechanical properties :
#
#
# Convention : Reuss Voigt Hill
#
# Bulk Modulus (GPa) = 18.10070 29.40790 23.75430
# Shear Modulus (GPa) = 26.93064 34.30201 30.61632
#
# Velocity S-wave (km/s) = 3.35945 3.79144 3.58196
# Velocity P-wave (km/s) = 4.75745 5.61166 5.20212
#
# Compressibility (1/GPa) = 0.05524647
#
# Stress axis : x y z
#
# Youngs Moduli (GPa) = 55.27109 44.22083 64.18122
#
# Poissons Ratio (x) = -0.23456 0.24208
# Poissons Ratio (y) = -0.29317 0.13176
# Poissons Ratio (z) = 0.20847 0.09078
#
# Static dielectric constant tensor:
#      x y z
#    x 1.909960 0.028470 -0.020270 
#    y 0.028470 1.957780 -0.070610 
#    z -0.020270 -0.070610 2.004080 
# 
# From -- ./inp_files/484616.got.cif
#   From: 2010.05.17/outbox.cif.g08.bks.cpg/sg2_243_cif.got.tgz:484616.got - 2010.06.03 11:33:40.
