data_PCOD9030570
_publ_section_title
;
Structure prediction by ZEFSAII (Michael W. Deem and Ramdas Pophale) SiO2 
 PCOD9030570
Probable space group: P -1
;
_chemical_formula_sum "Si O2"
_cell_formula_units_Z 12
_cell_length_a 15.365255
_cell_length_b 17.432495
_cell_length_c 9.145578
_cell_angle_alpha 43.993537
_cell_angle_beta 126.881717
_cell_angle_gamma 160.659595
_cell_volume 529.536089
_symmetry_space_group_name_H-M "P -1"
_symmetry_group_IT_number 2
_symmetry_cell_setting 'triclinic'
loop_
_space_group_symop_operation_xyz
x,y,z
-x,-y,-z
loop_
_atom_site_type_symbol
_atom_site_label
_atom_site_fract_x
_atom_site_fract_y
_atom_site_fract_z
Si Si1 0.680433 0.959774 0.070314
Si Si2 0.518240 0.432955 0.776719
Si Si3 0.422649 0.153835 0.535378
Si Si4 0.035802 0.106526 0.619657
Si Si5 0.656462 0.159705 0.598466
Si Si6 0.248483 0.394346 0.945372
O O1 0.548895 0.729257 0.178103
O O2 0.609365 0.896587 0.255882
O O3 0.595018 0.990297 0.858281
O O4 0.008105 0.244880 0.979455
O O5 0.301634 0.329500 0.682844
O O6 0.818688 0.755512 0.583167
O O7 0.505253 0.373061 0.006861
O O8 0.509173 0.125323 0.576000
O O9 0.656917 0.463775 0.303985
O O10 0.137524 0.943895 0.478062
O O11 0.848110 0.822984 0.851010
O O12 0.000000 0.500000 0.500000
O O13 0.500000 0.000000 0.500000
#
# Coordination Sequence:
#
# PCOD9030570 Si02
#       6
#     2   2   2   2   2   2
#     4  11  25  46  72 107 142 190 245 303 370 439
#     4  10  22  42  71  99 152 191 236 306 365 434
#     4  12  25  45  74 106 143 194 247 303 368 446
#     4  10  23  40  67 107 143 193 242 293 371 436
#     4  12  28  54  81 107 147 195 249 315 378 432
#     4  11  22  45  68 101 153 186 239 301 366 438
#
# _framework density 22.661344
#
# number of rings (size 3 to 8) (size 9 to 14) (size 15 to 20)
#    0.000    1.000    3.333    2.500    4.667    2.000 
#    6.000    2.500    0.000    0.000    0.000    0.000 
#    0.000    0.000    0.000    0.000    0.000    0.000 
#
# Total GULP energy -67020.276729 kJ/mol
# GULP energy per Si atom -5585.023061 kJ/mol
# Density = 2.260977 g / cm^3
# Si number density = 22.661344 Si / 1000 Ang^3
#
#
#
# Elastic Constant Matrix: (Units=GPa)
#
#
# Indices 1 2 3 4 5 6 
#
# 1 186.3183 91.7397 85.1270 34.5864 -3.6088 12.1048
# 2 91.7397 103.2397 62.2279 9.1974 0.5110 27.1553
# 3 85.1270 62.2279 175.3894 19.0019 1.9827 17.9041
# 4 34.5864 9.1974 19.0019 13.8478 23.1241 26.8645
# 5 -3.6088 0.5110 1.9827 23.1241 35.9672 -4.1535
# 6 12.1048 27.1553 17.9041 26.8645 -4.1535 20.3453
#
#
#
# Elastic Compliance Matrix: (Units=1/GPa)
#
#
# Indices 1 2 3 4 5 6 
#
# 1 0.007547 -0.004236 -0.002163 0.006703 -0.004139 -0.006629
# 2 -0.004236 0.015502 -0.002369 -0.012254 0.007553 0.001637
# 3 -0.002163 -0.002369 0.007824 -0.000882 -0.000199 -0.001312
# 4 0.006703 -0.012254 -0.000882 -0.010546 0.011062 0.029327
# 5 -0.004139 0.007553 -0.000199 0.011062 0.018059 -0.018364
# 6 -0.006629 0.001637 -0.001312 0.029327 -0.018364 0.009592
#
#
# Mechanical properties :
#
#
# Convention : Reuss Voigt Hill
#
# Bulk Modulus (GPa) = 74.97816 104.79297 89.88556
# Shear Modulus (GPa) = 71.47032 29.08890 50.27961
#
# Velocity S-wave (km/s) = 5.62200 3.58667 4.71546
# Velocity P-wave (km/s) = 8.67760 7.96842 8.33056
#
# Compressibility (1/GPa) = 0.01333722
#
# Stress axis : x y z
#
# Youngs Moduli (GPa) = 132.49911 64.50888 127.81679
#
# Poissons Ratio (x) = 0.27324 0.27647
# Poissons Ratio (y) = 0.56123 0.30280
# Poissons Ratio (z) = 0.28660 0.15282
#
# Static dielectric constant tensor:
#      x y z
#    x 1.815640 -0.007080 -0.019550 
#    y -0.007080 1.946080 -0.052150 
#    z -0.019550 -0.052150 1.860140 
# 
# From -- ./inp_files/288333.got.cif
#   From: 2010.05.17/outbox.cif.g08.bks.cpg/sg2_145_cif.got.tgz:288333.got - 2010.06.03 11:33:40.
