data_PCOD9030018
_publ_section_title
;
Structure prediction by ZEFSAII (Michael W. Deem and Ramdas Pophale) SiO2 
 PCOD9030018
Probable space group: P -1
;
_chemical_formula_sum "Si O2"
_cell_formula_units_Z 12
_cell_length_a 6.213179
_cell_length_b 7.446762
_cell_length_c 12.267142
_cell_angle_alpha 119.255857
_cell_angle_beta 58.788535
_cell_angle_gamma 115.256219
_cell_volume 411.911476
_symmetry_space_group_name_H-M "P -1"
_symmetry_group_IT_number 2
_symmetry_cell_setting 'triclinic'
loop_
_space_group_symop_operation_xyz
x,y,z
-x,-y,-z
loop_
_atom_site_type_symbol
_atom_site_label
_atom_site_fract_x
_atom_site_fract_y
_atom_site_fract_z
Si Si1 0.280581 0.474036 0.384236
Si Si2 0.000000 0.500000 0.000000
Si Si3 0.747494 0.916478 0.190259
Si Si4 0.214134 0.577913 0.204834
Si Si5 0.734995 0.152638 0.042725
Si Si6 0.747627 0.766227 0.467363
Si Si7 0.500000 0.000000 0.500000
O O1 0.237149 0.421881 0.252979
O O2 0.493639 0.696091 0.425369
O O3 0.340263 0.313528 0.412312
O O4 0.000000 0.500000 0.500000
O O5 0.732855 0.395389 0.112910
O O6 0.171820 0.503160 0.071322
O O7 0.480666 0.752571 0.187970
O O8 0.788969 0.072747 0.122508
O O9 0.706594 0.021402 0.344421
O O10 0.003621 0.814367 0.095007
O O11 0.963416 0.665375 0.330281
O O12 0.500000 0.000000 0.000000
O O13 0.755584 0.009114 0.520653
#
# Coordination Sequence:
#
# PCOD9030018 Si02
#       7
#     2   1   2   2   2   2   1
#     4   9  20  41  67  97 154 196 247 334 378 463
#     4  12  26  46  84 106 146 220 270 320 406 456
#     4  11  26  49  75 110 166 199 263 334 394 481
#     4  11  23  46  74 112 154 209 269 334 389 477
#     4  11  26  54  77 112 159 206 267 335 389 482
#     4  10  22  42  69 108 159 196 260 325 396 482
#     4  12  24  44  76 116 150 212 250 324 424 464
#
# _framework density 29.132470999999999
#
# number of rings (size 3 to 8) (size 9 to 14) (size 15 to 20)
#    0.000    1.333    3.333    1.000    0.000    5.333 
#    0.000    1.667    0.000    0.000    0.000    0.000 
#    0.000    0.000    0.000    0.000    0.000    0.000 
#
# Total GULP energy -66935.822215 kJ/mol
# GULP energy per Si atom -5577.985185 kJ/mol
# Density = 2.906616 g / cm^3
# Si number density = 29.132471 Si / 1000 Ang^3
#
#
#
# Elastic Constant Matrix: (Units=GPa)
#
#
# Indices 1 2 3 4 5 6 
#
# 1 190.9420 54.8892 95.7538 -6.8606 14.5164 -17.6252
# 2 54.8892 133.5494 56.4450 -42.8347 31.4637 -3.9443
# 3 95.7538 56.4450 176.2553 -14.0355 28.3086 -21.2096
# 4 -6.8606 -42.8347 -14.0355 61.1307 -19.2463 20.9015
# 5 14.5164 31.4637 28.3086 -19.2463 98.3445 -11.5023
# 6 -17.6252 -3.9443 -21.2096 20.9015 -11.5023 79.8415
#
#
#
# Elastic Compliance Matrix: (Units=1/GPa)
#
#
# Indices 1 2 3 4 5 6 
#
# 1 0.007670 -0.002332 -0.003488 -0.001859 0.000394 0.001195
# 2 -0.002332 0.012321 -0.002089 0.008345 -0.001701 -0.002891
# 3 -0.003488 -0.002089 0.008549 -0.000775 -0.001264 0.001419
# 4 -0.001859 0.008345 -0.000775 0.024594 0.001896 -0.006369
# 5 0.000394 -0.001701 -0.001264 0.001896 0.011486 0.000826
# 6 0.001195 -0.002891 0.001419 -0.006369 0.000826 0.014809
#
#
# Mechanical properties :
#
#
# Convention : Reuss Voigt Hill
#
# Bulk Modulus (GPa) = 78.59516 101.65809 90.12663
# Shear Modulus (GPa) = 50.25757 67.44060 58.84908
#
# Velocity S-wave (km/s) = 4.15799 4.81663 4.49937
# Velocity P-wave (km/s) = 7.07735 8.11813 7.61554
#
# Compressibility (1/GPa) = 0.01272343
#
# Stress axis : x y z
#
# Youngs Moduli (GPa) = 130.37677 81.16034 116.96984
#
# Poissons Ratio (x) = 0.18927 0.40794
# Poissons Ratio (y) = 0.30404 0.24435
# Poissons Ratio (z) = 0.45470 0.16954
#
# Static dielectric constant tensor:
#      x y z
#    x 2.787060 -1.553150 -0.725080 
#    y -1.553150 9.590450 2.787080 
#    z -0.725080 2.787080 3.281160 
# 
# From -- ./inp_files/61221.got.cif
#   From: 2010.05.17/outbox.cif.g08.bks.cpg/sg2_31_cif.got.tgz:61221.got - 2010.06.03 11:33:40.
