data_PCOD9030320
_publ_section_title
;
Structure prediction by ZEFSAII (Michael W. Deem and Ramdas Pophale) SiO2 
 PCOD9030320
Probable space group: P -1
;
_chemical_formula_sum "Si O2"
_cell_formula_units_Z 16
_cell_length_a 13.281462
_cell_length_b 8.723933
_cell_length_c 10.171251
_cell_angle_alpha 39.834178
_cell_angle_beta 81.727722
_cell_angle_gamma 78.245268
_cell_volume 738.934596
_symmetry_space_group_name_H-M "P -1"
_symmetry_group_IT_number 2
_symmetry_cell_setting 'triclinic'
loop_
_space_group_symop_operation_xyz
x,y,z
-x,-y,-z
loop_
_atom_site_type_symbol
_atom_site_label
_atom_site_fract_x
_atom_site_fract_y
_atom_site_fract_z
Si Si1 0.310141 0.508977 0.226570
Si Si2 0.499877 0.824251 0.993041
Si Si3 0.578305 0.987092 0.376803
Si Si4 0.312975 0.556140 0.895168
Si Si5 0.840722 0.478240 0.528837
Si Si6 0.014523 0.224895 0.222034
Si Si7 0.039437 0.100064 0.788223
Si Si8 0.159201 0.788110 0.547408
O O1 0.214971 0.600058 0.278451
O O2 0.342495 0.247820 0.457217
O O3 0.406421 0.660199 0.125155
O O4 0.281205 0.480868 0.097371
O O5 0.477006 0.006152 0.755402
O O6 0.607401 0.652252 0.053807
O O7 0.500000 0.000000 0.000000
O O8 0.623565 0.232736 0.216570
O O9 0.500000 0.000000 0.500000
O O10 0.227786 0.689835 0.724119
O O11 0.861180 0.756811 0.323127
O O12 0.793878 0.379869 0.470270
O O13 0.949234 0.307790 0.624402
O O14 0.955506 0.241588 0.361909
O O15 0.958597 0.093376 0.202474
O O16 0.129434 0.070425 0.321486
O O17 0.000000 0.500000 0.000000
O O18 0.000000 0.000000 0.000000
#
# Coordination Sequence:
#
# PCOD9030320 Si02
#       8
#     2   2   2   2   2   2   2   2
#     4  11  24  44  69  96 134 181 224 274 333 402
#     4  11  25  44  66 100 138 177 221 281 338 390
#     4  11  21  43  68  91 131 175 220 269 328 398
#     4  11  24  44  66  98 132 176 227 269 336 402
#     4  10  24  43  65  99 130 172 228 274 331 399
#     4  10  22  44  66  94 134 174 215 275 344 394
#     4  10  22  42  70  92 132 176 219 277 337 397
#     4  10  24  43  64  97 131 169 223 279 325 399
#
# _framework density 21.652798000000001
#
# number of rings (size 3 to 8) (size 9 to 14) (size 15 to 20)
#    0.000    1.500    2.500    1.500    5.250    4.500 
#    4.500    0.000    0.000    0.000    0.000    0.000 
#    0.000    0.000    0.000    0.000    0.000    0.000 
#
# Total GULP energy -89143.643623 kJ/mol
# GULP energy per Si atom -5571.477726 kJ/mol
# Density = 2.160352 g / cm^3
# Si number density = 21.652798 Si / 1000 Ang^3
#
#
#
# Elastic Constant Matrix: (Units=GPa)
#
#
# Indices 1 2 3 4 5 6 
#
# 1 46.9131 51.4582 26.1876 15.6934 6.4733 -4.8586
# 2 51.4582 157.0761 67.7379 12.4416 6.8575 7.8876
# 3 26.1876 67.7379 135.6895 12.6293 14.1392 12.7437
# 4 15.6934 12.4416 12.6293 42.1443 -0.6212 2.0896
# 5 6.4733 6.8575 14.1392 -0.6212 42.6957 6.4931
# 6 -4.8586 7.8876 12.7437 2.0896 6.4931 19.3845
#
#
#
# Elastic Compliance Matrix: (Units=1/GPa)
#
#
# Indices 1 2 3 4 5 6 
#
# 1 0.045293 -0.013722 -0.001933 -0.013448 -0.007595 0.022201
# 2 -0.013722 0.012339 -0.003332 0.002866 0.002365 -0.007371
# 3 -0.001933 -0.003332 0.010175 -0.001119 -0.001782 -0.005100
# 4 -0.013448 0.002866 -0.001119 0.028680 0.003598 -0.008098
# 5 -0.007595 0.002365 -0.001782 0.003598 0.026502 -0.010960
# 6 0.022201 -0.007371 -0.005100 -0.008098 -0.010960 0.068048
#
#
# Mechanical properties :
#
#
# Convention : Reuss Voigt Hill
#
# Bulk Modulus (GPa) = 33.52149 70.04956 51.78553
# Shear Modulus (GPa) = 20.92439 33.79791 27.36115
#
# Velocity S-wave (km/s) = 3.11200 3.95511 3.55862
# Velocity P-wave (km/s) = 5.33177 7.29923 6.39165
#
# Compressibility (1/GPa) = 0.02983161
#
# Stress axis : x y z
#
# Youngs Moduli (GPa) = 22.07855 81.04606 98.27876
#
# Poissons Ratio (x) = 1.11215 0.18996
# Poissons Ratio (y) = 0.30297 0.32748
# Poissons Ratio (z) = 0.04267 0.27006
#
# Static dielectric constant tensor:
#      x y z
#    x 1.913110 0.000400 -0.031150 
#    y 0.000400 1.823550 0.063480 
#    z -0.031150 0.063480 1.821810 
# 
# From -- ./inp_files/297261.got.cif
#   From: 2010.05.17/outbox.cif.g08.bks.cpg/sg2_149_cif.got.tgz:297261.got - 2010.06.03 11:33:40.
