data_PCOD9030080
_publ_section_title
;
Structure prediction by ZEFSAII (Michael W. Deem and Ramdas Pophale) SiO2 
 PCOD9030080
Probable space group: P -1
;
_chemical_formula_sum "Si O2"
_cell_formula_units_Z 16
_cell_length_a 14.748217
_cell_length_b 12.690887
_cell_length_c 19.148858
_cell_angle_alpha 152.677992
_cell_angle_beta 154.155248
_cell_angle_gamma 43.677992
_cell_volume 662.878372
_symmetry_space_group_name_H-M "P -1"
_symmetry_group_IT_number 2
_symmetry_cell_setting 'triclinic'
loop_
_space_group_symop_operation_xyz
x,y,z
-x,-y,-z
loop_
_atom_site_type_symbol
_atom_site_label
_atom_site_fract_x
_atom_site_fract_y
_atom_site_fract_z
Si Si1 0.439579 0.686002 0.423445
Si Si2 0.095398 0.103447 0.202275
Si Si3 0.930279 0.726193 0.240825
Si Si4 0.527127 0.020970 0.243114
Si Si5 0.744140 0.166550 0.735331
Si Si6 0.136861 0.549109 0.696268
Si Si7 0.504630 0.806373 0.827271
Si Si8 0.957168 0.223322 0.502495
O O1 0.643452 0.753248 0.549708
O O2 0.519762 0.820118 0.632512
O O3 0.280491 0.817668 0.356544
O O4 0.370566 0.388104 0.201506
O O5 0.967180 0.275280 0.235082
O O6 0.089286 0.928004 0.161151
O O7 0.000000 0.000000 0.000000
O O8 0.201457 0.856232 0.499072
O O9 0.879960 0.689307 0.266771
O O10 0.850649 0.926555 0.267291
O O11 0.824309 0.456898 0.977840
O O12 0.434844 0.061359 0.127644
O O13 0.401939 0.721887 0.985970
O O14 0.500000 0.000000 0.500000
O O15 0.000000 0.500000 0.500000
O O16 0.069473 0.304088 0.553011
O O17 0.232936 0.662231 0.550556
O O18 0.500000 0.000000 0.000000
#
# Coordination Sequence:
#
# PCOD9030080 Si02
#       8
#     2   2   2   2   2   2   2   2
#     4  11  23  42  68 103 141 188 234 297 359 421
#     4  11  22  43  73  99 139 188 235 288 356 435
#     4  10  23  45  68 101 141 183 239 292 358 427
#     4  11  26  40  68 108 141 189 239 300 364 415
#     4  10  24  41  69 104 137 184 239 289 354 428
#     4  12  25  43  68 105 141 184 244 296 355 427
#     4  11  22  41  69 100 139 185 241 291 352 432
#     4  10  22  42  69  95 137 193 229 285 355 434
#
# _framework density 24.137159
#
# number of rings (size 3 to 8) (size 9 to 14) (size 15 to 20)
#    0.000    1.250    2.500    2.625    3.500    3.000 
#    4.500    0.000    0.000    0.000    0.000    0.000 
#    0.000    0.000    0.000    0.000    0.000    0.000 
#
# Total GULP energy -89114.529302 kJ/mol
# GULP energy per Si atom -5569.658081 kJ/mol
# Density = 2.408222 g / cm^3
# Si number density = 24.137159 Si / 1000 Ang^3
#
#
#
# Elastic Constant Matrix: (Units=GPa)
#
#
# Indices 1 2 3 4 5 6 
#
# 1 87.2101 24.6895 28.8198 -3.8707 -17.1210 21.8544
# 2 24.6895 130.0766 15.2108 0.2836 2.4640 28.5879
# 3 28.8198 15.2108 90.2547 -1.4137 -9.2888 10.3873
# 4 -3.8707 0.2836 -1.4137 24.8560 -1.4529 3.8231
# 5 -17.1210 2.4640 -9.2888 -1.4529 40.7336 -5.4368
# 6 21.8544 28.5879 10.3873 3.8231 -5.4368 45.4370
#
#
#
# Elastic Compliance Matrix: (Units=1/GPa)
#
#
# Indices 1 2 3 4 5 6 
#
# 1 0.015578 -0.001459 -0.003512 0.003384 0.005231 -0.005431
# 2 -0.001459 0.009229 -0.000692 0.000312 -0.002014 -0.005214
# 3 -0.003512 -0.000692 0.012533 0.000346 0.001355 -0.000608
# 4 0.003384 0.000312 0.000346 0.041699 0.002284 -0.005139
# 5 0.005231 -0.002014 0.001355 0.002284 0.027466 0.001536
# 6 -0.005431 -0.005214 -0.000608 -0.005139 0.001536 0.028656
#
#
# Mechanical properties :
#
#
# Convention : Reuss Voigt Hill
#
# Bulk Modulus (GPa) = 38.44092 49.44239 43.94165
# Shear Modulus (GPa) = 32.22527 38.12675 35.17601
#
# Velocity S-wave (km/s) = 3.65785 3.97871 3.82165
# Velocity P-wave (km/s) = 5.81382 6.45254 6.14149
#
# Compressibility (1/GPa) = 0.02601395
#
# Stress axis : x y z
#
# Youngs Moduli (GPa) = 64.19173 108.35404 79.79182
#
# Poissons Ratio (x) = 0.15810 0.28024
# Poissons Ratio (y) = 0.09366 0.05520
# Poissons Ratio (z) = 0.22545 0.07496
#
# Static dielectric constant tensor:
#      x y z
#    x 2.056970 -0.073130 0.223980 
#    y -0.073130 2.158770 -0.244910 
#    z 0.223980 -0.244910 2.337540 
# 
# From -- ./inp_files/569985.got.cif
#   From: 2010.05.17/outbox.cif.g08.bks.cpg/sg2_285_cif.got.tgz:569985.got - 2010.06.03 11:33:40.
