data_PCOD9030663
_publ_section_title
;
Structure prediction by ZEFSAII (Michael W. Deem and Ramdas Pophale) SiO2 
 PCOD9030663
Probable space group: P -1
;
_chemical_formula_sum "Si O2"
_cell_formula_units_Z 16
_cell_length_a 16.546112
_cell_length_b 22.435249
_cell_length_c 8.288321
_cell_angle_alpha 146.395348
_cell_angle_beta 137.389988
_cell_angle_gamma 21.588190
_cell_volume 615.254537
_symmetry_space_group_name_H-M "P -1"
_symmetry_group_IT_number 2
_symmetry_cell_setting 'triclinic'
loop_
_space_group_symop_operation_xyz
x,y,z
-x,-y,-z
loop_
_atom_site_type_symbol
_atom_site_label
_atom_site_fract_x
_atom_site_fract_y
_atom_site_fract_z
Si Si1 0.587811 0.091410 0.610715
Si Si2 0.746912 0.996844 0.123622
Si Si3 0.075968 0.657099 0.632913
Si Si4 0.370866 0.739866 0.717193
Si Si5 0.310745 0.292936 0.346340
Si Si6 0.641295 0.373351 0.081878
Si Si7 0.909694 0.671059 0.149784
Si Si8 0.076632 0.043943 0.410411
O O1 0.383539 0.236166 0.511009
O O2 0.673024 0.909341 0.385192
O O3 0.823822 0.944360 0.537659
O O4 0.546904 0.224452 0.967640
O O5 0.939026 0.885694 0.281339
O O6 0.676994 0.157623 0.287398
O O7 0.545459 0.101897 0.166946
O O8 0.836389 0.841308 0.779781
O O9 0.224080 0.472944 0.554686
O O10 0.132897 0.738025 0.885434
O O11 0.091152 0.609774 0.363132
O O12 0.526887 0.521730 0.397860
O O13 0.147168 0.853299 0.716639
O O14 0.136925 0.337614 0.118817
O O15 0.500000 0.500000 0.000000
O O16 0.710976 0.198796 0.817318
O O17 0.000000 0.500000 0.000000
#
# Coordination Sequence:
#
# PCOD9030663 Si02
#       8
#     2   2   2   2   2   2   2   2
#     4  11  23  43  62  97 135 165 209 272 329 379
#     4  11  20  38  66  96 126 174 219 258 305 381
#     4  11  21  39  65  98 128 166 227 263 299 384
#     4  12  22  38  65  96 130 176 212 254 312 384
#     4  10  23  42  66  95 129 168 209 276 329 365
#     4  12  21  36  63  96 131 172 218 254 304 380
#     4  10  22  42  72  93 120 169 221 269 324 381
#     4  11  23  38  61  93 137 173 207 259 317 374
#
# _framework density 26.005496000000001
#
# number of rings (size 3 to 8) (size 9 to 14) (size 15 to 20)
#    0.000    1.000    5.000    2.625    0.000    1.000 
#    0.000    5.000    0.000    7.500    0.000    0.000 
#    0.000    0.000    0.000    0.000    0.000    0.000 
#
# Total GULP energy -89264.129185 kJ/mol
# GULP energy per Si atom -5579.008074 kJ/mol
# Density = 2.594631 g / cm^3
# Si number density = 26.005496 Si / 1000 Ang^3
#
#
#
# Elastic Constant Matrix: (Units=GPa)
#
#
# Indices 1 2 3 4 5 6 
#
# 1 28.6257 16.6844 18.1130 5.0531 -8.8970 -0.0375
# 2 16.6844 106.9223 55.5917 -4.3113 1.5816 29.0468
# 3 18.1130 55.5917 135.3229 -9.9821 -11.9471 10.1569
# 4 5.0531 -4.3113 -9.9821 44.8570 -3.0731 -4.8781
# 5 -8.8970 1.5816 -11.9471 -3.0731 32.1953 5.5645
# 6 -0.0375 29.0468 10.1569 -4.8781 5.5645 38.3040
#
#
#
# Elastic Compliance Matrix: (Units=1/GPa)
#
#
# Indices 1 2 3 4 5 6 
#
# 1 0.045025 -0.006921 -0.002932 -0.005248 0.010524 0.003872
# 2 -0.006921 0.015930 -0.005100 -0.000142 -0.002813 -0.010344
# 3 -0.002932 -0.005100 0.010280 0.002461 0.003322 0.000970
# 4 -0.005248 -0.000142 0.002461 0.023758 0.001344 0.002280
# 5 0.010524 -0.002813 0.003322 0.001344 0.036127 -0.003814
# 6 0.003872 -0.010344 0.000970 0.002280 -0.003814 0.034542
#
#
# Mechanical properties :
#
#
# Convention : Reuss Voigt Hill
#
# Bulk Modulus (GPa) = 24.19644 50.18324 37.18984
# Shear Modulus (GPa) = 23.88403 35.10336 29.49369
#
# Velocity S-wave (km/s) = 3.03384 3.67801 3.37134
# Velocity P-wave (km/s) = 4.64723 6.11360 5.43014
#
# Compressibility (1/GPa) = 0.04132839
#
# Stress axis : x y z
#
# Youngs Moduli (GPa) = 22.20988 62.77343 97.28081
#
# Poissons Ratio (x) = 0.43443 0.28525
# Poissons Ratio (y) = 0.15370 0.49618
# Poissons Ratio (z) = 0.06512 0.32017
#
# Static dielectric constant tensor:
#      x y z
#    x 2.076510 0.024170 -0.017050 
#    y 0.024170 2.117990 -0.071330 
#    z -0.017050 -0.071330 2.057980 
# 
# From -- ./inp_files/350211.got.cif
#   From: 2010.05.17/outbox.cif.g08.bks.cpg/sg2_176_cif.got.tgz:350211.got - 2010.06.03 11:33:40.
