data_PCOD9030368
_publ_section_title
;
Structure prediction by ZEFSAII (Michael W. Deem and Ramdas Pophale) SiO2 
 PCOD9030368
Probable space group: P -1
;
_chemical_formula_sum "Si O2"
_cell_formula_units_Z 16
_cell_length_a 26.521229
_cell_length_b 15.279697
_cell_length_c 16.496237
_cell_angle_alpha 154.430245
_cell_angle_beta 17.005553
_cell_angle_gamma 161.941753
_cell_volume 604.177859
_symmetry_space_group_name_H-M "P -1"
_symmetry_group_IT_number 2
_symmetry_cell_setting 'triclinic'
loop_
_space_group_symop_operation_xyz
x,y,z
-x,-y,-z
loop_
_atom_site_type_symbol
_atom_site_label
_atom_site_fract_x
_atom_site_fract_y
_atom_site_fract_z
Si Si1 0.147059 0.619326 0.492043
Si Si2 0.451023 0.260852 0.823015
Si Si3 0.734679 0.595225 0.257229
Si Si4 0.049049 0.363775 0.696509
Si Si5 0.772416 0.144554 0.788222
Si Si6 0.307234 0.545287 0.028248
Si Si7 0.057028 0.292324 0.799435
Si Si8 0.754114 0.912515 0.184426
O O1 0.308643 0.639661 0.195500
O O2 0.982268 0.326586 0.550697
O O3 0.949222 0.596553 0.731386
O O4 0.293831 0.897550 0.553815
O O5 0.710413 0.370782 0.500355
O O6 0.362173 0.225543 0.838767
O O7 0.500000 0.500000 0.000000
O O8 0.227752 0.975199 0.972847
O O9 0.500000 0.500000 0.500000
O O10 0.804120 0.694203 0.327075
O O11 0.728773 0.346490 0.045580
O O12 0.960884 0.863008 0.082244
O O13 0.885164 0.134691 0.687010
O O14 0.117853 0.299944 0.618730
O O15 0.907843 0.440417 0.013008
O O16 0.522438 0.833055 0.891081
O O17 0.319700 0.315228 0.827100
#
# Coordination Sequence:
#
# PCOD9030368 Si02
#       8
#     2   2   2   2   2   2   2   2
#     4  10  24  45  68  97 144 181 233 284 356 411
#     4  11  25  43  66  99 141 177 229 288 349 410
#     4   9  20  41  70  97 146 180 220 287 356 413
#     4  10  22  42  70  96 134 178 233 286 342 417
#     4  10  23  42  67 103 135 182 231 285 348 412
#     4  11  24  44  72 102 138 182 238 288 342 427
#     4   9  21  43  68 102 128 182 232 277 352 417
#     4  10  24  46  65 105 138 185 232 283 357 418
#
# _framework density 26.482268000000001
#
# number of rings (size 3 to 8) (size 9 to 14) (size 15 to 20)
#    0.000    2.000    0.000    1.875    7.000    3.500 
#    4.500    1.250    0.000    0.000    0.000    0.000 
#    0.000    0.000    0.000    0.000    0.000    0.000 
#
# Total GULP energy -89654.416813 kJ/mol
# GULP energy per Si atom -5603.401051 kJ/mol
# Density = 2.642199 g / cm^3
# Si number density = 26.482268 Si / 1000 Ang^3
#
#
#
# Elastic Constant Matrix: (Units=GPa)
#
#
# Indices 1 2 3 4 5 6 
#
# 1 144.0952 35.5753 23.0952 0.3251 14.5924 1.4597
# 2 35.5753 124.8325 27.9347 -4.6259 5.5274 -13.2624
# 3 23.0952 27.9347 81.3034 -19.2199 9.9387 0.9074
# 4 0.3251 -4.6259 -19.2199 37.6827 5.3086 5.5304
# 5 14.5924 5.5274 9.9387 5.3086 33.0079 -2.3049
# 6 1.4597 -13.2624 0.9074 5.5304 -2.3049 47.3163
#
#
#
# Elastic Compliance Matrix: (Units=1/GPa)
#
#
# Indices 1 2 3 4 5 6 
#
# 1 0.007924 -0.001941 -0.001353 -0.000486 -0.002751 -0.000840
# 2 -0.001941 0.009490 -0.003005 -0.000849 0.000513 0.002902
# 3 -0.001353 -0.003005 0.016614 0.009263 -0.005563 -0.002473
# 4 -0.000486 -0.000849 0.009263 0.032980 -0.008061 -0.004648
# 5 -0.002751 0.000513 -0.005563 -0.008061 0.034605 0.002963
# 6 -0.000840 0.002902 -0.002473 -0.004648 0.002963 0.022709
#
#
# Mechanical properties :
#
#
# Convention : Reuss Voigt Hill
#
# Bulk Modulus (GPa) = 46.66390 58.16018 52.41204
# Shear Modulus (GPa) = 34.70675 41.17643 37.94159
#
# Velocity S-wave (km/s) = 3.62410 3.94746 3.78923
# Velocity P-wave (km/s) = 5.93053 6.54112 6.24329
#
# Compressibility (1/GPa) = 0.02142984
#
# Stress axis : x y z
#
# Youngs Moduli (GPa) = 126.19661 105.36877 60.18962
#
# Poissons Ratio (x) = 0.20450 0.08146
# Poissons Ratio (y) = 0.24492 0.18089
# Poissons Ratio (z) = 0.17079 0.31667
#
# Static dielectric constant tensor:
#      x y z
#    x 1.923390 -0.010720 0.134460 
#    y -0.010720 2.041740 0.061090 
#    z 0.134460 0.061090 1.943100 
# 
# From -- ./inp_files/579887.got.cif
#   From: 2010.05.17/outbox.cif.g08.bks.cpg/sg2_290_cif.got.tgz:579887.got - 2010.06.03 11:33:40.
