data_PCOD9030625
_publ_section_title
;
Structure prediction by ZEFSAII (Michael W. Deem and Ramdas Pophale) SiO2 
 PCOD9030625
Probable space group: P -1
;
_chemical_formula_sum "Si O2"
_cell_formula_units_Z 15
_cell_length_a 30.197576
_cell_length_b 18.854903
_cell_length_c 8.817486
_cell_angle_alpha 37.788800
_cell_angle_beta 28.879533
_cell_angle_gamma 17.443971
_cell_volume 690.712041
_symmetry_space_group_name_H-M "P -1"
_symmetry_group_IT_number 2
_symmetry_cell_setting 'triclinic'
loop_
_space_group_symop_operation_xyz
x,y,z
-x,-y,-z
loop_
_atom_site_type_symbol
_atom_site_label
_atom_site_fract_x
_atom_site_fract_y
_atom_site_fract_z
Si Si1 0.227092 0.281294 0.219188
Si Si2 0.356055 0.741248 0.117852
Si Si3 0.187309 0.140153 0.801006
Si Si4 0.982257 0.015152 0.847092
Si Si5 0.621674 0.972337 0.121691
Si Si6 0.000000 0.500000 0.000000
Si Si7 0.114522 0.655808 0.851268
Si Si8 0.625269 0.530709 0.890019
O O1 0.278268 0.156106 0.430878
O O2 0.000000 0.500000 0.500000
O O3 0.337784 0.101871 0.049238
O O4 0.230671 0.416032 0.978958
O O5 0.140292 0.929313 0.451232
O O6 0.500000 0.500000 0.000000
O O7 0.449106 0.647303 0.162437
O O8 0.344318 0.881240 0.844053
O O9 0.033109 0.357778 0.019991
O O10 0.071998 0.193496 0.931219
O O11 0.769951 0.297817 0.955819
O O12 0.039591 0.829433 0.909342
O O13 0.000000 0.000000 0.000000
O O14 0.821144 0.755171 0.991528
O O15 0.500000 0.000000 0.500000
O O16 0.481834 0.239496 0.105313
O O17 0.245962 0.572003 0.469768
#
# Coordination Sequence:
#
# PCOD9030625 Si02
#       8
#     2   2   2   2   2   1   2   2
#     4  10  22  42  72 105 144 186 233 302 362 423
#     4  12  25  44  76 103 139 194 246 288 361 440
#     4  11  23  42  74 105 143 190 239 290 365 430
#     4  12  29  48  74 107 143 190 248 312 361 426
#     4  12  24  43  71 106 146 188 243 291 364 437
#     4  12  22  42  68 102 142 186 232 288 358 430
#     4  11  21  47  71 100 146 191 235 296 366 427
#     4  12  24  45  75 105 144 193 241 301 362 441
#
# _framework density 21.716719999999999
#
# number of rings (size 3 to 8) (size 9 to 14) (size 15 to 20)
#    0.000    0.533    8.000    1.200    0.000    4.800 
#    0.000    1.333    0.000    0.000    0.000    0.000 
#    0.000    0.000    0.000    0.000    0.000    0.000 
#
# Total GULP energy -83611.692837 kJ/mol
# GULP energy per Si atom -5574.112856 kJ/mol
# Density = 2.166729 g / cm^3
# Si number density = 21.716720 Si / 1000 Ang^3
#
#
#
# Elastic Constant Matrix: (Units=GPa)
#
#
# Indices 1 2 3 4 5 6 
#
# 1 115.8243 88.0534 7.3994 -14.1212 -8.1085 19.6659
# 2 88.0534 192.8992 14.7331 -8.7012 13.7541 20.2845
# 3 7.3994 14.7331 23.5968 -11.5413 1.0537 2.3739
# 4 -14.1212 -8.7012 -11.5413 26.7370 -1.9713 3.1706
# 5 -8.1085 13.7541 1.0537 -1.9713 19.0192 5.7559
# 6 19.6659 20.2845 2.3739 3.1706 5.7559 56.9432
#
#
#
# Elastic Compliance Matrix: (Units=1/GPa)
#
#
# Indices 1 2 3 4 5 6 
#
# 1 0.018721 -0.009041 0.005000 0.011055 0.017144 -0.005802
# 2 -0.009041 0.010232 -0.005507 -0.004831 -0.011804 0.001169
# 3 0.005000 -0.005507 0.057417 0.026666 0.007014 -0.004352
# 4 0.011055 -0.004831 0.026666 0.055193 0.014804 -0.007778
# 5 0.017144 -0.011804 0.007014 0.014804 0.072649 -0.010176
# 6 -0.005802 0.001169 -0.004352 -0.007778 -0.010176 0.020792
#
#
# Mechanical properties :
#
#
# Convention : Reuss Voigt Hill
#
# Bulk Modulus (GPa) = 14.86477 61.41023 38.13750
# Shear Modulus (GPa) = 18.08156 35.34885 26.71520
#
# Velocity S-wave (km/s) = 2.88863 4.03888 3.51118
# Velocity P-wave (km/s) = 4.24091 7.07738 5.83415
#
# Compressibility (1/GPa) = 0.06727314
#
# Stress axis : x y z
#
# Youngs Moduli (GPa) = 53.41646 97.72825 17.41653
#
# Poissons Ratio (x) = 0.88357 -0.08708
# Poissons Ratio (y) = 0.48294 0.09592
# Poissons Ratio (z) = -0.26708 0.53822
#
# Static dielectric constant tensor:
#      x y z
#    x 1.829930 -0.139850 0.045680 
#    y -0.139850 1.984240 -0.136620 
#    z 0.045680 -0.136620 1.878280 
# 
# From -- ./inp_files/241613.got.cif
#   From: 2010.05.17/outbox.cif.g08.bks.cpg/sg2_121_cif.got.tgz:241613.got - 2010.06.03 11:33:40.
