data_PCOD9030017
_publ_section_title
;
Structure prediction by ZEFSAII (Michael W. Deem and Ramdas Pophale) SiO2 
 PCOD9030017
Probable space group: P -1
;
_chemical_formula_sum "Si O2"
_cell_formula_units_Z 14
_cell_length_a 9.303616
_cell_length_b 19.012339
_cell_length_c 8.000415
_cell_angle_alpha 131.902683
_cell_angle_beta 125.281598
_cell_angle_gamma 33.237415
_cell_volume 576.677237
_symmetry_space_group_name_H-M "P -1"
_symmetry_group_IT_number 2
_symmetry_cell_setting 'triclinic'
loop_
_space_group_symop_operation_xyz
x,y,z
-x,-y,-z
loop_
_atom_site_type_symbol
_atom_site_label
_atom_site_fract_x
_atom_site_fract_y
_atom_site_fract_z
Si Si1 0.662819 0.879890 0.557673
Si Si2 0.192957 0.624485 0.941831
Si Si3 0.935309 0.558083 0.819575
Si Si4 0.791183 0.394034 0.455655
Si Si5 0.595811 0.703079 0.102599
Si Si6 0.186858 0.059345 0.715051
Si Si7 0.966512 0.032238 0.824177
O O1 0.636242 0.777773 0.362428
O O2 0.975720 0.761740 0.553813
O O3 0.500000 0.000000 0.500000
O O4 0.489531 0.969992 0.747916
O O5 0.198201 0.644597 0.785133
O O6 0.038060 0.585972 0.791617
O O7 0.500000 0.500000 0.000000
O O8 0.016980 0.772518 0.151390
O O9 0.857744 0.479864 0.623428
O O10 0.193109 0.458010 0.955228
O O11 0.684038 0.699391 0.971669
O O12 0.500000 0.500000 0.500000
O O13 0.297063 0.800378 0.078179
O O14 0.100664 0.030073 0.445805
O O15 0.161540 0.011727 0.798254
O O16 0.000000 0.000000 0.000000
#
# Coordination Sequence:
#
# PCOD9030017 Si02
#       7
#     2   2   2   2   2   2   2
#     4  10  22  44  72 101 148 192 243 312 383 441
#     4  12  27  43  73 110 151 196 248 316 383 443
#     4  10  22  44  70  97 149 198 240 310 373 447
#     4  11  28  46  73 110 145 198 265 307 370 466
#     4   9  20  38  67  98 139 187 240 289 378 440
#     4  10  24  43  69 106 150 193 253 306 381 459
#     4  10  22  42  69 108 149 193 240 314 377 453
#
# _framework density 24.277011000000002
#
# number of rings (size 3 to 8) (size 9 to 14) (size 15 to 20)
#    0.000    1.714    0.000    2.143   10.000    6.286 
#    0.000    0.000    0.000    0.000    0.000    0.000 
#    0.000    0.000    0.000    0.000    0.000    0.000 
#
# Total GULP energy -77945.376872 kJ/mol
# GULP energy per Si atom -5567.526919 kJ/mol
# Density = 2.422176 g / cm^3
# Si number density = 24.277011 Si / 1000 Ang^3
#
#
#
# Elastic Constant Matrix: (Units=GPa)
#
#
# Indices 1 2 3 4 5 6 
#
# 1 162.5179 56.9970 54.6834 9.9081 -17.0515 -21.8434
# 2 56.9970 115.4449 54.3216 36.0420 -12.7815 -24.8036
# 3 54.6834 54.3216 119.7244 12.1795 -9.8014 -9.8356
# 4 9.9081 36.0420 12.1795 39.0242 -5.2979 -15.3614
# 5 -17.0515 -12.7815 -9.8014 -5.2979 50.3706 2.5702
# 6 -21.8434 -24.8036 -9.8356 -15.3614 2.5702 36.4268
#
#
#
# Elastic Compliance Matrix: (Units=1/GPa)
#
#
# Indices 1 2 3 4 5 6 
#
# 1 0.008504 -0.003090 -0.002358 0.003059 0.001778 0.003523
# 2 -0.003090 0.016960 -0.004719 -0.011982 0.000910 0.003304
# 3 -0.002358 -0.004719 0.011406 0.000995 0.000387 -0.001155
# 4 0.003059 -0.011982 0.000995 0.040073 0.001857 0.010712
# 5 0.001778 0.000910 0.000387 0.001857 0.020900 0.001099
# 6 0.003523 0.003304 -0.001155 0.010712 0.001099 0.035943
#
#
# Mechanical properties :
#
#
# Convention : Reuss Voigt Hill
#
# Bulk Modulus (GPa) = 60.47564 81.07682 70.77623
# Shear Modulus (GPa) = 31.32204 40.60999 35.96602
#
# Velocity S-wave (km/s) = 3.59582 4.09440 3.85318
# Velocity P-wave (km/s) = 6.49651 7.47135 7.00092
#
# Compressibility (1/GPa) = 0.01653558
#
# Stress axis : x y z
#
# Youngs Moduli (GPa) = 117.59196 58.96372 87.67141
#
# Poissons Ratio (x) = 0.18221 0.20676
# Poissons Ratio (y) = 0.36338 0.41369
# Poissons Ratio (z) = 0.27732 0.27823
#
# Static dielectric constant tensor:
#      x y z
#    x 2.027820 0.005970 0.002030 
#    y 0.005970 1.974240 -0.121930 
#    z 0.002030 -0.121930 2.066050 
# 
# From -- ./inp_files/224108.got.cif
#   From: 2010.05.17/outbox.cif.g08.bks.cpg/sg2_113_cif.got.tgz:224108.got - 2010.06.03 11:33:40.
