data_PCOD9030963
_publ_section_title
;
Structure prediction by ZEFSAII (Michael W. Deem and Ramdas Pophale) SiO2 
 PCOD9030963
Probable space group: P -1
;
_chemical_formula_sum "Si O2"
_cell_formula_units_Z 14
_cell_length_a 5.701323
_cell_length_b 7.772877
_cell_length_c 17.547749
_cell_angle_alpha 118.060085
_cell_angle_beta 120.558535
_cell_angle_gamma 87.900622
_cell_volume 569.547921
_symmetry_space_group_name_H-M "P -1"
_symmetry_group_IT_number 2
_symmetry_cell_setting 'triclinic'
loop_
_space_group_symop_operation_xyz
x,y,z
-x,-y,-z
loop_
_atom_site_type_symbol
_atom_site_label
_atom_site_fract_x
_atom_site_fract_y
_atom_site_fract_z
Si Si1 0.833035 0.311705 0.331284
Si Si2 0.239435 0.149468 0.760848
Si Si3 0.318600 0.169789 0.936785
Si Si4 0.917087 0.295621 0.611517
Si Si5 0.235978 0.496051 0.101324
Si Si6 0.302946 0.353963 0.542347
Si Si7 0.090201 0.827358 0.933033
O O1 0.627191 0.413721 0.367505
O O2 0.916840 0.463309 0.304888
O O3 0.126399 0.348726 0.434933
O O4 0.725556 0.072191 0.261965
O O5 0.176356 0.228069 0.850326
O O6 0.529101 0.296661 0.809089
O O7 0.003636 0.163625 0.664489
O O8 0.176586 0.941232 0.891999
O O9 0.356670 0.325757 0.044772
O O10 0.640961 0.187130 0.976441
O O11 0.582673 0.279253 0.558972
O O12 0.066558 0.249567 0.546922
O O13 0.122141 0.391593 0.140629
O O14 0.000000 0.500000 0.000000
O O15 0.000000 0.000000 0.000000
#
# Coordination Sequence:
#
# PCOD9030963 Si02
#       7
#     2   2   2   2   2   2   2
#     4   9  23  45  72 103 140 185 232 286 352 435
#     4  12  25  43  68 109 133 179 244 294 347 421
#     4  10  22  43  63  90 129 179 228 281 349 405
#     4  10  23  46  70 109 141 185 227 300 351 425
#     4  11  23  43  62  90 135 181 229 282 347 401
#     4   9  21  50  74  98 150 187 223 285 372 424
#     4   9  20  41  68  86 117 187 225 280 341 418
#
# _framework density 24.580898999999999
#
# number of rings (size 3 to 8) (size 9 to 14) (size 15 to 20)
#    0.857    1.143    1.429    0.857    0.000    5.714 
#    7.714    0.000    0.000    0.000    0.000    0.000 
#    0.000    0.000    0.000    0.000    0.000    0.000 
#
# Total GULP energy -78048.957292 kJ/mol
# GULP energy per Si atom -5574.925521 kJ/mol
# Density = 2.452495 g / cm^3
# Si number density = 24.580899 Si / 1000 Ang^3
#
#
#
# Elastic Constant Matrix: (Units=GPa)
#
#
# Indices 1 2 3 4 5 6 
#
# 1 109.9758 35.4678 20.9153 -4.8801 2.4420 7.8325
# 2 35.4678 97.8839 16.3721 3.1066 -0.4667 23.7497
# 3 20.9153 16.3721 37.8289 -7.6614 -3.8200 3.1987
# 4 -4.8801 3.1066 -7.6614 41.9125 7.8468 4.7939
# 5 2.4420 -0.4667 -3.8200 7.8468 23.2691 -7.9806
# 6 7.8325 23.7497 3.1987 4.7939 -7.9806 45.8968
#
#
#
# Elastic Compliance Matrix: (Units=1/GPa)
#
#
# Indices 1 2 3 4 5 6 
#
# 1 0.011174 -0.003177 -0.004778 0.001209 -0.002603 -0.000509
# 2 -0.003177 0.013625 -0.003993 -0.001011 -0.001923 -0.006459
# 3 -0.004778 -0.003993 0.032121 0.004675 0.004436 0.000926
# 4 0.001209 -0.001011 0.004675 0.027370 -0.010201 -0.004642
# 5 -0.002603 -0.001923 0.004436 -0.010201 0.051184 0.011096
# 6 -0.000509 -0.006459 0.000926 -0.004642 0.011096 0.027567
#
#
# Mechanical properties :
#
#
# Convention : Reuss Voigt Hill
#
# Bulk Modulus (GPa) = 30.28104 43.46654 36.87379
# Shear Modulus (GPa) = 25.25951 33.74457 29.50204
#
# Velocity S-wave (km/s) = 3.20911 3.70915 3.46815
# Velocity P-wave (km/s) = 5.10655 6.00543 5.57414
#
# Compressibility (1/GPa) = 0.03302396
#
# Stress axis : x y z
#
# Youngs Moduli (GPa) = 89.49475 73.39297 31.13212
#
# Poissons Ratio (x) = 0.23317 0.14875
# Poissons Ratio (y) = 0.28432 0.12432
# Poissons Ratio (z) = 0.42761 0.29307
#
# Static dielectric constant tensor:
#      x y z
#    x 2.060350 -0.011320 -0.055530 
#    y -0.011320 2.027780 0.041700 
#    z -0.055530 0.041700 2.010160 
# 
# From -- ./inp_files/548352.got.cif
#   From: 2010.05.17/outbox.cif.g08.bks.cpg/sg2_275_cif.got.tgz:548352.got - 2010.06.03 11:33:40.
