data_PCOD9030866
_publ_section_title
;
Structure prediction by ZEFSAII (Michael W. Deem and Ramdas Pophale) SiO2 
 PCOD9030866
Probable space group: P -1
;
_chemical_formula_sum "Si O2"
_cell_formula_units_Z 14
_cell_length_a 7.421102
_cell_length_b 15.682698
_cell_length_c 9.445530
_cell_angle_alpha 36.562203
_cell_angle_beta 72.614196
_cell_angle_gamma 92.546670
_cell_volume 541.080548
_symmetry_space_group_name_H-M "P -1"
_symmetry_group_IT_number 2
_symmetry_cell_setting 'triclinic'
loop_
_space_group_symop_operation_xyz
x,y,z
-x,-y,-z
loop_
_atom_site_type_symbol
_atom_site_label
_atom_site_fract_x
_atom_site_fract_y
_atom_site_fract_z
Si Si1 0.328804 0.131745 0.342494
Si Si2 0.638763 0.681032 0.164934
Si Si3 0.241713 0.685305 0.607233
Si Si4 0.044053 0.646303 0.401124
Si Si5 0.984593 0.214462 0.263820
Si Si6 0.378722 0.016976 0.772995
Si Si7 0.315874 0.251617 0.632419
O O1 0.143963 0.176594 0.373479
O O2 0.563998 0.900776 0.505910
O O3 0.763444 0.177557 0.936877
O O4 0.204926 0.963800 0.504862
O O5 0.500000 0.500000 0.500000
O O6 0.539547 0.727309 0.992731
O O7 0.672546 0.789329 0.150888
O O8 0.868089 0.710835 0.010755
O O9 0.124353 0.631446 0.557627
O O10 0.431919 0.636009 0.633658
O O11 0.084096 0.667861 0.797405
O O12 0.404027 0.887168 0.310743
O O13 0.000000 0.500000 0.500000
O O14 0.231924 0.087406 0.780458
O O15 0.831342 0.664789 0.448143
#
# Coordination Sequence:
#
# PCOD9030866 Si02
#       7
#     2   2   2   2   2   2   2
#     4   9  20  41  77 109 154 207 261 324 391 473
#     4  10  22  42  77 114 159 205 256 332 405 460
#     4  10  25  44  77 115 154 209 274 324 388 492
#     4  12  26  44  75 121 167 206 265 338 407 463
#     4   9  20  41  74 110 157 199 265 321 391 467
#     4  10  23  45  79 115 152 213 274 322 388 480
#     4  10  25  44  79 111 154 210 266 317 398 477
#
# _framework density 25.874151000000001
#
# number of rings (size 3 to 8) (size 9 to 14) (size 15 to 20)
#    1.714    0.286    0.000    2.571    4.000    0.571 
#    0.000    2.857    0.000    0.000    0.000    0.000 
#    0.000    0.000    0.000    0.000    0.000    0.000 
#
# Total GULP energy -78205.650564 kJ/mol
# GULP energy per Si atom -5586.117897 kJ/mol
# Density = 2.581526 g / cm^3
# Si number density = 25.874151 Si / 1000 Ang^3
#
#
#
# Elastic Constant Matrix: (Units=GPa)
#
#
# Indices 1 2 3 4 5 6 
#
# 1 91.7782 54.9339 40.0982 13.8568 -9.6379 -14.5203
# 2 54.9339 191.0517 56.2274 4.4593 5.5141 -21.0614
# 3 40.0982 56.2274 94.9684 13.1790 26.4665 -5.8594
# 4 13.8568 4.4593 13.1790 46.6771 -11.6198 -7.1381
# 5 -9.6379 5.5141 26.4665 -11.6198 49.1796 18.1939
# 6 -14.5203 -21.0614 -5.8594 -7.1381 18.1939 50.4996
#
#
#
# Elastic Compliance Matrix: (Units=1/GPa)
#
#
# Indices 1 2 3 4 5 6 
#
# 1 0.016667 -0.002840 -0.007280 -0.000799 0.007308 0.000017
# 2 -0.002840 0.007145 -0.003031 0.001285 -0.000185 0.002060
# 3 -0.007280 -0.003031 0.020761 -0.006636 -0.015149 0.003571
# 4 -0.000799 0.001285 -0.006636 0.025725 0.009432 -0.000226
# 5 0.007308 -0.000185 -0.015149 0.009432 0.036432 -0.011526
# 6 0.000017 0.002060 0.003571 -0.000226 -0.011526 0.025201
#
#
# Mechanical properties :
#
#
# Convention : Reuss Voigt Hill
#
# Bulk Modulus (GPa) = 54.73125 75.59079 65.16102
# Shear Modulus (GPa) = 30.42726 44.37383 37.40055
#
# Velocity S-wave (km/s) = 3.43296 4.14573 3.80607
# Velocity P-wave (km/s) = 6.07556 7.22457 6.67483
#
# Compressibility (1/GPa) = 0.01827110
#
# Stress axis : x y z
#
# Youngs Moduli (GPa) = 59.99715 139.95230 48.16613
#
# Poissons Ratio (x) = 0.39748 0.35067
# Poissons Ratio (y) = 0.17040 0.14599
# Poissons Ratio (z) = 0.43681 0.42420
#
# Static dielectric constant tensor:
#      x y z
#    x 2.060750 -0.036690 -0.059890 
#    y -0.036690 2.033550 0.004470 
#    z -0.059890 0.004470 2.143900 
# 
# From -- ./inp_files/401085.got.cif
#   From: 2010.05.17/outbox.cif.g08.bks.cpg/sg2_201_cif.got.tgz:401085.got - 2010.06.03 11:33:40.
