data_PCOD9030996
_publ_section_title
;
Structure prediction by ZEFSAII (Michael W. Deem and Ramdas Pophale) SiO2 
 PCOD9030996
Probable space group: P -1
;
_chemical_formula_sum "Si O2"
_cell_formula_units_Z 16
_cell_length_a 10.478422
_cell_length_b 19.723957
_cell_length_c 12.533481
_cell_angle_alpha 146.013932
_cell_angle_beta 53.799331
_cell_angle_gamma 150.174723
_cell_volume 638.316242
_symmetry_space_group_name_H-M "P -1"
_symmetry_group_IT_number 2
_symmetry_cell_setting 'triclinic'
loop_
_space_group_symop_operation_xyz
x,y,z
-x,-y,-z
loop_
_atom_site_type_symbol
_atom_site_label
_atom_site_fract_x
_atom_site_fract_y
_atom_site_fract_z
Si Si1 0.373568 0.627264 0.442650
Si Si2 0.301309 0.639170 0.070565
Si Si3 0.204687 0.406916 0.534197
Si Si4 0.336434 0.288827 0.149783
Si Si5 0.582847 0.036923 0.325865
Si Si6 0.387184 0.168720 0.628585
Si Si7 0.732030 0.161107 0.188905
Si Si8 0.897208 0.901588 0.692161
O O1 0.547420 0.719741 0.367318
O O2 0.282995 0.709598 0.594842
O O3 0.600201 0.759384 0.600935
O O4 0.067387 0.357997 0.245321
O O5 0.337937 0.646651 0.187319
O O6 0.513885 0.881624 0.235962
O O7 0.416092 0.586839 0.896623
O O8 0.000000 0.500000 0.000000
O O9 0.250362 0.359169 0.341423
O O10 0.489149 0.656394 0.762050
O O11 0.151639 0.266651 0.463708
O O12 0.911162 0.291397 0.520869
O O13 0.056001 0.064432 0.929349
O O14 0.364132 0.008549 0.409163
O O15 0.612642 0.013596 0.158689
O O16 0.124246 0.046922 0.671371
O O17 0.500000 0.000000 0.000000
#
# Coordination Sequence:
#
# PCOD9030996 Si02
#       8
#     2   2   2   2   2   2   2   2
#     4  10  24  44  66  93 129 178 222 263 326 388
#     4  11  23  38  67  97 131 173 216 271 329 396
#     4  11  23  40  63  99 134 165 216 268 336 380
#     4  10  24  39  60  98 132 171 212 266 327 394
#     4  11  23  41  66  96 132 171 216 276 327 384
#     4  10  22  43  63  95 133 176 217 268 327 388
#     4  10  25  44  66  94 130 173 220 273 321 391
#     4  11  23  41  67  94 134 173 218 270 323 394
#
# _framework density 25.065944999999999
#
# number of rings (size 3 to 8) (size 9 to 14) (size 15 to 20)
#    0.000    1.500    2.500    1.875    8.750    0.000 
#    0.000    0.000    0.000    4.500    0.000    0.000 
#    0.000    0.000    0.000    0.000    0.000    0.000 
#
# Total GULP energy -89222.243528 kJ/mol
# GULP energy per Si atom -5576.390220 kJ/mol
# Density = 2.500889 g / cm^3
# Si number density = 25.065945 Si / 1000 Ang^3
#
#
#
# Elastic Constant Matrix: (Units=GPa)
#
#
# Indices 1 2 3 4 5 6 
#
# 1 87.8667 24.9851 35.5157 10.3625 37.1991 -4.0172
# 2 24.9851 102.7696 59.7213 5.4713 19.6322 12.8236
# 3 35.5157 59.7213 139.3897 -8.2589 35.2873 -9.9644
# 4 10.3625 5.4713 -8.2589 34.2836 5.2946 11.2781
# 5 37.1991 19.6322 35.2873 5.2946 54.8707 -5.2727
# 6 -4.0172 12.8236 -9.9644 11.2781 -5.2727 45.6047
#
#
#
# Elastic Compliance Matrix: (Units=1/GPa)
#
#
# Indices 1 2 3 4 5 6 
#
# 1 0.016973 -0.001434 -0.001449 -0.004292 -0.009499 0.001545
# 2 -0.001434 0.014515 -0.006166 -0.001550 -0.000610 -0.005242
# 3 -0.001449 -0.006166 0.011759 0.004082 -0.004513 0.002644
# 4 -0.004292 -0.001550 0.004082 0.034854 -0.003298 -0.008051
# 5 -0.009499 -0.000610 -0.004513 -0.003298 0.028338 0.002441
# 6 0.001545 -0.005242 0.002644 -0.008051 0.002441 0.026389
#
#
# Mechanical properties :
#
#
# Convention : Reuss Voigt Hill
#
# Bulk Modulus (GPa) = 39.76378 63.38555 51.57467
# Shear Modulus (GPa) = 31.38576 40.93873 36.16224
#
# Velocity S-wave (km/s) = 3.54238 4.04572 3.80239
# Velocity P-wave (km/s) = 5.71221 6.86777 6.31647
#
# Compressibility (1/GPa) = 0.02514851
#
# Stress axis : x y z
#
# Youngs Moduli (GPa) = 58.91873 68.89229 85.04453
#
# Poissons Ratio (x) = 0.09877 0.12327
# Poissons Ratio (y) = 0.08447 0.52437
# Poissons Ratio (z) = 0.08540 0.42478
#
# Static dielectric constant tensor:
#      x y z
#    x 1.978900 0.009360 -0.006240 
#    y 0.009360 2.098500 0.025800 
#    z -0.006240 0.025800 2.089740 
# 
# From -- ./inp_files/438476.got.cif
#   From: 2010.05.17/outbox.cif.g08.bks.cpg/sg2_220_cif.got.tgz:438476.got - 2010.06.03 11:33:40.
