data_PCOD9030701
_publ_section_title
;
Structure prediction by ZEFSAII (Michael W. Deem and Ramdas Pophale) SiO2 
 PCOD9030701
Probable space group: P -1
;
_chemical_formula_sum "Si O2"
_cell_formula_units_Z 14
_cell_length_a 11.017024
_cell_length_b 11.632490
_cell_length_c 14.010552
_cell_angle_alpha 40.139258
_cell_angle_beta 148.600809
_cell_angle_gamma 134.084702
_cell_volume 598.038107
_symmetry_space_group_name_H-M "P -1"
_symmetry_group_IT_number 2
_symmetry_cell_setting 'triclinic'
loop_
_space_group_symop_operation_xyz
x,y,z
-x,-y,-z
loop_
_atom_site_type_symbol
_atom_site_label
_atom_site_fract_x
_atom_site_fract_y
_atom_site_fract_z
Si Si1 0.047198 0.346072 0.557236
Si Si2 0.134198 0.176740 0.363565
Si Si3 0.230236 0.885408 0.330575
Si Si4 0.682214 0.183320 0.773191
Si Si5 0.330385 0.281182 0.229057
Si Si6 0.729740 0.946503 0.139580
Si Si7 0.979171 0.458505 0.227346
O O1 0.959898 0.395045 0.364101
O O2 0.000000 0.500000 0.500000
O O3 0.924797 0.173966 0.643674
O O4 0.293536 0.269239 0.754858
O O5 0.399031 0.148744 0.591056
O O6 0.177531 0.270977 0.229421
O O7 0.018082 0.298211 0.284075
O O8 0.947194 0.004271 0.321849
O O9 0.180744 0.873787 0.192533
O O10 0.407492 0.730637 0.551669
O O11 0.307443 0.095447 0.270549
O O12 0.791951 0.390549 0.728575
O O13 0.745128 0.063369 0.979301
O O14 0.246709 0.441898 0.011903
O O15 0.500000 0.000000 0.000000
#
# Coordination Sequence:
#
# PCOD9030701 Si02
#       7
#     2   2   2   2   2   2   2
#     4  12  26  44  66 105 147 174 236 297 344 410
#     4  11  24  46  71 101 141 178 239 288 338 427
#     4  10  22  45  68 100 137 181 233 286 344 421
#     4  11  24  44  77  99 136 190 231 280 354 416
#     4  10  22  42  72  99 131 184 237 281 346 420
#     4  12  28  49  73 103 139 189 235 287 352 420
#     4  12  24  41  71 103 142 186 228 287 354 407
#
# _framework density 23.409877999999999
#
# number of rings (size 3 to 8) (size 9 to 14) (size 15 to 20)
#    0.000    0.857    4.286    1.714    2.000    5.143 
#    0.000    0.000    0.000    0.000    0.000    0.000 
#    0.000    0.000    0.000    0.000    0.000    0.000 
#
# Total GULP energy -78082.417359 kJ/mol
# GULP energy per Si atom -5577.315526 kJ/mol
# Density = 2.335660 g / cm^3
# Si number density = 23.409878 Si / 1000 Ang^3
#
#
#
# Elastic Constant Matrix: (Units=GPa)
#
#
# Indices 1 2 3 4 5 6 
#
# 1 122.2217 34.3496 70.5464 -21.5603 -19.3783 -33.6527
# 2 34.3496 92.5749 45.5986 -8.2760 -1.2735 -31.1745
# 3 70.5464 45.5986 163.2094 -13.2027 0.7660 -17.3383
# 4 -21.5603 -8.2760 -13.2027 36.6509 -0.3134 11.3630
# 5 -19.3783 -1.2735 0.7660 -0.3134 43.9868 -2.5805
# 6 -33.6527 -31.1745 -17.3383 11.3630 -2.5805 42.1427
#
#
#
# Elastic Compliance Matrix: (Units=1/GPa)
#
#
# Indices 1 2 3 4 5 6 
#
# 1 0.016229 0.000893 -0.005825 0.004461 0.007925 0.010506
# 2 0.000893 0.016102 -0.003741 -0.000698 0.001587 0.011370
# 3 -0.005825 -0.003741 0.009316 0.000249 -0.003060 -0.003840
# 4 0.004461 -0.000698 0.000249 0.031477 0.001858 -0.005225
# 5 0.007925 0.001587 -0.003060 0.001858 0.026771 0.007382
# 6 0.010506 0.011370 -0.003840 -0.005225 0.007382 0.040811
#
#
# Mechanical properties :
#
#
# Convention : Reuss Voigt Hill
#
# Bulk Modulus (GPa) = 41.14755 75.44391 58.29573
# Shear Modulus (GPa) = 30.09313 39.72351 34.90832
#
# Velocity S-wave (km/s) = 3.58926 4.12378 3.86577
# Velocity P-wave (km/s) = 5.89849 7.41427 6.69939
#
# Compressibility (1/GPa) = 0.02430278
#
# Stress axis : x y z
#
# Youngs Moduli (GPa) = 61.61737 62.10578 107.33697
#
# Poissons Ratio (x) = -0.05546 0.62520
# Poissons Ratio (y) = -0.05503 0.40150
# Poissons Ratio (z) = 0.35890 0.23231
#
# Static dielectric constant tensor:
#      x y z
#    x 1.988360 0.035570 0.045010 
#    y 0.035570 1.979520 0.051830 
#    z 0.045010 0.051830 1.912010 
# 
# From -- ./inp_files/518693.got.cif
#   From: 2010.05.17/outbox.cif.g08.bks.cpg/sg2_260_cif.got.tgz:518693.got - 2010.06.03 11:33:40.
