data_PCOD9030376
_publ_section_title
;
Structure prediction by ZEFSAII (Michael W. Deem and Ramdas Pophale) SiO2 
 PCOD9030376
Probable space group: P -1
;
_chemical_formula_sum "Si O2"
_cell_formula_units_Z 15
_cell_length_a 23.368500
_cell_length_b 5.510495
_cell_length_c 11.931964
_cell_angle_alpha 70.033055
_cell_angle_beta 150.403411
_cell_angle_gamma 90.844491
_cell_volume 566.333141
_symmetry_space_group_name_H-M "P -1"
_symmetry_group_IT_number 2
_symmetry_cell_setting 'triclinic'
loop_
_space_group_symop_operation_xyz
x,y,z
-x,-y,-z
loop_
_atom_site_type_symbol
_atom_site_label
_atom_site_fract_x
_atom_site_fract_y
_atom_site_fract_z
Si Si1 0.351083 0.341967 0.383378
Si Si2 0.067711 0.231129 0.278430
Si Si3 0.381829 0.325535 0.120501
Si Si4 0.885328 0.765030 0.046990
Si Si5 0.500000 0.500000 0.500000
Si Si6 0.349253 0.607650 0.777138
Si Si7 0.054934 0.791277 0.513187
Si Si8 0.224845 0.562769 0.355909
O O1 0.224944 0.325453 0.130440
O O2 0.341444 0.641398 0.272501
O O3 0.346504 0.306381 0.514059
O O4 0.508499 0.069801 0.635264
O O5 0.225055 0.994461 0.526015
O O6 0.063852 0.998339 0.397524
O O7 0.022920 0.522900 0.237524
O O8 0.930156 0.367254 0.939744
O O9 0.436846 0.468949 0.275916
O O10 0.382276 0.433945 0.979113
O O11 0.219714 0.468524 0.853669
O O12 0.804875 0.110111 0.794850
O O13 0.950390 0.729553 0.284590
O O14 0.279099 0.511811 0.581497
O O15 0.500000 0.500000 0.000000
O O16 0.000000 0.000000 0.500000
#
# Coordination Sequence:
#
# PCOD9030376 Si02
#       8
#     2   2   2   2   1   2   2   2
#     4  11  24  45  70 101 132 189 228 281 344 420
#     4   9  22  42  65  99 134 180 227 274 346 408
#     4  11  27  44  69 101 136 185 230 282 354 404
#     4  10  22  43  71 101 136 180 235 273 348 412
#     4  12  26  46  66  96 142 176 232 286 340 410
#     4  11  22  42  68 102 138 176 227 292 336 400
#     4  10  24  43  67 101 137 177 230 293 337 402
#     4  10  22  42  70  96 140 177 229 282 336 408
#
# _framework density 26.486177999999999
#
# number of rings (size 3 to 8) (size 9 to 14) (size 15 to 20)
#    0.000    1.600    0.000    3.200    7.467    4.800 
#    0.000    8.000    0.000    0.000    0.000    0.000 
#    0.000    0.000    0.000    0.000    0.000    0.000 
#
# Total GULP energy -83878.257747 kJ/mol
# GULP energy per Si atom -5591.883850 kJ/mol
# Density = 2.642589 g / cm^3
# Si number density = 26.486178 Si / 1000 Ang^3
#
#
#
# Elastic Constant Matrix: (Units=GPa)
#
#
# Indices 1 2 3 4 5 6 
#
# 1 177.9638 44.3131 78.3514 27.7792 1.0571 -30.3607
# 2 44.3131 90.9892 69.4722 30.4138 8.7449 -40.3754
# 3 78.3514 69.4722 156.3520 11.6321 20.3911 -37.1769
# 4 27.7792 30.4138 11.6321 59.6315 -12.5422 2.1283
# 5 1.0571 8.7449 20.3911 -12.5422 64.6866 13.0961
# 6 -30.3607 -40.3754 -37.1769 2.1283 13.0961 54.5827
#
#
#
# Elastic Compliance Matrix: (Units=1/GPa)
#
#
# Indices 1 2 3 4 5 6 
#
# 1 0.008064 0.002311 -0.003595 -0.004604 -0.001049 0.004178
# 2 0.002311 0.035241 -0.007599 -0.020948 -0.011691 0.025800
# 3 -0.003595 -0.007599 0.011900 0.002706 -0.002330 0.000938
# 4 -0.004604 -0.020948 0.002706 0.032428 0.012487 -0.020474
# 5 -0.001049 -0.011691 -0.002330 0.012487 0.023650 -0.016980
# 6 0.004178 0.025800 0.000938 -0.020474 -0.016980 0.045240
#
#
# Mechanical properties :
#
#
# Convention : Reuss Voigt Hill
#
# Bulk Modulus (GPa) = 26.71055 89.95319 58.33187
# Shear Modulus (GPa) = 26.77117 51.32469 39.04793
#
# Velocity S-wave (km/s) = 3.18269 4.40681 3.84380
# Velocity P-wave (km/s) = 4.85929 7.74141 6.46305
#
# Compressibility (1/GPa) = 0.03743839
#
# Stress axis : x y z
#
# Youngs Moduli (GPa) = 124.00595 28.37622 84.03660
#
# Poissons Ratio (x) = -0.06559 0.30215
# Poissons Ratio (y) = -0.28663 0.63860
# Poissons Ratio (z) = 0.44585 0.21563
#
# Static dielectric constant tensor:
#      x y z
#    x 1.971380 -0.202440 0.086890 
#    y -0.202440 1.650040 0.071630 
#    z 0.086890 0.071630 1.998360 
# 
# From -- ./inp_files/323840.got.cif
#   From: 2010.05.17/outbox.cif.g08.bks.cpg/sg2_162_cif.got.tgz:323840.got - 2010.06.03 11:33:40.
