data_PCOD9030303
_publ_section_title
;
Structure prediction by ZEFSAII (Michael W. Deem and Ramdas Pophale) SiO2 
 PCOD9030303
Probable space group: P -1
;
_chemical_formula_sum "Si O2"
_cell_formula_units_Z 15
_cell_length_a 30.725645
_cell_length_b 15.775326
_cell_length_c 5.187944
_cell_angle_alpha 52.667897
_cell_angle_beta 129.267142
_cell_angle_gamma 161.754604
_cell_volume 609.383671
_symmetry_space_group_name_H-M "P -1"
_symmetry_group_IT_number 2
_symmetry_cell_setting 'triclinic'
loop_
_space_group_symop_operation_xyz
x,y,z
-x,-y,-z
loop_
_atom_site_type_symbol
_atom_site_label
_atom_site_fract_x
_atom_site_fract_y
_atom_site_fract_z
Si Si1 0.029389 0.878244 0.445354
Si Si2 0.737228 0.380138 0.096760
Si Si3 0.404814 0.939181 0.336622
Si Si4 0.721701 0.907694 0.663277
Si Si5 0.466266 0.622909 0.116087
Si Si6 0.000000 0.000000 0.500000
Si Si7 0.102423 0.770995 0.785845
Si Si8 0.280324 0.434962 0.104261
O O1 0.028382 0.752336 0.627187
O O2 0.903614 0.705825 0.108045
O O3 0.004235 0.886971 0.609133
O O4 0.178192 0.184995 0.352034
O O5 0.696487 0.252953 0.444187
O O6 0.662837 0.364560 0.892823
O O7 0.695070 0.233687 0.972937
O O8 0.500000 0.000000 0.500000
O O9 0.487598 0.194273 0.213126
O O10 0.600829 0.780731 0.364112
O O11 0.660899 0.681280 0.860854
O O12 0.846173 0.134484 0.493313
O O13 0.763721 0.005478 0.933113
O O14 0.408523 0.586022 0.213833
O O15 0.171181 0.283508 0.745146
O O16 0.000000 0.500000 0.000000
#
# Coordination Sequence:
#
# PCOD9030303 Si02
#       8
#     2   2   2   2   2   1   2   2
#     4  11  26  42  77 103 148 192 247 306 377 435
#     4  11  27  43  69 106 148 186 239 299 370 439
#     4  12  27  45  69 105 147 195 237 296 372 434
#     4  11  28  52  75 111 141 203 252 303 366 434
#     4  11  26  48  77 101 154 193 253 299 360 449
#     4  10  22  42  70 110 142 188 244 294 364 442
#     4  12  28  51  78 111 148 189 253 314 374 431
#     4  11  23  45  69 108 144 197 240 303 366 446
#
# _framework density 24.615034999999999
#
# number of rings (size 3 to 8) (size 9 to 14) (size 15 to 20)
#    0.000    0.800    2.667    3.200   11.200    4.267 
#    2.400    0.000    0.000    0.000    0.000    0.000 
#    0.000    0.000    0.000    0.000    0.000    0.000 
#
# Total GULP energy -83618.754631 kJ/mol
# GULP energy per Si atom -5574.583642 kJ/mol
# Density = 2.455901 g / cm^3
# Si number density = 24.615035 Si / 1000 Ang^3
#
#
#
# Elastic Constant Matrix: (Units=GPa)
#
#
# Indices 1 2 3 4 5 6 
#
# 1 112.2140 17.8135 38.8559 -11.4308 11.5357 7.5572
# 2 17.8135 75.9872 30.7030 -37.4300 -14.5602 -2.6079
# 3 38.8559 30.7030 79.4216 -18.8223 -10.3699 -9.8476
# 4 -11.4308 -37.4300 -18.8223 46.1329 -1.6200 2.4021
# 5 11.5357 -14.5602 -10.3699 -1.6200 63.9626 -8.3885
# 6 7.5572 -2.6079 -9.8476 2.4021 -8.3885 37.8169
#
#
#
# Elastic Compliance Matrix: (Units=1/GPa)
#
#
# Indices 1 2 3 4 5 6 
#
# 1 0.012231 -0.001586 -0.006810 -0.000916 -0.004382 -0.005241
# 2 -0.001586 0.025620 -0.003644 0.019056 0.006180 0.001295
# 3 -0.006810 -0.003644 0.019537 0.003122 0.004564 0.007011
# 4 -0.000916 0.019056 0.003122 0.038336 0.006142 0.001238
# 5 -0.004382 0.006180 0.004564 0.006142 0.019571 0.006441
# 6 -0.005241 0.001295 0.007011 0.001238 0.006441 0.030756
#
#
# Mechanical properties :
#
#
# Convention : Reuss Voigt Hill
#
# Bulk Modulus (GPa) = 30.02378 49.15197 39.58788
# Shear Modulus (GPa) = 27.58857 41.59917 34.59387
#
# Velocity S-wave (km/s) = 3.35147 4.11541 3.75293
# Velocity P-wave (km/s) = 5.21539 6.52639 5.90737
#
# Compressibility (1/GPa) = 0.03330693
#
# Stress axis : x y z
#
# Youngs Moduli (GPa) = 81.75664 39.03206 51.18600
#
# Poissons Ratio (x) = 0.06192 0.34856
# Poissons Ratio (y) = 0.12970 0.18654
# Poissons Ratio (z) = 0.55674 0.14225
#
# Static dielectric constant tensor:
#      x y z
#    x 1.993810 0.114440 -0.022510 
#    y 0.114440 2.106240 0.034020 
#    z -0.022510 0.034020 1.945010 
# 
# From -- ./inp_files/128580.got.cif
#   From: 2010.05.17/outbox.cif.g08.bks.cpg/sg2_65_cif.got.tgz:128580.got - 2010.06.03 11:33:40.
