data_PCOD9030373
_publ_section_title
;
Structure prediction by ZEFSAII (Michael W. Deem and Ramdas Pophale) SiO2 
 PCOD9030373
Probable space group: P -1
;
_chemical_formula_sum "Si O2"
_cell_formula_units_Z 16
_cell_length_a 9.197359
_cell_length_b 20.584125
_cell_length_c 6.381669
_cell_angle_alpha 128.673980
_cell_angle_beta 112.030544
_cell_angle_gamma 46.308260
_cell_volume 678.593298
_symmetry_space_group_name_H-M "P -1"
_symmetry_group_IT_number 2
_symmetry_cell_setting 'triclinic'
loop_
_space_group_symop_operation_xyz
x,y,z
-x,-y,-z
loop_
_atom_site_type_symbol
_atom_site_label
_atom_site_fract_x
_atom_site_fract_y
_atom_site_fract_z
Si Si1 0.633505 0.215896 0.161362
Si Si2 0.913288 0.166455 0.844390
Si Si3 0.040226 0.567466 0.527188
Si Si4 0.361147 0.584035 0.909627
Si Si5 0.661765 0.599151 0.917266
Si Si6 0.021630 0.082236 0.295362
Si Si7 0.373122 0.243940 0.446608
Si Si8 0.705877 0.906917 0.807251
O O1 0.754358 0.166333 0.901835
O O2 0.430337 0.325978 0.188499
O O3 0.550787 0.185767 0.249281
O O4 0.820071 0.199331 0.344208
O O5 0.001827 0.083766 0.534979
O O6 0.789776 0.284771 0.912173
O O7 0.101623 0.138992 0.027075
O O8 0.218346 0.558891 0.708775
O O9 0.117852 0.510005 0.228636
O O10 0.000000 0.500000 0.500000
O O11 0.837545 0.687116 0.650945
O O12 0.526776 0.563336 0.800202
O O13 0.500000 0.500000 0.000000
O O14 0.630985 0.671217 0.242919
O O15 0.222996 0.062201 0.290740
O O16 0.000000 0.000000 0.000000
O O17 0.345730 0.171897 0.431280
O O18 0.500000 0.000000 0.000000
#
# Coordination Sequence:
#
# PCOD9030373 Si02
#       8
#     2   2   2   2   2   2   2   2
#     4  10  22  42  70  96 137 180 235 284 346 422
#     4  10  24  46  71 102 136 190 237 288 355 421
#     4  12  24  42  66 102 144 182 238 287 355 414
#     4  11  24  43  71 100 139 190 239 286 345 427
#     4  11  25  42  68  99 139 196 231 288 354 426
#     4  11  25  45  73 103 139 183 239 290 354 435
#     4  12  24  45  68 105 146 183 237 301 359 413
#     4  11  26  45  71 104 144 183 235 300 359 418
#
# _framework density 23.578187
#
# number of rings (size 3 to 8) (size 9 to 14) (size 15 to 20)
#    0.000    1.000    2.500    3.750    1.750    6.500 
#    0.000    0.000    0.000    0.000    0.000    0.000 
#    0.000    0.000    0.000    0.000    0.000    0.000 
#
# Total GULP energy -89092.072192 kJ/mol
# GULP energy per Si atom -5568.254512 kJ/mol
# Density = 2.352452 g / cm^3
# Si number density = 23.578187 Si / 1000 Ang^3
#
#
#
# Elastic Constant Matrix: (Units=GPa)
#
#
# Indices 1 2 3 4 5 6 
#
# 1 209.8586 16.5067 76.4371 18.4239 -13.6877 -3.9066
# 2 16.5067 57.8927 9.7931 2.8321 -5.2855 -14.0942
# 3 76.4371 9.7931 111.9971 8.1189 -9.6455 2.8585
# 4 18.4239 2.8321 8.1189 29.5037 -6.8609 4.2676
# 5 -13.6877 -5.2855 -9.6455 -6.8609 39.3373 0.8566
# 6 -3.9066 -14.0942 2.8585 4.2676 0.8566 48.4395
#
#
#
# Elastic Compliance Matrix: (Units=1/GPa)
#
#
# Indices 1 2 3 4 5 6 
#
# 1 0.006687 -0.000791 -0.004249 -0.002894 0.000656 0.000803
# 2 -0.000791 0.019293 -0.001039 -0.001509 0.001675 0.005714
# 3 -0.004249 -0.001039 0.012076 -0.000054 0.001364 -0.001377
# 4 -0.002894 -0.001509 -0.000054 0.037718 0.005445 -0.004089
# 5 0.000656 0.001675 0.001364 0.005445 0.027169 -0.000500
# 6 0.000803 0.005714 -0.001377 -0.004089 -0.000500 0.022822
#
#
# Mechanical properties :
#
#
# Convention : Reuss Voigt Hill
#
# Bulk Modulus (GPa) = 38.61410 65.02468 51.81939
# Shear Modulus (GPa) = 34.11689 41.92356 38.02022
#
# Velocity S-wave (km/s) = 3.80803 4.22129 4.01997
# Velocity P-wave (km/s) = 5.97891 7.16918 6.60093
#
# Compressibility (1/GPa) = 0.02589728
#
# Stress axis : x y z
#
# Youngs Moduli (GPa) = 149.55243 51.83351 82.81019
#
# Poissons Ratio (x) = 0.04099 0.35183
# Poissons Ratio (y) = 0.11826 0.08608
# Poissons Ratio (z) = 0.63539 0.05388
#
# Static dielectric constant tensor:
#      x y z
#    x 1.880890 0.026040 -0.034620 
#    y 0.026040 2.157150 0.031780 
#    z -0.034620 0.031780 1.952700 
# 
# From -- ./inp_files/53812.got.cif
#   From: 2010.05.17/outbox.cif.g08.bks.cpg/sg2_27_cif.got.tgz:53812.got - 2010.06.03 11:33:40.
