data_PCOD9030550
_publ_section_title
;
Structure prediction by ZEFSAII (Michael W. Deem and Ramdas Pophale) SiO2 
 PCOD9030550
Probable space group: P -1
;
_chemical_formula_sum "Si O2"
_cell_formula_units_Z 13
_cell_length_a 11.907796
_cell_length_b 9.732816
_cell_length_c 10.292943
_cell_angle_alpha 126.096023
_cell_angle_beta 140.057620
_cell_angle_gamma 77.350892
_cell_volume 553.091249
_symmetry_space_group_name_H-M "P -1"
_symmetry_group_IT_number 2
_symmetry_cell_setting 'triclinic'
loop_
_space_group_symop_operation_xyz
x,y,z
-x,-y,-z
loop_
_atom_site_type_symbol
_atom_site_label
_atom_site_fract_x
_atom_site_fract_y
_atom_site_fract_z
Si Si1 0.800422 0.468896 0.462292
Si Si2 0.517799 0.399216 0.793982
Si Si3 0.749688 0.766955 0.306907
Si Si4 0.000000 0.000000 0.500000
Si Si5 0.880800 0.178466 0.199788
Si Si6 0.515572 0.111676 0.441641
Si Si7 0.886307 0.308922 0.707102
O O1 0.601166 0.481599 0.270225
O O2 0.817045 0.319115 0.295922
O O3 0.811918 0.391200 0.568319
O O4 0.969084 0.684189 0.700148
O O5 0.387118 0.246861 0.702465
O O6 0.541825 0.311176 0.634910
O O7 0.709538 0.551436 0.120508
O O8 0.984898 0.876659 0.612047
O O9 0.762760 0.883352 0.256074
O O10 0.001675 0.198835 0.686449
O O11 0.691239 0.003634 0.878579
O O12 0.704548 0.160675 0.549282
O O13 0.500000 0.000000 0.500000
O O14 0.000000 0.500000 0.000000
#
# Coordination Sequence:
#
# PCOD9030550 Si02
#       7
#     2   2   2   1   2   2   2
#     4  10  23  44  70  99 137 186 228 284 348 414
#     4  10  24  43  70  97 138 184 230 283 349 414
#     4  10  22  42  71  98 134 185 230 280 346 416
#     4  12  24  42  68 104 134 186 226 286 350 414
#     4  10  23  43  70  98 139 178 233 283 342 418
#     4  12  27  42  67 107 140 180 233 292 345 418
#     4  12  27  46  71 104 147 182 234 295 350 413
#
# _framework density 23.504259999999999
#
# number of rings (size 3 to 8) (size 9 to 14) (size 15 to 20)
#    0.000    1.231    1.538    2.769   10.769    6.154 
#    0.000    0.000    0.000    0.000    0.000    0.000 
#    0.000    0.000    0.000    0.000    0.000    0.000 
#
# Total GULP energy -72400.337469 kJ/mol
# GULP energy per Si atom -5569.256728 kJ/mol
# Density = 2.345076 g / cm^3
# Si number density = 23.504260 Si / 1000 Ang^3
#
#
#
# Elastic Constant Matrix: (Units=GPa)
#
#
# Indices 1 2 3 4 5 6 
#
# 1 135.3177 -1.4320 45.9717 19.1144 7.5757 -3.5169
# 2 -1.4320 49.7050 18.1874 13.2018 0.1196 -3.0106
# 3 45.9717 18.1874 132.0832 4.7250 -7.5760 2.3595
# 4 19.1144 13.2018 4.7250 28.5377 0.7397 2.8828
# 5 7.5757 0.1196 -7.5760 0.7397 34.7756 7.8104
# 6 -3.5169 -3.0106 2.3595 2.8828 7.8104 28.1991
#
#
#
# Elastic Compliance Matrix: (Units=1/GPa)
#
#
# Indices 1 2 3 4 5 6 
#
# 1 0.010415 0.004391 -0.004220 -0.008620 -0.003939 0.004093
# 2 0.004391 0.026378 -0.004922 -0.014870 -0.003191 0.006180
# 3 -0.004220 -0.004922 0.009859 0.003707 0.003745 -0.003293
# 4 -0.008620 -0.014870 0.003707 0.047883 0.003716 -0.008897
# 5 -0.003939 -0.003191 0.003745 0.003716 0.032741 -0.010594
# 6 0.004093 0.006180 -0.003293 -0.008897 -0.010594 0.040751
#
#
# Mechanical properties :
#
#
# Convention : Reuss Voigt Hill
#
# Bulk Modulus (GPa) = 26.91876 49.17336 38.04606
# Shear Modulus (GPa) = 26.32813 35.26107 30.79460
#
# Velocity S-wave (km/s) = 3.35048 3.87744 3.62356
# Velocity P-wave (km/s) = 5.14249 6.40410 5.80766
#
# Compressibility (1/GPa) = 0.03714881
#
# Stress axis : x y z
#
# Youngs Moduli (GPa) = 96.01819 37.91085 101.43468
#
# Poissons Ratio (x) = -0.16647 0.42807
# Poissons Ratio (y) = -0.42162 0.49925
# Poissons Ratio (z) = 0.40521 0.18659
#
# Static dielectric constant tensor:
#      x y z
#    x 1.775250 -0.076640 -0.065880 
#    y -0.076640 1.855950 -0.057480 
#    z -0.065880 -0.057480 2.034950 
# 
# From -- ./inp_files/427108.got.cif
#   From: 2010.05.17/outbox.cif.g08.bks.cpg/sg2_214_cif.got.tgz:427108.got - 2010.06.03 11:33:40.
