data_PCOD9030950
_publ_section_title
;
Structure prediction by ZEFSAII (Michael W. Deem and Ramdas Pophale) SiO2 
 PCOD9030950
Probable space group: P -1
;
_chemical_formula_sum "Si O2"
_cell_formula_units_Z 16
_cell_length_a 9.591669
_cell_length_b 10.252751
_cell_length_c 12.104128
_cell_angle_alpha 60.859128
_cell_angle_beta 110.776995
_cell_angle_gamma 69.353102
_cell_volume 744.206018
_symmetry_space_group_name_H-M "P -1"
_symmetry_group_IT_number 2
_symmetry_cell_setting 'triclinic'
loop_
_space_group_symop_operation_xyz
x,y,z
-x,-y,-z
loop_
_atom_site_type_symbol
_atom_site_label
_atom_site_fract_x
_atom_site_fract_y
_atom_site_fract_z
Si Si1 0.933724 0.501752 0.359185
Si Si2 0.609626 0.176989 0.432129
Si Si3 0.308589 0.106394 0.019486
Si Si4 0.899867 0.725073 0.876002
Si Si5 0.940559 0.110330 0.260244
Si Si6 0.363944 0.882089 0.929779
Si Si7 0.310044 0.179119 0.458300
Si Si8 0.343512 0.564300 0.771365
O O1 0.822819 0.702874 0.175924
O O2 0.786987 0.456139 0.335706
O O3 0.000000 0.500000 0.500000
O O4 0.128959 0.337393 0.415471
O O5 0.471154 0.204364 0.479630
O O6 0.541903 0.375203 0.279460
O O7 0.612144 0.037092 0.403899
O O8 0.835225 0.061511 0.573716
O O9 0.331841 0.937684 0.027998
O O10 0.214755 0.166211 0.088925
O O11 0.519695 0.048926 0.108886
O O12 0.771657 0.795805 0.699445
O O13 0.047906 0.765494 0.878575
O O14 0.000000 0.500000 0.000000
O O15 0.837349 0.028972 0.220759
O O16 0.810566 0.261752 0.259736
O O17 0.504038 0.649620 0.044634
#
# Coordination Sequence:
#
# PCOD9030950 Si02
#       8
#     2   2   2   2   2   2   2   2
#     4  11  23  42  68  95 131 172 215 265 327 396
#     4  10  23  40  65  95 133 165 218 270 319 384
#     4  10  23  44  63  97 132 172 215 264 334 382
#     4  11  20  39  70  90 130 168 216 271 315 389
#     4  11  23  40  64  99 130 166 222 274 323 381
#     4  10  24  41  63  96 130 167 222 264 326 388
#     4  10  22  43  63 100 127 169 219 258 331 388
#     4  11  22  42  63 100 127 168 224 267 325 386
#
# _framework density 21.499424999999999
#
# number of rings (size 3 to 8) (size 9 to 14) (size 15 to 20)
#    0.000    1.500    3.750    1.500    5.250    0.500 
#   18.000    0.625    0.000    0.000    0.000    0.000 
#    0.000    0.000    0.000    0.000    0.000    0.000 
#
# Total GULP energy -89375.315424 kJ/mol
# GULP energy per Si atom -5585.957214 kJ/mol
# Density = 2.145049 g / cm^3
# Si number density = 21.499425 Si / 1000 Ang^3
#
#
#
# Elastic Constant Matrix: (Units=GPa)
#
#
# Indices 1 2 3 4 5 6 
#
# 1 105.2483 24.0149 17.9395 14.4618 8.1210 4.4050
# 2 24.0149 64.2959 16.7589 20.1393 2.7144 -6.8492
# 3 17.9395 16.7589 46.0003 19.4411 4.7538 7.0797
# 4 14.4618 20.1393 19.4411 41.4512 2.5519 -2.2828
# 5 8.1210 2.7144 4.7538 2.5519 35.2313 1.6198
# 6 4.4050 -6.8492 7.0797 -2.2828 1.6198 33.1786
#
#
#
# Elastic Compliance Matrix: (Units=1/GPa)
#
#
# Indices 1 2 3 4 5 6 
#
# 1 0.010989 -0.003266 -0.002131 -0.001228 -0.001828 -0.001674
# 2 -0.003266 0.020463 -0.004196 -0.006553 -0.000018 0.005103
# 3 -0.002131 -0.004196 0.030516 -0.011832 -0.002087 -0.007807
# 4 -0.001228 -0.006553 -0.011832 0.033500 -0.000210 0.003650
# 5 -0.001828 -0.000018 -0.002087 -0.000210 0.029138 -0.000752
# 6 -0.001674 0.005103 -0.007807 0.003650 -0.000752 0.033369
#
#
# Mechanical properties :
#
#
# Convention : Reuss Voigt Hill
#
# Bulk Modulus (GPa) = 23.37271 36.99679 30.18475
# Shear Modulus (GPa) = 26.12018 32.42764 29.27391
#
# Velocity S-wave (km/s) = 3.48936 3.88790 3.69401
# Velocity P-wave (km/s) = 5.20856 6.11555 5.68019
#
# Compressibility (1/GPa) = 0.04278493
#
# Stress axis : x y z
#
# Youngs Moduli (GPa) = 90.99605 48.86758 32.76933
#
# Poissons Ratio (x) = 0.15959 0.06982
# Poissons Ratio (y) = 0.29718 0.13749
# Poissons Ratio (z) = 0.19387 0.20504
#
# Static dielectric constant tensor:
#      x y z
#    x 1.806470 0.013010 -0.019150 
#    y 0.013010 1.784820 -0.044560 
#    z -0.019150 -0.044560 1.894460 
# 
# From -- ./inp_files/381759.got.cif
#   From: 2010.05.17/outbox.cif.g08.bks.cpg/sg2_191_cif.got.tgz:381759.got - 2010.06.03 11:33:40.
