data_PCOD9030324
_publ_section_title
;
Structure prediction by ZEFSAII (Michael W. Deem and Ramdas Pophale) SiO2 
 PCOD9030324
Probable space group: P -1
;
_chemical_formula_sum "Si O2"
_cell_formula_units_Z 14
_cell_length_a 11.888389
_cell_length_b 12.127298
_cell_length_c 7.474889
_cell_angle_alpha 105.523633
_cell_angle_beta 87.953786
_cell_angle_gamma 36.630076
_cell_volume 557.638442
_symmetry_space_group_name_H-M "P -1"
_symmetry_group_IT_number 2
_symmetry_cell_setting 'triclinic'
loop_
_space_group_symop_operation_xyz
x,y,z
-x,-y,-z
loop_
_atom_site_type_symbol
_atom_site_label
_atom_site_fract_x
_atom_site_fract_y
_atom_site_fract_z
Si Si1 0.016964 0.707779 0.556157
Si Si2 0.676725 0.714669 0.447496
Si Si3 0.629350 0.054460 0.995239
Si Si4 0.346693 0.148349 0.830619
Si Si5 0.258583 0.726443 0.668455
Si Si6 0.254042 0.933636 0.500056
Si Si7 0.337651 0.730859 0.039360
O O1 0.165049 0.476667 0.504222
O O2 0.145216 0.711806 0.596663
O O3 0.817593 0.874460 0.769581
O O4 0.913157 0.821505 0.418883
O O5 0.565025 0.920034 0.628686
O O6 0.488189 0.786404 0.442884
O O7 0.773183 0.678123 0.239481
O O8 0.419286 0.170788 0.993154
O O9 0.716410 0.918208 0.108097
O O10 0.578494 0.231925 0.063614
O O11 0.500000 0.500000 0.500000
O O12 0.196408 0.896954 0.645793
O O13 0.218017 0.769347 0.902137
O O14 0.251984 0.858581 0.284534
O O15 0.500000 0.500000 0.000000
#
# Coordination Sequence:
#
# PCOD9030324 Si02
#       7
#     2   2   2   2   2   2   2
#     4  11  24  41  67  98 135 169 227 277 324 407
#     4  11  21  42  72  94 129 177 223 274 335 392
#     4  10  23  42  63  98 135 172 222 273 333 391
#     4  10  22  42  70  92 133 179 217 277 330 393
#     4  12  23  40  69  97 132 181 217 271 345 392
#     4  11  23  44  64 101 137 170 226 275 331 400
#     4  11  21  39  70  94 132 174 219 270 330 398
#
# _framework density 25.105874
#
# number of rings (size 3 to 8) (size 9 to 14) (size 15 to 20)
#    0.000    1.143    5.714    1.286    0.000    3.429 
#    0.000    1.429   12.571    0.000    0.000    0.000 
#    0.000    0.000    0.000    0.000    0.000    0.000 
#
# Total GULP energy -78177.787314 kJ/mol
# GULP energy per Si atom -5584.127665 kJ/mol
# Density = 2.504873 g / cm^3
# Si number density = 25.105874 Si / 1000 Ang^3
#
#
#
# Elastic Constant Matrix: (Units=GPa)
#
#
# Indices 1 2 3 4 5 6 
#
# 1 84.9617 22.9643 11.5048 -2.7974 -12.5570 12.6272
# 2 22.9643 208.7846 29.6009 -21.1501 -5.3932 27.8628
# 3 11.5048 29.6009 64.7788 -27.2400 4.3769 -7.7776
# 4 -2.7974 -21.1501 -27.2400 42.0272 12.3935 -6.2775
# 5 -12.5570 -5.3932 4.3769 12.3935 22.7088 -7.8293
# 6 12.6272 27.8628 -7.7776 -6.2775 -7.8293 38.7756
#
#
#
# Elastic Compliance Matrix: (Units=1/GPa)
#
#
# Indices 1 2 3 4 5 6 
#
# 1 0.015279 -0.000488 -0.007603 -0.008680 0.012823 -0.004966
# 2 -0.000488 0.005930 -0.003067 0.000275 -0.000034 -0.004679
# 3 -0.007603 -0.003067 0.032458 0.027194 -0.022200 0.011110
# 4 -0.008680 0.000275 0.027194 0.052885 -0.035576 0.009462
# 5 0.012823 -0.000034 -0.022200 -0.035576 0.075088 0.000797
# 6 -0.004966 -0.004679 0.011110 0.009462 0.000797 0.034690
#
#
# Mechanical properties :
#
#
# Convention : Reuss Voigt Hill
#
# Bulk Modulus (GPa) = 31.89708 54.07392 42.98550
# Shear Modulus (GPa) = 20.07255 40.33266 30.20260
#
# Velocity S-wave (km/s) = 2.83064 4.01247 3.47221
# Velocity P-wave (km/s) = 4.83900 6.56138 5.76488
#
# Compressibility (1/GPa) = 0.03135083
#
# Stress axis : x y z
#
# Youngs Moduli (GPa) = 65.44972 168.64724 30.80883
#
# Poissons Ratio (x) = 0.08228 0.23424
# Poissons Ratio (y) = 0.03193 0.09449
# Poissons Ratio (z) = 0.49762 0.51722
#
# Static dielectric constant tensor:
#      x y z
#    x 2.041540 0.005800 0.003180 
#    y 0.005800 2.082540 -0.059940 
#    z 0.003180 -0.059940 2.052130 
# 
# From -- ./inp_files/258963.got.cif
#   From: 2010.05.17/outbox.cif.g08.bks.cpg/sg2_130_cif.got.tgz:258963.got - 2010.06.03 11:33:40.
