data_PCOD9030289
_publ_section_title
;
Structure prediction by ZEFSAII (Michael W. Deem and Ramdas Pophale) SiO2 
 PCOD9030289
Probable space group: P -1
;
_chemical_formula_sum "Si O2"
_cell_formula_units_Z 16
_cell_length_a 16.913732
_cell_length_b 8.844368
_cell_length_c 11.800324
_cell_angle_alpha 117.500050
_cell_angle_beta 151.552145
_cell_angle_gamma 49.699250
_cell_volume 612.887644
_symmetry_space_group_name_H-M "P -1"
_symmetry_group_IT_number 2
_symmetry_cell_setting 'triclinic'
loop_
_space_group_symop_operation_xyz
x,y,z
-x,-y,-z
loop_
_atom_site_type_symbol
_atom_site_label
_atom_site_fract_x
_atom_site_fract_y
_atom_site_fract_z
Si Si1 0.651518 0.856052 0.472769
Si Si2 0.849679 0.719736 0.157352
Si Si3 0.292711 0.493384 0.728591
Si Si4 0.299525 0.532167 0.010186
Si Si5 0.657673 0.429813 0.572444
Si Si6 0.771900 0.750992 0.831748
Si Si7 0.772691 0.098510 0.289077
Si Si8 0.882204 0.976502 0.643207
O O1 0.626833 0.685422 0.325978
O O2 0.792219 0.785842 0.738269
O O3 0.439769 0.050222 0.319094
O O4 0.753408 0.912226 0.525495
O O5 0.749511 0.596011 0.011385
O O6 0.050485 0.608430 0.445984
O O7 0.709771 0.957200 0.104395
O O8 0.911540 0.715006 0.102618
O O9 0.317416 0.444419 0.876529
O O10 0.332742 0.668816 0.808926
O O11 0.508271 0.493511 0.299202
O O12 0.113864 0.776257 0.861938
O O13 0.500000 0.500000 0.500000
O O14 0.751106 0.560420 0.737531
O O15 0.830645 0.185586 0.710158
O O16 0.792888 0.054527 0.432136
O O17 0.000000 0.000000 0.500000
#
# Coordination Sequence:
#
# PCOD9030289 Si02
#       8
#     2   2   2   2   2   2   2   2
#     4  11  24  44  72 100 144 193 241 288 358 432
#     4  11  21  42  71  96 147 182 226 300 351 419
#     4  11  23  44  69 109 138 180 242 291 364 423
#     4  12  24  45  78 107 142 185 241 301 350 436
#     4  12  26  49  69 107 149 187 241 293 355 426
#     4  11  26  49  65 102 152 188 242 295 350 432
#     4  10  22  42  70 107 147 177 234 302 359 423
#     4  12  23  47  77 104 141 192 239 293 366 420
#
# _framework density 26.105924999999999
#
# number of rings (size 3 to 8) (size 9 to 14) (size 15 to 20)
#    0.000    0.750    6.250    1.875    0.000    4.000 
#    2.250    4.375    0.000    0.000    0.000    0.000 
#    0.000    0.000    0.000    0.000    0.000    0.000 
#
# Total GULP energy -89688.219820 kJ/mol
# GULP energy per Si atom -5605.513739 kJ/mol
# Density = 2.604651 g / cm^3
# Si number density = 26.105925 Si / 1000 Ang^3
#
#
#
# Elastic Constant Matrix: (Units=GPa)
#
#
# Indices 1 2 3 4 5 6 
#
# 1 157.9058 30.3053 13.2617 -0.4617 -35.4675 7.1700
# 2 30.3053 201.9656 16.9947 0.3729 -0.0801 -12.0786
# 3 13.2617 16.9947 82.1498 -0.8137 -30.7460 -1.7438
# 4 -0.4617 0.3729 -0.8137 42.3233 -7.0647 0.3161
# 5 -35.4675 -0.0801 -30.7460 -7.0647 39.4186 -8.0669
# 6 7.1700 -12.0786 -1.7438 0.3161 -8.0669 45.3733
#
#
#
# Elastic Compliance Matrix: (Units=1/GPa)
#
#
# Indices 1 2 3 4 5 6 
#
# 1 0.008734 -0.001539 0.002840 0.001906 0.010446 0.000163
# 2 -0.001539 0.005407 -0.001859 -0.000558 -0.002691 0.001137
# 3 0.002840 -0.001859 0.019252 0.003539 0.018841 0.003121
# 4 0.001906 -0.000558 0.003539 0.025255 0.009236 0.001153
# 5 0.010446 -0.002691 0.018841 0.009236 0.052681 0.007659
# 6 0.000163 0.001137 0.003121 0.001153 0.007659 0.023790
#
#
# Mechanical properties :
#
#
# Convention : Reuss Voigt Hill
#
# Bulk Modulus (GPa) = 30.98098 62.57163 46.77631
# Shear Modulus (GPa) = 34.01550 50.85366 42.43458
#
# Velocity S-wave (km/s) = 3.61360 4.41837 4.03609
# Velocity P-wave (km/s) = 5.41331 7.07459 6.29896
#
# Compressibility (1/GPa) = 0.03227787
#
# Stress axis : x y z
#
# Youngs Moduli (GPa) = 114.49218 184.95830 51.94326
#
# Poissons Ratio (x) = 0.28469 -0.14754
# Poissons Ratio (y) = 0.17623 0.09654
# Poissons Ratio (z) = -0.32520 0.34376
#
# Static dielectric constant tensor:
#      x y z
#    x 2.007910 -0.031590 0.037490 
#    y -0.031590 2.120130 -0.003280 
#    z 0.037490 -0.003280 2.215870 
# 
# From -- ./inp_files/462378.got.cif
#   From: 2010.05.17/outbox.cif.g08.bks.cpg/sg2_232_cif.got.tgz:462378.got - 2010.06.03 11:33:40.
