data_PCOD9030463
_publ_section_title
;
Structure prediction by ZEFSAII (Michael W. Deem and Ramdas Pophale) SiO2 
 PCOD9030463
Probable space group: P -1
;
_chemical_formula_sum "Si O2"
_cell_formula_units_Z 14
_cell_length_a 18.819597
_cell_length_b 14.427466
_cell_length_c 6.425127
_cell_angle_alpha 140.001255
_cell_angle_beta 50.864385
_cell_angle_gamma 144.590953
_cell_volume 649.608803
_symmetry_space_group_name_H-M "P -1"
_symmetry_group_IT_number 2
_symmetry_cell_setting 'triclinic'
loop_
_space_group_symop_operation_xyz
x,y,z
-x,-y,-z
loop_
_atom_site_type_symbol
_atom_site_label
_atom_site_fract_x
_atom_site_fract_y
_atom_site_fract_z
Si Si1 0.496710 0.545120 0.835087
Si Si2 0.644794 0.970171 0.232666
Si Si3 0.236618 0.557733 0.783530
Si Si4 0.902204 0.327534 0.543317
Si Si5 0.592556 0.134011 0.323225
Si Si6 0.948869 0.787206 0.778859
Si Si7 0.270615 0.485959 0.027430
O O1 0.500000 0.500000 0.500000
O O2 0.500000 0.500000 0.000000
O O3 0.610566 0.773021 0.007010
O O4 0.363119 0.478888 0.960184
O O5 0.543652 0.955157 0.527421
O O6 0.784204 0.146406 0.327198
O O7 0.610323 0.985377 0.088386
O O8 0.353611 0.753867 0.796873
O O9 0.153629 0.371906 0.470149
O O10 0.149515 0.596299 0.089282
O O11 0.286590 0.513013 0.799998
O O12 0.000000 0.500000 0.500000
O O13 0.957181 0.248321 0.430489
O O14 0.686712 0.313088 0.618423
O O15 0.868839 0.701123 0.990247
O O16 0.000000 0.000000 0.000000
#
# Coordination Sequence:
#
# PCOD9030463 Si02
#       7
#     2   2   2   2   2   2   2
#     4  11  28  47  70 106 149 190 239 301 372 448
#     4  10  22  42  71 101 139 179 235 301 364 437
#     4  11  22  43  76  96 139 190 235 309 366 431
#     4  12  23  45  69 101 143 184 243 306 356 440
#     4   9  20  42  67 104 130 167 237 295 376 424
#     4  11  26  43  66  99 141 191 245 293 368 446
#     4  10  22  45  68  96 140 182 231 306 361 433
#
# _framework density 21.55143
#
# number of rings (size 3 to 8) (size 9 to 14) (size 15 to 20)
#    0.000    1.429    2.857    1.286    8.000    2.286 
#    2.571    0.000    0.000    0.000    0.000    0.000 
#    0.000    0.000    0.000    0.000    0.000    0.000 
#
# Total GULP energy -77938.655769 kJ/mol
# GULP energy per Si atom -5567.046841 kJ/mol
# Density = 2.150238 g / cm^3
# Si number density = 21.551430 Si / 1000 Ang^3
#
#
#
# Elastic Constant Matrix: (Units=GPa)
#
#
# Indices 1 2 3 4 5 6 
#
# 1 139.1723 46.8554 16.5809 -1.9846 5.8311 -23.6819
# 2 46.8554 171.1671 31.3767 2.8593 6.3799 -10.8253
# 3 16.5809 31.3767 46.6319 4.4324 9.1400 -14.1881
# 4 -1.9846 2.8593 4.4324 32.6278 -2.0170 3.4512
# 5 5.8311 6.3799 9.1400 -2.0170 27.6040 -6.5202
# 6 -23.6819 -10.8253 -14.1881 3.4512 -6.5202 45.8301
#
#
#
# Elastic Compliance Matrix: (Units=1/GPa)
#
#
# Indices 1 2 3 4 5 6 
#
# 1 0.008576 -0.002008 -0.000549 0.000362 -0.000260 0.003723
# 2 -0.002008 0.007136 -0.004288 -0.000092 0.000030 -0.000668
# 3 -0.000549 -0.004288 0.028435 -0.004680 -0.007030 0.006858
# 4 0.000362 -0.000092 -0.004680 0.031847 0.003055 -0.003247
# 5 -0.000260 0.000030 -0.007030 0.003055 0.039556 0.003094
# 6 0.003723 -0.000668 0.006858 -0.003247 0.003094 0.026394
#
#
# Mechanical properties :
#
#
# Convention : Reuss Voigt Hill
#
# Bulk Modulus (GPa) = 32.83345 60.73304 46.78324
# Shear Modulus (GPa) = 30.15924 38.68959 34.42442
#
# Velocity S-wave (km/s) = 3.74492 4.24160 4.00098
# Velocity P-wave (km/s) = 5.82815 7.22703 6.56495
#
# Compressibility (1/GPa) = 0.03045675
#
# Stress axis : x y z
#
# Youngs Moduli (GPa) = 116.59939 140.13250 35.16845
#
# Poissons Ratio (x) = 0.28138 0.01931
# Poissons Ratio (y) = 0.23412 0.15080
# Poissons Ratio (z) = 0.06403 0.60090
#
# Static dielectric constant tensor:
#      x y z
#    x 1.829310 -0.069540 -0.013420 
#    y -0.069540 1.815600 -0.026630 
#    z -0.013420 -0.026630 1.908660 
# 
# From -- ./inp_files/84369.got.cif
#   From: 2010.05.17/outbox.cif.g08.bks.cpg/sg2_43_cif.got.tgz:84369.got - 2010.06.03 11:33:40.
