data_PCOD9030106
_publ_section_title
;
Structure prediction by ZEFSAII (Michael W. Deem and Ramdas Pophale) SiO2 
 PCOD9030106
Probable space group: P -1
;
_chemical_formula_sum "Si O2"
_cell_formula_units_Z 16
_cell_length_a 21.157754
_cell_length_b 6.784456
_cell_length_c 9.275072
_cell_angle_alpha 127.464970
_cell_angle_beta 64.817418
_cell_angle_gamma 133.742844
_cell_volume 763.421001
_symmetry_space_group_name_H-M "P -1"
_symmetry_group_IT_number 2
_symmetry_cell_setting 'triclinic'
loop_
_space_group_symop_operation_xyz
x,y,z
-x,-y,-z
loop_
_atom_site_type_symbol
_atom_site_label
_atom_site_fract_x
_atom_site_fract_y
_atom_site_fract_z
Si Si1 0.056438 0.902592 0.973717
Si Si2 0.974654 0.735383 0.290076
Si Si3 0.507997 0.728834 0.213432
Si Si4 0.255528 0.258938 0.970666
Si Si5 0.646042 0.351413 0.197318
Si Si6 0.773034 0.375770 0.290242
Si Si7 0.322602 0.558030 0.332529
Si Si8 0.409409 0.241085 0.547710
O O1 0.030742 0.568882 0.794005
O O2 0.036169 0.868102 0.149231
O O3 0.160877 0.158116 0.970325
O O4 0.000000 0.000000 0.000000
O O5 0.876646 0.596779 0.274741
O O6 0.000000 0.000000 0.500000
O O7 0.411565 0.601002 0.302840
O O8 0.563700 0.764481 0.314337
O O9 0.558717 0.052722 0.220078
O O10 0.500000 0.500000 0.000000
O O11 0.269285 0.305636 0.148777
O O12 0.335431 0.576600 0.958257
O O13 0.253465 0.963961 0.800836
O O14 0.723367 0.352153 0.185199
O O15 0.649544 0.644758 0.370474
O O16 0.737242 0.486346 0.496228
O O17 0.360335 0.896666 0.384203
O O18 0.500000 0.500000 0.500000
#
# Coordination Sequence:
#
# PCOD9030106 Si02
#       8
#     2   2   2   2   2   2   2   2
#     4  10  22  44  67  97 136 167 212 271 328 392
#     4  10  22  42  69  97 130 171 214 265 330 398
#     4  12  26  42  64  92 127 173 217 262 316 381
#     4  11  25  42  65  96 127 168 214 264 319 383
#     4  12  22  42  62  88 131 165 214 262 318 368
#     4  11  23  44  65  93 130 165 213 269 316 380
#     4  12  23  43  63  90 130 165 216 264 313 377
#     4  12  24  41  61  89 124 169 214 263 318 368
#
# _framework density 20.958290000000002
#
# number of rings (size 3 to 8) (size 9 to 14) (size 15 to 20)
#    0.000    0.750    3.750    4.125    1.750    1.500 
#    4.500    0.000    0.000    0.000    0.000    0.000 
#    0.000    0.000    0.000    0.000    0.000    0.000 
#
# Total GULP energy -89321.660706 kJ/mol
# GULP energy per Si atom -5582.603794 kJ/mol
# Density = 2.091059 g / cm^3
# Si number density = 20.958290 Si / 1000 Ang^3
#
#
#
# Elastic Constant Matrix: (Units=GPa)
#
#
# Indices 1 2 3 4 5 6 
#
# 1 114.2827 -0.1552 5.3819 8.9975 -23.4539 -3.3564
# 2 -0.1552 58.3502 9.6351 -9.5843 -4.2196 -3.1401
# 3 5.3819 9.6351 93.1493 0.3247 -7.5600 -3.0014
# 4 8.9975 -9.5843 0.3247 31.2426 1.9739 -4.3512
# 5 -23.4539 -4.2196 -7.5600 1.9739 30.9459 -1.6735
# 6 -3.3564 -3.1401 -3.0014 -4.3512 -1.6735 26.4968
#
#
#
# Elastic Compliance Matrix: (Units=1/GPa)
#
#
# Indices 1 2 3 4 5 6 
#
# 1 0.010805 0.000140 0.000110 -0.003417 0.008527 0.001375
# 2 0.000140 0.018727 -0.001699 0.006035 0.002031 0.003164
# 3 0.000110 -0.001699 0.011162 -0.000680 0.002683 0.001134
# 4 -0.003417 0.006035 -0.000680 0.035912 -0.003907 0.005856
# 5 0.008527 0.002031 0.002683 -0.003907 0.040149 0.003519
# 6 0.001375 0.003164 0.001134 0.005856 0.003519 0.039602
#
#
# Mechanical properties :
#
#
# Convention : Reuss Voigt Hill
#
# Bulk Modulus (GPa) = 26.45951 32.83398 29.64675
# Shear Modulus (GPa) = 29.09442 34.46509 31.77975
#
# Velocity S-wave (km/s) = 3.72991 4.05959 3.89824
# Velocity P-wave (km/s) = 5.58586 6.13792 5.86839
#
# Compressibility (1/GPa) = 0.03779360
#
# Stress axis : x y z
#
# Youngs Moduli (GPa) = 92.55283 53.39821 89.59314
#
# Poissons Ratio (x) = -0.00748 -0.00981
# Poissons Ratio (y) = -0.01296 0.15226
# Poissons Ratio (z) = -0.01014 0.09075
#
# Static dielectric constant tensor:
#      x y z
#    x 1.754930 0.006640 -0.015090 
#    y 0.006640 1.775990 -0.021720 
#    z -0.015090 -0.021720 1.774470 
# 
# From -- ./inp_files/340662.got.cif
#   From: 2010.05.17/outbox.cif.g08.bks.cpg/sg2_171_cif.got.tgz:340662.got - 2010.06.03 11:33:40.
