data_PCOD9030785
_publ_section_title
;
Structure prediction by ZEFSAII (Michael W. Deem and Ramdas Pophale) SiO2 
 PCOD9030785
Probable space group: P -1
;
_chemical_formula_sum "Si O2"
_cell_formula_units_Z 12
_cell_length_a 6.613923
_cell_length_b 20.096554
_cell_length_c 10.169855
_cell_angle_alpha 31.808857
_cell_angle_beta 69.179929
_cell_angle_gamma 52.678538
_cell_volume 523.816151
_symmetry_space_group_name_H-M "P -1"
_symmetry_group_IT_number 2
_symmetry_cell_setting 'triclinic'
loop_
_space_group_symop_operation_xyz
x,y,z
-x,-y,-z
loop_
_atom_site_type_symbol
_atom_site_label
_atom_site_fract_x
_atom_site_fract_y
_atom_site_fract_z
Si Si1 0.157481 0.034539 0.221381
Si Si2 0.212803 0.545397 0.026814
Si Si3 0.251342 0.252999 0.396984
Si Si4 0.054246 0.354833 0.815395
Si Si5 0.400396 0.922240 0.751384
Si Si6 0.786372 0.965303 0.094036
O O1 0.889032 0.040814 0.280149
O O2 0.631149 0.031883 0.160311
O O3 0.070172 0.208688 0.990717
O O4 0.286802 0.994949 0.109424
O O5 0.951101 0.702897 0.751642
O O6 0.500000 0.500000 0.000000
O O7 0.216584 0.403738 0.208646
O O8 0.179865 0.565143 0.155990
O O9 0.126965 0.209561 0.614456
O O10 0.576789 0.122603 0.504911
O O11 0.000000 0.500000 0.500000
O O12 0.341879 0.265439 0.979362
O O13 0.500000 0.000000 0.500000
O O14 0.000000 0.000000 0.000000
#
# Coordination Sequence:
#
# PCOD9030785 Si02
#       6
#     2   2   2   2   2   2
#     4  11  26  45  82 104 143 195 249 300 363 441
#     4  11  29  46  73 104 151 193 239 306 369 434
#     4  11  24  47  74 109 138 194 252 292 364 440
#     4  12  28  47  71 110 151 187 243 310 369 428
#     4  11  26  46  74 113 146 188 249 307 358 433
#     4  10  22  42  74 105 137 187 240 300 354 429
#
# _framework density 22.908799999999999
#
# number of rings (size 3 to 8) (size 9 to 14) (size 15 to 20)
#    0.000    1.000    1.667    2.500    9.333    6.667 
#    0.000    0.000    0.000    0.000    0.000    0.000 
#    0.000    0.000    0.000    0.000    0.000    0.000 
#
# Total GULP energy -66823.045566 kJ/mol
# GULP energy per Si atom -5568.587131 kJ/mol
# Density = 2.285666 g / cm^3
# Si number density = 22.908800 Si / 1000 Ang^3
#
#
#
# Elastic Constant Matrix: (Units=GPa)
#
#
# Indices 1 2 3 4 5 6 
#
# 1 144.7302 58.9253 72.0760 3.9781 -6.8485 -21.4864
# 2 58.9253 161.3042 52.5746 19.3064 -1.3807 -13.7372
# 3 72.0760 52.5746 141.2636 14.4106 3.6544 -23.6701
# 4 3.9781 19.3064 14.4106 40.2067 -0.6874 -8.2337
# 5 -6.8485 -1.3807 3.6544 -0.6874 36.5902 3.1657
# 6 -21.4864 -13.7372 -23.6701 -8.2337 3.1657 45.6405
#
#
#
# Elastic Compliance Matrix: (Units=1/GPa)
#
#
# Indices 1 2 3 4 5 6 
#
# 1 0.010424 -0.002458 -0.004317 0.002178 0.002142 0.002173
# 2 -0.002458 0.007911 -0.001382 -0.003070 -0.000078 -0.000041
# 3 -0.004317 -0.001382 0.010539 -0.002155 -0.002194 0.002781
# 4 0.002178 -0.003070 -0.002155 0.027720 0.000687 0.003937
# 5 0.002142 -0.000078 -0.002194 0.000687 0.028131 -0.001980
# 6 0.002173 -0.000041 0.002781 0.003937 -0.001980 0.025211
#
#
# Mechanical properties :
#
#
# Convention : Reuss Voigt Hill
#
# Bulk Modulus (GPa) = 79.62261 90.49441 85.05851
# Shear Modulus (GPa) = 38.33261 42.06896 40.20079
#
# Velocity S-wave (km/s) = 4.09500 4.28993 4.19360
# Velocity P-wave (km/s) = 7.56244 8.00786 7.78834
#
# Compressibility (1/GPa) = 0.01255925
#
# Stress axis : x y z
#
# Youngs Moduli (GPa) = 95.92863 126.40456 94.88985
#
# Poissons Ratio (x) = 0.31073 0.40968
# Poissons Ratio (y) = 0.23581 0.13112
# Poissons Ratio (z) = 0.41416 0.17466
#
# Static dielectric constant tensor:
#      x y z
#    x 1.913790 0.063310 0.029600 
#    y 0.063310 1.960540 -0.046780 
#    z 0.029600 -0.046780 2.020570 
# 
# From -- ./inp_files/370249.got.cif
#   From: 2010.05.17/outbox.cif.g08.bks.cpg/sg2_186_cif.got.tgz:370249.got - 2010.06.03 11:33:40.
