data_PCOD9030831
_publ_section_title
;
Structure prediction by ZEFSAII (Michael W. Deem and Ramdas Pophale) SiO2 
 PCOD9030831
Probable space group: P -1
;
_chemical_formula_sum "Si O2"
_cell_formula_units_Z 12
_cell_length_a 9.805086
_cell_length_b 6.976252
_cell_length_c 10.376930
_cell_angle_alpha 120.756422
_cell_angle_beta 84.172282
_cell_angle_gamma 62.518687
_cell_volume 485.223685
_symmetry_space_group_name_H-M "P -1"
_symmetry_group_IT_number 2
_symmetry_cell_setting 'triclinic'
loop_
_space_group_symop_operation_xyz
x,y,z
-x,-y,-z
loop_
_atom_site_type_symbol
_atom_site_label
_atom_site_fract_x
_atom_site_fract_y
_atom_site_fract_z
Si Si1 0.601668 0.436873 0.836477
Si Si2 0.029681 0.701084 0.271894
Si Si3 0.934465 0.306357 0.154687
Si Si4 0.483631 0.304936 0.336921
Si Si5 0.442844 0.177071 0.693617
Si Si6 0.098438 0.717789 0.559743
O O1 0.783870 0.379275 0.810356
O O2 0.503000 0.649936 0.799720
O O3 0.604152 0.178413 0.705172
O O4 0.500000 0.500000 0.000000
O O5 0.007221 0.745009 0.444392
O O6 0.010847 0.464956 0.149200
O O7 0.896708 0.015566 0.340716
O O8 0.732372 0.520023 0.213920
O O9 0.969928 0.286473 0.297586
O O10 0.000000 0.000000 0.000000
O O11 0.500000 0.500000 0.500000
O O12 0.285905 0.435384 0.424764
O O13 0.588398 0.983431 0.253230
O O14 0.500000 0.000000 0.500000
#
# Coordination Sequence:
#
# PCOD9030831 Si02
#       6
#     2   2   2   2   2   2
#     4  11  27  49  70 114 152 194 248 316 377 435
#     4  10  25  46  76 104 149 200 248 302 377 454
#     4  12  27  47  74 113 152 192 246 317 379 440
#     4  11  21  44  79 108 142 198 252 304 366 446
#     4  12  25  47  77 106 150 199 257 304 368 458
#     4  10  22  42  75 109 143 190 256 298 370 448
#
# _framework density 24.730862999999999
#
# number of rings (size 3 to 8) (size 9 to 14) (size 15 to 20)
#    0.000    1.000    3.333    1.500    7.000    4.000 
#    6.000    0.000    0.000    0.000    0.000    0.000 
#    0.000    0.000    0.000    0.000    0.000    0.000 
#
# Total GULP energy -67061.241295 kJ/mol
# GULP energy per Si atom -5588.436775 kJ/mol
# Density = 2.467457 g / cm^3
# Si number density = 24.730863 Si / 1000 Ang^3
#
#
#
# Elastic Constant Matrix: (Units=GPa)
#
#
# Indices 1 2 3 4 5 6 
#
# 1 127.1206 27.9638 40.8484 21.4384 -3.8434 30.3859
# 2 27.9638 156.5068 58.1813 11.3962 -9.4572 14.1142
# 3 40.8484 58.1813 114.2022 5.4193 -12.3146 18.7296
# 4 21.4384 11.3962 5.4193 65.1550 6.8189 1.3086
# 5 -3.8434 -9.4572 -12.3146 6.8189 22.9740 14.7300
# 6 30.3859 14.1142 18.7296 1.3086 14.7300 39.4661
#
#
#
# Elastic Compliance Matrix: (Units=1/GPa)
#
#
# Indices 1 2 3 4 5 6 
#
# 1 0.012595 0.000442 -0.000911 -0.005143 0.012172 -0.013795
# 2 0.000442 0.008199 -0.003251 -0.001695 0.004316 -0.003285
# 3 -0.000911 -0.003251 0.013561 -0.001328 0.011930 -0.008980
# 4 -0.005143 -0.001695 -0.001328 0.018730 -0.014147 0.009855
# 5 0.012172 0.004316 0.011930 -0.014147 0.089735 -0.049599
# 6 -0.013795 -0.003285 -0.008980 0.009855 -0.049599 0.059581
#
#
# Mechanical properties :
#
#
# Convention : Reuss Voigt Hill
#
# Bulk Modulus (GPa) = 37.15360 72.42405 54.78882
# Shear Modulus (GPa) = 22.85060 43.57476 33.21268
#
# Velocity S-wave (km/s) = 3.04299 4.20212 3.66862
# Velocity P-wave (km/s) = 5.23471 7.27271 6.33618
#
# Compressibility (1/GPa) = 0.02691529
#
# Stress axis : x y z
#
# Youngs Moduli (GPa) = 79.39743 121.95937 73.74237
#
# Poissons Ratio (x) = -0.05397 0.06721
# Poissons Ratio (y) = -0.03513 0.23974
# Poissons Ratio (z) = 0.07236 0.39649
#
# Static dielectric constant tensor:
#      x y z
#    x 1.956140 0.076140 -0.092890 
#    y 0.076140 1.974030 0.110590 
#    z -0.092890 0.110590 1.648410 
# 
# From -- ./inp_files/408070.got.cif
#   From: 2010.05.17/outbox.cif.g08.bks.cpg/sg2_205_cif.got.tgz:408070.got - 2010.06.03 11:33:40.
