data_PCOD9030053
_publ_section_title
;
Structure prediction by ZEFSAII (Michael W. Deem and Ramdas Pophale) SiO2 
 PCOD9030053
Probable space group: P -1
;
_chemical_formula_sum "Si O2"
_cell_formula_units_Z 16
_cell_length_a 9.599470
_cell_length_b 11.189712
_cell_length_c 9.668326
_cell_angle_alpha 76.406057
_cell_angle_beta 44.338387
_cell_angle_gamma 74.642520
_cell_volume 698.297638
_symmetry_space_group_name_H-M "P -1"
_symmetry_group_IT_number 2
_symmetry_cell_setting 'triclinic'
loop_
_space_group_symop_operation_xyz
x,y,z
-x,-y,-z
loop_
_atom_site_type_symbol
_atom_site_label
_atom_site_fract_x
_atom_site_fract_y
_atom_site_fract_z
Si Si1 0.262961 0.995134 0.688293
Si Si2 0.190089 0.487988 0.768773
Si Si3 0.829461 0.086354 0.926052
Si Si4 0.797533 0.233401 0.395569
Si Si5 0.488340 0.662268 0.220441
Si Si6 0.796877 0.546160 0.548861
Si Si7 0.564419 0.755591 0.845965
Si Si8 0.838540 0.924799 0.705373
O O1 0.069954 0.091233 0.742884
O O2 0.500000 0.000000 0.500000
O O3 0.229898 0.866677 0.673184
O O4 0.213729 0.989009 0.886442
O O5 0.241317 0.627341 0.672118
O O6 0.358042 0.400697 0.757634
O O7 0.162323 0.436926 0.647905
O O8 0.000000 0.500000 0.000000
O O9 0.761655 0.010667 0.864896
O O10 0.675844 0.212796 0.012937
O O11 0.647841 0.225912 0.633302
O O12 0.023166 0.199093 0.301777
O O13 0.340914 0.563105 0.314905
O O14 0.587013 0.699399 0.999546
O O15 0.674504 0.665388 0.677555
O O16 0.000000 0.500000 0.500000
O O17 0.668831 0.880638 0.742393
O O18 0.000000 0.000000 0.500000
#
# Coordination Sequence:
#
# PCOD9030053 Si02
#       8
#     2   2   2   2   2   2   2   2
#     4  10  24  46  69 102 144 181 240 301 349 428
#     4  11  24  46  70 100 138 186 237 295 354 437
#     4  10  25  43  67 104 138 184 245 287 357 427
#     4  10  22  42  69  94 132 184 232 280 362 421
#     4  11  24  44  69 100 140 180 237 291 361 433
#     4  11  24  45  68 105 143 183 242 299 352 427
#     4  12  25  42  73 102 142 186 235 303 360 419
#     4  11  24  44  66  98 140 185 234 290 356 430
#
# _framework density 22.912869000000001
#
# number of rings (size 3 to 8) (size 9 to 14) (size 15 to 20)
#    0.000    1.250    0.000    6.000    8.750    0.000 
#    4.500    0.000    0.000    0.000    0.000    0.000 
#    0.000    0.000    0.000    0.000    0.000    0.000 
#
# Total GULP energy -89476.052358 kJ/mol
# GULP energy per Si atom -5592.253272 kJ/mol
# Density = 2.286072 g / cm^3
# Si number density = 22.912869 Si / 1000 Ang^3
#
#
#
# Elastic Constant Matrix: (Units=GPa)
#
#
# Indices 1 2 3 4 5 6 
#
# 1 135.9238 36.3236 64.2955 11.6505 -15.8345 -12.9357
# 2 36.3236 54.7383 50.8520 23.9489 0.5865 -5.9913
# 3 64.2955 50.8520 178.7252 21.8449 -1.4993 10.6265
# 4 11.6505 23.9489 21.8449 47.3734 -2.8483 -3.1457
# 5 -15.8345 0.5865 -1.4993 -2.8483 48.5622 8.3163
# 6 -12.9357 -5.9913 10.6265 -3.1457 8.3163 40.3257
#
#
#
# Elastic Compliance Matrix: (Units=1/GPa)
#
#
# Indices 1 2 3 4 5 6 
#
# 1 0.010398 -0.004733 -0.002717 0.001455 0.002961 0.002851
# 2 -0.004733 0.033778 -0.006685 -0.012721 -0.003768 0.005047
# 3 -0.002717 -0.006685 0.008760 -0.000262 0.000174 -0.004229
# 4 0.001455 -0.012721 -0.000262 0.027456 0.002172 0.000340
# 5 0.002961 -0.003768 0.000174 0.002172 0.022440 -0.004114
# 6 0.002851 0.005047 -0.004229 0.000340 -0.004114 0.028452
#
#
# Mechanical properties :
#
#
# Convention : Reuss Voigt Hill
#
# Bulk Modulus (GPa) = 40.54015 74.70328 57.62171
# Shear Modulus (GPa) = 29.80168 41.78000 35.79084
#
# Velocity S-wave (km/s) = 3.61037 4.27480 3.95655
# Velocity P-wave (km/s) = 5.92548 7.55243 6.78787
#
# Compressibility (1/GPa) = 0.02466691
#
# Stress axis : x y z
#
# Youngs Moduli (GPa) = 96.16786 29.60503 114.16152
#
# Poissons Ratio (x) = 0.14012 0.31015
# Poissons Ratio (y) = 0.45515 0.76317
# Poissons Ratio (z) = 0.26127 0.19791
#
# Static dielectric constant tensor:
#      x y z
#    x 1.899530 -0.060630 -0.041980 
#    y -0.060630 1.843060 -0.010250 
#    z -0.041980 -0.010250 1.899920 
# 
# From -- ./inp_files/187233.got.cif
#   From: 2010.05.17/outbox.cif.g08.bks.cpg/sg2_94_cif.got.tgz:187233.got - 2010.06.03 11:33:40.
