data_PCOD9030604
_publ_section_title
;
Structure prediction by ZEFSAII (Michael W. Deem and Ramdas Pophale) SiO2 
 PCOD9030604
Probable space group: P -1
;
_chemical_formula_sum "Si O2"
_cell_formula_units_Z 15
_cell_length_a 8.878272
_cell_length_b 10.007366
_cell_length_c 16.169705
_cell_angle_alpha 134.477928
_cell_angle_beta 105.005516
_cell_angle_gamma 43.921870
_cell_volume 617.235863
_symmetry_space_group_name_H-M "P -1"
_symmetry_group_IT_number 2
_symmetry_cell_setting 'triclinic'
loop_
_space_group_symop_operation_xyz
x,y,z
-x,-y,-z
loop_
_atom_site_type_symbol
_atom_site_label
_atom_site_fract_x
_atom_site_fract_y
_atom_site_fract_z
Si Si1 0.118132 0.129791 0.306384
Si Si2 0.227153 0.853010 0.664787
Si Si3 0.460012 0.889841 0.851750
Si Si4 0.766240 0.088007 0.490221
Si Si5 0.980307 0.547686 0.717421
Si Si6 0.713964 0.563222 0.912367
Si Si7 0.476412 0.213605 0.642561
Si Si8 0.500000 0.500000 0.000000
O O1 0.334501 0.966354 0.332792
O O2 0.887339 0.239949 0.364653
O O3 0.041821 0.384041 0.353608
O O4 0.251056 0.863878 0.145576
O O5 0.340617 0.764760 0.550751
O O6 0.972561 0.217954 0.779007
O O7 0.390255 0.806641 0.736206
O O8 0.704091 0.782229 0.814150
O O9 0.530554 0.729333 0.878851
O O10 0.250826 0.246997 0.985923
O O11 0.889727 0.767728 0.375157
O O12 0.568706 0.281113 0.620150
O O13 0.000000 0.000000 0.500000
O O14 0.189797 0.501518 0.756206
O O15 0.594815 0.568019 0.974872
O O16 0.500000 0.000000 0.500000
#
# Coordination Sequence:
#
# PCOD9030604 Si02
#       8
#     2   2   2   2   2   2   2   1
#     4  11  24  46  66 105 138 178 234 279 354 420
#     4  11  24  43  69  98 142 180 224 289 348 406
#     4  11  23  43  69 103 136 181 233 276 343 422
#     4  11  23  47  69  99 136 184 230 295 350 398
#     4  11  25  43  70  96 136 184 227 282 342 420
#     4  10  22  43  68 101 142 178 228 280 344 417
#     4  10  25  45  70  96 141 184 231 292 346 402
#     4  10  22  42  72 102 142 178 214 296 346 410
#
# _framework density 24.301891999999999
#
# number of rings (size 3 to 8) (size 9 to 14) (size 15 to 20)
#    0.000    1.333    4.000    0.400    3.733    5.333 
#    9.600    4.667    0.000    0.000    0.000    0.000 
#    0.000    0.000    0.000    0.000    0.000    0.000 
#
# Total GULP energy -83643.136469 kJ/mol
# GULP energy per Si atom -5576.209098 kJ/mol
# Density = 2.424658 g / cm^3
# Si number density = 24.301892 Si / 1000 Ang^3
#
#
#
# Elastic Constant Matrix: (Units=GPa)
#
#
# Indices 1 2 3 4 5 6 
#
# 1 115.4372 41.0176 20.4752 -20.3085 -20.0514 -1.9896
# 2 41.0176 149.8598 14.1812 -22.7777 2.4737 7.7779
# 3 20.4752 14.1812 32.4021 -9.8664 -2.7511 6.7687
# 4 -20.3085 -22.7777 -9.8664 34.5671 -3.7409 2.1098
# 5 -20.0514 2.4737 -2.7511 -3.7409 38.6908 -0.5920
# 6 -1.9896 7.7779 6.7687 2.1098 -0.5920 51.4401
#
#
#
# Elastic Compliance Matrix: (Units=1/GPa)
#
#
# Indices 1 2 3 4 5 6 
#
# 1 0.012470 -0.002362 -0.005044 0.004977 0.006757 0.001377
# 2 -0.002362 0.008036 -0.000761 0.003616 -0.001464 -0.001371
# 3 -0.005044 -0.000761 0.037945 0.007781 0.000802 -0.005383
# 4 0.004977 0.003616 0.007781 0.037329 0.006467 -0.002835
# 5 0.006757 -0.001464 0.000802 0.006467 0.030131 0.000459
# 6 0.001377 -0.001371 -0.005383 -0.002835 0.000459 0.020531
#
#
# Mechanical properties :
#
#
# Convention : Reuss Voigt Hill
#
# Bulk Modulus (GPa) = 23.74448 49.89413 36.81930
# Shear Modulus (GPa) = 28.27800 39.74128 34.00964
#
# Velocity S-wave (km/s) = 3.41488 4.04829 3.74500
# Velocity P-wave (km/s) = 5.03392 6.51361 5.82097
#
# Compressibility (1/GPa) = 0.04211504
#
# Stress axis : x y z
#
# Youngs Moduli (GPa) = 80.19353 124.43355 26.35414
#
# Poissons Ratio (x) = 0.29394 0.13294
# Poissons Ratio (y) = 0.18944 0.02006
# Poissons Ratio (z) = 0.40453 0.09473
#
# Static dielectric constant tensor:
#      x y z
#    x 1.910280 -0.037440 -0.023810 
#    y -0.037440 1.958860 0.058060 
#    z -0.023810 0.058060 2.050030 
# 
# From -- ./inp_files/479732.got.cif
#   From: 2010.05.17/outbox.cif.g08.bks.cpg/sg2_240_cif.got.tgz:479732.got - 2010.06.03 11:33:40.
