data_PCOD9030336
_publ_section_title
;
Structure prediction by ZEFSAII (Michael W. Deem and Ramdas Pophale) SiO2 
 PCOD9030336
Probable space group: P -1
;
_chemical_formula_sum "Si O2"
_cell_formula_units_Z 16
_cell_length_a 11.563110
_cell_length_b 9.178635
_cell_length_c 10.726816
_cell_angle_alpha 43.682225
_cell_angle_beta 110.419339
_cell_angle_gamma 101.608288
_cell_volume 734.590453
_symmetry_space_group_name_H-M "P -1"
_symmetry_group_IT_number 2
_symmetry_cell_setting 'triclinic'
loop_
_space_group_symop_operation_xyz
x,y,z
-x,-y,-z
loop_
_atom_site_type_symbol
_atom_site_label
_atom_site_fract_x
_atom_site_fract_y
_atom_site_fract_z
Si Si1 0.949373 0.382717 0.308615
Si Si2 0.228916 0.788118 0.471842
Si Si3 0.155139 0.765498 0.887933
Si Si4 0.052776 0.120380 0.064001
Si Si5 0.600912 0.986560 0.156384
Si Si6 0.361817 0.500112 0.499891
Si Si7 0.210312 0.396968 0.303713
Si Si8 0.402719 0.003641 0.572715
O O1 0.887422 0.330935 0.448233
O O2 0.887896 0.248015 0.261339
O O3 0.095341 0.318395 0.384851
O O4 0.931556 0.635612 0.118789
O O5 0.323629 0.646777 0.509342
O O6 0.174387 0.991963 0.246669
O O7 0.306474 0.843358 0.588077
O O8 0.285184 0.865556 0.896637
O O9 0.049059 0.876474 0.866288
O O10 0.164029 0.521592 0.087899
O O11 0.000000 0.000000 0.000000
O O12 0.656259 0.743201 0.325134
O O13 0.543779 0.031965 0.245817
O O14 0.500000 0.000000 0.000000
O O15 0.500000 0.500000 0.500000
O O16 0.269148 0.564451 0.312738
O O17 0.318592 0.223580 0.416732
O O18 0.500000 0.000000 0.500000
#
# Coordination Sequence:
#
# PCOD9030336 Si02
#       8
#     2   2   2   2   2   2   2   2
#     4  11  24  43  68 107 139 180 229 279 357 415
#     4  12  24  43  72 101 140 179 230 293 339 419
#     4  11  22  44  66 100 138 176 226 283 357 411
#     4  11  26  41  70 108 143 178 224 287 347 421
#     4  11  25  45  69  98 132 184 235 289 349 425
#     4  11  25  46  66  94 136 186 229 280 358 413
#     4  10  22  42  70  93 138 182 218 287 348 419
#     4  11  24  44  69 100 132 187 239 284 348 416
#
# _framework density 21.780844999999999
#
# number of rings (size 3 to 8) (size 9 to 14) (size 15 to 20)
#    0.000    1.000    1.250    6.750    5.250    3.000 
#    2.250    1.250    0.000    0.000    0.000    0.000 
#    0.000    0.000    0.000    0.000    0.000    0.000 
#
# Total GULP energy -89396.887182 kJ/mol
# GULP energy per Si atom -5587.305449 kJ/mol
# Density = 2.173127 g / cm^3
# Si number density = 21.780845 Si / 1000 Ang^3
#
#
#
# Elastic Constant Matrix: (Units=GPa)
#
#
# Indices 1 2 3 4 5 6 
#
# 1 125.8143 39.5849 36.4484 5.5456 -4.5972 -5.2018
# 2 39.5849 134.4111 34.7382 20.3816 3.2125 -11.3151
# 3 36.4484 34.7382 68.5872 9.5567 3.0095 -12.8863
# 4 5.5456 20.3816 9.5567 38.4677 9.0065 1.4003
# 5 -4.5972 3.2125 3.0095 9.0065 29.8062 4.6141
# 6 -5.2018 -11.3151 -12.8863 1.4003 4.6141 39.8233
#
#
#
# Elastic Compliance Matrix: (Units=1/GPa)
#
#
# Indices 1 2 3 4 5 6 
#
# 1 0.009919 -0.001899 -0.004633 0.000228 0.002291 -0.001016
# 2 -0.001899 0.009517 -0.002928 -0.004091 -0.000043 0.001658
# 3 -0.004633 -0.002928 0.019979 -0.002345 -0.002544 0.005405
# 4 0.000228 -0.004091 -0.002345 0.030720 -0.008258 -0.002015
# 5 0.002291 -0.000043 -0.002544 -0.008258 0.037369 -0.004576
# 6 -0.001016 0.001658 0.005405 -0.002015 -0.004576 0.027799
#
#
# Mechanical properties :
#
#
# Convention : Reuss Voigt Hill
#
# Bulk Modulus (GPa) = 48.78919 61.15062 54.96991
# Shear Modulus (GPa) = 31.04561 36.15551 33.60056
#
# Velocity S-wave (km/s) = 3.77949 4.07869 3.93194
# Velocity P-wave (km/s) = 6.44164 7.09347 6.77540
#
# Compressibility (1/GPa) = 0.02049634
#
# Stress axis : x y z
#
# Youngs Moduli (GPa) = 100.81226 105.07865 50.05345
#
# Poissons Ratio (x) = 0.19953 0.23189
# Poissons Ratio (y) = 0.19142 0.14653
# Poissons Ratio (z) = 0.46704 0.30762
#
# Static dielectric constant tensor:
#      x y z
#    x 1.814880 0.044820 -0.007770 
#    y 0.044820 1.820800 0.023360 
#    z -0.007770 0.023360 1.861280 
# 
# From -- ./inp_files/225648.got.cif
#   From: 2010.05.17/outbox.cif.g08.bks.cpg/sg2_113_cif.got.tgz:225648.got - 2010.06.03 11:33:40.
