data_PCOD9030878
_publ_section_title
;
Structure prediction by ZEFSAII (Michael W. Deem and Ramdas Pophale) SiO2 
 PCOD9030878
Probable space group: P -1
;
_chemical_formula_sum "Si O2"
_cell_formula_units_Z 14
_cell_length_a 24.669591
_cell_length_b 7.205408
_cell_length_c 7.347447
_cell_angle_alpha 121.318755
_cell_angle_beta 49.193812
_cell_angle_gamma 133.760878
_cell_volume 708.468058
_symmetry_space_group_name_H-M "P -1"
_symmetry_group_IT_number 2
_symmetry_cell_setting 'triclinic'
loop_
_space_group_symop_operation_xyz
x,y,z
-x,-y,-z
loop_
_atom_site_type_symbol
_atom_site_label
_atom_site_fract_x
_atom_site_fract_y
_atom_site_fract_z
Si Si1 0.328732 0.413076 0.034192
Si Si2 0.472315 0.898917 0.803371
Si Si3 0.892107 0.441886 0.586459
Si Si4 0.041123 0.903622 0.717097
Si Si5 0.771343 0.166997 0.055654
Si Si6 0.187823 0.449109 0.520618
Si Si7 0.582767 0.863292 0.244540
O O1 0.280800 0.493942 0.317092
O O2 0.379590 0.633743 0.887204
O O3 0.255325 0.123888 0.981763
O O4 0.399057 0.362635 0.935834
O O5 0.464900 0.099992 0.797178
O O6 0.534530 0.840048 0.526178
O O7 0.500000 0.000000 0.000000
O O8 0.927681 0.270210 0.349097
O O9 0.840074 0.488435 0.575305
O O10 0.970905 0.713735 0.626832
O O11 0.833108 0.283712 0.807686
O O12 0.120000 0.155872 0.579318
O O13 0.000000 0.000000 0.000000
O O14 0.810020 0.362545 0.235856
O O15 0.679148 0.113936 0.177541
#
# Coordination Sequence:
#
# PCOD9030878 Si02
#       7
#     2   2   2   2   2   2   2
#     4  10  23  41  63  91 127 160 206 255 305 369
#     4  11  21  40  67  91 121 166 206 248 309 368
#     4  11  24  42  63  93 128 158 214 258 297 375
#     4  11  23  43  65  91 127 164 206 259 310 362
#     4  10  22  43  59  92 129 157 208 253 303 373
#     4  12  23  42  66  91 121 172 205 250 318 361
#     4   9  22  41  59  92 128 155 201 263 296 361
#
# _framework density 19.760947999999999
#
# number of rings (size 3 to 8) (size 9 to 14) (size 15 to 20)
#    0.857    0.571    2.857    2.571    0.000    2.286 
#    2.571    4.286    0.000    0.000    0.000    0.000 
#    0.000    0.000    0.000    0.000    0.000    0.000 
#
# Total GULP energy -78079.438237 kJ/mol
# GULP energy per Si atom -5577.102731 kJ/mol
# Density = 1.971597 g / cm^3
# Si number density = 19.760948 Si / 1000 Ang^3
#
#
#
# Elastic Constant Matrix: (Units=GPa)
#
#
# Indices 1 2 3 4 5 6 
#
# 1 38.7136 1.8042 28.6108 5.2349 3.1922 -14.1445
# 2 1.8042 70.8502 21.5232 11.8158 5.5279 -1.4473
# 3 28.6108 21.5232 96.8132 11.1534 -17.9028 -17.5209
# 4 5.2349 11.8158 11.1534 25.8820 4.6306 -7.7928
# 5 3.1922 5.5279 -17.9028 4.6306 32.6647 -0.0135
# 6 -14.1445 -1.4473 -17.5209 -7.7928 -0.0135 34.6320
#
#
#
# Elastic Compliance Matrix: (Units=1/GPa)
#
#
# Indices 1 2 3 4 5 6 
#
# 1 0.039890 0.003963 -0.013172 0.000942 -0.011918 0.010001
# 2 0.003963 0.017087 -0.005674 -0.005708 -0.005581 -0.001825
# 3 -0.013172 -0.005674 0.018990 -0.004400 0.013280 0.003006
# 4 0.000942 -0.005708 -0.004400 0.046969 -0.008192 0.008486
# 5 -0.011918 -0.005581 0.013280 -0.008192 0.041163 -0.000209
# 6 0.010001 -0.001825 0.003006 0.008486 -0.000209 0.036313
#
#
# Mechanical properties :
#
#
# Convention : Reuss Voigt Hill
#
# Bulk Modulus (GPa) = 21.64523 34.47259 28.05891
# Shear Modulus (GPa) = 20.36000 28.93168 24.64584
#
# Velocity S-wave (km/s) = 3.21333 3.83049 3.53540
# Velocity P-wave (km/s) = 4.97440 6.08656 5.55837
#
# Compressibility (1/GPa) = 0.04619955
#
# Stress axis : x y z
#
# Youngs Moduli (GPa) = 25.06912 58.52320 52.65932
#
# Poissons Ratio (x) = -0.23190 0.69362
# Poissons Ratio (y) = -0.09934 0.29881
# Poissons Ratio (z) = 0.33021 0.33209
#
# Static dielectric constant tensor:
#      x y z
#    x 1.694740 0.002720 -0.028580 
#    y 0.002720 1.699130 0.020360 
#    z -0.028580 0.020360 1.672830 
# 
# From -- ./inp_files/125906.got.cif
#   From: 2010.05.17/outbox.cif.g08.bks.cpg/sg2_63_cif.got.tgz:125906.got - 2010.06.03 11:33:40.
