data_PCOD9030386
_publ_section_title
;
Structure prediction by ZEFSAII (Michael W. Deem and Ramdas Pophale) SiO2 
 PCOD9030386
Probable space group: P -1
;
_chemical_formula_sum "Si O2"
_cell_formula_units_Z 12
_cell_length_a 11.125492
_cell_length_b 19.450061
_cell_length_c 4.957588
_cell_angle_alpha 98.635590
_cell_angle_beta 98.810557
_cell_angle_gamma 24.747345
_cell_volume 443.627188
_symmetry_space_group_name_H-M "P -1"
_symmetry_group_IT_number 2
_symmetry_cell_setting 'triclinic'
loop_
_space_group_symop_operation_xyz
x,y,z
-x,-y,-z
loop_
_atom_site_type_symbol
_atom_site_label
_atom_site_fract_x
_atom_site_fract_y
_atom_site_fract_z
Si Si1 0.386273 0.135517 0.081362
Si Si2 0.184204 0.718891 0.323361
Si Si3 0.673664 0.754502 0.390465
Si Si4 0.861316 0.338711 0.233447
Si Si5 0.856660 0.115268 0.270807
Si Si6 0.217618 0.422159 0.251181
O O1 0.494574 0.109259 0.384488
O O2 0.445316 0.163021 0.892916
O O3 0.047098 0.300630 0.122618
O O4 0.500000 0.000000 0.000000
O O5 0.527981 0.530179 0.278690
O O6 0.047379 0.730516 0.476061
O O7 0.135785 0.812424 0.539711
O O8 0.086278 0.755412 0.004372
O O9 0.016811 0.588336 0.378589
O O10 0.691994 0.672616 0.515098
O O11 0.000000 0.500000 0.000000
O O12 0.522306 0.285274 0.164910
O O13 0.000000 0.000000 0.500000
O O14 0.000000 0.000000 0.000000
#
# Coordination Sequence:
#
# PCOD9030386 Si02
#       6
#     2   2   2   2   2   2
#     4  12  25  42  67 108 146 187 235 309 369 429
#     4  10  22  45  68  97 136 187 233 293 354 440
#     4  11  25  45  73 102 140 197 252 299 355 453
#     4  10  22  42  70  97 132 187 241 285 355 432
#     4  12  29  45  73 112 151 186 240 314 380 431
#     4  11  26  51  78 106 143 203 255 299 365 444
#
# _framework density 27.049738999999999
#
# number of rings (size 3 to 8) (size 9 to 14) (size 15 to 20)
#    0.000    1.000    1.667    3.500    4.667    8.000 
#    0.000    0.000    0.000    0.000    0.000    0.000 
#    0.000    0.000    0.000    0.000    0.000    0.000 
#
# Total GULP energy -66874.292988 kJ/mol
# GULP energy per Si atom -5572.857749 kJ/mol
# Density = 2.698817 g / cm^3
# Si number density = 27.049739 Si / 1000 Ang^3
#
#
#
# Elastic Constant Matrix: (Units=GPa)
#
#
# Indices 1 2 3 4 5 6 
#
# 1 68.5004 21.0256 51.0768 -0.7879 7.4202 12.1472
# 2 21.0256 110.2339 51.1639 7.9586 12.9011 -6.3302
# 3 51.0768 51.1639 245.8412 15.9007 -5.4014 12.2776
# 4 -0.7879 7.9586 15.9007 48.9996 16.9631 8.9408
# 5 7.4202 12.9011 -5.4014 16.9631 38.7321 -1.0618
# 6 12.1472 -6.3302 12.2776 8.9408 -1.0618 43.4640
#
#
#
# Elastic Compliance Matrix: (Units=1/GPa)
#
#
# Indices 1 2 3 4 5 6 
#
# 1 0.019873 -0.001986 -0.003882 0.005091 -0.006079 -0.005943
# 2 -0.001986 0.010978 -0.002047 -0.000528 -0.003255 0.002761
# 3 -0.003882 -0.002047 0.005554 -0.002670 0.003365 -0.000151
# 4 0.005091 -0.000528 -0.002670 0.027264 -0.013295 -0.006679
# 5 -0.006079 -0.003255 0.003365 -0.013295 0.034465 0.003851
# 6 -0.005943 0.002761 -0.000151 -0.006679 0.003851 0.026581
#
#
# Mechanical properties :
#
#
# Convention : Reuss Voigt Hill
#
# Bulk Modulus (GPa) = 48.60148 74.56758 61.58453
# Shear Modulus (GPa) = 33.92023 46.32642 40.12333
#
# Velocity S-wave (km/s) = 3.54502 4.14289 3.85556
# Velocity P-wave (km/s) = 5.89599 7.10714 6.52971
#
# Compressibility (1/GPa) = 0.02057551
#
# Stress axis : x y z
#
# Youngs Moduli (GPa) = 50.31864 91.08827 180.03779
#
# Poissons Ratio (x) = 0.18092 0.69884
# Poissons Ratio (y) = 0.09995 0.36861
# Poissons Ratio (z) = 0.19532 0.18650
#
# Static dielectric constant tensor:
#      x y z
#    x 2.302050 -0.022450 0.078740 
#    y -0.022450 2.107250 0.044370 
#    z 0.078740 0.044370 2.198160 
# 
# From -- ./inp_files/81980.got.cif
#   From: 2010.05.17/outbox.cif.g08.bks.cpg/sg2_41_cif.got.tgz:81980.got - 2010.06.03 11:33:40.
