data_PCOD9030020
_publ_section_title
;
Structure prediction by ZEFSAII (Michael W. Deem and Ramdas Pophale) SiO2 
 PCOD9030020
Probable space group: P -1
;
_chemical_formula_sum "Si O2"
_cell_formula_units_Z 16
_cell_length_a 5.058611
_cell_length_b 29.166412
_cell_length_c 5.601932
_cell_angle_alpha 133.384695
_cell_angle_beta 88.280567
_cell_angle_gamma 88.776286
_cell_volume 599.405227
_symmetry_space_group_name_H-M "P -1"
_symmetry_group_IT_number 2
_symmetry_cell_setting 'triclinic'
loop_
_space_group_symop_operation_xyz
x,y,z
-x,-y,-z
loop_
_atom_site_type_symbol
_atom_site_label
_atom_site_fract_x
_atom_site_fract_y
_atom_site_fract_z
Si Si1 0.818084 0.036308 0.942672
Si Si2 0.602480 0.131761 0.606721
Si Si3 0.197593 0.530341 0.417253
Si Si4 0.854219 0.346554 0.392505
Si Si5 0.308607 0.752843 0.326721
Si Si6 0.873659 0.907545 0.248944
Si Si7 0.560844 0.594816 0.012250
Si Si8 0.193152 0.283536 0.528317
O O1 0.992077 0.088316 0.997293
O O2 0.764992 0.980617 0.560696
O O3 0.575347 0.073575 0.212562
O O4 0.000000 0.000000 0.000000
O O5 0.623961 0.193052 0.665492
O O6 0.367707 0.132556 0.807247
O O7 0.878978 0.115177 0.672948
O O8 0.065232 0.585322 0.455576
O O9 0.419525 0.565507 0.685235
O O10 0.328213 0.466971 0.068395
O O11 0.000000 0.500000 0.500000
O O12 0.089470 0.298841 0.318178
O O13 0.651765 0.364953 0.678248
O O14 0.706523 0.309596 0.059118
O O15 0.527197 0.747576 0.509180
O O16 0.025998 0.755667 0.475520
O O17 0.783314 0.643716 0.119606
#
# Coordination Sequence:
#
# PCOD9030020 Si02
#       8
#     2   2   2   2   2   2   2   2
#     4   9  21  41  72 105 148 191 232 306 367 430
#     4  11  24  45  68 104 144 197 241 308 362 426
#     4  11  24  45  72 107 144 176 232 302 360 446
#     4  12  25  46  73 102 141 190 234 298 366 431
#     4  12  28  49  72 102 150 187 250 301 354 429
#     4  10  22  42  69 109 144 186 250 292 369 441
#     4  11  24  44  71 107 137 183 236 291 371 434
#     4  12  26  50  71 105 138 193 240 296 362 436
#
# _framework density 26.693124000000001
#
# number of rings (size 3 to 8) (size 9 to 14) (size 15 to 20)
#    0.000    1.000    2.500    3.000    1.750   11.500 
#    2.250    0.000    0.000    0.000    0.000    0.000 
#    0.000    0.000    0.000    0.000    0.000    0.000 
#
# Total GULP energy -89625.556021 kJ/mol
# GULP energy per Si atom -5601.597251 kJ/mol
# Density = 2.663237 g / cm^3
# Si number density = 26.693124 Si / 1000 Ang^3
#
#
#
# Elastic Constant Matrix: (Units=GPa)
#
#
# Indices 1 2 3 4 5 6 
#
# 1 142.6698 55.8732 22.8747 -2.8554 10.4828 15.0120
# 2 55.8732 207.0032 3.6624 16.3485 12.4565 23.5252
# 3 22.8747 3.6624 56.2600 -3.0083 18.2262 -2.8648
# 4 -2.8554 16.3485 -3.0083 26.5502 8.9826 8.9151
# 5 10.4828 12.4565 18.2262 8.9826 24.0624 -2.3165
# 6 15.0120 23.5252 -2.8648 8.9151 -2.3165 40.8831
#
#
#
# Elastic Compliance Matrix: (Units=1/GPa)
#
#
# Indices 1 2 3 4 5 6 
#
# 1 0.008866 -0.002138 -0.002587 0.003923 -0.002570 -0.003208
# 2 -0.002138 0.005957 0.000976 -0.002286 -0.002250 -0.002203
# 3 -0.002587 0.000976 0.027056 0.010802 -0.024043 -0.001434
# 4 0.003923 -0.002286 0.010802 0.055551 -0.030718 -0.013222
# 5 -0.002570 -0.002250 -0.024043 -0.030718 0.074628 0.011481
# 6 -0.003208 -0.002203 -0.001434 -0.013222 0.011481 0.030339
#
#
# Mechanical properties :
#
#
# Convention : Reuss Voigt Hill
#
# Bulk Modulus (GPa) = 29.08454 63.41708 46.25081
# Shear Modulus (GPa) = 22.58815 39.86733 31.22774
#
# Velocity S-wave (km/s) = 2.91214 3.86883 3.42406
# Velocity P-wave (km/s) = 4.71454 6.61563 5.74428
#
# Compressibility (1/GPa) = 0.03438252
#
# Stress axis : x y z
#
# Youngs Moduli (GPa) = 112.78929 167.86892 36.95970
#
# Poissons Ratio (x) = 0.35890 0.09560
# Poissons Ratio (y) = 0.24114 -0.03608
# Poissons Ratio (z) = 0.29175 -0.16386
#
# Static dielectric constant tensor:
#      x y z
#    x 2.101310 -0.015610 -0.029890 
#    y -0.015610 2.128300 0.027470 
#    z -0.029890 0.027470 2.150800 
# 
# From -- ./inp_files/14794.got.cif
#   From: 2010.05.17/outbox.cif.g08.bks.cpg/sg2_8_cif.got.tgz:14794.got - 2010.06.03 11:33:40.
