data_PCOD9030274
_publ_section_title
;
Structure prediction by ZEFSAII (Michael W. Deem and Ramdas Pophale) SiO2 
 PCOD9030274
Probable space group: P -1
;
_chemical_formula_sum "Si O2"
_cell_formula_units_Z 16
_cell_length_a 10.844139
_cell_length_b 5.311373
_cell_length_c 13.020491
_cell_angle_alpha 118.315750
_cell_angle_beta 72.115425
_cell_angle_gamma 115.722956
_cell_volume 589.921753
_symmetry_space_group_name_H-M "P -1"
_symmetry_group_IT_number 2
_symmetry_cell_setting 'triclinic'
loop_
_space_group_symop_operation_xyz
x,y,z
-x,-y,-z
loop_
_atom_site_type_symbol
_atom_site_label
_atom_site_fract_x
_atom_site_fract_y
_atom_site_fract_z
Si Si1 0.975058 0.557927 0.899249
Si Si2 0.518834 0.911831 0.128619
Si Si3 0.318496 0.605573 0.472400
Si Si4 0.440461 0.392249 0.727522
Si Si5 0.801894 0.535193 0.309927
Si Si6 0.086967 0.842514 0.571357
Si Si7 0.846798 0.878742 0.733444
Si Si8 0.724209 0.679201 0.935258
O O1 0.875126 0.754947 0.958108
O O2 0.113708 0.628217 0.809338
O O3 0.876307 0.232558 0.812853
O O4 0.000000 0.500000 0.000000
O O5 0.545494 0.787588 0.209240
O O6 0.385095 0.647181 0.068095
O O7 0.506748 0.241336 0.199402
O O8 0.649504 0.915613 0.028845
O O9 0.468075 0.676995 0.399744
O O10 0.303834 0.620656 0.602302
O O11 0.237903 0.832691 0.504991
O O12 0.227783 0.276164 0.382118
O O13 0.282754 0.330053 0.721443
O O14 0.908658 0.823899 0.399817
O O15 0.000000 0.500000 0.500000
O O16 0.998560 0.847810 0.698846
O O17 0.750504 0.682935 0.808570
#
# Coordination Sequence:
#
# PCOD9030274 Si02
#       8
#     2   2   2   2   2   2   2   2
#     4  11  25  45  71 106 146 190 244 305 380 439
#     4  11  28  46  77 108 147 196 251 307 364 445
#     4  11  23  43  71 101 143 195 246 300 365 439
#     4  12  27  48  72 110 150 196 246 305 376 435
#     4  11  26  43  70 107 151 194 244 307 368 442
#     4   9  22  40  66  99 140 182 247 293 359 427
#     4  10  22  42  70 105 140 187 245 305 365 441
#     4  11  24  44  75 101 145 192 250 306 367 438
#
# _framework density 27.122240999999999
#
# number of rings (size 3 to 8) (size 9 to 14) (size 15 to 20)
#    0.000    1.250    1.250    2.625    7.000    8.500 
#    0.000    0.000    0.000    0.000    0.000    0.000 
#    0.000    0.000    0.000    0.000    0.000    0.000 
#
# Total GULP energy -89399.333426 kJ/mol
# GULP energy per Si atom -5587.458339 kJ/mol
# Density = 2.706051 g / cm^3
# Si number density = 27.122241 Si / 1000 Ang^3
#
#
#
# Elastic Constant Matrix: (Units=GPa)
#
#
# Indices 1 2 3 4 5 6 
#
# 1 136.7946 15.5785 75.9747 -20.0105 -29.9067 4.9609
# 2 15.5785 67.7920 41.9306 7.8047 3.5809 -0.3071
# 3 75.9747 41.9306 169.8083 -25.9964 -50.6712 -6.9640
# 4 -20.0105 7.8047 -25.9964 60.5993 3.9518 9.4963
# 5 -29.9067 3.5809 -50.6712 3.9518 65.0731 -1.8713
# 6 4.9609 -0.3071 -6.9640 9.4963 -1.8713 46.0371
#
#
#
# Elastic Compliance Matrix: (Units=1/GPa)
#
#
# Indices 1 2 3 4 5 6 
#
# 1 0.010148 -0.000319 -0.003773 0.001987 0.001565 -0.002013
# 2 -0.000319 0.020838 -0.008040 -0.005744 -0.007209 -0.000151
# 3 -0.003773 -0.008040 0.012853 0.004480 0.008495 0.001718
# 4 0.001987 -0.005744 0.004480 0.020162 0.003390 -0.003596
# 5 0.001565 -0.007209 0.008495 0.003390 0.022929 0.001301
# 6 -0.002013 -0.000151 0.001718 -0.003596 0.001301 0.022992
#
#
# Mechanical properties :
#
#
# Convention : Reuss Voigt Hill
#
# Bulk Modulus (GPa) = 51.08151 71.26250 61.17201
# Shear Modulus (GPa) = 35.53363 50.40265 42.96814
#
# Velocity S-wave (km/s) = 3.62350 4.31554 3.98457
# Velocity P-wave (km/s) = 6.03167 7.15286 6.61606
#
# Compressibility (1/GPa) = 0.01957655
#
# Stress axis : x y z
#
# Youngs Moduli (GPa) = 98.54422 47.98816 77.79984
#
# Poissons Ratio (x) = 0.01530 0.29354
# Poissons Ratio (y) = 0.03142 0.62550
# Poissons Ratio (z) = 0.37180 0.38582
#
# Static dielectric constant tensor:
#      x y z
#    x 4.826070 -1.278430 0.042590 
#    y -1.278430 2.915170 0.058000 
#    z 0.042590 0.058000 2.078660 
# 
# From -- ./inp_files/511235.got.cif
#   From: 2010.05.17/outbox.cif.g08.bks.cpg/sg2_256_cif.got.tgz:511235.got - 2010.06.03 11:33:40.
