data_PCOD9030564
_publ_section_title
;
Structure prediction by ZEFSAII (Michael W. Deem and Ramdas Pophale) SiO2 
 PCOD9030564
Probable space group: P -1
;
_chemical_formula_sum "Si O2"
_cell_formula_units_Z 16
_cell_length_a 12.857033
_cell_length_b 5.386769
_cell_length_c 21.016772
_cell_angle_alpha 93.837929
_cell_angle_beta 151.913574
_cell_angle_gamma 84.450522
_cell_volume 681.552798
_symmetry_space_group_name_H-M "P -1"
_symmetry_group_IT_number 2
_symmetry_cell_setting 'triclinic'
loop_
_space_group_symop_operation_xyz
x,y,z
-x,-y,-z
loop_
_atom_site_type_symbol
_atom_site_label
_atom_site_fract_x
_atom_site_fract_y
_atom_site_fract_z
Si Si1 0.324087 0.248716 0.653695
Si Si2 0.247860 0.103928 0.376135
Si Si3 0.809940 0.310895 0.898570
Si Si4 0.094787 0.643934 0.352287
Si Si5 0.471716 0.943239 0.842517
Si Si6 0.911757 0.378137 0.366700
Si Si7 0.606122 0.743605 0.081022
Si Si8 0.952210 0.002946 0.089773
O O1 0.545466 0.359111 0.747549
O O2 0.207278 0.462286 0.638835
O O3 0.120281 0.192462 0.497948
O O4 0.404435 0.007160 0.734689
O O5 0.223942 0.396057 0.387784
O O6 0.089504 0.071112 0.227759
O O7 0.500000 0.000000 0.500000
O O8 0.185287 0.911135 0.394240
O O9 0.838729 0.218616 0.985928
O O10 0.881546 0.129007 0.874944
O O11 0.000000 0.500000 0.000000
O O12 0.028527 0.561249 0.385374
O O13 0.855296 0.691251 0.192128
O O14 0.287724 0.774996 0.769486
O O15 0.432177 0.202156 0.864145
O O16 0.732880 0.857914 0.985675
O O17 0.500000 0.500000 0.000000
O O18 0.500000 0.000000 0.000000
#
# Coordination Sequence:
#
# PCOD9030564 Si02
#       8
#     2   2   2   2   2   2   2   2
#     4  10  23  40  67 101 138 185 239 303 370 434
#     4  12  29  50  74 105 149 196 248 302 363 440
#     4  10  22  42  71  99 136 189 245 304 362 425
#     4  12  26  47  71 107 142 195 241 294 369 441
#     4  11  21  42  65  98 144 182 236 303 368 437
#     4  11  23  41  68 104 144 183 240 299 374 446
#     4  12  24  41  69 104 141 185 233 297 365 437
#     4  10  24  43  67 103 135 188 246 301 361 431
#
# _framework density 23.475802999999999
#
# number of rings (size 3 to 8) (size 9 to 14) (size 15 to 20)
#    0.000    1.000    1.250    5.250    3.500    1.000 
#    0.000    0.000    0.000    0.000    0.000    0.000 
#    0.000    0.000    0.000    0.000    0.000    0.000 
#
# Total GULP energy -89228.479702 kJ/mol
# GULP energy per Si atom -5576.779981 kJ/mol
# Density = 2.342237 g / cm^3
# Si number density = 23.475803 Si / 1000 Ang^3
#
#
#
# Elastic Constant Matrix: (Units=GPa)
#
#
# Indices 1 2 3 4 5 6 
#
# 1 86.8012 14.5022 38.8171 -0.0649 9.6306 -1.9327
# 2 14.5022 70.5983 12.5927 -4.8094 -2.2369 -6.0956
# 3 38.8171 12.5927 126.9503 -13.6375 25.4520 -1.3288
# 4 -0.0649 -4.8094 -13.6375 38.5574 -4.0756 6.9447
# 5 9.6306 -2.2369 25.4520 -4.0756 34.4993 -0.9009
# 6 -1.9327 -6.0956 -1.3288 6.9447 -0.9009 42.5709
#
#
#
# Elastic Compliance Matrix: (Units=1/GPa)
#
#
# Indices 1 2 3 4 5 6 
#
# 1 0.013812 -0.002265 -0.003932 -0.001871 -0.001311 0.000457
# 2 -0.002265 0.015184 -0.001184 0.001423 0.002707 0.001860
# 3 -0.003932 -0.001184 0.010854 0.003101 -0.006637 -0.000656
# 4 -0.001871 0.001423 0.003101 0.028152 0.001539 -0.004344
# 5 -0.001311 0.002707 -0.006637 0.001539 0.034622 0.000603
# 6 0.000457 0.001860 -0.000656 -0.004344 0.000603 0.024478
#
#
# Mechanical properties :
#
#
# Convention : Reuss Voigt Hill
#
# Bulk Modulus (GPa) = 39.86047 46.24153 43.05100
# Shear Modulus (GPa) = 33.28319 37.68806 35.48562
#
# Velocity S-wave (km/s) = 3.76941 4.01109 3.89213
# Velocity P-wave (km/s) = 5.99673 6.41811 6.21100
#
# Compressibility (1/GPa) = 0.02508751
#
# Stress axis : x y z
#
# Youngs Moduli (GPa) = 72.40318 65.85696 92.13433
#
# Poissons Ratio (x) = 0.14919 0.36225
# Poissons Ratio (y) = 0.16402 0.10908
# Poissons Ratio (z) = 0.28467 0.07797
#
# Static dielectric constant tensor:
#      x y z
#    x 2.053570 0.021600 -0.129830 
#    y 0.021600 1.895560 -0.038820 
#    z -0.129830 -0.038820 1.999700 
# 
# From -- ./inp_files/592782.got.cif
#   From: 2010.05.17/outbox.cif.g08.bks.cpg/sg2_297_cif.got.tgz:592782.got - 2010.06.03 11:33:40.
