data_PCOD9030402
_publ_section_title
;
Structure prediction by ZEFSAII (Michael W. Deem and Ramdas Pophale) SiO2 
 PCOD9030402
Probable space group: P -1
;
_chemical_formula_sum "Si O2"
_cell_formula_units_Z 16
_cell_length_a 11.588058
_cell_length_b 8.512828
_cell_length_c 16.447702
_cell_angle_alpha 57.956142
_cell_angle_beta 46.918727
_cell_angle_gamma 34.927326
_cell_volume 676.809865
_symmetry_space_group_name_H-M "P -1"
_symmetry_group_IT_number 2
_symmetry_cell_setting 'triclinic'
loop_
_space_group_symop_operation_xyz
x,y,z
-x,-y,-z
loop_
_atom_site_type_symbol
_atom_site_label
_atom_site_fract_x
_atom_site_fract_y
_atom_site_fract_z
Si Si1 0.699281 0.589868 0.225649
Si Si2 0.867692 0.002225 0.863495
Si Si3 0.794045 0.979006 0.254512
Si Si4 0.952731 0.570161 0.641844
Si Si5 0.397225 0.293800 0.952260
Si Si6 0.876330 0.831284 0.087317
Si Si7 0.740008 0.501782 0.627173
Si Si8 0.789372 0.098106 0.627343
O O1 0.648508 0.636904 0.140155
O O2 0.716957 0.787605 0.187157
O O3 0.959417 0.280382 0.194277
O O4 0.476504 0.670987 0.345205
O O5 0.601448 0.250096 0.896469
O O6 0.849054 0.930985 0.982698
O O7 0.020518 0.052778 0.781639
O O8 0.808366 0.022325 0.141044
O O9 0.880432 0.697389 0.308324
O O10 0.530536 0.237010 0.337552
O O11 0.787938 0.571464 0.668923
O O12 0.837393 0.835041 0.677726
O O13 0.103274 0.537748 0.507151
O O14 0.148762 0.540379 0.046343
O O15 0.500000 0.000000 0.000000
O O16 0.790841 0.237155 0.665361
O O17 0.000000 0.000000 0.500000
#
# Coordination Sequence:
#
# PCOD9030402 Si02
#       8
#     2   2   2   2   2   2   2   2
#     4  11  21  40  67  91 127 173 220 266 334 391
#     4  11  23  41  62  93 131 175 217 266 331 390
#     4  12  25  40  66  97 134 172 221 273 331 399
#     4  10  24  42  68 101 129 176 226 273 333 397
#     4  11  21  38  64  91 127 169 222 274 318 391
#     4  11  24  39  61  96 130 173 218 273 329 392
#     4  10  22  47  67  92 140 175 216 280 337 392
#     4  10  22  42  70  98 130 171 219 272 332 398
#
# _framework density 23.640318000000001
#
# number of rings (size 3 to 8) (size 9 to 14) (size 15 to 20)
#    0.000    1.250    3.750    2.250    3.500    1.500 
#    0.000    0.000    0.000    8.250    0.000    0.000 
#    0.000    0.000    0.000    0.000    0.000    0.000 
#
# Total GULP energy -89403.083064 kJ/mol
# GULP energy per Si atom -5587.692692 kJ/mol
# Density = 2.358651 g / cm^3
# Si number density = 23.640318 Si / 1000 Ang^3
#
#
#
# Elastic Constant Matrix: (Units=GPa)
#
#
# Indices 1 2 3 4 5 6 
#
# 1 149.0309 48.8202 29.6369 15.3128 -24.8864 2.3845
# 2 48.8202 100.3147 17.3267 4.8028 -3.4126 9.3928
# 3 29.6369 17.3267 49.1583 7.2633 -21.5171 -5.1668
# 4 15.3128 4.8028 7.2633 29.7180 -8.0259 -8.7300
# 5 -24.8864 -3.4126 -21.5171 -8.0259 35.9245 5.4276
# 6 2.3845 9.3928 -5.1668 -8.7300 5.4276 42.9258
#
#
#
# Elastic Compliance Matrix: (Units=1/GPa)
#
#
# Indices 1 2 3 4 5 6 
#
# 1 0.009436 -0.003845 -0.002076 -0.002846 0.004454 -0.001075
# 2 -0.003845 0.012689 -0.003870 -0.000896 -0.003559 -0.002761
# 3 -0.002076 -0.003870 0.030223 -0.000710 0.015765 0.002462
# 4 -0.002846 -0.000896 -0.000710 0.039032 0.005096 0.007562
# 5 0.004454 -0.003559 0.015765 0.005096 0.041433 -0.001774
# 6 -0.001075 -0.002761 0.002462 0.007562 -0.001774 0.026018
#
#
# Mechanical properties :
#
#
# Convention : Reuss Voigt Hill
#
# Bulk Modulus (GPa) = 30.52075 54.45241 42.48658
# Shear Modulus (GPa) = 26.40823 35.22832 30.81828
#
# Velocity S-wave (km/s) = 3.34591 3.86447 3.61450
# Velocity P-wave (km/s) = 5.27876 6.55713 5.95236
#
# Compressibility (1/GPa) = 0.03276459
#
# Stress axis : x y z
#
# Youngs Moduli (GPa) = 105.97740 78.81022 33.08785
#
# Poissons Ratio (x) = 0.30304 0.06870
# Poissons Ratio (y) = 0.40750 0.12805
# Poissons Ratio (z) = 0.22003 0.30499
#
# Static dielectric constant tensor:
#      x y z
#    x 1.924430 0.025070 -0.009790 
#    y 0.025070 1.908000 -0.033340 
#    z -0.009790 -0.033340 1.902300 
# 
# From -- ./inp_files/335361.got.cif
#   From: 2010.05.17/outbox.cif.g08.bks.cpg/sg2_168_cif.got.tgz:335361.got - 2010.06.03 11:33:40.
