data_PCOD9030203
_publ_section_title
;
Structure prediction by ZEFSAII (Michael W. Deem and Ramdas Pophale) SiO2 
 PCOD9030203
Probable space group: P -1
;
_chemical_formula_sum "Si O2"
_cell_formula_units_Z 14
_cell_length_a 12.097293
_cell_length_b 12.053981
_cell_length_c 7.351400
_cell_angle_alpha 145.089913
_cell_angle_beta 77.890998
_cell_angle_gamma 105.262741
_cell_volume 591.812072
_symmetry_space_group_name_H-M "P -1"
_symmetry_group_IT_number 2
_symmetry_cell_setting 'triclinic'
loop_
_space_group_symop_operation_xyz
x,y,z
-x,-y,-z
loop_
_atom_site_type_symbol
_atom_site_label
_atom_site_fract_x
_atom_site_fract_y
_atom_site_fract_z
Si Si1 0.626336 0.610618 0.563340
Si Si2 0.400497 0.955613 0.738591
Si Si3 0.340252 0.980649 0.387274
Si Si4 0.100042 0.602256 0.340977
Si Si5 0.012834 0.204506 0.663537
Si Si6 0.755527 0.299247 0.260514
Si Si7 0.739068 0.649781 0.209397
O O1 0.500000 0.500000 0.500000
O O2 0.719707 0.503919 0.487850
O O3 0.646528 0.591703 0.316394
O O4 0.633861 0.835321 0.917254
O O5 0.358664 0.904457 0.478858
O O6 0.537955 0.983737 0.711934
O O7 0.343191 0.809269 0.715781
O O8 0.299661 0.190798 0.695309
O O9 0.252876 0.833780 0.096762
O O10 0.069969 0.768336 0.438672
O O11 0.126125 0.674857 0.633484
O O12 0.012929 0.399271 0.053910
O O13 0.218182 0.528225 0.144813
O O14 0.143012 0.243315 0.593511
O O15 0.000000 0.000000 0.500000
#
# Coordination Sequence:
#
# PCOD9030203 Si02
#       7
#     2   2   2   2   2   2   2
#     4  12  24  42  65  99 146 183 228 280 331 410
#     4  11  25  44  62  98 144 184 237 275 339 401
#     4  11  23  42  67  96 136 189 227 283 334 407
#     4   9  23  43  68 106 131 169 233 288 343 417
#     4   9  21  45  76  97 136 173 225 297 352 408
#     4  12  24  40  70  96 141 184 227 288 336 405
#     4  10  22  42  70 101 133 181 230 271 354 411
#
# _framework density 23.656155999999999
#
# number of rings (size 3 to 8) (size 9 to 14) (size 15 to 20)
#    0.857    0.571    2.857    2.143    4.000    0.000 
#    0.000    5.000    0.000    0.000    0.000    0.000 
#    0.000    0.000    0.000    0.000    0.000    0.000 
#
# Total GULP energy -78274.068779 kJ/mol
# GULP energy per Si atom -5591.004913 kJ/mol
# Density = 2.360231 g / cm^3
# Si number density = 23.656156 Si / 1000 Ang^3
#
#
#
# Elastic Constant Matrix: (Units=GPa)
#
#
# Indices 1 2 3 4 5 6 
#
# 1 86.0645 16.9414 18.5791 7.8380 15.9226 -36.7633
# 2 16.9414 75.1105 24.5865 8.6946 -1.5218 -7.2684
# 3 18.5791 24.5865 68.1670 11.7069 1.7635 -16.1881
# 4 7.8380 8.6946 11.7069 43.8405 -12.8644 -7.7629
# 5 15.9226 -1.5218 1.7635 -12.8644 45.5450 -0.7673
# 6 -36.7633 -7.2684 -16.1881 -7.7629 -0.7673 42.7163
#
#
#
# Elastic Compliance Matrix: (Units=1/GPa)
#
#
# Indices 1 2 3 4 5 6 
#
# 1 0.021243 -0.003004 0.000006 -0.002493 -0.007942 0.017179
# 2 -0.003004 0.015639 -0.005152 -0.001138 0.001416 -0.002058
# 3 0.000006 -0.005152 0.018465 -0.003463 -0.001776 0.005465
# 4 -0.002493 -0.001138 -0.003463 0.027209 0.008677 0.001449
# 5 -0.007942 0.001416 -0.001776 0.008677 0.027212 -0.005201
# 6 0.017179 -0.002058 0.005465 0.001449 -0.005201 0.040086
#
#
# Mechanical properties :
#
#
# Convention : Reuss Voigt Hill
#
# Bulk Modulus (GPa) = 25.60883 38.83957 32.22420
# Shear Modulus (GPa) = 27.90669 37.70268 32.80469
#
# Velocity S-wave (km/s) = 3.43837 3.99655 3.72792
# Velocity P-wave (km/s) = 5.15870 6.14415 5.67286
#
# Compressibility (1/GPa) = 0.03904904
#
# Stress axis : x y z
#
# Youngs Moduli (GPa) = 47.07349 63.94321 54.15684
#
# Poissons Ratio (x) = 0.19206 -0.00035
# Poissons Ratio (y) = 0.14139 0.27901
# Poissons Ratio (z) = -0.00031 0.32943
#
# Static dielectric constant tensor:
#      x y z
#    x 1.943030 0.048700 0.016350 
#    y 0.048700 1.889050 -0.013550 
#    z 0.016350 -0.013550 1.900440 
# 
# From -- ./inp_files/260848.got.cif
#   From: 2010.05.17/outbox.cif.g08.bks.cpg/sg2_131_cif.got.tgz:260848.got - 2010.06.03 11:33:40.
