data_PCOD9030732
_publ_section_title
;
Structure prediction by ZEFSAII (Michael W. Deem and Ramdas Pophale) SiO2 
 PCOD9030732
Probable space group: P -1
;
_chemical_formula_sum "Si O2"
_cell_formula_units_Z 10
_cell_length_a 9.203637
_cell_length_b 15.414031
_cell_length_c 8.783127
_cell_angle_alpha 36.410668
_cell_angle_beta 147.504918
_cell_angle_gamma 138.820254
_cell_volume 386.526227
_symmetry_space_group_name_H-M "P -1"
_symmetry_group_IT_number 2
_symmetry_cell_setting 'triclinic'
loop_
_space_group_symop_operation_xyz
x,y,z
-x,-y,-z
loop_
_atom_site_type_symbol
_atom_site_label
_atom_site_fract_x
_atom_site_fract_y
_atom_site_fract_z
Si Si1 0.823994 0.736033 0.232006
Si Si2 0.896574 0.645146 0.754856
Si Si3 0.602814 0.431848 0.338768
Si Si4 0.407017 0.838627 0.493334
Si Si5 0.261329 0.941339 0.751545
O O1 0.801098 0.723625 0.410327
O O2 0.836647 0.566910 0.425280
O O3 0.108204 0.849035 0.274248
O O4 0.567421 0.774749 0.860869
O O5 0.644647 0.603408 0.708400
O O6 0.151418 0.764267 0.885798
O O7 0.000000 0.500000 0.000000
O O8 0.660483 0.278359 0.542961
O O9 0.500000 0.500000 0.000000
O O10 0.613792 0.983950 0.402061
O O11 0.000000 0.000000 0.500000
O O12 0.500000 0.000000 0.000000
#
# Coordination Sequence:
#
# PCOD9030732 Si02
#       5
#     2   2   2   2   2
#     4  11  25  44  72 113 151 192 243 315 372 434
#     4  12  27  47  77 115 153 194 250 315 377 436
#     4  10  22  42  73 105 148 193 245 297 365 444
#     4  11  24  47  74 106 149 200 249 297 373 452
#     4  12  28  49  78 110 150 199 249 309 369 451
#
# _framework density 25.871466999999999
#
# number of rings (size 3 to 8) (size 9 to 14) (size 15 to 20)
#    0.000    0.800    2.000    4.800    5.600    4.800 
#    0.000    0.000    0.000    0.000    0.000    0.000 
#    0.000    0.000    0.000    0.000    0.000    0.000 
#
# Total GULP energy -56149.129260 kJ/mol
# GULP energy per Si atom -5614.912926 kJ/mol
# Density = 2.581258 g / cm^3
# Si number density = 25.871467 Si / 1000 Ang^3
#
#
#
# Elastic Constant Matrix: (Units=GPa)
#
#
# Indices 1 2 3 4 5 6 
#
# 1 199.3846 59.5815 49.0038 8.4098 -5.7887 24.2637
# 2 59.5815 172.2161 38.0372 6.8692 16.0361 0.2383
# 3 49.0038 38.0372 107.6216 27.9554 -7.2004 -4.5571
# 4 8.4098 6.8692 27.9554 42.6433 -3.9955 -1.8637
# 5 -5.7887 16.0361 -7.2004 -3.9955 49.7508 4.1856
# 6 24.2637 0.2383 -4.5571 -1.8637 4.1856 56.0883
#
#
#
# Elastic Compliance Matrix: (Units=1/GPa)
#
#
# Indices 1 2 3 4 5 6 
#
# 1 0.006591 -0.001859 -0.002562 0.000665 0.001312 -0.003127
# 2 -0.001859 0.007120 -0.001882 0.000225 -0.002836 0.000840
# 3 -0.002562 -0.001882 0.013297 -0.007691 0.001461 0.001832
# 4 0.000665 0.000225 -0.007691 0.028433 0.001180 -0.000057
# 5 0.001312 -0.002836 0.001461 0.001180 0.021643 -0.002013
# 6 -0.003127 0.000840 0.001832 -0.000057 -0.002013 0.019475
#
#
# Mechanical properties :
#
#
# Convention : Reuss Voigt Hill
#
# Bulk Modulus (GPa) = 69.43696 85.82971 77.63334
# Shear Modulus (GPa) = 43.87311 51.86980 47.87146
#
# Velocity S-wave (km/s) = 4.12249 4.48247 4.30624
# Velocity P-wave (km/s) = 7.03970 7.74839 7.40253
#
# Compressibility (1/GPa) = 0.01440155
#
# Stress axis : x y z
#
# Youngs Moduli (GPa) = 151.71979 140.45882 75.20642
#
# Poissons Ratio (x) = 0.26110 0.19265
# Poissons Ratio (y) = 0.28203 0.14157
# Poissons Ratio (z) = 0.38864 0.26440
#
# Static dielectric constant tensor:
#      x y z
#    x 2.001470 -0.019520 -0.016420 
#    y -0.019520 2.056080 -0.056210 
#    z -0.016420 -0.056210 1.992270 
# 
# From -- ./inp_files/20379.got.cif
#   From: 2010.05.17/outbox.cif.g08.bks.cpg/sg2_11_cif.got.tgz:20379.got - 2010.06.03 11:33:40.
