data_PCOD9030275
_publ_section_title
;
Structure prediction by ZEFSAII (Michael W. Deem and Ramdas Pophale) SiO2 
 PCOD9030275
Probable space group: P -1
;
_chemical_formula_sum "Si O2"
_cell_formula_units_Z 14
_cell_length_a 5.443724
_cell_length_b 23.233748
_cell_length_c 14.327779
_cell_angle_alpha 21.089162
_cell_angle_beta 112.439414
_cell_angle_gamma 112.452859
_cell_volume 600.864024
_symmetry_space_group_name_H-M "P -1"
_symmetry_group_IT_number 2
_symmetry_cell_setting 'triclinic'
loop_
_space_group_symop_operation_xyz
x,y,z
-x,-y,-z
loop_
_atom_site_type_symbol
_atom_site_label
_atom_site_fract_x
_atom_site_fract_y
_atom_site_fract_z
Si Si1 0.185009 0.585183 0.101387
Si Si2 0.680355 0.147067 0.702936
Si Si3 0.704763 0.057983 0.360801
Si Si4 0.205285 0.868342 0.054522
Si Si5 0.441655 0.499817 0.881587
Si Si6 0.548603 0.631682 0.387320
Si Si7 0.280324 0.027767 0.196808
O O1 0.347440 0.581152 0.032756
O O2 0.276112 0.439836 0.398105
O O3 0.865329 0.571179 0.066568
O O4 0.269413 0.749402 0.919554
O O5 0.858074 0.136328 0.836654
O O6 0.554309 0.315302 0.430269
O O7 0.809227 0.117349 0.666507
O O8 0.458687 0.997871 0.895469
O O9 0.539326 0.997013 0.338165
O O10 0.500000 0.000000 0.500000
O O11 0.000000 0.000000 0.500000
O O12 0.281640 0.692944 0.301920
O O13 0.996860 0.936675 0.848859
O O14 0.500000 0.500000 0.000000
O O15 0.500000 0.500000 0.500000
O O16 0.666282 0.795256 0.108685
#
# Coordination Sequence:
#
# PCOD9030275 Si02
#       7
#     2   2   2   2   2   2   2
#     4  12  27  51  75 108 146 189 246 308 362 426
#     4  10  23  41  69 105 145 183 237 294 368 424
#     4  12  30  51  75 104 148 196 247 297 356 438
#     4  10  22  42  70 105 144 184 237 299 370 431
#     4  12  28  47  75 105 146 197 244 299 357 433
#     4  11  23  43  69 107 144 184 241 299 369 423
#     4  11  25  42  74 105 141 195 238 298 367 438
#
# _framework density 23.299779999999998
#
# number of rings (size 3 to 8) (size 9 to 14) (size 15 to 20)
#    0.000    0.857    2.857    2.571   10.000    1.714 
#    0.000    0.000    0.000    0.000    0.000    0.000 
#    0.000    0.000    0.000    0.000    0.000    0.000 
#
# Total GULP energy -78154.302963 kJ/mol
# GULP energy per Si atom -5582.450212 kJ/mol
# Density = 2.324675 g / cm^3
# Si number density = 23.299780 Si / 1000 Ang^3
#
#
#
# Elastic Constant Matrix: (Units=GPa)
#
#
# Indices 1 2 3 4 5 6 
#
# 1 116.3152 50.8378 11.7363 8.1501 16.9300 6.9200
# 2 50.8378 107.8149 2.2521 4.1847 10.2976 6.0528
# 3 11.7363 2.2521 41.8078 -5.7717 9.3887 3.1919
# 4 8.1501 4.1847 -5.7717 44.3468 -1.5732 10.1838
# 5 16.9300 10.2976 9.3887 -1.5732 33.4799 5.0722
# 6 6.9200 6.0528 3.1919 10.1838 5.0722 34.2227
#
#
#
# Elastic Compliance Matrix: (Units=1/GPa)
#
#
# Indices 1 2 3 4 5 6 
#
# 1 0.011755 -0.005043 -0.002465 -0.002126 -0.003792 -0.000060
# 2 -0.005043 0.011799 0.001160 0.000159 -0.001239 -0.001039
# 3 -0.002465 0.001160 0.026670 0.004187 -0.006006 -0.002550
# 4 -0.002126 0.000159 0.004187 0.025356 0.002235 -0.007865
# 5 -0.003792 -0.001239 -0.006006 0.002235 0.034600 -0.004247
# 6 -0.000060 -0.001039 -0.002550 -0.007865 -0.004247 0.032624
#
#
# Mechanical properties :
#
#
# Convention : Reuss Voigt Hill
#
# Bulk Modulus (GPa) = 26.64773 43.95447 35.30110
# Shear Modulus (GPa) = 29.75999 35.81734 32.78866
#
# Velocity S-wave (km/s) = 3.57776 3.92502 3.75541
# Velocity P-wave (km/s) = 5.34124 6.28066 5.82991
#
# Compressibility (1/GPa) = 0.03752665
#
# Stress axis : x y z
#
# Youngs Moduli (GPa) = 85.07133 84.74974 37.49523
#
# Poissons Ratio (x) = 0.42740 0.09244
# Poissons Ratio (y) = 0.42903 -0.04348
# Poissons Ratio (z) = 0.20974 -0.09828
#
# Static dielectric constant tensor:
#      x y z
#    x 2.220190 -0.123220 -0.035260 
#    y -0.123220 1.945740 0.076130 
#    z -0.035260 0.076130 1.881650 
# 
# From -- ./inp_files/108947.got.cif
#   From: 2010.05.17/outbox.cif.g08.bks.cpg/sg2_55_cif.got.tgz:108947.got - 2010.06.03 11:33:40.
