data_PCOD9030177
_publ_section_title
;
Structure prediction by ZEFSAII (Michael W. Deem and Ramdas Pophale) SiO2 
 PCOD9030177
Probable space group: P -1
;
_chemical_formula_sum "Si O2"
_cell_formula_units_Z 15
_cell_length_a 13.734943
_cell_length_b 11.884025
_cell_length_c 14.828962
_cell_angle_alpha 28.509337
_cell_angle_beta 143.184236
_cell_angle_gamma 145.694855
_cell_volume 625.528769
_symmetry_space_group_name_H-M "P -1"
_symmetry_group_IT_number 2
_symmetry_cell_setting 'triclinic'
loop_
_space_group_symop_operation_xyz
x,y,z
-x,-y,-z
loop_
_atom_site_type_symbol
_atom_site_label
_atom_site_fract_x
_atom_site_fract_y
_atom_site_fract_z
Si Si1 0.596790 0.993070 0.172388
Si Si2 0.665732 0.358043 0.308062
Si Si3 0.000000 0.500000 0.500000
Si Si4 0.025411 0.050717 0.718524
Si Si5 0.223981 0.369623 0.482130
Si Si6 0.347644 0.836854 0.373550
Si Si7 0.959008 0.500021 0.073967
Si Si8 0.639585 0.846014 0.991906
O O1 0.784490 0.242286 0.144079
O O2 0.649012 0.750105 0.382088
O O3 0.490404 0.034253 0.149572
O O4 0.500000 0.000000 0.000000
O O5 0.860451 0.550011 0.283500
O O6 0.745403 0.295181 0.507532
O O7 0.562655 0.538458 0.125756
O O8 0.538095 0.079953 0.368411
O O9 0.030770 0.763808 0.395971
O O10 0.060107 0.140090 0.577286
O O11 0.225016 0.110938 0.857376
O O12 0.917210 0.751098 0.875253
O O13 0.338916 0.592132 0.482957
O O14 0.127279 0.494702 0.256293
O O15 0.265280 0.983583 0.145072
O O16 0.000000 0.500000 0.000000
#
# Coordination Sequence:
#
# PCOD9030177 Si02
#       8
#     2   2   1   2   2   2   2   2
#     4  12  25  45  70 105 140 179 233 288 342 413
#     4  10  23  44  66  99 139 174 233 279 340 408
#     4  10  22  42  70 100 136 178 220 296 334 400
#     4  11  23  46  69  98 144 174 232 286 344 409
#     4  12  24  46  72 100 142 180 231 289 339 408
#     4  11  22  41  71  93 135 184 216 278 346 397
#     4  12  26  47  73  98 138 188 229 283 351 408
#     4  11  22  45  64 101 139 176 225 288 329 415
#
# _framework density 23.979711999999999
#
# number of rings (size 3 to 8) (size 9 to 14) (size 15 to 20)
#    0.000    0.800    6.667    0.800    0.000    4.800 
#    2.400    6.000    0.000    0.000    0.000    0.000 
#    0.000    0.000    0.000    0.000    0.000    0.000 
#
# Total GULP energy -83521.075287 kJ/mol
# GULP energy per Si atom -5568.071686 kJ/mol
# Density = 2.392513 g / cm^3
# Si number density = 23.979712 Si / 1000 Ang^3
#
#
#
# Elastic Constant Matrix: (Units=GPa)
#
#
# Indices 1 2 3 4 5 6 
#
# 1 88.8807 17.4953 55.8650 -16.1692 22.3645 -17.3188
# 2 17.4953 114.6318 28.4554 -20.2224 12.0203 -12.5099
# 3 55.8650 28.4554 140.0925 -21.9416 2.8818 -21.1751
# 4 -16.1692 -20.2224 -21.9416 41.5791 -12.7239 3.7502
# 5 22.3645 12.0203 2.8818 -12.7239 45.2652 -8.5447
# 6 -17.3188 -12.5099 -21.1751 3.7502 -8.5447 25.3515
#
#
#
# Elastic Compliance Matrix: (Units=1/GPa)
#
#
# Indices 1 2 3 4 5 6 
#
# 1 0.018098 0.000278 -0.006235 0.001199 -0.007410 0.004618
# 2 0.000278 0.010094 -0.001022 0.003857 -0.001027 0.003401
# 3 -0.006235 -0.001022 0.011204 0.003956 0.004814 0.005632
# 4 0.001199 0.003857 0.003956 0.030392 0.007437 0.004037
# 5 -0.007410 -0.001027 0.004814 0.007437 0.029165 0.007182
# 6 0.004618 0.003401 0.005632 0.004037 0.007182 0.050806
#
#
# Mechanical properties :
#
#
# Convention : Reuss Voigt Hill
#
# Bulk Modulus (GPa) = 39.31176 60.80404 50.05790
# Shear Modulus (GPa) = 29.03667 38.55843 33.79755
#
# Velocity S-wave (km/s) = 3.48355 4.01429 3.75830
# Velocity P-wave (km/s) = 5.71048 6.84818 6.30504
#
# Compressibility (1/GPa) = 0.02543768
#
# Stress axis : x y z
#
# Youngs Moduli (GPa) = 55.25550 99.06799 89.25457
#
# Poissons Ratio (x) = -0.02755 0.55652
# Poissons Ratio (y) = -0.01537 0.09121
# Poissons Ratio (z) = 0.34453 0.10124
#
# Static dielectric constant tensor:
#      x y z
#    x 8.359490 4.192960 0.116950 
#    y 4.192960 4.712010 0.086060 
#    z 0.116950 0.086060 1.954250 
# 
# From -- ./inp_files/531555.got.cif
#   From: 2010.05.17/outbox.cif.g08.bks.cpg/sg2_266_cif.got.tgz:531555.got - 2010.06.03 11:33:40.
