data_PCOD9030233
_publ_section_title
;
Structure prediction by ZEFSAII (Michael W. Deem and Ramdas Pophale) SiO2 
 PCOD9030233
Probable space group: P -1
;
_chemical_formula_sum "Si O2"
_cell_formula_units_Z 16
_cell_length_a 8.772005
_cell_length_b 14.665801
_cell_length_c 5.603870
_cell_angle_alpha 74.940703
_cell_angle_beta 85.148315
_cell_angle_gamma 110.510606
_cell_volume 639.629495
_symmetry_space_group_name_H-M "P -1"
_symmetry_group_IT_number 2
_symmetry_cell_setting 'triclinic'
loop_
_space_group_symop_operation_xyz
x,y,z
-x,-y,-z
loop_
_atom_site_type_symbol
_atom_site_label
_atom_site_fract_x
_atom_site_fract_y
_atom_site_fract_z
Si Si1 0.070175 0.444477 0.331971
Si Si2 0.892711 0.033003 0.675724
Si Si3 0.148431 0.320062 0.767555
Si Si4 0.667350 0.018353 0.333470
Si Si5 0.776234 0.865419 0.163050
Si Si6 0.750513 0.211391 0.932593
Si Si7 0.708860 0.299957 0.366874
Si Si8 0.652729 0.478411 0.095586
O O1 0.143851 0.364385 0.476348
O O2 0.000000 0.500000 0.500000
O O3 0.903514 0.375417 0.267463
O O4 0.224901 0.528395 0.124731
O O5 0.802010 0.081221 0.475275
O O6 0.030353 0.098209 0.801466
O O7 0.000000 0.000000 0.500000
O O8 0.772519 0.929094 0.886211
O O9 0.257250 0.251075 0.807531
O O10 0.232332 0.420593 0.846579
O O11 0.951619 0.263877 0.889744
O O12 0.500000 0.000000 0.500000
O O13 0.686497 0.912178 0.333968
O O14 0.697302 0.088886 0.047409
O O15 0.696488 0.244483 0.664054
O O16 0.671689 0.237076 0.166726
O O17 0.610584 0.375999 0.325431
O O18 0.500000 0.500000 0.000000
#
# Coordination Sequence:
#
# PCOD9030233 Si02
#       8
#     2   2   2   2   2   2   2   2
#     4  11  22  44  75 100 145 201 260 306 368 450
#     4   9  19  39  70  95 138 176 243 301 371 428
#     4  11  23  42  75 107 143 199 258 307 376 451
#     4  11  26  47  69 106 151 194 242 317 385 450
#     4  10  22  42  70 102 138 190 246 309 366 456
#     4  11  25  45  81 108 142 201 267 309 370 457
#     4  11  24  47  75 109 146 199 263 312 367 462
#     4  12  26  46  71 111 158 193 242 325 390 446
#
# _framework density 25.014482999999998
#
# number of rings (size 3 to 8) (size 9 to 14) (size 15 to 20)
#    0.000    1.250    2.500    4.125    5.250    3.000 
#    4.500    0.000    0.000    0.000    0.000    0.000 
#    0.000    0.000    0.000    0.000    0.000    0.000 
#
# Total GULP energy -89402.413918 kJ/mol
# GULP energy per Si atom -5587.650870 kJ/mol
# Density = 2.495755 g / cm^3
# Si number density = 25.014483 Si / 1000 Ang^3
#
#
#
# Elastic Constant Matrix: (Units=GPa)
#
#
# Indices 1 2 3 4 5 6 
#
# 1 92.1323 23.6076 56.3141 -10.0405 13.1376 -18.0645
# 2 23.6076 121.7925 38.3218 -1.1747 6.2867 -45.4744
# 3 56.3141 38.3218 146.3952 -12.9872 12.1626 -30.1378
# 4 -10.0405 -1.1747 -12.9872 36.0239 -6.5027 3.5002
# 5 13.1376 6.2867 12.1626 -6.5027 30.8990 -4.0281
# 6 -18.0645 -45.4744 -30.1378 3.5002 -4.0281 34.8700
#
#
#
# Elastic Compliance Matrix: (Units=1/GPa)
#
#
# Indices 1 2 3 4 5 6 
#
# 1 0.015047 -0.000105 -0.004689 0.001518 -0.003819 0.003013
# 2 -0.000105 0.016110 0.000091 -0.001679 -0.000871 0.021101
# 3 -0.004689 0.000091 0.010089 0.001580 -0.000862 0.006151
# 4 0.001518 -0.001679 0.001580 0.029845 0.005035 -0.002451
# 5 -0.003819 -0.000871 -0.000862 0.005035 0.035529 -0.000261
# 6 0.003013 0.021101 0.006151 -0.002451 -0.000261 0.063289
#
#
# Mechanical properties :
#
#
# Convention : Reuss Voigt Hill
#
# Bulk Modulus (GPa) = 31.40670 66.31189 48.85930
# Shear Modulus (GPa) = 26.32588 36.49702 31.41145
#
# Velocity S-wave (km/s) = 3.24763 3.82388 3.54747
# Velocity P-wave (km/s) = 5.16192 6.78697 6.02945
#
# Compressibility (1/GPa) = 0.03184034
#
# Stress axis : x y z
#
# Youngs Moduli (GPa) = 66.45678 62.07387 99.12107
#
# Poissons Ratio (x) = 0.00650 0.46475
# Poissons Ratio (y) = 0.00696 -0.00899
# Poissons Ratio (z) = 0.31160 -0.00563
#
# Static dielectric constant tensor:
#      x y z
#    x 1.939160 -0.085070 -0.074110 
#    y -0.085070 1.984650 -0.113690 
#    z -0.074110 -0.113690 1.945750 
# 
# From -- ./inp_files/37463.got.cif
#   From: 2010.05.17/outbox.cif.g08.bks.cpg/sg2_19_cif.got.tgz:37463.got - 2010.06.03 11:33:40.
