data_PCOD9030832
_publ_section_title
;
Structure prediction by ZEFSAII (Michael W. Deem and Ramdas Pophale) SiO2 
 PCOD9030832
Probable space group: P -1
;
_chemical_formula_sum "Si O2"
_cell_formula_units_Z 16
_cell_length_a 9.070999
_cell_length_b 11.854707
_cell_length_c 7.399016
_cell_angle_alpha 84.372431
_cell_angle_beta 103.053953
_cell_angle_gamma 52.418866
_cell_volume 584.890118
_symmetry_space_group_name_H-M "P -1"
_symmetry_group_IT_number 2
_symmetry_cell_setting 'triclinic'
loop_
_space_group_symop_operation_xyz
x,y,z
-x,-y,-z
loop_
_atom_site_type_symbol
_atom_site_label
_atom_site_fract_x
_atom_site_fract_y
_atom_site_fract_z
Si Si1 0.013446 0.039688 0.202026
Si Si2 0.129165 0.209041 0.080949
Si Si3 0.707280 0.891930 0.256528
Si Si4 0.664771 0.273623 0.542563
Si Si5 0.862530 0.396084 0.456421
Si Si6 0.732777 0.361570 0.061990
Si Si7 0.590472 0.708844 0.245224
Si Si8 0.439241 0.237214 0.195726
O O1 0.145984 0.089264 0.228265
O O2 0.797553 0.200472 0.155616
O O3 0.119775 0.895507 0.377147
O O4 0.000000 0.000000 0.000000
O O5 0.232262 0.271159 0.177568
O O6 0.888187 0.323216 0.951687
O O7 0.249628 0.125879 0.943361
O O8 0.572874 0.848342 0.269141
O O9 0.921310 0.750515 0.410184
O O10 0.608327 0.056086 0.265534
O O11 0.706643 0.384104 0.504580
O O12 0.584491 0.281210 0.718758
O O13 0.510694 0.294242 0.352976
O O14 0.834843 0.386013 0.240378
O O15 0.784845 0.561553 0.420592
O O16 0.500000 0.500000 0.000000
O O17 0.595031 0.703937 0.029602
#
# Coordination Sequence:
#
# PCOD9030832 Si02
#       8
#     2   2   2   2   2   2   2   2
#     4  10  22  42  75 111 150 203 258 319 387 452
#     4   9  22  45  75 110 150 199 251 325 390 452
#     4  11  23  49  78 111 151 196 266 318 394 462
#     4  12  27  44  78 116 152 206 264 316 388 455
#     4  12  28  46  68 110 160 202 258 320 381 470
#     4  10  26  45  70 106 159 201 245 317 393 454
#     4  11  27  48  76 108 158 209 250 323 390 462
#     4  11  25  48  80 115 152 196 267 322 386 469
#
# _framework density 27.355561999999999
#
# number of rings (size 3 to 8) (size 9 to 14) (size 15 to 20)
#    0.750    0.500    0.000    5.250    5.250    5.000 
#    0.000    1.250    0.000    0.000    0.000    0.000 
#    0.000    0.000    0.000    0.000    0.000    0.000 
#
# Total GULP energy -89512.235205 kJ/mol
# GULP energy per Si atom -5594.514700 kJ/mol
# Density = 2.729330 g / cm^3
# Si number density = 27.355562 Si / 1000 Ang^3
#
#
#
# Elastic Constant Matrix: (Units=GPa)
#
#
# Indices 1 2 3 4 5 6 
#
# 1 154.1262 39.3544 49.7479 -20.6385 -11.5068 -3.5910
# 2 39.3544 120.9286 44.3452 -43.3245 -7.3658 -9.5853
# 3 49.7479 44.3452 118.3993 -34.3178 7.8502 11.5442
# 4 -20.6385 -43.3245 -34.3178 57.6530 -4.4628 3.5425
# 5 -11.5068 -7.3658 7.8502 -4.4628 43.1846 -12.7805
# 6 -3.5910 -9.5853 11.5442 3.5425 -12.7805 49.1405
#
#
#
# Elastic Compliance Matrix: (Units=1/GPa)
#
#
# Indices 1 2 3 4 5 6 
#
# 1 0.008159 -0.000931 -0.003401 0.000325 0.003271 0.002041
# 2 -0.000931 0.012991 -0.002856 0.007842 0.004397 0.003715
# 3 -0.003401 -0.002856 0.013074 0.004373 -0.004939 -0.005477
# 4 0.000325 0.007842 0.004373 0.026236 0.003181 -0.000538
# 5 0.003271 0.004397 -0.004939 0.003181 0.028823 0.009524
# 6 0.002041 0.003715 -0.005477 -0.000538 0.009524 0.025026
#
#
# Mechanical properties :
#
#
# Convention : Reuss Voigt Hill
#
# Bulk Modulus (GPa) = 50.38207 73.37213 61.87710
# Shear Modulus (GPa) = 36.95493 47.32939 42.14216
#
# Velocity S-wave (km/s) = 3.67946 4.16403 3.92922
# Velocity P-wave (km/s) = 6.04224 7.07098 6.57676
#
# Compressibility (1/GPa) = 0.01984833
#
# Stress axis : x y z
#
# Youngs Moduli (GPa) = 122.56497 76.97674 76.49027
#
# Poissons Ratio (x) = 0.07163 0.26018
# Poissons Ratio (y) = 0.11405 0.21842
# Poissons Ratio (z) = 0.41690 0.21981
#
# Static dielectric constant tensor:
#      x y z
#    x 2.181380 -0.046950 0.028410 
#    y -0.046950 2.356810 0.027500 
#    z 0.028410 0.027500 2.155870 
# 
# From -- ./inp_files/217317.got.cif
#   From: 2010.05.17/outbox.cif.g08.bks.cpg/sg2_109_cif.got.tgz:217317.got - 2010.06.03 11:33:40.
