data_PCOD9030584
_publ_section_title
;
Structure prediction by ZEFSAII (Michael W. Deem and Ramdas Pophale) SiO2 
 PCOD9030584
Probable space group: P -1
;
_chemical_formula_sum "Si O2"
_cell_formula_units_Z 14
_cell_length_a 10.545639
_cell_length_b 13.677467
_cell_length_c 8.132551
_cell_angle_alpha 42.434623
_cell_angle_beta 73.095625
_cell_angle_gamma 51.109987
_cell_volume 581.845207
_symmetry_space_group_name_H-M "P -1"
_symmetry_group_IT_number 2
_symmetry_cell_setting 'triclinic'
loop_
_space_group_symop_operation_xyz
x,y,z
-x,-y,-z
loop_
_atom_site_type_symbol
_atom_site_label
_atom_site_fract_x
_atom_site_fract_y
_atom_site_fract_z
Si Si1 0.297245 0.835818 0.089021
Si Si2 0.607953 0.990224 0.618981
Si Si3 0.360728 0.703443 0.879296
Si Si4 0.125170 0.401167 0.857964
Si Si5 0.963403 0.229526 0.645538
Si Si6 0.581588 0.766681 0.310457
Si Si7 0.848910 0.392239 0.842469
O O1 0.177063 0.801189 0.269322
O O2 0.430405 0.813339 0.192248
O O3 0.398054 0.697305 0.068288
O O4 0.157962 0.036765 0.800000
O O5 0.648988 0.130568 0.400873
O O6 0.497045 0.066587 0.735725
O O7 0.500000 0.000000 0.500000
O O8 0.771720 0.770733 0.842180
O O9 0.500000 0.500000 0.000000
O O10 0.182424 0.737491 0.894780
O O11 0.092428 0.593835 0.660336
O O12 0.251432 0.304551 0.770396
O O13 0.945521 0.448716 0.833257
O O14 0.954016 0.288078 0.766312
O O15 0.665006 0.580585 0.618789
#
# Coordination Sequence:
#
# PCOD9030584 Si02
#       7
#     2   2   2   2   2   2   2
#     4  10  22  42  77 105 139 191 239 287 350 416
#     4  12  27  45  70 106 142 185 233 292 361 425
#     4  11  24  48  70 101 148 187 229 289 350 430
#     4  11  24  42  70 102 141 183 235 298 350 408
#     4   9  20  41  69 112 140 175 239 300 343 405
#     4  11  22  43  73 106 138 183 241 293 343 416
#     4  10  22  42  72 100 142 184 233 290 352 411
#
# _framework density 24.061384
#
# number of rings (size 3 to 8) (size 9 to 14) (size 15 to 20)
#    0.000    1.429    1.429    3.857    0.000   10.286 
#    0.000    2.857    3.143    0.000    0.000    0.000 
#    0.000    0.000    0.000    0.000    0.000    0.000 
#
# Total GULP energy -78301.046736 kJ/mol
# GULP energy per Si atom -5592.931910 kJ/mol
# Density = 2.400662 g / cm^3
# Si number density = 24.061384 Si / 1000 Ang^3
#
#
#
# Elastic Constant Matrix: (Units=GPa)
#
#
# Indices 1 2 3 4 5 6 
#
# 1 147.4305 36.8915 84.7762 -3.7250 -4.5873 3.0546
# 2 36.8915 118.6750 33.5661 -13.2654 16.3487 8.3359
# 3 84.7762 33.5661 163.1847 -34.6481 -21.3037 -3.8274
# 4 -3.7250 -13.2654 -34.6481 33.7659 1.8591 -8.2847
# 5 -4.5873 16.3487 -21.3037 1.8591 35.1964 1.7867
# 6 3.0546 8.3359 -3.8274 -8.2847 1.7867 20.1435
#
#
#
# Elastic Compliance Matrix: (Units=1/GPa)
#
#
# Indices 1 2 3 4 5 6 
#
# 1 0.011636 -0.001697 -0.007969 -0.008963 -0.001735 -0.006109
# 2 -0.001697 0.010769 -0.001883 0.001642 -0.006281 -0.003325
# 3 -0.007969 -0.001883 0.015424 0.016484 0.007742 0.011011
# 4 -0.008963 0.001642 0.016484 0.052065 0.004034 0.024868
# 5 -0.001735 -0.006281 0.007742 0.004034 0.035432 0.002850
# 6 -0.006109 -0.003325 0.011011 0.024868 0.002850 0.064013
#
#
# Mechanical properties :
#
#
# Convention : Reuss Voigt Hill
#
# Bulk Modulus (GPa) = 67.88287 82.19532 75.03909
# Shear Modulus (GPa) = 23.00470 36.09159 29.54814
#
# Velocity S-wave (km/s) = 3.09541 3.87716 3.50813
# Velocity P-wave (km/s) = 6.40696 7.36736 6.90388
#
# Compressibility (1/GPa) = 0.01473126
#
# Stress axis : x y z
#
# Youngs Moduli (GPa) = 85.94077 92.86161 64.83361
#
# Poissons Ratio (x) = 0.15759 0.51665
# Poissons Ratio (y) = 0.14585 0.12207
# Poissons Ratio (z) = 0.68485 0.17484
#
# Static dielectric constant tensor:
#      x y z
#    x 1.928850 -0.066610 -0.058650 
#    y -0.066610 2.008110 0.003910 
#    z -0.058650 0.003910 2.010880 
# 
# From -- ./inp_files/271491.got.cif
#   From: 2010.05.17/outbox.cif.g08.bks.cpg/sg2_136_cif.got.tgz:271491.got - 2010.06.03 11:33:40.
