data_PCOD9030401
_publ_section_title
;
Structure prediction by ZEFSAII (Michael W. Deem and Ramdas Pophale) SiO2 
 PCOD9030401
Probable space group: P -1
;
_chemical_formula_sum "Si O2"
_cell_formula_units_Z 15
_cell_length_a 13.370144
_cell_length_b 14.165282
_cell_length_c 11.958208
_cell_angle_alpha 131.102150
_cell_angle_beta 147.960888
_cell_angle_gamma 30.778284
_cell_volume 593.477776
_symmetry_space_group_name_H-M "P -1"
_symmetry_group_IT_number 2
_symmetry_cell_setting 'triclinic'
loop_
_space_group_symop_operation_xyz
x,y,z
-x,-y,-z
loop_
_atom_site_type_symbol
_atom_site_label
_atom_site_fract_x
_atom_site_fract_y
_atom_site_fract_z
Si Si1 0.773359 0.124826 0.092143
Si Si2 0.500000 0.500000 0.000000
Si Si3 0.238142 0.376930 0.942954
Si Si4 0.364298 0.965717 0.529396
Si Si5 0.009204 0.644306 0.619947
Si Si6 0.124293 0.719272 0.136650
Si Si7 0.666091 0.573413 0.445696
Si Si8 0.291962 0.170494 0.022280
O O1 0.628357 0.287259 0.991265
O O2 0.537667 0.218211 0.037511
O O3 0.061763 0.054445 0.347999
O O4 0.908612 0.923374 0.029017
O O5 0.816757 0.374035 0.134517
O O6 0.138953 0.568473 0.999607
O O7 0.246407 0.323800 0.035728
O O8 0.988548 0.423553 0.680321
O O9 0.536121 0.778699 0.470011
O O10 0.548326 0.894194 0.758784
O O11 0.267957 0.142240 0.514860
O O12 0.286658 0.530059 0.705002
O O13 0.000000 0.500000 0.500000
O O14 0.442814 0.615774 0.346034
O O15 0.989061 0.772127 0.174344
O O16 0.500000 0.000000 0.000000
#
# Coordination Sequence:
#
# PCOD9030401 Si02
#       8
#     2   1   2   2   2   2   2   2
#     4  10  23  46  68  98 136 180 222 286 342 404
#     4  10  22  42  70  98 130 170 226 274 338 408
#     4  12  24  43  69  99 138 181 228 279 335 400
#     4  10  24  46  63 100 142 173 230 280 336 411
#     4  11  24  43  72  99 131 177 225 282 345 402
#     4  11  24  44  66  97 138 178 225 279 336 399
#     4  11  25  44  68 100 138 176 224 280 338 408
#     4  12  24  43  70 101 137 185 231 279 338 404
#
# _framework density 25.274746
#
# number of rings (size 3 to 8) (size 9 to 14) (size 15 to 20)
#    0.000    1.067    2.667    3.600    1.867    1.600 
#    2.400   12.000    0.000    0.000    0.000    0.000 
#    0.000    0.000    0.000    0.000    0.000    0.000 
#
# Total GULP energy -83739.246588 kJ/mol
# GULP energy per Si atom -5582.616439 kJ/mol
# Density = 2.521722 g / cm^3
# Si number density = 25.274746 Si / 1000 Ang^3
#
#
#
# Elastic Constant Matrix: (Units=GPa)
#
#
# Indices 1 2 3 4 5 6 
#
# 1 87.5663 56.1189 7.6760 -5.1708 17.4202 16.8912
# 2 56.1189 172.5138 35.2558 -1.9004 -7.8088 15.5652
# 3 7.6760 35.2558 93.7302 -5.6512 13.9638 17.4726
# 4 -5.1708 -1.9004 -5.6512 35.2529 -2.2985 6.7275
# 5 17.4202 -7.8088 13.9638 -2.2985 44.8651 -9.1285
# 6 16.8912 15.5652 17.4726 6.7275 -9.1285 64.0986
#
#
#
# Elastic Compliance Matrix: (Units=1/GPa)
#
#
# Indices 1 2 3 4 5 6 
#
# 1 0.019173 -0.006958 0.004112 0.003604 -0.011060 -0.006437
# 2 -0.006958 0.008987 -0.004064 -0.001134 0.005820 0.001707
# 3 0.004112 -0.004064 0.014199 0.003190 -0.007657 -0.005392
# 4 0.003604 -0.001134 0.003190 0.030166 -0.002062 -0.005004
# 5 -0.011060 0.005820 -0.007657 -0.002062 0.031563 0.008300
# 6 -0.006437 0.001707 -0.005392 -0.005004 0.008300 0.020060
#
#
# Mechanical properties :
#
#
# Convention : Reuss Voigt Hill
#
# Bulk Modulus (GPa) = 35.03863 61.32352 48.18108
# Shear Modulus (GPa) = 33.90250 45.82729 39.86489
#
# Velocity S-wave (km/s) = 3.66643 4.26275 3.97578
# Velocity P-wave (km/s) = 5.64064 6.96731 6.33878
#
# Compressibility (1/GPa) = 0.02853993
#
# Stress axis : x y z
#
# Youngs Moduli (GPa) = 52.15616 111.26584 70.42628
#
# Poissons Ratio (x) = 0.77413 -0.28958
# Poissons Ratio (y) = 0.36288 0.28624
# Poissons Ratio (z) = -0.21446 0.45222
#
# Static dielectric constant tensor:
#      x y z
#    x 2.149600 0.027900 0.062400 
#    y 0.027900 2.069680 0.006860 
#    z 0.062400 0.006860 2.093430 
# 
# From -- ./inp_files/534163.got.cif
#   From: 2010.05.17/outbox.cif.g08.bks.cpg/sg2_268_cif.got.tgz:534163.got - 2010.06.03 11:33:40.
