data_PCOD9030990
_publ_section_title
;
Structure prediction by ZEFSAII (Michael W. Deem and Ramdas Pophale) SiO2 
 PCOD9030990
Probable space group: P -1
;
_chemical_formula_sum "Si O2"
_cell_formula_units_Z 16
_cell_length_a 15.005780
_cell_length_b 18.632531
_cell_length_c 9.797791
_cell_angle_alpha 35.117577
_cell_angle_beta 32.128383
_cell_angle_gamma 32.902336
_cell_volume 735.152929
_symmetry_space_group_name_H-M "P -1"
_symmetry_group_IT_number 2
_symmetry_cell_setting 'triclinic'
loop_
_space_group_symop_operation_xyz
x,y,z
-x,-y,-z
loop_
_atom_site_type_symbol
_atom_site_label
_atom_site_fract_x
_atom_site_fract_y
_atom_site_fract_z
Si Si1 0.903151 0.772149 0.508590
Si Si2 0.161698 0.836485 0.525823
Si Si3 0.231784 0.480279 0.603683
Si Si4 0.415724 0.292051 0.915573
Si Si5 0.098243 0.881284 0.249219
Si Si6 0.519913 0.373227 0.930816
Si Si7 0.970349 0.810414 0.062837
Si Si8 0.184335 0.379277 0.531074
O O1 0.044209 0.631796 0.627092
O O2 0.920871 0.899229 0.361341
O O3 0.000276 0.743757 0.277853
O O4 0.693818 0.787423 0.754173
O O5 0.375857 0.807525 0.265279
O O6 0.106033 0.800339 0.507122
O O7 0.000000 0.000000 0.500000
O O8 0.139224 0.762035 0.807039
O O9 0.287273 0.387713 0.811009
O O10 0.406330 0.515716 0.302604
O O11 0.191789 0.410729 0.631381
O O12 0.440348 0.383885 0.862761
O O13 0.290678 0.780622 0.075856
O O14 0.095676 0.026214 0.069105
O O15 0.364845 0.377000 0.228690
O O16 0.822614 0.767445 0.252753
O O17 0.000000 0.500000 0.500000
#
# Coordination Sequence:
#
# PCOD9030990 Si02
#       8
#     2   2   2   2   2   2   2   2
#     4  11  22  42  64 100 128 165 224 271 311 388
#     4   9  22  44  65  90 128 171 212 264 330 383
#     4  11  24  39  64  96 136 172 214 263 332 389
#     4  11  22  41  67  97 128 174 217 269 323 385
#     4   9  22  42  69  89 125 170 219 269 323 380
#     4  10  22  43  63  95 126 169 221 275 317 387
#     4  11  22  42  67  88 131 173 210 262 335 370
#     4  12  24  40  63  96 137 169 216 270 324 392
#
# _framework density 21.76418
#
# number of rings (size 3 to 8) (size 9 to 14) (size 15 to 20)
#    0.000    1.500    2.500    1.500    3.500    2.500 
#    4.500    2.500    0.000    0.000    0.000    0.000 
#    0.000    0.000    0.000    0.000    0.000    0.000 
#
# Total GULP energy -89266.988249 kJ/mol
# GULP energy per Si atom -5579.186766 kJ/mol
# Density = 2.171464 g / cm^3
# Si number density = 21.764180 Si / 1000 Ang^3
#
#
#
# Elastic Constant Matrix: (Units=GPa)
#
#
# Indices 1 2 3 4 5 6 
#
# 1 129.5370 23.5874 35.4777 -17.1310 -13.2720 20.5242
# 2 23.5874 38.2891 15.5649 -5.3536 -2.5736 12.7736
# 3 35.4777 15.5649 109.1655 14.3341 -16.4446 4.1941
# 4 -17.1310 -5.3536 14.3341 29.4551 2.5226 -13.0423
# 5 -13.2720 -2.5736 -16.4446 2.5226 30.6793 -13.1644
# 6 20.5242 12.7736 4.1941 -13.0423 -13.1644 33.6909
#
#
#
# Elastic Compliance Matrix: (Units=1/GPa)
#
#
# Indices 1 2 3 4 5 6 
#
# 1 0.010559 -0.003517 -0.003529 0.006338 0.001098 -0.001777
# 2 -0.003517 0.033856 -0.004359 0.001427 -0.006312 -0.012065
# 3 -0.003529 -0.004359 0.013058 -0.009272 0.006324 0.001058
# 4 0.006338 0.001427 -0.009272 0.049528 0.000784 0.016231
# 5 0.001098 -0.006312 0.006324 0.000784 0.043730 0.018328
# 6 -0.001777 -0.012065 0.001058 0.016231 0.018328 0.048651
#
#
# Mechanical properties :
#
#
# Convention : Reuss Voigt Hill
#
# Bulk Modulus (GPa) = 28.84907 47.36128 38.10518
# Shear Modulus (GPa) = 21.39071 32.25585 26.82328
#
# Velocity S-wave (km/s) = 3.13843 3.85393 3.51444
# Velocity P-wave (km/s) = 5.13975 6.45074 5.83220
#
# Compressibility (1/GPa) = 0.03466316
#
# Stress axis : x y z
#
# Youngs Moduli (GPa) = 94.70643 29.53687 76.58097
#
# Poissons Ratio (x) = 0.10389 0.27023
# Poissons Ratio (y) = 0.33313 0.33380
# Poissons Ratio (z) = 0.33418 0.12875
#
# Static dielectric constant tensor:
#      x y z
#    x 1.835550 -0.002830 0.017380 
#    y -0.002830 1.823700 -0.049160 
#    z 0.017380 -0.049160 1.867670 
# 
# From -- ./inp_files/317939.got.cif
#   From: 2010.05.17/outbox.cif.g08.bks.cpg/sg2_159_cif.got.tgz:317939.got - 2010.06.03 11:33:40.
