data_PCOD9030165
_publ_section_title
;
Structure prediction by ZEFSAII (Michael W. Deem and Ramdas Pophale) SiO2 
 PCOD9030165
Probable space group: P -1
;
_chemical_formula_sum "Si O2"
_cell_formula_units_Z 12
_cell_length_a 8.339527
_cell_length_b 12.154637
_cell_length_c 6.563309
_cell_angle_alpha 60.017181
_cell_angle_beta 89.040277
_cell_angle_gamma 63.709797
_cell_volume 498.392991
_symmetry_space_group_name_H-M "P -1"
_symmetry_group_IT_number 2
_symmetry_cell_setting 'triclinic'
loop_
_space_group_symop_operation_xyz
x,y,z
-x,-y,-z
loop_
_atom_site_type_symbol
_atom_site_label
_atom_site_fract_x
_atom_site_fract_y
_atom_site_fract_z
Si Si1 0.708962 0.663402 0.635978
Si Si2 0.586372 0.328295 0.124115
Si Si3 0.163216 0.138918 0.356401
Si Si4 0.111923 0.851445 0.365295
Si Si5 0.136637 0.674849 0.153197
Si Si6 0.398956 0.934947 0.203121
O O1 0.589445 0.689917 0.821464
O O2 0.823206 0.741900 0.615565
O O3 0.809098 0.494748 0.720085
O O4 0.556361 0.765446 0.380126
O O5 0.734628 0.242746 0.378337
O O6 0.500000 0.500000 0.000000
O O7 0.692033 0.302530 0.936438
O O8 0.077955 0.065426 0.576756
O O9 0.345734 0.020180 0.343373
O O10 0.023259 0.231565 0.092006
O O11 0.090575 0.742327 0.314181
O O12 0.202318 0.937758 0.168109
O O13 0.500000 0.000000 0.000000
#
# Coordination Sequence:
#
# PCOD9030165 Si02
#       6
#     2   2   2   2   2   2
#     4  10  22  43  67  97 136 167 216 277 321 380
#     4   8  18  37  62  95 126 167 209 263 322 372
#     4  11  24  44  66  98 135 170 215 267 330 387
#     4  10  23  43  68  95 133 169 217 272 323 386
#     4  10  22  42  70 100 128 171 217 268 332 386
#     4  11  26  45  66  97 128 181 221 261 323 389
#
# _framework density 24.077382
#
# number of rings (size 3 to 8) (size 9 to 14) (size 15 to 20)
#    0.000    2.000    0.000    1.500    4.667    7.333 
#    9.000    0.000    0.000    0.000    0.000    0.000 
#    0.000    0.000    0.000    0.000    0.000    0.000 
#
# Total GULP energy -66926.727302 kJ/mol
# GULP energy per Si atom -5577.227275 kJ/mol
# Density = 2.402258 g / cm^3
# Si number density = 24.077382 Si / 1000 Ang^3
#
#
#
# Elastic Constant Matrix: (Units=GPa)
#
#
# Indices 1 2 3 4 5 6 
#
# 1 110.7161 40.9884 39.0567 17.9459 -31.7158 12.5798
# 2 40.9884 132.9739 45.6224 4.8709 1.2050 11.4135
# 3 39.0567 45.6224 58.4071 -3.6505 -25.3373 -11.4072
# 4 17.9459 4.8709 -3.6505 45.0678 -8.5459 -0.8080
# 5 -31.7158 1.2050 -25.3373 -8.5459 37.1938 0.4457
# 6 12.5798 11.4135 -11.4072 -0.8080 0.4457 40.3947
#
#
#
# Elastic Compliance Matrix: (Units=1/GPa)
#
#
# Indices 1 2 3 4 5 6 
#
# 1 0.016343 -0.001100 -0.009115 -0.006036 0.006465 -0.007545
# 2 -0.001100 0.017530 -0.024057 -0.007294 -0.019434 -0.011336
# 3 -0.009115 -0.024057 0.067788 0.020493 0.043550 0.028708
# 4 -0.006036 -0.007294 0.020493 0.030233 0.015875 0.010157
# 5 0.006465 -0.019434 0.043550 0.015875 0.066160 0.015364
# 6 -0.007545 -0.011336 0.028708 0.010157 0.015364 0.038449
#
#
# Mechanical properties :
#
#
# Convention : Reuss Voigt Hill
#
# Bulk Modulus (GPa) = 30.19775 61.49246 45.84511
# Shear Modulus (GPa) = 15.81850 36.29324 26.05587
#
# Velocity S-wave (km/s) = 2.56595 3.88668 3.29321
# Velocity P-wave (km/s) = 4.62039 6.76289 5.79158
#
# Compressibility (1/GPa) = 0.03311505
#
# Stress axis : x y z
#
# Youngs Moduli (GPa) = 61.18999 57.04654 14.75184
#
# Poissons Ratio (x) = 0.06275 0.13446
# Poissons Ratio (y) = 0.06731 0.35489
# Poissons Ratio (z) = 0.55775 1.37239
#
# Static dielectric constant tensor:
#      x y z
#    x 2.026680 -0.023960 -0.065380 
#    y -0.023960 1.895610 -0.005170 
#    z -0.065380 -0.005170 1.948530 
# 
# From -- ./inp_files/26214.got.cif
#   From: 2010.05.17/outbox.cif.g08.bks.cpg/sg2_14_cif.got.tgz:26214.got - 2010.06.03 11:33:40.
