data_PCOD9030407
_publ_section_title
;
Structure prediction by ZEFSAII (Michael W. Deem and Ramdas Pophale) SiO2 
 PCOD9030407
Probable space group: P -1
;
_chemical_formula_sum "Si O2"
_cell_formula_units_Z 16
_cell_length_a 9.154416
_cell_length_b 18.787762
_cell_length_c 13.090712
_cell_angle_alpha 151.737914
_cell_angle_beta 48.368480
_cell_angle_gamma 128.289686
_cell_volume 793.036731
_symmetry_space_group_name_H-M "P -1"
_symmetry_group_IT_number 2
_symmetry_cell_setting 'triclinic'
loop_
_space_group_symop_operation_xyz
x,y,z
-x,-y,-z
loop_
_atom_site_type_symbol
_atom_site_label
_atom_site_fract_x
_atom_site_fract_y
_atom_site_fract_z
Si Si1 0.690540 0.607668 0.015397
Si Si2 0.956125 0.094073 0.541949
Si Si3 0.745265 0.882074 0.729363
Si Si4 0.620229 0.102567 0.237606
Si Si5 0.407790 0.463430 0.605378
Si Si6 0.444595 0.052327 0.478024
Si Si7 0.226627 0.549179 0.427107
Si Si8 0.019997 0.587779 0.996645
O O1 0.646237 0.783516 0.267829
O O2 0.500000 0.500000 0.000000
O O3 0.734300 0.562795 0.824002
O O4 0.870103 0.553967 0.931113
O O5 0.049644 0.060758 0.348058
O O6 0.724609 0.080842 0.632631
O O7 0.045519 0.256313 0.736787
O O8 0.000000 0.000000 0.500000
O O9 0.584862 0.899350 0.734612
O O10 0.709394 0.704558 0.548099
O O11 0.721345 0.980876 0.967172
O O12 0.581619 0.063841 0.326798
O O13 0.734601 0.271216 0.391641
O O14 0.500000 0.500000 0.500000
O O15 0.596071 0.469994 0.600282
O O16 0.243656 0.577552 0.846858
O O17 0.500000 0.000000 0.500000
O O18 0.000000 0.500000 0.500000
O O19 0.000000 0.500000 0.000000
#
# Coordination Sequence:
#
# PCOD9030407 Si02
#       8
#     2   2   2   2   2   2   2   2
#     4  12  25  45  70  98 142 186 231 290 354 414
#     4  12  24  44  72 101 138 181 241 282 343 417
#     4  10  22  42  70  98 133 179 231 290 337 405
#     4  10  22  44  68  98 136 179 231 283 346 412
#     4  11  25  43  69 104 136 180 238 289 346 419
#     4  12  28  45  69 107 141 185 229 291 356 418
#     4  11  25  44  70  99 141 185 229 285 360 419
#     4  12  25  43  72 101 136 182 240 292 341 414
#
# _framework density 20.175609000000001
#
# number of rings (size 3 to 8) (size 9 to 14) (size 15 to 20)
#    0.000    0.750    5.000    1.500    7.000    1.000 
#    2.250    0.625    0.000    0.000    0.000    0.000 
#    0.000    0.000    0.000    0.000    0.000    0.000 
#
# Total GULP energy -89093.126514 kJ/mol
# GULP energy per Si atom -5568.320407 kJ/mol
# Density = 2.012969 g / cm^3
# Si number density = 20.175609 Si / 1000 Ang^3
#
#
#
# Elastic Constant Matrix: (Units=GPa)
#
#
# Indices 1 2 3 4 5 6 
#
# 1 114.5503 44.7589 22.0150 -12.6248 8.1346 -17.5691
# 2 44.7589 127.3531 43.5637 -35.2128 3.9835 -14.5669
# 3 22.0150 43.5637 117.0105 -28.7119 8.8100 -13.5104
# 4 -12.6248 -35.2128 -28.7119 42.2929 -0.1950 -1.1188
# 5 8.1346 3.9835 8.8100 -0.1950 28.0866 -4.8220
# 6 -17.5691 -14.5669 -13.5104 -1.1188 -4.8220 40.9370
#
#
#
# Elastic Compliance Matrix: (Units=1/GPa)
#
#
# Indices 1 2 3 4 5 6 
#
# 1 0.010674 -0.003106 -0.000198 0.000541 -0.002038 0.003185
# 2 -0.003106 0.012023 -0.001626 0.008050 0.000216 0.002654
# 3 -0.000198 -0.001626 0.011276 0.006307 -0.002705 0.002912
# 4 0.000541 0.008050 0.006307 0.034936 -0.002022 0.005894
# 5 -0.002038 0.000216 -0.002705 -0.002022 0.037456 0.002666
# 6 0.003185 0.002654 0.002912 0.005894 0.002666 0.028175
#
#
# Mechanical properties :
#
#
# Convention : Reuss Voigt Hill
#
# Bulk Modulus (GPa) = 41.47225 64.39878 52.93551
# Shear Modulus (GPa) = 32.79983 38.83509 35.81746
#
# Velocity S-wave (km/s) = 4.03639 4.39207 4.21798
# Velocity P-wave (km/s) = 6.50565 7.59663 7.07221
#
# Compressibility (1/GPa) = 0.02411251
#
# Stress axis : x y z
#
# Youngs Moduli (GPa) = 93.68172 83.17539 88.68094
#
# Poissons Ratio (x) = 0.25837 0.01755
# Poissons Ratio (y) = 0.29100 0.14422
# Poissons Ratio (z) = 0.01854 0.13527
#
# Static dielectric constant tensor:
#      x y z
#    x 1.632480 -0.025990 0.009610 
#    y -0.025990 1.669110 0.028640 
#    z 0.009610 0.028640 1.723910 
# 
# From -- ./inp_files/279499.got.cif
#   From: 2010.05.17/outbox.cif.g08.bks.cpg/sg2_140_cif.got.tgz:279499.got - 2010.06.03 11:33:40.
