data_PCOD9030361
_publ_section_title
;
Structure prediction by ZEFSAII (Michael W. Deem and Ramdas Pophale) SiO2 
 PCOD9030361
Probable space group: P -1
;
_chemical_formula_sum "Si O2"
_cell_formula_units_Z 15
_cell_length_a 11.428343
_cell_length_b 6.707868
_cell_length_c 20.282587
_cell_angle_alpha 115.797906
_cell_angle_beta 30.043958
_cell_angle_gamma 110.684292
_cell_volume 699.923137
_symmetry_space_group_name_H-M "P -1"
_symmetry_group_IT_number 2
_symmetry_cell_setting 'triclinic'
loop_
_space_group_symop_operation_xyz
x,y,z
-x,-y,-z
loop_
_atom_site_type_symbol
_atom_site_label
_atom_site_fract_x
_atom_site_fract_y
_atom_site_fract_z
Si Si1 0.536029 0.994926 0.733410
Si Si2 0.475262 0.887842 0.396349
Si Si3 0.572356 0.464882 0.818595
Si Si4 0.000000 0.000000 0.000000
Si Si5 0.737370 0.535792 0.607011
Si Si6 0.848411 0.816510 0.312932
Si Si7 0.900016 0.639946 0.895888
Si Si8 0.253084 0.136689 0.131998
O O1 0.693673 0.773114 0.629969
O O2 0.490000 0.058031 0.688942
O O3 0.651869 0.204251 0.741421
O O4 0.276346 0.977706 0.886283
O O5 0.330192 0.665861 0.435378
O O6 0.715816 0.838739 0.310558
O O7 0.334902 0.089437 0.529966
O O8 0.571212 0.534046 0.752620
O O9 0.729161 0.632909 0.804297
O O10 0.317198 0.469769 0.977029
O O11 0.962743 0.220835 0.097601
O O12 0.000000 0.500000 0.500000
O O13 0.940613 0.564345 0.240388
O O14 0.058712 0.981314 0.232377
O O15 0.805361 0.794564 0.904561
O O16 0.500000 0.000000 0.000000
#
# Coordination Sequence:
#
# PCOD9030361 Si02
#       8
#     2   2   2   1   2   2   2   2
#     4  10  23  43  68  96 136 173 223 277 334 395
#     4  10  24  44  65 101 129 178 228 267 335 397
#     4  10  24  39  64  98 129 170 220 272 330 395
#     4  10  22  42  70  96 124 174 222 270 332 396
#     4  11  24  43  66  97 133 178 224 274 331 398
#     4  11  24  43  69  94 137 175 222 280 326 401
#     4  11  24  43  67 100 132 177 216 280 336 390
#     4  12  25  41  64 100 137 172 222 270 337 398
#
# _framework density 21.430924000000001
#
# number of rings (size 3 to 8) (size 9 to 14) (size 15 to 20)
#    0.000    1.333    1.333    2.800    3.733    6.400 
#    0.000    8.000    0.000    0.000    0.000    0.000 
#    0.000    0.000    0.000    0.000    0.000    0.000 
#
# Total GULP energy -83604.182071 kJ/mol
# GULP energy per Si atom -5573.612138 kJ/mol
# Density = 2.138215 g / cm^3
# Si number density = 21.430924 Si / 1000 Ang^3
#
#
#
# Elastic Constant Matrix: (Units=GPa)
#
#
# Indices 1 2 3 4 5 6 
#
# 1 56.8619 27.2623 2.5004 16.3397 -0.8396 20.7497
# 2 27.2623 79.2949 5.5383 29.6906 -8.1839 29.0793
# 3 2.5004 5.5383 48.2756 20.8263 -11.0430 -7.3260
# 4 16.3397 29.6906 20.8263 34.6147 4.4122 4.5219
# 5 -0.8396 -8.1839 -11.0430 4.4122 38.2730 3.7696
# 6 20.7497 29.0793 -7.3260 4.5219 3.7696 41.0048
#
#
#
# Elastic Compliance Matrix: (Units=1/GPa)
#
#
# Indices 1 2 3 4 5 6 
#
# 1 0.025410 0.001402 0.004249 -0.014830 0.004966 -0.011914
# 2 0.001402 0.034788 0.013333 -0.038114 0.017722 -0.020424
# 3 0.004249 0.013333 0.040373 -0.039972 0.019375 -0.001766
# 4 -0.014830 -0.038114 -0.039972 0.094202 -0.032840 0.020023
# 5 0.004966 0.017722 0.019375 -0.032840 0.040558 -0.011726
# 6 -0.011914 -0.020424 -0.001766 0.020023 -0.011726 0.043455
#
#
# Mechanical properties :
#
#
# Convention : Reuss Voigt Hill
#
# Bulk Modulus (GPa) = 7.21820 28.33715 17.77768
# Shear Modulus (GPa) = 17.42175 32.72058 25.07117
#
# Velocity S-wave (km/s) = 2.85428 3.91166 3.42403
# Velocity P-wave (km/s) = 3.77332 5.80109 4.89340
#
# Compressibility (1/GPa) = 0.13853869
#
# Stress axis : x y z
#
# Youngs Moduli (GPa) = 39.35430 28.74558 24.76903
#
# Poissons Ratio (x) = -0.04029 -0.10524
# Poissons Ratio (y) = -0.05516 -0.33026
# Poissons Ratio (z) = -0.16721 -0.38328
#
# Static dielectric constant tensor:
#      x y z
#    x 1.739320 0.008540 0.033680 
#    y 0.008540 1.785890 -0.002140 
#    z 0.033680 -0.002140 1.792230 
# 
# From -- ./inp_files/93737.got.cif
#   From: 2010.05.17/outbox.cif.g08.bks.cpg/sg2_47_cif.got.tgz:93737.got - 2010.06.03 11:33:40.
