data_PCOD9030921
_publ_section_title
;
Structure prediction by ZEFSAII (Michael W. Deem and Ramdas Pophale) SiO2 
 PCOD9030921
Probable space group: P -1
;
_chemical_formula_sum "Si O2"
_cell_formula_units_Z 16
_cell_length_a 21.046769
_cell_length_b 7.192958
_cell_length_c 11.700476
_cell_angle_alpha 118.369237
_cell_angle_beta 149.614760
_cell_angle_gamma 59.195460
_cell_volume 767.276239
_symmetry_space_group_name_H-M "P -1"
_symmetry_group_IT_number 2
_symmetry_cell_setting 'triclinic'
loop_
_space_group_symop_operation_xyz
x,y,z
-x,-y,-z
loop_
_atom_site_type_symbol
_atom_site_label
_atom_site_fract_x
_atom_site_fract_y
_atom_site_fract_z
Si Si1 0.364550 0.300434 0.177114
Si Si2 0.619767 0.857875 0.078616
Si Si3 0.152665 0.165961 0.419793
Si Si4 0.475848 0.392835 0.596929
Si Si5 0.833967 0.379435 0.506127
Si Si6 0.078528 0.483680 0.852920
Si Si7 0.592588 0.406562 0.009070
Si Si8 0.800198 0.304550 0.696391
O O1 0.423242 0.247531 0.378942
O O2 0.418620 0.506271 0.276646
O O3 0.400063 0.122785 0.081482
O O4 0.210109 0.375729 0.964260
O O5 0.751618 0.900381 0.344777
O O6 0.620627 0.613019 0.044807
O O7 0.500000 0.000000 0.000000
O O8 0.200837 0.355532 0.481700
O O9 0.010196 0.295982 0.274621
O O10 0.161222 0.952687 0.295833
O O11 0.350907 0.590819 0.485530
O O12 0.527158 0.300225 0.773499
O O13 0.729385 0.293843 0.244449
O O14 0.829174 0.327095 0.615290
O O15 0.979686 0.327750 0.669597
O O16 0.120138 0.565392 0.063518
O O17 0.500000 0.500000 0.000000
#
# Coordination Sequence:
#
# PCOD9030921 Si02
#       8
#     2   2   2   2   2   2   2   2
#     4   9  18  34  54  79 113 141 189 226 276 348
#     4  10  20  34  55  84 103 138 189 237 278 326
#     4   9  20  32  50  88 105 142 192 224 273 323
#     4   9  18  30  56  85 101 153 188 222 283 321
#     4   9  20  31  51  87 110 148 187 227 271 328
#     4   9  20  34  51  83 111 152 180 221 282 334
#     4  10  17  32  52  82 110 137 185 234 268 326
#     4  11  17  34  58  80 116 144 188 233 272 318
#
# _framework density 20.852982999999998
#
# number of rings (size 3 to 8) (size 9 to 14) (size 15 to 20)
#    0.750    1.750    1.250    2.250    0.000    0.500 
#    0.000    0.000    0.000    4.500    9.750    0.000 
#    0.000    0.000    0.000    0.000    0.000    0.000 
#
# Total GULP energy -89104.940222 kJ/mol
# GULP energy per Si atom -5569.058764 kJ/mol
# Density = 2.080552 g / cm^3
# Si number density = 20.852983 Si / 1000 Ang^3
#
#
#
# Elastic Constant Matrix: (Units=GPa)
#
#
# Indices 1 2 3 4 5 6 
#
# 1 95.8458 15.4771 64.2448 -3.5103 2.5409 -22.2003
# 2 15.4771 36.0451 11.2952 1.4306 -4.5300 -4.2758
# 3 64.2448 11.2952 152.0799 -2.9641 2.5962 -23.3881
# 4 -3.5103 1.4306 -2.9641 18.4782 -2.5372 -4.1531
# 5 2.5409 -4.5300 2.5962 -2.5372 37.5440 0.7091
# 6 -22.2003 -4.2758 -23.3881 -4.1531 0.7091 32.5408
#
#
#
# Elastic Compliance Matrix: (Units=1/GPa)
#
#
# Indices 1 2 3 4 5 6 
#
# 1 0.016823 -0.004938 -0.005492 0.004204 -0.001211 0.007443
# 2 -0.004938 0.030554 -0.000307 -0.002829 0.003851 -0.000020
# 3 -0.005492 -0.000307 0.009430 0.001159 -0.000298 0.003144
# 4 0.004204 -0.002829 0.001159 0.058137 0.003021 0.010683
# 5 -0.001211 0.003851 -0.000298 0.003021 0.027421 -0.000747
# 6 0.007443 -0.000020 0.003144 0.010683 -0.000747 0.039446
#
#
# Mechanical properties :
#
#
# Convention : Reuss Voigt Hill
#
# Bulk Modulus (GPa) = 28.30437 51.77834 40.04136
# Shear Modulus (GPa) = 23.24911 30.57618 26.91265
#
# Velocity S-wave (km/s) = 3.34264 3.83335 3.59638
# Velocity P-wave (km/s) = 5.33858 6.66910 6.04058
#
# Compressibility (1/GPa) = 0.03533024
#
# Stress axis : x y z
#
# Youngs Moduli (GPa) = 59.44415 32.72943 106.04680
#
# Poissons Ratio (x) = 0.16163 0.58246
# Poissons Ratio (y) = 0.29355 0.03257
# Poissons Ratio (z) = 0.32650 0.01005
#
# Static dielectric constant tensor:
#      x y z
#    x 1.733730 0.004960 -0.019520 
#    y 0.004960 1.749970 0.030930 
#    z -0.019520 0.030930 1.817060 
# 
# From -- ./inp_files/390930.got.cif
#   From: 2010.05.17/outbox.cif.g08.bks.cpg/sg2_196_cif.got.tgz:390930.got - 2010.06.03 11:33:40.
