data_PCOD9030079
_publ_section_title
;
Structure prediction by ZEFSAII (Michael W. Deem and Ramdas Pophale) SiO2 
 PCOD9030079
Probable space group: P -1
;
_chemical_formula_sum "Si O2"
_cell_formula_units_Z 12
_cell_length_a 9.027508
_cell_length_b 11.114747
_cell_length_c 9.885642
_cell_angle_alpha 59.330417
_cell_angle_beta 46.240795
_cell_angle_gamma 42.238954
_cell_volume 481.584104
_symmetry_space_group_name_H-M "P -1"
_symmetry_group_IT_number 2
_symmetry_cell_setting 'triclinic'
loop_
_space_group_symop_operation_xyz
x,y,z
-x,-y,-z
loop_
_atom_site_type_symbol
_atom_site_label
_atom_site_fract_x
_atom_site_fract_y
_atom_site_fract_z
Si Si1 0.323226 0.506298 0.493671
Si Si2 0.867408 0.934695 0.528106
Si Si3 0.004517 0.421852 0.894519
Si Si4 0.370998 0.019624 0.930122
Si Si5 0.795451 0.483185 0.716029
Si Si6 0.063174 0.897624 0.156385
O O1 0.500000 0.500000 0.500000
O O2 0.236969 0.398523 0.677678
O O3 0.417030 0.444311 0.314085
O O4 0.075623 0.718071 0.520580
O O5 0.853668 0.002122 0.347730
O O6 0.589210 0.983601 0.710201
O O7 0.000000 0.000000 0.500000
O O8 0.102685 0.222554 0.971764
O O9 0.775668 0.533463 0.858944
O O10 0.000000 0.500000 0.000000
O O11 0.500000 0.000000 0.000000
O O12 0.313050 0.880446 0.054332
O O13 0.898154 0.282127 0.783464
O O14 0.000000 0.500000 0.500000
O O15 0.000000 0.000000 0.000000
#
# Coordination Sequence:
#
# PCOD9030079 Si02
#       6
#     2   2   2   2   2   2
#     4  10  22  42  69  95 137 186 233 289 364 425
#     4  11  23  42  71 103 144 189 240 297 358 431
#     4  11  23  42  69  96 142 187 232 298 360 422
#     4  12  24  42  74 107 143 191 247 294 362 440
#     4   9  21  44  69  98 142 187 236 295 357 437
#     4  11  23  43  72 105 146 186 240 303 362 433
#
# _framework density 24.917764999999999
#
# number of rings (size 3 to 8) (size 9 to 14) (size 15 to 20)
#    0.000    1.333    3.333    2.000    2.333    0.667 
#    0.000    0.833   11.000    0.000    0.000    0.000 
#    0.000    0.000    0.000    0.000    0.000    0.000 
#
# Total GULP energy -66910.528669 kJ/mol
# GULP energy per Si atom -5575.877389 kJ/mol
# Density = 2.486105 g / cm^3
# Si number density = 24.917765 Si / 1000 Ang^3
#
#
#
# Elastic Constant Matrix: (Units=GPa)
#
#
# Indices 1 2 3 4 5 6 
#
# 1 131.8364 9.6411 39.5231 4.6598 41.9811 20.3245
# 2 9.6411 98.3833 26.9420 -14.8163 -2.7855 12.4469
# 3 39.5231 26.9420 171.9190 -8.4257 24.3981 9.0879
# 4 4.6598 -14.8163 -8.4257 38.6001 5.3625 -6.8454
# 5 41.9811 -2.7855 24.3981 5.3625 69.4477 -17.0823
# 6 20.3245 12.4469 9.0879 -6.8454 -17.0823 34.2761
#
#
#
# Elastic Compliance Matrix: (Units=1/GPa)
#
#
# Indices 1 2 3 4 5 6 
#
# 1 0.013676 -0.000052 -0.000953 -0.002805 -0.011150 -0.013955
# 2 -0.000052 0.011489 -0.001449 0.003561 -0.000027 -0.003059
# 3 -0.000953 -0.001449 0.006733 0.001061 -0.002334 -0.001645
# 4 -0.002805 0.003561 0.001061 0.028842 0.000771 0.006233
# 5 -0.011150 -0.000027 -0.002334 0.000771 0.027031 0.020866
# 6 -0.013955 -0.003059 -0.001645 0.006233 0.020866 0.050640
#
#
# Mechanical properties :
#
#
# Convention : Reuss Voigt Hill
#
# Bulk Modulus (GPa) = 37.05017 61.59456 49.32237
# Shear Modulus (GPa) = 32.82678 50.20029 41.51353
#
# Velocity S-wave (km/s) = 3.63354 4.49334 4.08612
# Velocity P-wave (km/s) = 5.70130 7.18978 6.48836
#
# Compressibility (1/GPa) = 0.02699043
#
# Stress axis : x y z
#
# Youngs Moduli (GPa) = 73.12223 87.04252 148.52146
#
# Poissons Ratio (x) = 0.00450 0.14158
# Poissons Ratio (y) = 0.00378 0.21514
# Poissons Ratio (z) = 0.06971 0.12608
#
# Static dielectric constant tensor:
#      x y z
#    x 2.133710 -0.014270 -0.033950 
#    y -0.014270 2.002300 0.037830 
#    z -0.033950 0.037830 1.999490 
# 
# From -- ./inp_files/174676.got.cif
#   From: 2010.05.17/outbox.cif.g08.bks.cpg/sg2_88_cif.got.tgz:174676.got - 2010.06.03 11:33:40.
