data_PCOD9030202
_publ_section_title
;
Structure prediction by ZEFSAII (Michael W. Deem and Ramdas Pophale) SiO2 
 PCOD9030202
Probable space group: P -1
;
_chemical_formula_sum "Si O2"
_cell_formula_units_Z 13
_cell_length_a 7.061310
_cell_length_b 7.171367
_cell_length_c 12.747921
_cell_angle_alpha 66.272603
_cell_angle_beta 71.948680
_cell_angle_gamma 103.439441
_cell_volume 512.422378
_symmetry_space_group_name_H-M "P -1"
_symmetry_group_IT_number 2
_symmetry_cell_setting 'triclinic'
loop_
_space_group_symop_operation_xyz
x,y,z
-x,-y,-z
loop_
_atom_site_type_symbol
_atom_site_label
_atom_site_fract_x
_atom_site_fract_y
_atom_site_fract_z
Si Si1 0.715769 0.473424 0.805344
Si Si2 0.790595 0.119836 0.117756
Si Si3 0.500000 0.000000 0.000000
Si Si4 0.763060 0.565268 0.112420
Si Si5 0.689149 0.371576 0.395976
Si Si6 0.209654 0.356633 0.479720
Si Si7 0.097014 0.918775 0.673455
O O1 0.468230 0.436736 0.879092
O O2 0.778022 0.538501 0.659503
O O3 0.883252 0.692125 0.786532
O O4 0.713809 0.240129 0.893186
O O5 0.765324 0.344308 0.108293
O O6 0.787927 0.991668 0.255262
O O7 0.595012 0.981059 0.105668
O O8 0.034385 0.214059 0.007779
O O9 0.767890 0.529719 0.244336
O O10 0.434712 0.320414 0.458920
O O11 0.794055 0.485936 0.460944
O O12 0.754218 0.168778 0.402367
O O13 0.035439 0.103850 0.586361
#
# Coordination Sequence:
#
# PCOD9030202 Si02
#       7
#     2   2   1   2   2   2   2
#     4  11  25  44  65 102 139 173 231 270 338 403
#     4  10  23  42  69  95 132 173 226 279 341 392
#     4  12  26  42  64 100 130 174 226 282 324 402
#     4   9  20  45  67  95 133 180 220 277 333 404
#     4   9  20  39  70  99 134 176 230 275 336 398
#     4  10  22  42  70 101 133 180 225 279 335 403
#     4  11  23  44  70 101 138 181 217 283 339 406
#
# _framework density 25.369696999999999
#
# number of rings (size 3 to 8) (size 9 to 14) (size 15 to 20)
#    0.000    1.846    0.000    3.692    6.462    3.692 
#    8.308    0.000    0.000    0.000    0.000    0.000 
#    0.000    0.000    0.000    0.000    0.000    0.000 
#
# Total GULP energy -72586.097833 kJ/mol
# GULP energy per Si atom -5583.545987 kJ/mol
# Density = 2.531195 g / cm^3
# Si number density = 25.369697 Si / 1000 Ang^3
#
#
#
# Elastic Constant Matrix: (Units=GPa)
#
#
# Indices 1 2 3 4 5 6 
#
# 1 66.5738 22.0778 13.8016 19.3133 -13.8923 14.6551
# 2 22.0778 104.8350 55.5546 4.0682 12.9504 5.4110
# 3 13.8016 55.5546 107.0096 3.6154 12.8525 6.0101
# 4 19.3133 4.0682 3.6154 42.5285 4.7900 10.9166
# 5 -13.8923 12.9504 12.8525 4.7900 47.1760 7.4781
# 6 14.6551 5.4110 6.0101 10.9166 7.4781 37.2465
#
#
#
# Elastic Compliance Matrix: (Units=1/GPa)
#
#
# Indices 1 2 3 4 5 6 
#
# 1 0.023561 -0.005008 -0.000978 -0.009346 0.010766 -0.007807
# 2 -0.005008 0.014391 -0.006466 0.001575 -0.004025 0.001270
# 3 -0.000978 -0.006466 0.013089 0.000299 -0.002035 -0.000467
# 4 -0.009346 0.001575 0.000299 0.029251 -0.005594 -0.004050
# 5 0.010766 -0.004025 -0.002035 -0.005594 0.027745 -0.007254
# 6 -0.007807 0.001270 -0.000467 -0.004050 -0.007254 0.032454
#
#
# Mechanical properties :
#
#
# Convention : Reuss Voigt Hill
#
# Bulk Modulus (GPa) = 38.26085 51.25404 44.75745
# Shear Modulus (GPa) = 28.71816 37.85584 33.28700
#
# Velocity S-wave (km/s) = 3.36815 3.86705 3.62619
# Velocity P-wave (km/s) = 5.49909 6.33920 5.93403
#
# Compressibility (1/GPa) = 0.02613638
#
# Stress axis : x y z
#
# Youngs Moduli (GPa) = 42.44326 69.49006 76.40286
#
# Poissons Ratio (x) = 0.34801 0.07469
# Poissons Ratio (y) = 0.21256 0.49403
# Poissons Ratio (z) = 0.04149 0.44933
#
# Static dielectric constant tensor:
#      x y z
#    x 2.603280 0.937890 -0.857790 
#    y 0.937890 3.750280 -1.554170 
#    z -0.857790 -1.554170 3.326990 
# 
# From -- ./inp_files/381680.got.cif
#   From: 2010.05.17/outbox.cif.g08.bks.cpg/sg2_191_cif.got.tgz:381680.got - 2010.06.03 11:33:40.
