data_PCOD9030506
_publ_section_title
;
Structure prediction by ZEFSAII (Michael W. Deem and Ramdas Pophale) SiO2 
 PCOD9030506
Probable space group: P -1
;
_chemical_formula_sum "Si O2"
_cell_formula_units_Z 14
_cell_length_a 9.434476
_cell_length_b 15.082608
_cell_length_c 9.310980
_cell_angle_alpha 40.670616
_cell_angle_beta 80.520770
_cell_angle_gamma 55.200244
_cell_volume 613.582183
_symmetry_space_group_name_H-M "P -1"
_symmetry_group_IT_number 2
_symmetry_cell_setting 'triclinic'
loop_
_space_group_symop_operation_xyz
x,y,z
-x,-y,-z
loop_
_atom_site_type_symbol
_atom_site_label
_atom_site_fract_x
_atom_site_fract_y
_atom_site_fract_z
Si Si1 0.806283 0.587816 0.825800
Si Si2 0.307738 0.503281 0.328572
Si Si3 0.621639 0.988874 0.363219
Si Si4 0.603000 0.492873 0.133010
Si Si5 0.453612 0.890344 0.070104
Si Si6 0.984356 0.874752 0.065033
Si Si7 0.005354 0.059556 0.581866
O O1 0.801661 0.488245 0.808128
O O2 0.730272 0.781236 0.541303
O O3 0.654176 0.613521 0.931818
O O4 0.000000 0.500000 0.000000
O O5 0.447383 0.542435 0.217523
O O6 0.449529 0.296052 0.628631
O O7 0.154903 0.651174 0.295633
O O8 0.792304 0.986019 0.379128
O O9 0.500000 0.000000 0.500000
O O10 0.494556 0.137624 0.072555
O O11 0.817267 0.279689 0.377702
O O12 0.500000 0.500000 0.000000
O O13 0.500000 0.000000 0.000000
O O14 0.217303 0.046409 0.934903
O O15 0.981432 0.941087 0.826703
O O16 0.000000 0.000000 0.000000
O O17 0.000000 0.000000 0.500000
#
# Coordination Sequence:
#
# PCOD9030506 Si02
#       7
#     2   2   2   2   2   2   2
#     4  11  23  45  71 115 156 197 258 314 386 469
#     4  11  26  49  81 109 152 214 256 321 397 457
#     4  12  29  47  73 115 157 202 257 325 394 464
#     4  10  22  42  71 110 148 196 257 311 379 464
#     4  12  27  53  77 111 159 199 261 326 391 473
#     4  12  28  51  75 111 152 201 268 318 389 464
#     4  12  25  46  75 110 156 205 259 323 382 464
#
# _framework density 22.816828000000001
#
# number of rings (size 3 to 8) (size 9 to 14) (size 15 to 20)
#    0.000    0.571    5.714    1.714    8.000    1.143 
#    5.143    0.000    0.000    0.000    0.000    0.000 
#    0.000    0.000    0.000    0.000    0.000    0.000 
#
# Total GULP energy -78129.448859 kJ/mol
# GULP energy per Si atom -5580.674919 kJ/mol
# Density = 2.276490 g / cm^3
# Si number density = 22.816828 Si / 1000 Ang^3
#
#
#
# Elastic Constant Matrix: (Units=GPa)
#
#
# Indices 1 2 3 4 5 6 
#
# 1 136.2579 27.5897 20.6536 13.0355 -10.5374 7.3640
# 2 27.5897 110.2139 11.8239 6.6251 5.7378 0.7090
# 3 20.6536 11.8239 87.7456 9.4508 -15.4176 -9.2059
# 4 13.0355 6.6251 9.4508 43.3412 1.4826 -0.8593
# 5 -10.5374 5.7378 -15.4176 1.4826 37.9391 -1.5891
# 6 7.3640 0.7090 -9.2059 -0.8593 -1.5891 33.5669
#
#
#
# Elastic Compliance Matrix: (Units=1/GPa)
#
#
# Indices 1 2 3 4 5 6 
#
# 1 0.008407 -0.001929 -0.001359 -0.002050 0.002065 -0.002131
# 2 -0.001929 0.009862 -0.001289 -0.000565 -0.002541 -0.000273
# 3 -0.001359 -0.001289 0.013588 -0.002465 0.005614 0.004255
# 4 -0.002050 -0.000565 -0.002465 0.024402 -0.002427 0.000295
# 5 0.002065 -0.002541 0.005614 -0.002427 0.029797 0.002489
# 6 -0.002131 -0.000273 0.004255 0.000295 0.002489 0.031557
#
#
# Mechanical properties :
#
#
# Convention : Reuss Voigt Hill
#
# Bulk Modulus (GPa) = 44.04608 50.48355 47.26481
# Shear Modulus (GPa) = 37.22046 41.24611 39.23329
#
# Velocity S-wave (km/s) = 4.04328 4.25632 4.15117
# Velocity P-wave (km/s) = 6.41433 6.80652 6.61333
#
# Compressibility (1/GPa) = 0.02270349
#
# Stress axis : x y z
#
# Youngs Moduli (GPa) = 118.95388 101.39432 73.59205
#
# Poissons Ratio (x) = 0.19561 0.09998
# Poissons Ratio (y) = 0.22949 0.09487
# Poissons Ratio (z) = 0.16161 0.13071
#
# Static dielectric constant tensor:
#      x y z
#    x 2.361200 0.096130 0.098190 
#    y 0.096130 1.905160 -0.021570 
#    z 0.098190 -0.021570 1.861320 
# 
# From -- ./inp_files/205101.got.cif
#   From: 2010.05.17/outbox.cif.g08.bks.cpg/sg2_103_cif.got.tgz:205101.got - 2010.06.03 11:33:40.
