data_PCOD9030488
_publ_section_title
;
Structure prediction by ZEFSAII (Michael W. Deem and Ramdas Pophale) SiO2 
 PCOD9030488
Probable space group: P -1
;
_chemical_formula_sum "Si O2"
_cell_formula_units_Z 16
_cell_length_a 9.252897
_cell_length_b 10.851600
_cell_length_c 14.663565
_cell_angle_alpha 114.899796
_cell_angle_beta 143.002412
_cell_angle_gamma 46.187316
_cell_volume 609.168230
_symmetry_space_group_name_H-M "P -1"
_symmetry_group_IT_number 2
_symmetry_cell_setting 'triclinic'
loop_
_space_group_symop_operation_xyz
x,y,z
-x,-y,-z
loop_
_atom_site_type_symbol
_atom_site_label
_atom_site_fract_x
_atom_site_fract_y
_atom_site_fract_z
Si Si1 0.772667 0.428551 0.253306
Si Si2 0.827627 0.681720 0.746977
Si Si3 0.076099 0.308843 0.996217
Si Si4 0.095956 0.940375 0.424782
Si Si5 0.252763 0.265584 0.613246
Si Si6 0.118235 0.640137 0.361321
Si Si7 0.617460 0.205229 0.124797
Si Si8 0.076632 0.936569 0.123824
O O1 0.935285 0.338730 0.210844
O O2 0.040655 0.343208 0.440254
O O3 0.646412 0.627406 0.256263
O O4 0.524505 0.399609 0.134280
O O5 0.803015 0.744650 0.855544
O O6 0.473710 0.813673 0.569082
O O7 0.957635 0.478154 0.754263
O O8 0.363093 0.197950 0.034900
O O9 0.000000 0.500000 0.000000
O O10 0.886148 0.234836 0.872941
O O11 0.009917 0.818098 0.316355
O O12 0.000000 0.000000 0.500000
O O13 0.903809 0.105051 0.311714
O O14 0.604180 0.091840 0.706401
O O15 0.024729 0.295238 0.588272
O O16 0.500000 0.500000 0.500000
O O17 0.771700 0.099685 0.076947
O O18 0.000000 0.000000 0.000000
#
# Coordination Sequence:
#
# PCOD9030488 Si02
#       8
#     2   2   2   2   2   2   2   2
#     4  10  22  42  71 105 133 173 230 294 368 411
#     4  10  22  43  66  99 132 180 229 285 345 422
#     4  12  28  48  70  96 143 196 244 283 339 425
#     4  11  21  37  67 104 137 166 217 297 367 394
#     4  10  22  43  72 100 141 181 230 287 353 431
#     4   9  21  37  66 103 134 170 218 283 355 414
#     4  12  26  43  71 103 140 178 238 300 354 415
#     4  12  29  48  70 100 145 196 238 285 346 422
#
# _framework density 26.265324
#
# number of rings (size 3 to 8) (size 9 to 14) (size 15 to 20)
#    0.000    1.250    1.250    3.375    5.250    7.000 
#    2.250    4.375    0.000    0.000    0.000    0.000 
#    0.000    0.000    0.000    0.000    0.000    0.000 
#
# Total GULP energy -89354.255086 kJ/mol
# GULP energy per Si atom -5584.640943 kJ/mol
# Density = 2.620554 g / cm^3
# Si number density = 26.265324 Si / 1000 Ang^3
#
#
#
# Elastic Constant Matrix: (Units=GPa)
#
#
# Indices 1 2 3 4 5 6 
#
# 1 199.0787 31.1083 44.5097 16.7403 16.2767 -17.4279
# 2 31.1083 103.2514 -9.4180 15.9543 14.7913 18.2818
# 3 44.5097 -9.4180 63.0266 2.2470 1.7569 -2.2663
# 4 16.7403 15.9543 2.2470 29.2276 -2.1206 1.2826
# 5 16.2767 14.7913 1.7569 -2.1206 45.6001 8.7533
# 6 -17.4279 18.2818 -2.2663 1.2826 8.7533 42.6446
#
#
#
# Elastic Compliance Matrix: (Units=1/GPa)
#
#
# Indices 1 2 3 4 5 6 
#
# 1 0.007501 -0.002764 -0.005375 -0.002762 -0.002581 0.004578
# 2 -0.002764 0.013198 0.003995 -0.005859 -0.002595 -0.005867
# 3 -0.005375 0.003995 0.020162 -0.000497 0.000380 -0.002901
# 4 -0.002762 -0.005859 -0.000497 0.039425 0.004899 -0.000835
# 5 -0.002581 -0.002595 0.000380 0.004899 0.024900 -0.005181
# 6 0.004578 -0.005867 -0.002901 -0.000835 -0.005181 0.028770
#
#
# Mechanical properties :
#
#
# Convention : Reuss Voigt Hill
#
# Bulk Modulus (GPa) = 30.70196 55.30631 43.00413
# Shear Modulus (GPa) = 32.65784 43.43824 38.04804
#
# Velocity S-wave (km/s) = 3.52999 4.07114 3.81018
# Velocity P-wave (km/s) = 5.32250 6.57277 5.98040
#
# Compressibility (1/GPa) = 0.03257122
#
# Stress axis : x y z
#
# Youngs Moduli (GPa) = 133.31799 75.76880 49.59822
#
# Poissons Ratio (x) = 0.20944 0.26660
# Poissons Ratio (y) = 0.36852 -0.19812
# Poissons Ratio (z) = 0.71661 -0.30266
#
# Static dielectric constant tensor:
#      x y z
#    x 2.088150 -0.037060 0.090160 
#    y -0.037060 2.293580 -0.044430 
#    z 0.090160 -0.044430 2.042750 
# 
# From -- ./inp_files/500615.got.cif
#   From: 2010.05.17/outbox.cif.g08.bks.cpg/sg2_251_cif.got.tgz:500615.got - 2010.06.03 11:33:40.
