data_PCOD9030742
_publ_section_title
;
Structure prediction by ZEFSAII (Michael W. Deem and Ramdas Pophale) SiO2 
 PCOD9030742
Probable space group: P -1
;
_chemical_formula_sum "Si O2"
_cell_formula_units_Z 13
_cell_length_a 11.137014
_cell_length_b 12.587851
_cell_length_c 5.576619
_cell_angle_alpha 113.619256
_cell_angle_beta 124.839668
_cell_angle_gamma 56.618751
_cell_volume 531.535069
_symmetry_space_group_name_H-M "P -1"
_symmetry_group_IT_number 2
_symmetry_cell_setting 'triclinic'
loop_
_space_group_symop_operation_xyz
x,y,z
-x,-y,-z
loop_
_atom_site_type_symbol
_atom_site_label
_atom_site_fract_x
_atom_site_fract_y
_atom_site_fract_z
Si Si1 0.869758 0.004612 0.655990
Si Si2 0.162045 0.794327 0.605240
Si Si3 0.610220 0.107679 0.794868
Si Si4 0.017903 0.564940 0.824940
Si Si5 0.314537 0.254634 0.282214
Si Si6 0.679502 0.483506 0.643129
Si Si7 0.500000 0.000000 0.000000
O O1 0.829458 0.127888 0.553359
O O2 0.700865 0.019406 0.587489
O O3 0.973074 0.870689 0.522974
O O4 0.000000 0.000000 0.000000
O O5 0.225416 0.644244 0.518259
O O6 0.281779 0.818487 0.949125
O O7 0.432594 0.194197 0.585131
O O8 0.610622 0.022590 0.938864
O O9 0.870744 0.705423 0.815068
O O10 0.000000 0.500000 0.500000
O O11 0.000000 0.500000 0.000000
O O12 0.200582 0.550160 0.022301
O O13 0.329122 0.386413 0.360238
O O14 0.394022 0.158410 0.066227
O O15 0.500000 0.500000 0.500000
#
# Coordination Sequence:
#
# PCOD9030742 Si02
#       7
#     2   2   2   2   2   2   1
#     4   9  20  41  66 105 150 191 241 308 384 460
#     4  10  22  42  73 110 154 186 248 321 390 461
#     4  11  23  43  71 107 145 193 260 322 382 465
#     4  10  26  51  74 108 159 207 254 317 390 477
#     4  11  27  47  73 105 152 202 259 316 398 466
#     4  11  24  47  77 113 149 199 256 322 394 469
#     4  12  26  46  70 102 146 206 262 318 378 462
#
# _framework density 24.457464000000002
#
# number of rings (size 3 to 8) (size 9 to 14) (size 15 to 20)
#    0.000    1.538    0.000    3.231    6.462    5.538 
#   19.385    0.000    0.000    0.000    0.000    0.000 
#    0.000    0.000    0.000    0.000    0.000    0.000 
#
# Total GULP energy -72481.482496 kJ/mol
# GULP energy per Si atom -5575.498654 kJ/mol
# Density = 2.440180 g / cm^3
# Si number density = 24.457464 Si / 1000 Ang^3
#
#
#
# Elastic Constant Matrix: (Units=GPa)
#
#
# Indices 1 2 3 4 5 6 
#
# 1 110.2454 53.7330 31.5809 -3.7634 1.1285 -24.4834
# 2 53.7330 167.8273 30.7025 18.7849 -6.0771 -11.9307
# 3 31.5809 30.7025 102.4417 -9.6047 10.9079 -14.1060
# 4 -3.7634 18.7849 -9.6047 37.9669 -13.2459 10.7350
# 5 1.1285 -6.0771 10.9079 -13.2459 48.9823 1.6316
# 6 -24.4834 -11.9307 -14.1060 10.7350 1.6316 24.3933
#
#
#
# Elastic Compliance Matrix: (Units=1/GPa)
#
#
# Indices 1 2 3 4 5 6 
#
# 1 0.013670 -0.003134 -0.001645 -0.001233 -0.001065 0.011850
# 2 -0.003134 0.008008 -0.001624 -0.005331 -0.000087 0.002184
# 3 -0.001645 -0.001624 0.011687 0.001693 -0.002432 0.003730
# 4 -0.001233 -0.005331 0.001693 0.038620 0.010118 -0.020538
# 5 -0.001065 -0.000087 -0.002432 0.010118 0.023993 -0.008576
# 6 0.011850 0.002184 0.003730 -0.020538 -0.008576 0.065726
#
#
# Mechanical properties :
#
#
# Convention : Reuss Voigt Hill
#
# Bulk Modulus (GPa) = 48.64095 68.06081 58.35088
# Shear Modulus (GPa) = 27.56923 39.90170 33.73546
#
# Velocity S-wave (km/s) = 3.36107 4.04353 3.71799
# Velocity P-wave (km/s) = 5.91553 7.04903 6.50701
#
# Compressibility (1/GPa) = 0.02055881
#
# Stress axis : x y z
#
# Youngs Moduli (GPa) = 73.15342 124.87874 85.56574
#
# Poissons Ratio (x) = 0.39135 0.14079
# Poissons Ratio (y) = 0.22925 0.13893
# Poissons Ratio (z) = 0.12036 0.20276
#
# Static dielectric constant tensor:
#      x y z
#    x 1.974130 -0.031260 -0.116140 
#    y -0.031260 1.984800 0.071960 
#    z -0.116140 0.071960 1.718000 
# 
# From -- ./inp_files/67711.got.cif
#   From: 2010.05.17/outbox.cif.g08.bks.cpg/sg2_34_cif.got.tgz:67711.got - 2010.06.03 11:33:40.
