data_PCOD9030444
_publ_section_title
;
Structure prediction by ZEFSAII (Michael W. Deem and Ramdas Pophale) SiO2 
 PCOD9030444
Probable space group: P -1
;
_chemical_formula_sum "Si O2"
_cell_formula_units_Z 15
_cell_length_a 7.480440
_cell_length_b 20.659999
_cell_length_c 7.434280
_cell_angle_alpha 46.260125
_cell_angle_beta 51.680735
_cell_angle_gamma 45.889659
_cell_volume 574.272088
_symmetry_space_group_name_H-M "P -1"
_symmetry_group_IT_number 2
_symmetry_cell_setting 'triclinic'
loop_
_space_group_symop_operation_xyz
x,y,z
-x,-y,-z
loop_
_atom_site_type_symbol
_atom_site_label
_atom_site_fract_x
_atom_site_fract_y
_atom_site_fract_z
Si Si1 0.729483 0.792574 0.968714
Si Si2 0.782197 0.312562 0.583953
Si Si3 0.256087 0.766947 0.849066
Si Si4 0.111119 0.106168 0.593786
Si Si5 0.762124 0.579176 0.253780
Si Si6 0.000000 0.000000 0.500000
Si Si7 0.195657 0.391275 0.240271
Si Si8 0.720668 0.033848 0.894224
O O1 0.685181 0.870227 0.681399
O O2 0.009992 0.764594 0.921306
O O3 0.746093 0.686852 0.103206
O O4 0.502149 0.857413 0.123581
O O5 0.506945 0.408524 0.523876
O O6 0.885317 0.217949 0.567519
O O7 0.009906 0.341163 0.414852
O O8 0.734661 0.269693 0.882481
O O9 0.519631 0.693247 0.723752
O O10 0.205994 0.881115 0.660637
O O11 0.984526 0.049813 0.657765
O O12 0.201642 0.042524 0.841894
O O13 0.036409 0.481114 0.308009
O O14 0.758557 0.570053 0.055819
O O15 0.260661 0.013643 0.219102
#
# Coordination Sequence:
#
# PCOD9030444 Si02
#       8
#     2   2   2   2   2   1   2   2
#     4  12  24  43  68 101 140 175 223 280 341 398
#     4  11  21  43  69  97 133 178 224 277 333 398
#     4  11  27  41  63 103 137 179 220 271 344 406
#     4  11  22  41  67 100 133 179 226 277 331 398
#     4  10  22  42  71 100 128 176 231 280 329 399
#     4  12  24  46  64  94 144 174 222 272 338 400
#     4  10  23  43  69  97 135 176 226 279 333 398
#     4  11  25  42  66  99 136 180 229 273 332 406
#
# _framework density 26.120021000000001
#
# number of rings (size 3 to 8) (size 9 to 14) (size 15 to 20)
#    0.000    1.067    5.333    0.800    1.867    2.133 
#    0.000    0.667    0.000    0.000    0.000    0.000 
#    0.000    0.000    0.000    0.000    0.000    0.000 
#
# Total GULP energy -83835.474366 kJ/mol
# GULP energy per Si atom -5589.031624 kJ/mol
# Density = 2.606057 g / cm^3
# Si number density = 26.120021 Si / 1000 Ang^3
#
#
#
# Elastic Constant Matrix: (Units=GPa)
#
#
# Indices 1 2 3 4 5 6 
#
# 1 82.4433 55.0967 25.3859 5.8724 -19.1880 3.1035
# 2 55.0967 247.2128 54.6635 32.6633 -10.2214 -17.8658
# 3 25.3859 54.6635 85.1636 11.4741 -3.2381 -0.3797
# 4 5.8724 32.6633 11.4741 44.8885 8.9955 -11.8584
# 5 -19.1880 -10.2214 -3.2381 8.9955 38.7586 2.7775
# 6 3.1035 -17.8658 -0.3797 -11.8584 2.7775 40.1289
#
#
#
# Elastic Compliance Matrix: (Units=1/GPa)
#
#
# Indices 1 2 3 4 5 6 
#
# 1 0.017085 -0.002873 -0.002666 -0.002126 0.008245 -0.003824
# 2 -0.002873 0.005742 -0.002435 -0.002752 0.000390 0.001915
# 3 -0.002666 -0.002435 0.014331 -0.001826 -0.000250 -0.001265
# 4 -0.002126 -0.002752 -0.001826 0.029030 -0.009252 0.008141
# 5 0.008245 0.000390 -0.000250 -0.009252 0.032502 -0.005450
# 6 -0.003824 0.001915 -0.001265 0.008141 -0.005450 0.028839
#
#
# Mechanical properties :
#
#
# Convention : Reuss Voigt Hill
#
# Bulk Modulus (GPa) = 47.14790 76.12353 61.63572
# Shear Modulus (GPa) = 33.21250 43.40011 38.30631
#
# Velocity S-wave (km/s) = 3.56973 4.08065 3.83371
# Velocity P-wave (km/s) = 5.92286 7.17003 6.57608
#
# Compressibility (1/GPa) = 0.02120985
#
# Stress axis : x y z
#
# Youngs Moduli (GPa) = 58.53185 174.15599 69.78044
#
# Poissons Ratio (x) = 0.50032 0.18603
# Poissons Ratio (y) = 0.16815 0.16992
# Poissons Ratio (z) = 0.15604 0.42408
#
# Static dielectric constant tensor:
#      x y z
#    x 2.215650 0.006080 -0.001160 
#    y 0.006080 2.174680 0.140970 
#    z -0.001160 0.140970 2.258990 
# 
# From -- ./inp_files/36179.got.cif
#   From: 2010.05.17/outbox.cif.g08.bks.cpg/sg2_19_cif.got.tgz:36179.got - 2010.06.03 11:33:40.
