data_PCOD9030474
_publ_section_title
;
Structure prediction by ZEFSAII (Michael W. Deem and Ramdas Pophale) SiO2 
 PCOD9030474
Probable space group: P -1
;
_chemical_formula_sum "Si O2"
_cell_formula_units_Z 14
_cell_length_a 15.280195
_cell_length_b 24.059388
_cell_length_c 5.541788
_cell_angle_alpha 67.104312
_cell_angle_beta 62.331155
_cell_angle_gamma 20.177475
_cell_volume 615.027873
_symmetry_space_group_name_H-M "P -1"
_symmetry_group_IT_number 2
_symmetry_cell_setting 'triclinic'
loop_
_space_group_symop_operation_xyz
x,y,z
-x,-y,-z
loop_
_atom_site_type_symbol
_atom_site_label
_atom_site_fract_x
_atom_site_fract_y
_atom_site_fract_z
Si Si1 0.377846 0.914374 0.234406
Si Si2 0.325754 0.205952 0.550391
Si Si3 0.236406 0.372763 0.104374
Si Si4 0.162488 0.599514 0.298620
Si Si5 0.396336 0.418246 0.814019
Si Si6 0.919319 0.864431 0.139981
Si Si7 0.024209 0.919384 0.203523
O O1 0.612462 0.822612 0.197201
O O2 0.496223 0.803750 0.068944
O O3 0.247142 0.944816 0.544270
O O4 0.148735 0.087775 0.134213
O O5 0.119091 0.274292 0.608112
O O6 0.621586 0.026096 0.365089
O O7 0.209589 0.337736 0.404859
O O8 0.280718 0.417332 0.026334
O O9 0.000000 0.500000 0.000000
O O10 0.284892 0.503748 0.553127
O O11 0.100314 0.705127 0.232853
O O12 0.322974 0.498141 0.013396
O O13 0.716067 0.232124 0.706096
O O14 0.046201 0.854690 0.084760
O O15 0.000000 0.000000 0.000000
#
# Coordination Sequence:
#
# PCOD9030474 Si02
#       7
#     2   2   2   2   2   2   2
#     4  10  23  42  73  97 137 181 237 294 346 409
#     4  10  22  42  71 103 137 184 234 291 348 416
#     4  11  22  41  68 105 140 178 230 295 355 407
#     4  12  28  46  69 105 147 186 231 286 351 420
#     4  12  29  44  71 106 141 189 233 287 353 411
#     4  10  25  45  70 101 136 188 234 285 346 420
#     4  11  26  47  73 101 134 184 240 292 346 416
#
# _framework density 22.763196000000001
#
# number of rings (size 3 to 8) (size 9 to 14) (size 15 to 20)
#    0.000    1.143    1.429    3.857   12.000    4.000 
#    0.000    0.000    0.000    0.000    0.000    0.000 
#    0.000    0.000    0.000    0.000    0.000    0.000 
#
# Total GULP energy -78249.475093 kJ/mol
# GULP energy per Si atom -5589.248221 kJ/mol
# Density = 2.271139 g / cm^3
# Si number density = 22.763196 Si / 1000 Ang^3
#
#
#
# Elastic Constant Matrix: (Units=GPa)
#
#
# Indices 1 2 3 4 5 6 
#
# 1 123.5517 47.3322 33.8135 -27.7089 -6.8341 0.2156
# 2 47.3322 73.0134 11.6921 -16.7548 -3.5480 -2.0700
# 3 33.8135 11.6921 67.1208 -21.0335 4.9626 5.8492
# 4 -27.7089 -16.7548 -21.0335 41.8146 2.4427 -0.1669
# 5 -6.8341 -3.5480 4.9626 2.4427 24.6848 -2.7229
# 6 0.2156 -2.0700 5.8492 -0.1669 -2.7229 48.2714
#
#
#
# Elastic Compliance Matrix: (Units=1/GPa)
#
#
# Indices 1 2 3 4 5 6 
#
# 1 0.012803 -0.006637 -0.004509 0.003371 0.003207 0.000397
# 2 -0.006637 0.018690 0.001143 0.003649 0.000338 0.000724
# 3 -0.004509 0.001143 0.020162 0.007965 -0.006223 -0.002697
# 4 0.003371 0.003649 0.007965 0.031812 -0.003391 -0.000905
# 5 0.003207 0.000338 -0.006223 -0.003391 0.043386 0.003190
# 6 0.000397 0.000724 -0.002697 -0.000905 0.003190 0.021249
#
#
# Mechanical properties :
#
#
# Convention : Reuss Voigt Hill
#
# Bulk Modulus (GPa) = 31.59650 49.92907 40.76279
# Shear Modulus (GPa) = 27.98644 34.34401 31.16523
#
# Velocity S-wave (km/s) = 3.51017 3.88848 3.70416
# Velocity P-wave (km/s) = 5.50809 6.49169 6.02001
#
# Compressibility (1/GPa) = 0.03164907
#
# Stress axis : x y z
#
# Youngs Moduli (GPa) = 78.10543 53.50453 49.59819
#
# Poissons Ratio (x) = 0.35512 0.22365
# Poissons Ratio (y) = 0.51840 -0.05671
# Poissons Ratio (z) = 0.35219 -0.06117
#
# Static dielectric constant tensor:
#      x y z
#    x 1.852200 -0.003330 0.055770 
#    y -0.003330 1.875520 0.021440 
#    z 0.055770 0.021440 1.927570 
# 
# From -- ./inp_files/66064.got.cif
#   From: 2010.05.17/outbox.cif.g08.bks.cpg/sg2_34_cif.got.tgz:66064.got - 2010.06.03 11:33:40.
