data_PCOD9030598
_publ_section_title
;
Structure prediction by ZEFSAII (Michael W. Deem and Ramdas Pophale) SiO2 
 PCOD9030598
Probable space group: P -1
;
_chemical_formula_sum "Si O2"
_cell_formula_units_Z 12
_cell_length_a 11.538296
_cell_length_b 7.957700
_cell_length_c 17.580170
_cell_angle_alpha 50.640395
_cell_angle_beta 150.799470
_cell_angle_gamma 140.669517
_cell_volume 494.704720
_symmetry_space_group_name_H-M "P -1"
_symmetry_group_IT_number 2
_symmetry_cell_setting 'triclinic'
loop_
_space_group_symop_operation_xyz
x,y,z
-x,-y,-z
loop_
_atom_site_type_symbol
_atom_site_label
_atom_site_fract_x
_atom_site_fract_y
_atom_site_fract_z
Si Si1 0.201570 0.834876 0.153382
Si Si2 0.292354 0.371692 0.331112
Si Si3 0.267102 0.749307 0.385257
Si Si4 0.315862 0.575086 0.761630
Si Si5 0.613833 0.603595 0.791938
Si Si6 0.321952 0.115509 0.842793
O O1 0.274488 0.620921 0.244768
O O2 0.196211 0.844603 0.240165
O O3 0.436643 0.116870 0.166184
O O4 0.886185 0.725306 0.970310
O O5 0.584649 0.399284 0.513685
O O6 0.264643 0.284214 0.252214
O O7 0.015654 0.123010 0.286706
O O8 0.980817 0.544997 0.329310
O O9 0.500000 0.000000 0.500000
O O10 0.352741 0.604975 0.681116
O O11 0.366401 0.339721 0.863841
O O12 0.456552 0.284245 0.794493
O O13 0.500000 0.000000 0.000000
#
# Coordination Sequence:
#
# PCOD9030598 Si02
#       6
#     2   2   2   2   2   2
#     4  12  26  43  70 105 137 176 232 284 336 399
#     4  12  24  46  71 100 140 183 223 280 340 405
#     4  12  26  46  70  96 143 185 226 277 338 410
#     4  10  25  43  69 102 135 181 227 280 341 400
#     4  10  24  43  72 100 138 173 230 284 339 392
#     4  10  22  42  72 102 132 180 225 274 343 406
#
# _framework density 24.256895
#
# number of rings (size 3 to 8) (size 9 to 14) (size 15 to 20)
#    1.000    0.000    3.333    2.500    0.000    8.000 
#    0.000    0.000    0.000    0.000    0.000    0.000 
#    0.000    0.000    0.000    0.000    0.000    0.000 
#
# Total GULP energy -66939.375314 kJ/mol
# GULP energy per Si atom -5578.281276 kJ/mol
# Density = 2.420169 g / cm^3
# Si number density = 24.256895 Si / 1000 Ang^3
#
#
#
# Elastic Constant Matrix: (Units=GPa)
#
#
# Indices 1 2 3 4 5 6 
#
# 1 84.7135 45.8857 53.7816 20.5253 10.3309 8.9216
# 2 45.8857 183.9987 50.9104 20.7475 34.1382 15.9331
# 3 53.7816 50.9104 117.4334 1.5192 13.0328 14.7750
# 4 20.5253 20.7475 1.5192 31.8788 3.6895 25.3127
# 5 10.3309 34.1382 13.0328 3.6895 45.9499 -8.8677
# 6 8.9216 15.9331 14.7750 25.3127 -8.8677 45.0263
#
#
#
# Elastic Compliance Matrix: (Units=1/GPa)
#
#
# Indices 1 2 3 4 5 6 
#
# 1 0.026035 -0.001918 -0.013470 -0.029287 0.005103 0.017409
# 2 -0.001918 0.007633 -0.001614 -0.001566 -0.005023 -0.001900
# 3 -0.013470 -0.001614 0.017809 0.022624 -0.005818 -0.016469
# 4 -0.029287 -0.001566 0.022624 0.101347 -0.018719 -0.061728
# 5 0.005103 -0.005023 -0.005818 -0.018719 0.031235 0.019351
# 6 0.017409 -0.001900 -0.016469 -0.061728 0.019351 0.063350
#
#
# Mechanical properties :
#
#
# Convention : Reuss Voigt Hill
#
# Bulk Modulus (GPa) = 57.22871 76.36679 66.79775
# Shear Modulus (GPa) = 17.40736 40.27552 28.84144
#
# Velocity S-wave (km/s) = 2.68176 4.07919 3.45193
# Velocity P-wave (km/s) = 5.76481 7.33057 6.59433
#
# Compressibility (1/GPa) = 0.01747375
#
# Stress axis : x y z
#
# Youngs Moduli (GPa) = 38.41010 131.01726 56.15128
#
# Poissons Ratio (x) = 0.25124 0.75635
# Poissons Ratio (y) = 0.07366 0.09062
# Poissons Ratio (z) = 0.51738 0.21145
#
# Static dielectric constant tensor:
#      x y z
#    x 1.996880 -0.080950 -0.054520 
#    y -0.080950 2.029900 -0.035020 
#    z -0.054520 -0.035020 1.991830 
# 
# From -- ./inp_files/471278.got.cif
#   From: 2010.05.17/outbox.cif.g08.bks.cpg/sg2_236_cif.got.tgz:471278.got - 2010.06.03 11:33:40.
