data_PCOD9030300
_publ_section_title
;
Structure prediction by ZEFSAII (Michael W. Deem and Ramdas Pophale) SiO2 
 PCOD9030300
Probable space group: P -1
;
_chemical_formula_sum "Si O2"
_cell_formula_units_Z 15
_cell_length_a 4.985831
_cell_length_b 5.618140
_cell_length_c 25.886890
_cell_angle_alpha 82.161144
_cell_angle_beta 132.908756
_cell_angle_gamma 92.824937
_cell_volume 525.193794
_symmetry_space_group_name_H-M "P -1"
_symmetry_group_IT_number 2
_symmetry_cell_setting 'triclinic'
loop_
_space_group_symop_operation_xyz
x,y,z
-x,-y,-z
loop_
_atom_site_type_symbol
_atom_site_label
_atom_site_fract_x
_atom_site_fract_y
_atom_site_fract_z
Si Si1 0.379929 0.961144 0.083097
Si Si2 0.436496 0.485284 0.052129
Si Si3 0.405595 0.501778 0.607836
Si Si4 0.356999 0.054453 0.687890
Si Si5 0.098401 0.345596 0.245441
Si Si6 0.500000 0.500000 0.500000
Si Si7 0.504656 0.324964 0.792569
Si Si8 0.158395 0.085672 0.461561
O O1 0.573228 0.729895 0.086767
O O2 0.332373 0.861988 0.137668
O O3 0.561747 0.218807 0.097149
O O4 0.000000 0.000000 0.000000
O O5 0.500000 0.500000 0.000000
O O6 0.000000 0.500000 0.000000
O O7 0.411431 0.258303 0.647164
O O8 0.668265 0.661947 0.670310
O O9 0.547529 0.462039 0.570953
O O10 0.978818 0.609806 0.552328
O O11 0.254655 0.172071 0.726185
O O12 0.746487 0.905310 0.751179
O O13 0.056218 0.911175 0.622410
O O14 0.246383 0.542456 0.219524
O O15 0.706810 0.455506 0.210472
O O16 0.412371 0.814711 0.490172
O O17 0.000000 0.000000 0.500000
#
# Coordination Sequence:
#
# PCOD9030300 Si02
#       8
#     2   2   2   2   2   1   2   2
#     4  10  24  47  78 118 161 206 263 328 397 471
#     4  10  22  42  70 109 158 202 246 310 388 459
#     4  10  25  47  65 103 140 187 241 314 373 469
#     4  10  25  51  74  99 150 196 251 313 389 459
#     4  10  26  47  76 105 150 200 254 313 387 462
#     4  12  26  42  70 102 144 176 248 306 386 448
#     4  11  26  49  76 113 149 200 263 316 383 470
#     4  11  25  44  70 101 136 184 237 306 381 452
#
# _framework density 28.560887000000001
#
# number of rings (size 3 to 8) (size 9 to 14) (size 15 to 20)
#    0.000    1.600    0.000    1.600    9.333    9.600 
#    4.800    0.000    0.000    0.000    0.000    0.000 
#    0.000    0.000    0.000    0.000    0.000    0.000 
#
# Total GULP energy -83946.334294 kJ/mol
# GULP energy per Si atom -5596.422286 kJ/mol
# Density = 2.849588 g / cm^3
# Si number density = 28.560887 Si / 1000 Ang^3
#
#
#
# Elastic Constant Matrix: (Units=GPa)
#
#
# Indices 1 2 3 4 5 6 
#
# 1 181.5280 49.9210 75.5704 -9.9512 -42.6269 -23.9247
# 2 49.9210 241.7518 60.8507 -16.0096 -26.1206 -2.3843
# 3 75.5704 60.8507 203.9866 -30.3489 -34.4994 -15.5869
# 4 -9.9512 -16.0096 -30.3489 49.1533 -12.7233 -14.9520
# 5 -42.6269 -26.1206 -34.4994 -12.7233 67.5173 -6.6386
# 6 -23.9247 -2.3843 -15.5869 -14.9520 -6.6386 44.9226
#
#
#
# Elastic Compliance Matrix: (Units=1/GPa)
#
#
# Indices 1 2 3 4 5 6 
#
# 1 0.008663 -0.000512 -0.000671 0.004995 0.006556 0.006985
# 2 -0.000512 0.004680 -0.000704 0.001498 0.001454 0.000445
# 3 -0.000671 -0.000704 0.007791 0.007501 0.005247 0.005580
# 4 0.004995 0.001498 0.007501 0.036835 0.016477 0.020037
# 5 0.006556 0.001454 0.005247 0.016477 0.026757 0.014828
# 6 0.006985 0.000445 0.005580 0.020037 0.014828 0.036801
#
#
# Mechanical properties :
#
#
# Convention : Reuss Voigt Hill
#
# Bulk Modulus (GPa) = 57.60226 111.10561 84.35393
# Shear Modulus (GPa) = 38.14281 61.71360 49.92820
#
# Velocity S-wave (km/s) = 3.65840 4.65345 4.18560
# Velocity P-wave (km/s) = 6.16905 8.23763 7.27722
#
# Compressibility (1/GPa) = 0.01736043
#
# Stress axis : x y z
#
# Youngs Moduli (GPa) = 115.43498 213.67657 128.36056
#
# Poissons Ratio (x) = 0.10939 0.08611
# Poissons Ratio (y) = 0.05909 0.09033
# Poissons Ratio (z) = 0.07744 0.15036
#
# Static dielectric constant tensor:
#      x y z
#    x 2.329150 0.089190 0.208410 
#    y 0.089190 2.466930 0.042500 
#    z 0.208410 0.042500 2.178660 
# 
# From -- ./inp_files/602909.got.cif
#   From: 2010.05.17/outbox.cif.g08.bks.cpg/sg2_302_cif.got.tgz:602909.got - 2010.06.03 11:33:40.
