data_PCOD9030931
_publ_section_title
;
Structure prediction by ZEFSAII (Michael W. Deem and Ramdas Pophale) SiO2 
 PCOD9030931
Probable space group: P -1
;
_chemical_formula_sum "Si O2"
_cell_formula_units_Z 16
_cell_length_a 8.721665
_cell_length_b 17.162039
_cell_length_c 10.970138
_cell_angle_alpha 142.607555
_cell_angle_beta 53.020142
_cell_angle_gamma 110.986842
_cell_volume 771.919158
_symmetry_space_group_name_H-M "P -1"
_symmetry_group_IT_number 2
_symmetry_cell_setting 'triclinic'
loop_
_space_group_symop_operation_xyz
x,y,z
-x,-y,-z
loop_
_atom_site_type_symbol
_atom_site_label
_atom_site_fract_x
_atom_site_fract_y
_atom_site_fract_z
Si Si1 0.541467 0.897177 0.235483
Si Si2 0.874072 0.389328 0.912948
Si Si3 0.338457 0.024585 0.997237
Si Si4 0.152724 0.859117 0.261668
Si Si5 0.253441 0.786351 0.850357
Si Si6 0.051072 0.303567 0.487734
Si Si7 0.386593 0.437175 0.575285
Si Si8 0.058030 0.339350 0.258828
O O1 0.588471 0.960592 0.159427
O O2 0.332659 0.860593 0.268228
O O3 0.500000 0.000000 0.500000
O O4 0.721502 0.760770 0.993343
O O5 0.951428 0.255031 0.786066
O O6 0.875162 0.349645 0.723470
O O7 0.671006 0.459430 0.160129
O O8 0.000000 0.500000 0.000000
O O9 0.225572 0.908558 0.924273
O O10 0.184967 0.160136 0.274870
O O11 0.500000 0.000000 0.000000
O O12 0.249208 0.829165 0.045646
O O13 0.000000 0.000000 0.500000
O O14 0.468242 0.693923 0.606713
O O15 0.087915 0.704546 0.819748
O O16 0.198171 0.400802 0.557593
O O17 0.992386 0.299955 0.373298
O O18 0.500000 0.500000 0.500000
O O19 0.000000 0.500000 0.500000
#
# Coordination Sequence:
#
# PCOD9030931 Si02
#       8
#     2   2   2   2   2   2   2   2
#     4  11  26  47  69 103 145 184 226 300 351 415
#     4  10  24  38  64  99 137 169 228 289 346 401
#     4  11  21  42  70  98 134 172 236 287 344 410
#     4  12  24  41  73 101 135 181 240 283 349 422
#     4  12  23  39  70 101 125 186 233 279 341 424
#     4  10  22  43  62  94 137 176 218 291 346 401
#     4  11  20  38  65  93 131 175 229 277 340 408
#     4  11  26  44  67  96 142 186 231 280 349 418
#
# _framework density 20.727558999999999
#
# number of rings (size 3 to 8) (size 9 to 14) (size 15 to 20)
#    0.000    1.000    3.750    3.000    3.500    3.000 
#    2.250    0.625    0.000    0.000    0.000    0.000 
#    0.000    0.000    0.000    0.000    0.000    0.000 
#
# Total GULP energy -89182.981946 kJ/mol
# GULP energy per Si atom -5573.936372 kJ/mol
# Density = 2.068038 g / cm^3
# Si number density = 20.727559 Si / 1000 Ang^3
#
#
#
# Elastic Constant Matrix: (Units=GPa)
#
#
# Indices 1 2 3 4 5 6 
#
# 1 73.9321 9.8151 39.5484 2.9603 8.5332 -0.8483
# 2 9.8151 101.0718 47.2643 14.4701 2.5442 0.4080
# 3 39.5484 47.2643 169.5735 -8.3599 6.5147 -13.7048
# 4 2.9603 14.4701 -8.3599 47.0175 -4.7533 4.9093
# 5 8.5332 2.5442 6.5147 -4.7533 24.1174 2.6161
# 6 -0.8483 0.4080 -13.7048 4.9093 2.6161 24.6401
#
#
#
# Elastic Compliance Matrix: (Units=1/GPa)
#
#
# Indices 1 2 3 4 5 6 
#
# 1 0.016234 0.000758 -0.003969 -0.002417 -0.005159 -0.000632
# 2 0.000758 0.012325 -0.003892 -0.004525 -0.001267 -0.001307
# 3 -0.003969 -0.003892 0.008380 0.002464 -0.000412 0.004142
# 4 -0.002417 -0.004525 0.002464 0.024276 0.005896 -0.004101
# 5 -0.005159 -0.001267 -0.000412 0.005896 0.045388 -0.006380
# 6 -0.000632 -0.001307 0.004142 -0.004101 -0.006380 0.044382
#
#
# Mechanical properties :
#
#
# Convention : Reuss Voigt Hill
#
# Bulk Modulus (GPa) = 43.99101 59.75922 51.87511
# Shear Modulus (GPa) = 28.94037 35.68498 32.31268
#
# Velocity S-wave (km/s) = 3.74067 4.15374 3.95260
# Velocity P-wave (km/s) = 6.31873 7.20404 6.77586
#
# Compressibility (1/GPa) = 0.02273192
#
# Stress axis : x y z
#
# Youngs Moduli (GPa) = 61.60063 81.13318 119.33506
#
# Poissons Ratio (x) = -0.06151 0.47369
# Poissons Ratio (y) = -0.04670 0.46448
# Poissons Ratio (z) = 0.24452 0.31579
#
# Static dielectric constant tensor:
#      x y z
#    x 1.761240 0.026330 0.003540 
#    y 0.026330 1.639550 -0.060200 
#    z 0.003540 -0.060200 1.720620 
# 
# From -- ./inp_files/403481.got.cif
#   From: 2010.05.17/outbox.cif.g08.bks.cpg/sg2_202_cif.got.tgz:403481.got - 2010.06.03 11:33:40.
