data_PCOD9030939
_publ_section_title
;
Structure prediction by ZEFSAII (Michael W. Deem and Ramdas Pophale) SiO2 
 PCOD9030939
Probable space group: P -1
;
_chemical_formula_sum "Si O2"
_cell_formula_units_Z 12
_cell_length_a 9.303463
_cell_length_b 6.447764
_cell_length_c 15.066354
_cell_angle_alpha 70.093601
_cell_angle_beta 139.531594
_cell_angle_gamma 109.423196
_cell_volume 547.513491
_symmetry_space_group_name_H-M "P -1"
_symmetry_group_IT_number 2
_symmetry_cell_setting 'triclinic'
loop_
_space_group_symop_operation_xyz
x,y,z
-x,-y,-z
loop_
_atom_site_type_symbol
_atom_site_label
_atom_site_fract_x
_atom_site_fract_y
_atom_site_fract_z
Si Si1 0.572807 0.683487 0.121543
Si Si2 0.521591 0.253569 0.443351
Si Si3 0.232915 0.281482 0.977063
Si Si4 0.739775 0.381320 0.706801
Si Si5 0.535690 0.953404 0.245111
Si Si6 0.201498 0.657273 0.616460
O O1 0.684150 0.791886 0.069898
O O2 0.557471 0.834119 0.178403
O O3 0.724595 0.496334 0.248701
O O4 0.342194 0.535350 0.009198
O O5 0.688081 0.368000 0.579912
O O6 0.293022 0.366031 0.320975
O O7 0.623999 0.296017 0.388890
O O8 0.500000 0.000000 0.500000
O O9 0.970370 0.291960 0.852346
O O10 0.344375 0.119518 0.119981
O O11 0.547382 0.228322 0.693283
O O12 0.768664 0.098270 0.360381
O O13 0.000000 0.500000 0.500000
#
# Coordination Sequence:
#
# PCOD9030939 Si02
#       6
#     2   2   2   2   2   2
#     4  10  22  43  62  97 136 169 225 270 320 398
#     4  11  23  43  66  95 136 171 219 277 324 394
#     4  10  23  41  66  95 136 175 214 273 332 389
#     4  11  23  41  67  98 131 174 221 267 334 390
#     4  11  22  41  68  99 130 174 223 275 320 397
#     4  11  23  42  66  94 135 174 221 275 329 386
#
# _framework density 21.917266999999999
#
# number of rings (size 3 to 8) (size 9 to 14) (size 15 to 20)
#    0.000    1.333    3.333    2.000    0.000    2.667 
#    0.000    6.667    0.000    0.000    0.000    0.000 
#    0.000    0.000    0.000    0.000    0.000    0.000 
#
# Total GULP energy -66938.739286 kJ/mol
# GULP energy per Si atom -5578.228274 kJ/mol
# Density = 2.186738 g / cm^3
# Si number density = 21.917267 Si / 1000 Ang^3
#
#
#
# Elastic Constant Matrix: (Units=GPa)
#
#
# Indices 1 2 3 4 5 6 
#
# 1 50.6117 20.9364 13.7885 12.0371 -22.6576 -6.3550
# 2 20.9364 78.1384 12.7915 6.3384 2.9970 -9.4289
# 3 13.7885 12.7915 79.7070 3.0941 -4.6390 2.4203
# 4 12.0371 6.3384 3.0941 49.9062 -0.2320 -15.2322
# 5 -22.6576 2.9970 -4.6390 -0.2320 38.9547 -0.4130
# 6 -6.3550 -9.4289 2.4203 -15.2322 -0.4130 31.3217
#
#
#
# Elastic Compliance Matrix: (Units=1/GPa)
#
#
# Indices 1 2 3 4 5 6 
#
# 1 0.035580 -0.009047 -0.003283 -0.006573 0.020980 0.001829
# 2 -0.009047 0.016069 -0.001564 0.001331 -0.006637 0.003682
# 3 -0.003283 -0.001564 0.013450 -0.000598 -0.000217 -0.002470
# 4 -0.006573 0.001331 -0.000598 0.024881 -0.003730 0.011164
# 5 0.020980 -0.006637 -0.000217 -0.003730 0.038347 0.000967
# 6 0.001829 0.003682 -0.002470 0.011164 0.000967 0.039039
#
#
# Mechanical properties :
#
#
# Convention : Reuss Voigt Hill
#
# Bulk Modulus (GPa) = 26.79979 33.72109 30.26044
# Shear Modulus (GPa) = 24.08591 34.76588 29.42590
#
# Velocity S-wave (km/s) = 3.31863 3.98707 3.66811
# Velocity P-wave (km/s) = 5.19025 6.05101 5.63708
#
# Compressibility (1/GPa) = 0.03731373
#
# Stress axis : x y z
#
# Youngs Moduli (GPa) = 28.10538 62.23278 74.34779
#
# Poissons Ratio (x) = 0.56301 0.24405
# Poissons Ratio (y) = 0.25426 0.11624
# Poissons Ratio (z) = 0.09226 0.09730
#
# Static dielectric constant tensor:
#      x y z
#    x 1.773590 -0.028450 0.029180 
#    y -0.028450 1.890930 0.047330 
#    z 0.029180 0.047330 1.816570 
# 
# From -- ./inp_files/22983.got.cif
#   From: 2010.05.17/outbox.cif.g08.bks.cpg/sg2_12_cif.got.tgz:22983.got - 2010.06.03 11:33:40.
