data_PCOD9030779
_publ_section_title
;
Structure prediction by ZEFSAII (Michael W. Deem and Ramdas Pophale) SiO2 
 PCOD9030779
Probable space group: P -1
;
_chemical_formula_sum "Si O2"
_cell_formula_units_Z 11
_cell_length_a 10.869074
_cell_length_b 10.437994
_cell_length_c 10.781269
_cell_angle_alpha 61.576038
_cell_angle_beta 27.128525
_cell_angle_gamma 56.581626
_cell_volume 465.208199
_symmetry_space_group_name_H-M "P -1"
_symmetry_group_IT_number 2
_symmetry_cell_setting 'triclinic'
loop_
_space_group_symop_operation_xyz
x,y,z
-x,-y,-z
loop_
_atom_site_type_symbol
_atom_site_label
_atom_site_fract_x
_atom_site_fract_y
_atom_site_fract_z
Si Si1 0.499687 0.955907 0.244223
Si Si2 0.000000 0.000000 0.500000
Si Si3 0.739708 0.606900 0.107375
Si Si4 0.000242 0.928985 0.168229
Si Si5 0.186704 0.609880 0.255613
Si Si6 0.856734 0.331950 0.454588
O O1 0.651045 0.775175 0.171005
O O2 0.290261 0.026869 0.285198
O O3 0.297395 0.994784 0.529288
O O4 0.742545 0.036799 0.004019
O O5 0.918667 0.162465 0.422906
O O6 0.450088 0.565559 0.369155
O O7 0.000000 0.500000 0.000000
O O8 0.883508 0.611199 0.842106
O O9 0.067727 0.744489 0.200166
O O10 0.000000 0.000000 0.000000
O O11 0.180765 0.692645 0.355371
O O12 0.000000 0.500000 0.500000
O O13 0.500000 0.500000 0.000000
#
# Coordination Sequence:
#
# PCOD9030779 Si02
#       6
#     2   1   2   2   2   2
#     4  11  24  44  74 106 143 185 242 306 365 432
#     4  10  22  42  74 104 134 168 244 302 350 412
#     4  11  25  42  67 106 142 177 228 296 379 425
#     4  12  27  48  72 107 147 199 251 299 364 441
#     4  12  27  47  70 104 144 197 245 297 361 433
#     4  11  24  42  71 100 136 182 232 299 355 425
#
# _framework density 23.645327999999999
#
# number of rings (size 3 to 8) (size 9 to 14) (size 15 to 20)
#    0.000    0.727    1.818    5.455    2.545    6.545 
#    0.000    0.000    0.000    0.000    0.000    0.000 
#    0.000    0.000    0.000    0.000    0.000    0.000 
#
# Total GULP energy -61291.688427 kJ/mol
# GULP energy per Si atom -5571.971675 kJ/mol
# Density = 2.359151 g / cm^3
# Si number density = 23.645328 Si / 1000 Ang^3
#
#
#
# Elastic Constant Matrix: (Units=GPa)
#
#
# Indices 1 2 3 4 5 6 
#
# 1 58.7152 35.2585 28.5493 -0.8925 -4.3455 -21.9393
# 2 35.2585 138.2180 62.6210 21.3051 4.6094 -32.7915
# 3 28.5493 62.6210 179.7406 14.9767 0.5395 3.7940
# 4 -0.8925 21.3051 14.9767 38.7091 3.9239 -4.5486
# 5 -4.3455 4.6094 0.5395 3.9239 56.4319 0.2409
# 6 -21.9393 -32.7915 3.7940 -4.5486 0.2409 33.3939
#
#
#
# Elastic Compliance Matrix: (Units=1/GPa)
#
#
# Indices 1 2 3 4 5 6 
#
# 1 0.026828 -0.001527 -0.004522 0.005060 0.001808 0.017316
# 2 -0.001527 0.012924 -0.004162 -0.004083 -0.000899 0.011611
# 3 -0.004522 -0.004162 0.008065 -0.001910 0.000083 -0.008235
# 4 0.005060 -0.004083 -0.001910 0.029489 -0.001324 0.003559
# 5 0.001808 -0.000899 0.000083 -0.001324 0.018024 -0.000015
# 6 0.017316 0.011611 -0.008235 0.003559 -0.000015 0.054144
#
#
# Mechanical properties :
#
#
# Convention : Reuss Voigt Hill
#
# Bulk Modulus (GPa) = 36.50395 69.94790 53.22593
# Shear Modulus (GPa) = 27.92855 42.38999 35.15927
#
# Velocity S-wave (km/s) = 3.44051 4.23867 3.86027
# Velocity P-wave (km/s) = 5.59057 7.32130 6.51367
#
# Compressibility (1/GPa) = 0.02739430
#
# Stress axis : x y z
#
# Youngs Moduli (GPa) = 37.27443 77.37358 123.99781
#
# Poissons Ratio (x) = 0.11816 0.56069
# Poissons Ratio (y) = 0.05692 0.51613
# Poissons Ratio (z) = 0.16855 0.32206
#
# Static dielectric constant tensor:
#      x y z
#    x 1.991720 0.060000 0.011690 
#    y 0.060000 1.935750 0.040070 
#    z 0.011690 0.040070 1.960620 
# 
# From -- ./inp_files/422571.got.cif
#   From: 2010.05.17/outbox.cif.g08.bks.cpg/sg2_212_cif.got.tgz:422571.got - 2010.06.03 11:33:40.
