data_PCOD9030613
_publ_section_title
;
Structure prediction by ZEFSAII (Michael W. Deem and Ramdas Pophale) SiO2 
 PCOD9030613
Probable space group: P -1
;
_chemical_formula_sum "Si O2"
_cell_formula_units_Z 14
_cell_length_a 15.965935
_cell_length_b 29.211294
_cell_length_c 5.257326
_cell_angle_alpha 124.396286
_cell_angle_beta 55.347424
_cell_angle_gamma 161.866797
_cell_volume 624.852715
_symmetry_space_group_name_H-M "P -1"
_symmetry_group_IT_number 2
_symmetry_cell_setting 'triclinic'
loop_
_space_group_symop_operation_xyz
x,y,z
-x,-y,-z
loop_
_atom_site_type_symbol
_atom_site_label
_atom_site_fract_x
_atom_site_fract_y
_atom_site_fract_z
Si Si1 0.106849 0.686786 0.468967
Si Si2 0.631724 0.006234 0.786170
Si Si3 0.719015 0.590600 0.705573
Si Si4 0.013935 0.941587 0.820368
Si Si5 0.309298 0.059360 0.184369
Si Si6 0.790843 0.719803 0.626186
Si Si7 0.107375 0.615568 0.729553
O O1 0.014943 0.608823 0.638637
O O2 0.939467 0.658650 0.633363
O O3 0.418530 0.862628 0.533754
O O4 0.065820 0.625470 0.104438
O O5 0.942518 0.161915 0.634430
O O6 0.620598 0.969305 0.962632
O O7 0.500000 0.000000 0.000000
O O8 0.848915 0.711939 0.748836
O O9 0.516355 0.454563 0.443923
O O10 0.500000 0.500000 0.000000
O O11 0.783354 0.782775 0.820872
O O12 0.080176 0.956070 0.464850
O O13 0.228202 0.036686 0.973369
O O14 0.000000 0.000000 0.000000
O O15 0.567584 0.224531 0.344707
O O16 0.000000 0.500000 0.500000
#
# Coordination Sequence:
#
# PCOD9030613 Si02
#       7
#     2   2   2   2   2   2   2
#     4  11  26  43  71 105 135 184 246 279 358 428
#     4  10  22  42  72 103 138 184 230 293 356 420
#     4  11  26  44  65 100 147 184 231 289 354 436
#     4  11  24  44  68  97 133 181 235 287 349 415
#     4  10  23  42  64 101 133 167 236 291 341 411
#     4  10  25  42  67  97 138 182 229 287 356 414
#     4  11  24  45  69  98 138 182 231 300 352 415
#
# _framework density 22.405280000000001
#
# number of rings (size 3 to 8) (size 9 to 14) (size 15 to 20)
#    0.000    1.429    0.000    4.286   14.000    2.857 
#    0.000    0.000    0.000    0.000    0.000    0.000 
#    0.000    0.000    0.000    0.000    0.000    0.000 
#
# Total GULP energy -78016.930579 kJ/mol
# GULP energy per Si atom -5572.637898 kJ/mol
# Density = 2.235428 g / cm^3
# Si number density = 22.405280 Si / 1000 Ang^3
#
#
#
# Elastic Constant Matrix: (Units=GPa)
#
#
# Indices 1 2 3 4 5 6 
#
# 1 190.0302 36.2758 60.8169 4.8115 0.7689 -21.2771
# 2 36.2758 92.5447 9.7605 14.6551 7.1872 -16.3868
# 3 60.8169 9.7605 93.4339 9.3115 5.8955 -11.4839
# 4 4.8115 14.6551 9.3115 33.2892 -2.5502 -4.6331
# 5 0.7689 7.1872 5.8955 -2.5502 33.1158 10.2237
# 6 -21.2771 -16.3868 -11.4839 -4.6331 10.2237 39.1775
#
#
#
# Elastic Compliance Matrix: (Units=1/GPa)
#
#
# Indices 1 2 3 4 5 6 
#
# 1 0.007303 -0.002406 -0.004506 0.001549 0.000774 0.001620
# 2 -0.002406 0.013952 0.001757 -0.005904 -0.005527 0.005788
# 3 -0.004506 0.001757 0.014504 -0.004059 -0.004141 0.003140
# 4 0.001549 -0.005904 -0.004059 0.033901 0.004580 -0.000004
# 5 0.000774 -0.005527 -0.004141 0.004580 0.036174 -0.012003
# 6 0.001620 0.005788 0.003140 -0.000004 -0.012003 0.032878
#
#
# Mechanical properties :
#
#
# Convention : Reuss Voigt Hill
#
# Bulk Modulus (GPa) = 39.29395 65.52392 52.40893
# Shear Modulus (GPa) = 31.74497 39.06021 35.40259
#
# Velocity S-wave (km/s) = 3.76819 4.17987 3.97936
# Velocity P-wave (km/s) = 6.04221 7.25282 6.67502
#
# Compressibility (1/GPa) = 0.02544921
#
# Stress axis : x y z
#
# Youngs Moduli (GPa) = 136.93416 71.67235 68.94631
#
# Poissons Ratio (x) = 0.17243 0.31068
# Poissons Ratio (y) = 0.32943 -0.12114
# Poissons Ratio (z) = 0.61705 -0.12593
#
# Static dielectric constant tensor:
#      x y z
#    x 1.850490 -0.083590 -0.038230 
#    y -0.083590 3.184690 0.796410 
#    z -0.038230 0.796410 2.345550 
# 
# From -- ./inp_files/101590.got.cif
#   From: 2010.05.17/outbox.cif.g08.bks.cpg/sg2_51_cif.got.tgz:101590.got - 2010.06.03 11:33:40.
