data_PCOD9030058
_publ_section_title
;
Structure prediction by ZEFSAII (Michael W. Deem and Ramdas Pophale) SiO2 
 PCOD9030058
Probable space group: P -1
;
_chemical_formula_sum "Si O2"
_cell_formula_units_Z 16
_cell_length_a 8.584012
_cell_length_b 11.320348
_cell_length_c 16.329699
_cell_angle_alpha 67.516395
_cell_angle_beta 81.379673
_cell_angle_gamma 29.405319
_cell_volume 658.531693
_symmetry_space_group_name_H-M "P -1"
_symmetry_group_IT_number 2
_symmetry_cell_setting 'triclinic'
loop_
_space_group_symop_operation_xyz
x,y,z
-x,-y,-z
loop_
_atom_site_type_symbol
_atom_site_label
_atom_site_fract_x
_atom_site_fract_y
_atom_site_fract_z
Si Si1 0.068417 0.280631 0.872136
Si Si2 0.833692 0.376020 0.218632
Si Si3 0.231585 0.826336 0.370037
Si Si4 0.119364 0.264765 0.054060
Si Si5 0.233040 0.663855 0.256511
Si Si6 0.686124 0.094743 0.435603
Si Si7 0.660987 0.808643 0.704144
Si Si8 0.345277 0.281672 0.579381
O O1 0.024126 0.210115 0.822389
O O2 0.762031 0.606822 0.796701
O O3 0.461731 0.046994 0.893207
O O4 0.027158 0.268421 0.972893
O O5 0.443759 0.619523 0.202227
O O6 0.935753 0.341120 0.128266
O O7 0.969742 0.386025 0.267526
O O8 0.030798 0.102760 0.295897
O O9 0.122509 0.815086 0.306950
O O10 0.614989 0.610038 0.408420
O O11 0.076171 0.860955 0.449490
O O12 0.000000 0.500000 0.000000
O O13 0.458335 0.382926 0.349811
O O14 0.527338 0.099232 0.388303
O O15 0.619775 0.100170 0.531468
O O16 0.421016 0.100813 0.675990
O O17 0.000000 0.500000 0.500000
#
# Coordination Sequence:
#
# PCOD9030058 Si02
#       8
#     2   2   2   2   2   2   2   2
#     4  10  24  43  70 101 133 177 221 267 340 401
#     4  10  23  40  66 100 131 170 225 272 329 396
#     4  10  24  43  66  90 139 180 218 275 335 397
#     4  11  23  42  72 105 133 168 221 280 330 397
#     4  10  24  42  66  97 134 181 219 268 336 399
#     4  10  23  43  64  96 133 175 228 273 330 395
#     4  10  22  42  69  94 136 171 222 276 326 401
#     4  11  25  42  67 104 130 176 230 283 329 385
#
# _framework density 24.296478
#
# number of rings (size 3 to 8) (size 9 to 14) (size 15 to 20)
#    0.000    1.750    1.250    0.750    7.000    4.000 
#    2.250    1.250    0.000    0.000    0.000    0.000 
#    0.000    0.000    0.000    0.000    0.000    0.000 
#
# Total GULP energy -89302.725717 kJ/mol
# GULP energy per Si atom -5581.420357 kJ/mol
# Density = 2.424118 g / cm^3
# Si number density = 24.296478 Si / 1000 Ang^3
#
#
#
# Elastic Constant Matrix: (Units=GPa)
#
#
# Indices 1 2 3 4 5 6 
#
# 1 130.4124 22.4481 45.3640 7.4598 20.9024 8.7523
# 2 22.4481 48.2648 32.5093 11.0853 -9.2572 -5.0308
# 3 45.3640 32.5093 123.3902 18.4200 3.0009 -9.1842
# 4 7.4598 11.0853 18.4200 44.7681 -3.9251 -5.4657
# 5 20.9024 -9.2572 3.0009 -3.9251 49.9710 6.1138
# 6 8.7523 -5.0308 -9.1842 -5.4657 6.1138 32.2670
#
#
#
# Elastic Compliance Matrix: (Units=1/GPa)
#
#
# Indices 1 2 3 4 5 6 
#
# 1 0.010318 -0.004035 -0.002821 -0.000374 -0.004502 -0.003441
# 2 -0.004035 0.028632 -0.005580 -0.003265 0.006810 0.002127
# 3 -0.002821 -0.005580 0.011226 -0.002511 -0.001076 0.002869
# 4 -0.000374 -0.003265 -0.002511 0.024699 0.001298 0.002815
# 5 -0.004502 0.006810 -0.001076 0.001298 0.023601 -0.002275
# 6 -0.003441 0.002127 0.002869 0.002815 -0.002275 0.033981
#
#
# Mechanical properties :
#
#
# Convention : Reuss Voigt Hill
#
# Bulk Modulus (GPa) = 39.51951 55.85669 47.68810
# Shear Modulus (GPa) = 30.16330 38.85096 34.50713
#
# Velocity S-wave (km/s) = 3.52727 4.00313 3.77271
# Velocity P-wave (km/s) = 5.73495 6.66381 6.21675
#
# Compressibility (1/GPa) = 0.02530396
#
# Stress axis : x y z
#
# Youngs Moduli (GPa) = 96.92012 34.92593 89.07660
#
# Poissons Ratio (x) = 0.14093 0.25128
# Poissons Ratio (y) = 0.39107 0.49706
# Poissons Ratio (z) = 0.27341 0.19489
#
# Static dielectric constant tensor:
#      x y z
#    x 1.990930 -0.030720 0.043030 
#    y -0.030720 2.049460 0.000040 
#    z 0.043030 0.000040 1.917360 
# 
# From -- ./inp_files/355983.got.cif
#   From: 2010.05.17/outbox.cif.g08.bks.cpg/sg2_178_cif.got.tgz:355983.got - 2010.06.03 11:33:40.
