data_PCOD9030951
_publ_section_title
;
Structure prediction by ZEFSAII (Michael W. Deem and Ramdas Pophale) SiO2 
 PCOD9030951
Probable space group: P -1
;
_chemical_formula_sum "Si O2"
_cell_formula_units_Z 14
_cell_length_a 11.534004
_cell_length_b 17.401729
_cell_length_c 10.223078
_cell_angle_alpha 145.183768
_cell_angle_beta 132.176740
_cell_angle_gamma 27.624456
_cell_volume 530.919838
_symmetry_space_group_name_H-M "P -1"
_symmetry_group_IT_number 2
_symmetry_cell_setting 'triclinic'
loop_
_space_group_symop_operation_xyz
x,y,z
-x,-y,-z
loop_
_atom_site_type_symbol
_atom_site_label
_atom_site_fract_x
_atom_site_fract_y
_atom_site_fract_z
Si Si1 0.327717 0.536518 0.198048
Si Si2 0.206035 0.188062 0.007691
Si Si3 0.842778 0.288690 0.188150
Si Si4 0.196475 0.912290 0.707722
Si Si5 0.277990 0.441091 0.736846
Si Si6 0.336403 0.103311 0.387840
Si Si7 0.319897 0.335327 0.123556
O O1 0.635035 0.343498 0.187226
O O2 0.179343 0.775722 0.447619
O O3 0.216839 0.508725 0.182472
O O4 0.315802 0.487636 0.971816
O O5 0.168036 0.054064 0.780852
O O6 0.141304 0.350866 0.084707
O O7 0.029934 0.348296 0.219564
O O8 0.500000 0.000000 0.000000
O O9 0.653675 0.512437 0.268268
O O10 0.045392 0.240129 0.358122
O O11 0.000114 0.086743 0.921164
O O12 0.489772 0.720007 0.710886
O O13 0.366063 0.230122 0.522945
O O14 0.500000 0.000000 0.500000
O O15 0.488544 0.893206 0.125419
#
# Coordination Sequence:
#
# PCOD9030951 Si02
#       7
#     2   2   2   2   2   2   2
#     4  12  24  43  70 106 144 182 231 289 362 419
#     4   9  21  42  69  94 132 183 238 282 336 417
#     4  10  25  44  73  99 142 189 231 290 353 417
#     4   9  22  43  68  99 136 183 236 281 346 417
#     4  11  24  45  68 107 137 183 243 284 349 419
#     4  11  23  45  68 102 139 179 243 289 341 424
#     4  10  22  43  63 101 138 178 233 284 346 413
#
# _framework density 26.369330000000001
#
# number of rings (size 3 to 8) (size 9 to 14) (size 15 to 20)
#    0.000    1.714    1.429    2.143    6.000    5.143 
#    5.143    0.000    0.000    0.000    0.000    0.000 
#    0.000    0.000    0.000    0.000    0.000    0.000 
#
# Total GULP energy -78250.068459 kJ/mol
# GULP energy per Si atom -5589.290604 kJ/mol
# Density = 2.630931 g / cm^3
# Si number density = 26.369330 Si / 1000 Ang^3
#
#
#
# Elastic Constant Matrix: (Units=GPa)
#
#
# Indices 1 2 3 4 5 6 
#
# 1 103.4734 21.2803 32.1708 7.1515 20.1610 18.5634
# 2 21.2803 83.3794 57.0239 -27.6257 9.4981 12.4258
# 3 32.1708 57.0239 182.4976 13.9256 16.9684 33.8747
# 4 7.1515 -27.6257 13.9256 41.0801 16.5145 -6.3809
# 5 20.1610 9.4981 16.9684 16.5145 32.5909 9.8676
# 6 18.5634 12.4258 33.8747 -6.3809 9.8676 40.6573
#
#
#
# Elastic Compliance Matrix: (Units=1/GPa)
#
#
# Indices 1 2 3 4 5 6 
#
# 1 0.012022 -0.004012 0.000649 -0.004648 -0.002779 -0.004859
# 2 -0.004012 0.042314 -0.016868 0.050887 -0.032559 0.018842
# 3 0.000649 -0.016868 0.013696 -0.023599 0.013434 -0.013517
# 4 -0.004648 0.050887 -0.023599 0.096940 -0.059668 0.035928
# 5 -0.002779 -0.032559 0.013434 -0.059668 0.073349 -0.027140
# 6 -0.004859 0.018842 -0.013517 0.035928 -0.027140 0.044543
#
#
# Mechanical properties :
#
#
# Convention : Reuss Voigt Hill
#
# Bulk Modulus (GPa) = 36.26786 65.58893 50.92840
# Shear Modulus (GPa) = 15.03686 40.12400 27.58043
#
# Velocity S-wave (km/s) = 2.39056 3.90502 3.23759
# Velocity P-wave (km/s) = 4.62638 6.72751 5.77334
#
# Compressibility (1/GPa) = 0.02757262
#
# Stress axis : x y z
#
# Youngs Moduli (GPa) = 83.18097 23.63263 73.01266
#
# Poissons Ratio (x) = 0.09480 -0.04740
# Poissons Ratio (y) = 0.33369 1.23155
# Poissons Ratio (z) = -0.05400 0.39863
#
# Static dielectric constant tensor:
#      x y z
#    x 2.449480 0.255180 -0.082560 
#    y 0.255180 2.381660 -0.162090 
#    z -0.082560 -0.162090 2.117530 
# 
# From -- ./inp_files/437442.got.cif
#   From: 2010.05.17/outbox.cif.g08.bks.cpg/sg2_219_cif.got.tgz:437442.got - 2010.06.03 11:33:40.
