data_PCOD9030955
_publ_section_title
;
Structure prediction by ZEFSAII (Michael W. Deem and Ramdas Pophale) SiO2 
 PCOD9030955
Probable space group: P -1
;
_chemical_formula_sum "Si O2"
_cell_formula_units_Z 16
_cell_length_a 24.063030
_cell_length_b 11.844748
_cell_length_c 5.588079
_cell_angle_alpha 56.277244
_cell_angle_beta 127.291558
_cell_angle_gamma 151.666742
_cell_volume 600.356645
_symmetry_space_group_name_H-M "P -1"
_symmetry_group_IT_number 2
_symmetry_cell_setting 'triclinic'
loop_
_space_group_symop_operation_xyz
x,y,z
-x,-y,-z
loop_
_atom_site_type_symbol
_atom_site_label
_atom_site_fract_x
_atom_site_fract_y
_atom_site_fract_z
Si Si1 0.105178 0.801751 0.132559
Si Si2 0.372461 0.680425 0.318334
Si Si3 0.635355 0.067886 0.778053
Si Si4 0.547844 0.407699 0.683617
Si Si5 0.065642 0.141630 0.759581
Si Si6 0.316051 0.130363 0.638953
Si Si7 0.746078 0.716265 0.193471
Si Si8 0.868933 0.463984 0.660561
O O1 0.117637 0.662743 0.268940
O O2 0.180488 0.939808 0.411650
O O3 0.961703 0.607638 0.963884
O O4 0.176150 0.020859 0.880122
O O5 0.341694 0.789360 0.114682
O O6 0.420338 0.693310 0.183950
O O7 0.268773 0.420120 0.478415
O O8 0.494163 0.852583 0.595610
O O9 0.729118 0.270136 0.587510
O O10 0.676046 0.978467 0.027745
O O11 0.404889 0.208910 0.569122
O O12 0.614295 0.617358 0.426185
O O13 0.613413 0.543571 0.946404
O O14 0.188656 0.253341 0.898796
O O15 0.086886 0.335586 0.603533
O O16 0.000000 0.000000 0.500000
O O17 0.000000 0.000000 0.000000
#
# Coordination Sequence:
#
# PCOD9030955 Si02
#       8
#     2   2   2   2   2   2   2   2
#     4  10  24  44  68  97 147 186 248 305 364 439
#     4  11  24  42  70 102 143 186 238 306 373 449
#     4  11  24  42  66 103 146 186 241 302 374 449
#     4  10  23  41  68 100 138 188 240 309 360 445
#     4  12  28  51  79 109 152 200 254 308 375 449
#     4  10  22  43  63 102 141 190 249 297 370 442
#     4  11  23  46  71 105 138 186 252 298 375 442
#     4  11  24  46  69 106 145 192 243 305 376 440
#
# _framework density 26.650822999999999
#
# number of rings (size 3 to 8) (size 9 to 14) (size 15 to 20)
#    0.000    1.250    3.750    0.750    3.500    3.500 
#    6.750    0.000    0.000    0.000    0.000    0.000 
#    0.000    0.000    0.000    0.000    0.000    0.000 
#
# Total GULP energy -89475.729371 kJ/mol
# GULP energy per Si atom -5592.233086 kJ/mol
# Density = 2.659016 g / cm^3
# Si number density = 26.650823 Si / 1000 Ang^3
#
#
#
# Elastic Constant Matrix: (Units=GPa)
#
#
# Indices 1 2 3 4 5 6 
#
# 1 103.3868 30.8040 15.5473 -11.0590 7.6503 -9.3360
# 2 30.8040 106.7542 50.0385 -26.6926 0.6956 -9.3209
# 3 15.5473 50.0385 73.9486 -15.6194 1.5601 0.8846
# 4 -11.0590 -26.6926 -15.6194 42.4026 -2.1293 2.5008
# 5 7.6503 0.6956 1.5601 -2.1293 37.6653 -5.3376
# 6 -9.3360 -9.3209 0.8846 2.5008 -5.3376 33.9987
#
#
#
# Elastic Compliance Matrix: (Units=1/GPa)
#
#
# Indices 1 2 3 4 5 6 
#
# 1 0.010898 -0.002582 -0.000342 0.000885 -0.001826 0.001942
# 2 -0.002582 0.016289 -0.009287 0.006011 0.001485 0.003790
# 3 -0.000342 -0.009287 0.020299 0.001696 -0.000993 -0.003449
# 4 0.000885 0.006011 0.001696 0.028287 0.001232 -0.000040
# 5 -0.001826 0.001485 -0.000993 0.001232 0.027595 0.004173
# 6 0.001942 0.003790 -0.003449 -0.000040 0.004173 0.031733
#
#
# Mechanical properties :
#
#
# Convention : Reuss Voigt Hill
#
# Bulk Modulus (GPa) = 43.35411 52.98545 48.16978
# Shear Modulus (GPa) = 29.90222 35.32665 32.61444
#
# Velocity S-wave (km/s) = 3.35326 3.64474 3.50204
# Velocity P-wave (km/s) = 5.59422 6.13488 5.87077
#
# Compressibility (1/GPa) = 0.02306587
#
# Stress axis : x y z
#
# Youngs Moduli (GPa) = 91.75805 61.38991 49.26310
#
# Poissons Ratio (x) = 0.15848 0.01686
# Poissons Ratio (y) = 0.23688 0.45749
# Poissons Ratio (z) = 0.03140 0.57011
#
# Static dielectric constant tensor:
#      x y z
#    x 2.065230 -0.007310 -0.028260 
#    y -0.007310 2.158390 0.035500 
#    z -0.028260 0.035500 2.161490 
# 
# From -- ./inp_files/123609.got.cif
#   From: 2010.05.17/outbox.cif.g08.bks.cpg/sg2_62_cif.got.tgz:123609.got - 2010.06.03 11:33:40.
