data_PCOD9030652
_publ_section_title
;
Structure prediction by ZEFSAII (Michael W. Deem and Ramdas Pophale) SiO2 
 PCOD9030652
Probable space group: P -1
;
_chemical_formula_sum "Si O2"
_cell_formula_units_Z 16
_cell_length_a 13.180688
_cell_length_b 18.298402
_cell_length_c 14.573541
_cell_angle_alpha 49.687238
_cell_angle_beta 49.622582
_cell_angle_gamma 19.983835
_cell_volume 905.224194
_symmetry_space_group_name_H-M "P -1"
_symmetry_group_IT_number 2
_symmetry_cell_setting 'triclinic'
loop_
_space_group_symop_operation_xyz
x,y,z
-x,-y,-z
loop_
_atom_site_type_symbol
_atom_site_label
_atom_site_fract_x
_atom_site_fract_y
_atom_site_fract_z
Si Si1 0.587264 0.876952 0.174614
Si Si2 0.116992 0.025770 0.029711
Si Si3 0.688606 0.745484 0.019643
Si Si4 0.134047 0.567945 0.360298
Si Si5 0.789555 0.421004 0.896209
Si Si6 0.724198 0.110322 0.155744
Si Si7 0.271554 0.059233 0.577829
Si Si8 0.452295 0.179791 0.562004
O O1 0.647727 0.778423 0.126710
O O2 0.493914 0.874441 0.318861
O O3 0.901065 0.725393 0.139933
O O4 0.359127 0.112716 0.099353
O O5 0.187914 0.995913 0.904452
O O6 0.411966 0.863079 0.044853
O O7 0.850924 0.272066 0.008744
O O8 0.000396 0.992583 0.131194
O O9 0.000000 0.500000 0.000000
O O10 0.255368 0.536489 0.221356
O O11 0.357163 0.348422 0.454325
O O12 0.026590 0.714353 0.379435
O O13 0.836261 0.699692 0.396574
O O14 0.525521 0.648766 0.914920
O O15 0.606500 0.109018 0.297922
O O16 0.500000 0.000000 0.500000
O O17 0.275593 0.027410 0.495305
#
# Coordination Sequence:
#
# PCOD9030652 Si02
#       8
#     2   2   2   2   2   2   2   2
#     4   9  20  32  53  78 104 128 180 223 258 304
#     4  10  22  34  52  76 110 142 174 213 259 319
#     4  10  20  37  54  74 100 139 181 228 258 292
#     4   9  16  27  45  72 108 131 161 203 259 313
#     4  10  17  32  52  77 109 136 165 212 262 318
#     4  11  20  33  50  79 113 142 167 207 268 324
#     4  10  19  28  47  74 108 139 167 204 255 313
#     4   9  17  29  45  74 103 133 160 212 264 304
#
# _framework density 17.675180000000001
#
# number of rings (size 3 to 8) (size 9 to 14) (size 15 to 20)
#    0.000    2.250    2.500    1.125    3.500    1.000 
#    0.000    0.000    0.000    0.750    0.000    1.750 
#    0.000    0.000    0.000    0.000    0.000    0.000 
#
# Total GULP energy -89158.611849 kJ/mol
# GULP energy per Si atom -5572.413241 kJ/mol
# Density = 1.763495 g / cm^3
# Si number density = 17.675180 Si / 1000 Ang^3
#
#
#
# Elastic Constant Matrix: (Units=GPa)
#
#
# Indices 1 2 3 4 5 6 
#
# 1 87.6935 33.4354 42.3960 -7.8514 18.3823 15.0764
# 2 33.4354 76.7178 15.9158 -9.7897 10.3447 23.8913
# 3 42.3960 15.9158 78.9604 -5.9535 15.6039 -3.1899
# 4 -7.8514 -9.7897 -5.9535 15.8819 -0.1230 -1.2151
# 5 18.3823 10.3447 15.6039 -0.1230 23.8834 6.9819
# 6 15.0764 23.8913 -3.1899 -1.2151 6.9819 25.1888
#
#
#
# Elastic Compliance Matrix: (Units=1/GPa)
#
#
# Indices 1 2 3 4 5 6 
#
# 1 0.019864 -0.002845 -0.009026 0.003983 -0.005630 -0.008581
# 2 -0.002845 0.022083 -0.003033 0.009599 0.000280 -0.019241
# 3 -0.009026 -0.003033 0.020666 0.002382 -0.009193 0.013559
# 4 0.003983 0.009599 0.002382 0.071240 -0.006689 -0.005896
# 5 -0.005630 0.000280 -0.009193 -0.006689 0.056129 -0.013941
# 6 -0.008581 -0.019241 0.013559 -0.005896 -0.013941 0.068383
#
#
# Mechanical properties :
#
#
# Convention : Reuss Voigt Hill
#
# Bulk Modulus (GPa) = 30.48195 47.42954 38.95574
# Shear Modulus (GPa) = 16.71643 23.09913 19.90778
#
# Velocity S-wave (km/s) = 3.07865 3.61899 3.35970
# Velocity P-wave (km/s) = 5.46997 6.65995 6.09408
#
# Compressibility (1/GPa) = 0.03280630
#
# Stress axis : x y z
#
# Youngs Moduli (GPa) = 50.34344 45.28369 48.38877
#
# Poissons Ratio (x) = 0.12883 0.43674
# Poissons Ratio (y) = 0.14322 0.14675
# Poissons Ratio (z) = 0.45438 0.13733
#
# Static dielectric constant tensor:
#      x y z
#    x 1.613950 0.024450 -0.015880 
#    y 0.024450 1.623860 0.000490 
#    z -0.015880 0.000490 1.619970 
# 
# From -- ./inp_files/436648.got.cif
#   From: 2010.05.17/outbox.cif.g08.bks.cpg/sg2_219_cif.got.tgz:436648.got - 2010.06.03 11:33:40.
