data_PCOD9030634
_publ_section_title
;
Structure prediction by ZEFSAII (Michael W. Deem and Ramdas Pophale) SiO2 
 PCOD9030634
Probable space group: P -1
;
_chemical_formula_sum "Si O2"
_cell_formula_units_Z 15
_cell_length_a 9.225013
_cell_length_b 9.504783
_cell_length_c 17.800147
_cell_angle_alpha 120.599442
_cell_angle_beta 150.522782
_cell_angle_gamma 69.209364
_cell_volume 646.574592
_symmetry_space_group_name_H-M "P -1"
_symmetry_group_IT_number 2
_symmetry_cell_setting 'triclinic'
loop_
_space_group_symop_operation_xyz
x,y,z
-x,-y,-z
loop_
_atom_site_type_symbol
_atom_site_label
_atom_site_fract_x
_atom_site_fract_y
_atom_site_fract_z
Si Si1 0.814367 0.563242 0.726589
Si Si2 0.139490 0.953478 0.318709
Si Si3 0.201992 0.073036 0.681389
Si Si4 0.787442 0.684048 0.592571
Si Si5 0.520202 0.784240 0.752081
Si Si6 0.442631 0.562038 0.072855
Si Si7 0.000000 0.500000 0.500000
Si Si8 0.844299 0.650611 0.997666
O O1 0.921366 0.596426 0.698547
O O2 0.572381 0.388788 0.577246
O O3 0.647642 0.712282 0.715384
O O4 0.092452 0.570815 0.908876
O O5 0.976069 0.934762 0.321531
O O6 0.032489 0.787186 0.175760
O O7 0.500000 0.000000 0.500000
O O8 0.081254 0.118629 0.294824
O O9 0.344066 0.261337 0.774526
O O10 0.469367 0.970709 0.779648
O O11 0.000000 0.000000 0.500000
O O12 0.856379 0.617600 0.525172
O O13 0.198962 0.666785 0.592988
O O14 0.736378 0.747045 0.906000
O O15 0.500000 0.500000 0.000000
O O16 0.454017 0.442411 0.116304
O O17 0.000000 0.500000 0.000000
#
# Coordination Sequence:
#
# PCOD9030634 Si02
#       8
#     2   2   2   2   2   2   1   2
#     4  10  24  44  71 110 145 195 242 304 378 432
#     4  12  28  48  74 107 154 193 251 305 380 437
#     4  12  31  48  75 113 150 196 251 310 377 437
#     4  10  23  43  74 104 148 191 248 304 368 450
#     4  11  26  46  75 106 150 192 254 296 377 440
#     4  12  27  47  72 107 154 194 247 309 371 443
#     4  10  22  42  72 106 140 194 244 302 362 446
#     4  12  28  50  78 110 148 202 250 304 377 451
#
# _framework density 23.199179000000001
#
# number of rings (size 3 to 8) (size 9 to 14) (size 15 to 20)
#    0.000    0.800    4.000    0.800   11.200    2.133 
#    0.000    0.000    0.000    0.000    0.000    0.000 
#    0.000    0.000    0.000    0.000    0.000    0.000 
#
# Total GULP energy -83669.886779 kJ/mol
# GULP energy per Si atom -5577.992452 kJ/mol
# Density = 2.314638 g / cm^3
# Si number density = 23.199179 Si / 1000 Ang^3
#
#
#
# Elastic Constant Matrix: (Units=GPa)
#
#
# Indices 1 2 3 4 5 6 
#
# 1 121.1612 36.5674 35.5022 7.4379 -7.4942 -12.8042
# 2 36.5674 99.1152 47.5920 25.2671 -18.9437 -5.3020
# 3 35.5022 47.5920 96.2553 27.4327 -18.5702 1.9782
# 4 7.4379 25.2671 27.4327 52.5908 -0.2174 -3.6203
# 5 -7.4942 -18.9437 -18.5702 -0.2174 31.4468 5.1832
# 6 -12.8042 -5.3020 1.9782 -3.6203 5.1832 24.7595
#
#
#
# Elastic Compliance Matrix: (Units=1/GPa)
#
#
# Indices 1 2 3 4 5 6 
#
# 1 0.010530 -0.002792 -0.003694 0.002179 -0.002319 0.005947
# 2 -0.002792 0.015512 -0.004043 -0.004911 0.006229 0.000179
# 3 -0.003694 -0.004043 0.017475 -0.007092 0.008093 -0.006903
# 4 0.002179 -0.004911 -0.007092 0.025139 -0.007422 0.005871
# 5 -0.002319 0.006229 0.008093 -0.007422 0.041419 -0.010268
# 6 0.005947 0.000179 -0.006903 0.005871 -0.010268 0.047062
#
#
# Mechanical properties :
#
#
# Convention : Reuss Voigt Hill
#
# Bulk Modulus (GPa) = 44.52207 61.76169 53.14188
# Shear Modulus (GPa) = 26.92806 34.88408 30.90607
#
# Velocity S-wave (km/s) = 3.41065 3.88193 3.65390
# Velocity P-wave (km/s) = 5.89431 6.83906 6.38419
#
# Compressibility (1/GPa) = 0.02246077
#
# Stress axis : x y z
#
# Youngs Moduli (GPa) = 94.97014 64.46471 57.22560
#
# Poissons Ratio (x) = 0.17996 0.21139
# Poissons Ratio (y) = 0.26511 0.23134
# Poissons Ratio (z) = 0.35081 0.26060
#
# Static dielectric constant tensor:
#      x y z
#    x 1.881840 -0.017710 -0.017780 
#    y -0.017710 1.954410 -0.027420 
#    z -0.017780 -0.027420 1.929350 
# 
# From -- ./inp_files/329242.got.cif
#   From: 2010.05.17/outbox.cif.g08.bks.cpg/sg2_165_cif.got.tgz:329242.got - 2010.06.03 11:33:40.
