data_PCOD9030535
_publ_section_title
;
Structure prediction by ZEFSAII (Michael W. Deem and Ramdas Pophale) SiO2 
 PCOD9030535
Probable space group: P -1
;
_chemical_formula_sum "Si O2"
_cell_formula_units_Z 16
_cell_length_a 11.081714
_cell_length_b 8.420571
_cell_length_c 15.084729
_cell_angle_alpha 100.670079
_cell_angle_beta 57.329022
_cell_angle_gamma 137.109629
_cell_volume 750.129351
_symmetry_space_group_name_H-M "P -1"
_symmetry_group_IT_number 2
_symmetry_cell_setting 'triclinic'
loop_
_space_group_symop_operation_xyz
x,y,z
-x,-y,-z
loop_
_atom_site_type_symbol
_atom_site_label
_atom_site_fract_x
_atom_site_fract_y
_atom_site_fract_z
Si Si1 0.289500 0.775579 0.623191
Si Si2 0.891727 0.396029 0.628000
Si Si3 0.345871 0.158895 0.984965
Si Si4 0.467028 0.377257 0.139586
Si Si5 0.814067 0.949594 0.617549
Si Si6 0.833881 0.798247 0.160436
Si Si7 0.602147 0.469318 0.385339
Si Si8 0.612459 0.948441 0.213059
O O1 0.289924 0.584223 0.611542
O O2 0.059317 0.626390 0.653411
O O3 0.500000 0.000000 0.500000
O O4 0.311888 0.860802 0.722681
O O5 0.653649 0.274493 0.702643
O O6 0.000000 0.500000 0.500000
O O7 0.869061 0.185186 0.635576
O O8 0.509241 0.430429 0.900894
O O9 0.335061 0.995621 0.907014
O O10 0.424309 0.212787 0.060732
O O11 0.096984 0.017752 0.067298
O O12 0.272116 0.201869 0.271626
O O13 0.697265 0.562587 0.123215
O O14 0.601810 0.768294 0.617982
O O15 0.000000 0.000000 0.500000
O O16 0.772706 0.698699 0.274284
O O17 0.726607 0.879933 0.191652
O O18 0.500000 0.500000 0.500000
#
# Coordination Sequence:
#
# PCOD9030535 Si02
#       8
#     2   2   2   2   2   2   2   2
#     4  12  24  44  65  94 137 176 221 274 339 403
#     4  12  26  42  66  95 141 175 215 273 343 402
#     4  10  22  42  71  97 131 179 226 273 328 396
#     4   9  21  40  64  99 133 163 230 270 322 390
#     4  11  24  41  67 100 135 173 221 279 335 394
#     4  10  23  41  72  96 133 170 231 277 323 396
#     4  11  23  41  67 102 132 171 225 277 329 405
#     4  11  23  43  64 100 131 174 223 270 336 394
#
# _framework density 21.329654999999999
#
# number of rings (size 3 to 8) (size 9 to 14) (size 15 to 20)
#    0.000    1.250    2.500    3.000    8.750    4.000 
#    0.000    1.250    2.750    0.000    0.000    0.000 
#    0.000    0.000    0.000    0.000    0.000    0.000 
#
# Total GULP energy -89326.401597 kJ/mol
# GULP energy per Si atom -5582.900100 kJ/mol
# Density = 2.128111 g / cm^3
# Si number density = 21.329655 Si / 1000 Ang^3
#
#
#
# Elastic Constant Matrix: (Units=GPa)
#
#
# Indices 1 2 3 4 5 6 
#
# 1 56.4401 21.3812 35.0571 -2.3984 -9.4872 16.1360
# 2 21.3812 90.6672 50.0403 18.0718 -1.2951 23.2668
# 3 35.0571 50.0403 146.4637 6.5635 6.3909 5.6061
# 4 -2.3984 18.0718 6.5635 42.7189 6.3565 5.8571
# 5 -9.4872 -1.2951 6.3909 6.3565 38.7860 -0.8821
# 6 16.1360 23.2668 5.6061 5.8571 -0.8821 32.8188
#
#
#
# Elastic Compliance Matrix: (Units=1/GPa)
#
#
# Indices 1 2 3 4 5 6 
#
# 1 0.026390 -0.000221 -0.006211 0.003203 0.006670 -0.012150
# 2 -0.000221 0.018031 -0.005540 -0.005646 0.002144 -0.010663
# 3 -0.006211 -0.005540 0.010145 0.000225 -0.003296 0.005120
# 4 0.003203 -0.005646 0.000225 0.026868 -0.003903 -0.002510
# 5 0.006670 0.002144 -0.003296 -0.003903 0.028605 -0.002771
# 6 -0.012150 -0.010663 0.005120 -0.002510 -0.002771 0.043503
#
#
# Mechanical properties :
#
#
# Convention : Reuss Voigt Hill
#
# Bulk Modulus (GPa) = 32.65484 56.28092 44.46788
# Shear Modulus (GPa) = 26.63924 35.33755 30.98840
#
# Velocity S-wave (km/s) = 3.53785 4.07471 3.81574
# Velocity P-wave (km/s) = 5.65963 6.97002 6.34873
#
# Compressibility (1/GPa) = 0.03062333
#
# Stress axis : x y z
#
# Youngs Moduli (GPa) = 37.89282 55.45863 98.57239
#
# Poissons Ratio (x) = 0.01224 0.61221
# Poissons Ratio (y) = 0.00836 0.54610
# Poissons Ratio (z) = 0.23534 0.30725
#
# Static dielectric constant tensor:
#      x y z
#    x 1.779080 0.003950 -0.005330 
#    y 0.003950 1.856900 0.036280 
#    z -0.005330 0.036280 1.782110 
# 
# From -- ./inp_files/428440.got.cif
#   From: 2010.05.17/outbox.cif.g08.bks.cpg/sg2_215_cif.got.tgz:428440.got - 2010.06.03 11:33:40.
