data_PCOD9030185
_publ_section_title
;
Structure prediction by ZEFSAII (Michael W. Deem and Ramdas Pophale) SiO2 
 PCOD9030185
Probable space group: P -1
;
_chemical_formula_sum "Si O2"
_cell_formula_units_Z 16
_cell_length_a 8.956630
_cell_length_b 14.680880
_cell_length_c 8.745742
_cell_angle_alpha 109.618671
_cell_angle_beta 99.469257
_cell_angle_gamma 39.333743
_cell_volume 677.809381
_symmetry_space_group_name_H-M "P -1"
_symmetry_group_IT_number 2
_symmetry_cell_setting 'triclinic'
loop_
_space_group_symop_operation_xyz
x,y,z
-x,-y,-z
loop_
_atom_site_type_symbol
_atom_site_label
_atom_site_fract_x
_atom_site_fract_y
_atom_site_fract_z
Si Si1 0.734842 0.751020 0.262297
Si Si2 0.953051 0.152918 0.126003
Si Si3 0.758561 0.861473 0.042311
Si Si4 0.693633 0.178641 0.874626
Si Si5 0.032681 0.435068 0.226202
Si Si6 0.830867 0.175363 0.578379
Si Si7 0.994067 0.272617 0.481992
Si Si8 0.660580 0.601198 0.535221
O O1 0.514930 0.792408 0.194201
O O2 0.954608 0.565978 0.185893
O O3 0.779243 0.774140 0.453338
O O4 0.725719 0.847916 0.204639
O O5 0.098520 0.115576 0.978795
O O6 0.982334 0.227514 0.289935
O O7 0.083614 0.001786 0.152105
O O8 0.698934 0.242036 0.065391
O O9 0.908262 0.693459 0.917413
O O10 0.500000 0.000000 0.000000
O O11 0.728218 0.229003 0.762016
O O12 0.264750 0.348657 0.314551
O O13 0.817761 0.531369 0.366852
O O14 0.966026 0.202572 0.560724
O O15 0.611814 0.269074 0.479171
O O16 0.000000 0.000000 0.500000
O O17 0.762976 0.455057 0.549898
#
# Coordination Sequence:
#
# PCOD9030185 Si02
#       8
#     2   2   2   2   2   2   2   2
#     4  11  24  45  70 102 136 179 233 281 338 412
#     4  11  24  44  65  99 142 180 224 283 348 407
#     4  12  24  42  69 104 137 178 230 287 341 408
#     4  11  24  44  65  99 142 180 224 283 348 407
#     4  10  22  42  70 100 139 182 228 282 344 406
#     4  12  24  42  69 104 137 178 230 287 341 408
#     4  11  24  45  70 102 136 179 233 281 338 412
#     4  10  22  42  70 100 139 182 228 282 344 406
#
# _framework density 23.605454999999999
#
# number of rings (size 3 to 8) (size 9 to 14) (size 15 to 20)
#    0.000    1.000    5.000    1.500    0.000    3.500 
#    0.000    3.750    0.000    0.000    0.000    0.000 
#    0.000    0.000    0.000    0.000    0.000    0.000 
#
# Total GULP energy -89314.846994 kJ/mol
# GULP energy per Si atom -5582.177937 kJ/mol
# Density = 2.355173 g / cm^3
# Si number density = 23.605455 Si / 1000 Ang^3
#
#
#
# Elastic Constant Matrix: (Units=GPa)
#
#
# Indices 1 2 3 4 5 6 
#
# 1 100.7713 25.8484 44.7534 -26.8117 16.7959 1.3179
# 2 25.8484 95.7735 19.2262 -32.9954 8.9644 11.7125
# 3 44.7534 19.2262 106.6149 -32.7167 34.3945 -13.6090
# 4 -26.8117 -32.9954 -32.7167 33.4887 -3.5280 2.8283
# 5 16.7959 8.9644 34.3945 -3.5280 42.8793 -24.2490
# 6 1.3179 11.7125 -13.6090 2.8283 -24.2490 46.7669
#
#
#
# Elastic Compliance Matrix: (Units=1/GPa)
#
#
# Indices 1 2 3 4 5 6 
#
# 1 0.014450 0.001934 -0.000955 0.012235 -0.007600 -0.005850
# 2 0.001934 0.022529 0.008865 0.031714 -0.018133 -0.014437
# 3 -0.000955 0.008865 0.023377 0.029155 -0.022952 -0.009055
# 4 0.012235 0.031714 0.029155 0.097251 -0.042477 -0.027710
# 5 -0.007600 -0.018133 -0.022952 -0.042477 0.064193 0.033930
# 6 -0.005850 -0.014437 -0.009055 -0.027710 0.033930 0.041797
#
#
# Mechanical properties :
#
#
# Convention : Reuss Voigt Hill
#
# Bulk Modulus (GPa) = 12.49331 53.64617 33.06974
# Shear Modulus (GPa) = 18.47809 38.84909 28.66359
#
# Velocity S-wave (km/s) = 2.80087 4.06121 3.48843
# Velocity P-wave (km/s) = 3.97038 6.69079 5.50139
#
# Compressibility (1/GPa) = 0.08004287
#
# Stress axis : x y z
#
# Youngs Moduli (GPa) = 69.20435 44.38761 42.77683
#
# Poissons Ratio (x) = -0.08582 0.04084
# Poissons Ratio (y) = -0.13381 -0.37921
# Poissons Ratio (z) = 0.06608 -0.39349
#
# Static dielectric constant tensor:
#      x y z
#    x 1.955610 -0.010130 0.002120 
#    y -0.010130 1.834320 -0.002760 
#    z 0.002120 -0.002760 2.029750 
# 
# From -- ./inp_files/208466.got.cif
#   From: 2010.05.17/outbox.cif.g08.bks.cpg/sg2_105_cif.got.tgz:208466.got - 2010.06.03 11:33:40.
