data_PCOD9030768
_publ_section_title
;
Structure prediction by ZEFSAII (Michael W. Deem and Ramdas Pophale) SiO2 
 PCOD9030768
Probable space group: P -1
;
_chemical_formula_sum "Si O2"
_cell_formula_units_Z 12
_cell_length_a 8.767283
_cell_length_b 7.691193
_cell_length_c 13.697686
_cell_angle_alpha 64.058720
_cell_angle_beta 139.771857
_cell_angle_gamma 112.656393
_cell_volume 534.327301
_symmetry_space_group_name_H-M "P -1"
_symmetry_group_IT_number 2
_symmetry_cell_setting 'triclinic'
loop_
_space_group_symop_operation_xyz
x,y,z
-x,-y,-z
loop_
_atom_site_type_symbol
_atom_site_label
_atom_site_fract_x
_atom_site_fract_y
_atom_site_fract_z
Si Si1 0.278849 0.503998 0.958882
Si Si2 0.106902 0.802202 0.124108
Si Si3 0.366035 0.173056 0.631093
Si Si4 0.254265 0.095324 0.381073
Si Si5 0.357731 0.495795 0.220865
Si Si6 0.748957 0.046311 0.168759
O O1 0.369294 0.454493 0.123254
O O2 0.500000 0.500000 0.000000
O O3 0.070658 0.343327 0.866623
O O4 0.208776 0.721540 0.867363
O O5 0.371714 0.860218 0.273537
O O6 0.168188 0.658847 0.099775
O O7 0.000000 0.000000 0.000000
O O8 0.220608 0.132971 0.471907
O O9 0.409688 0.391860 0.642321
O O10 0.296492 0.042117 0.723281
O O11 0.285251 0.301588 0.291178
O O12 0.995227 0.983329 0.257070
O O13 0.500000 0.000000 0.500000
O O14 0.500000 0.000000 0.000000
#
# Coordination Sequence:
#
# PCOD9030768 Si02
#       6
#     2   2   2   2   2   2
#     4  12  25  40  71 111 145 181 244 307 360 418
#     4  10  22  42  74 101 140 186 246 292 363 419
#     4  10  24  45  69  98 148 186 235 291 366 418
#     4  12  28  45  73 104 149 195 235 292 366 433
#     4  10  24  45  69 100 147 187 243 297 358 431
#     4  12  24  48  74 107 144 187 243 301 353 426
#
# _framework density 22.458144999999998
#
# number of rings (size 3 to 8) (size 9 to 14) (size 15 to 20)
#    1.000    0.000    3.333    2.500    7.000    1.333 
#    0.000    0.833    0.000    0.000    0.000    0.000 
#    0.000    0.000    0.000    0.000    0.000    0.000 
#
# Total GULP energy -66914.176958 kJ/mol
# GULP energy per Si atom -5576.181413 kJ/mol
# Density = 2.240703 g / cm^3
# Si number density = 22.458145 Si / 1000 Ang^3
#
#
#
# Elastic Constant Matrix: (Units=GPa)
#
#
# Indices 1 2 3 4 5 6 
#
# 1 123.3552 57.1241 62.8749 3.1106 -9.3232 27.2879
# 2 57.1241 137.5519 60.2552 -9.4256 -0.1260 29.6142
# 3 62.8749 60.2552 100.6612 5.7016 -9.7499 7.9950
# 4 3.1106 -9.4256 5.7016 37.0147 7.6256 1.3246
# 5 -9.3232 -0.1260 -9.7499 7.6256 59.2212 3.3752
# 6 27.2879 29.6142 7.9950 1.3246 3.3752 42.4592
#
#
#
# Elastic Compliance Matrix: (Units=1/GPa)
#
#
# Indices 1 2 3 4 5 6 
#
# 1 0.014052 -0.001125 -0.007391 -0.000376 0.001438 -0.006957
# 2 -0.001125 0.012406 -0.006606 0.004815 -0.001475 -0.006719
# 3 -0.007391 -0.006606 0.018504 -0.004558 0.002123 0.005846
# 4 -0.000376 0.004815 -0.004558 0.030005 -0.004501 -0.002837
# 5 0.001438 -0.001475 0.002123 -0.004501 0.018129 -0.001596
# 6 -0.006957 -0.006719 0.005846 -0.002837 -0.001596 0.031824
#
#
# Mechanical properties :
#
#
# Convention : Reuss Voigt Hill
#
# Bulk Modulus (GPa) = 67.93466 80.23073 74.08270
# Shear Modulus (GPa) = 31.23664 39.82664 35.53164
#
# Velocity S-wave (km/s) = 3.73350 4.21571 3.98191
# Velocity P-wave (km/s) = 6.99289 7.71352 7.36203
#
# Compressibility (1/GPa) = 0.01472003
#
# Stress axis : x y z
#
# Youngs Moduli (GPa) = 71.16552 80.60715 54.04206
#
# Poissons Ratio (x) = 0.09065 0.39940
# Poissons Ratio (y) = 0.08004 0.35698
# Poissons Ratio (z) = 0.52596 0.53246
#
# Static dielectric constant tensor:
#      x y z
#    x 1.889580 -0.057730 0.032570 
#    y -0.057730 1.948620 0.122150 
#    z 0.032570 0.122150 1.938820 
# 
# From -- ./inp_files/492191.got.cif
#   From: 2010.05.17/outbox.cif.g08.bks.cpg/sg2_247_cif.got.tgz:492191.got - 2010.06.03 11:33:40.
