data_PCOD9030265
_publ_section_title
;
Structure prediction by ZEFSAII (Michael W. Deem and Ramdas Pophale) SiO2 
 PCOD9030265
Probable space group: P -1
;
_chemical_formula_sum "Si O2"
_cell_formula_units_Z 12
_cell_length_a 11.100665
_cell_length_b 11.911645
_cell_length_c 5.416295
_cell_angle_alpha 72.692956
_cell_angle_beta 80.836734
_cell_angle_gamma 130.015679
_cell_volume 459.567975
_symmetry_space_group_name_H-M "P -1"
_symmetry_group_IT_number 2
_symmetry_cell_setting 'triclinic'
loop_
_space_group_symop_operation_xyz
x,y,z
-x,-y,-z
loop_
_atom_site_type_symbol
_atom_site_label
_atom_site_fract_x
_atom_site_fract_y
_atom_site_fract_z
Si Si1 0.292542 0.859150 0.586101
Si Si2 0.811548 0.424419 0.543611
Si Si3 0.964221 0.738191 0.019072
Si Si4 0.458502 0.107285 0.992896
Si Si5 0.768623 0.878932 0.186461
Si Si6 0.704566 0.687283 0.828936
O O1 0.248973 0.705370 0.571354
O O2 0.133677 0.774610 0.880719
O O3 0.500000 0.000000 0.500000
O O4 0.297265 0.976702 0.324597
O O5 0.649418 0.298272 0.875453
O O6 0.000000 0.500000 0.500000
O O7 0.838395 0.575908 0.348005
O O8 0.850411 0.689441 0.844370
O O9 0.049568 0.916259 0.989797
O O10 0.385650 0.129483 0.772864
O O11 0.500000 0.000000 0.000000
O O12 0.747716 0.787811 0.499313
O O13 0.726960 0.781955 0.008100
O O14 0.500000 0.500000 0.000000
#
# Coordination Sequence:
#
# PCOD9030265 Si02
#       6
#     2   2   2   2   2   2
#     4  11  23  43  69 106 149 193 242 305 374 444
#     4  11  23  40  66 106 146 188 243 305 371 446
#     4  12  25  45  74 107 146 198 248 307 375 447
#     4  10  22  42  70 104 145 191 237 299 373 438
#     4  12  26  49  75 107 149 194 248 312 372 446
#     4  12  29  51  75 108 147 198 256 312 370 443
#
# _framework density 26.111481000000001
#
# number of rings (size 3 to 8) (size 9 to 14) (size 15 to 20)
#    0.000    0.667    0.000    9.000    0.000    5.333 
#    0.000    0.000    0.000    0.000    0.000    0.000 
#    0.000    0.000    0.000    0.000    0.000    0.000 
#
# Total GULP energy -67170.985590 kJ/mol
# GULP energy per Si atom -5597.582132 kJ/mol
# Density = 2.605205 g / cm^3
# Si number density = 26.111481 Si / 1000 Ang^3
#
#
#
# Elastic Constant Matrix: (Units=GPa)
#
#
# Indices 1 2 3 4 5 6 
#
# 1 117.2449 43.5155 27.7944 -4.7555 19.6425 31.8180
# 2 43.5155 189.4092 68.8510 -19.5616 1.0745 22.8432
# 3 27.7944 68.8510 194.4858 -28.9510 23.8385 5.8752
# 4 -4.7555 -19.5616 -28.9510 53.7309 4.3757 -5.2457
# 5 19.6425 1.0745 23.8385 4.3757 52.1579 4.5685
# 6 31.8180 22.8432 5.8752 -5.2457 4.5685 48.7716
#
#
#
# Elastic Compliance Matrix: (Units=1/GPa)
#
#
# Indices 1 2 3 4 5 6 
#
# 1 0.011599 -0.001732 -0.000442 -0.000176 -0.003556 -0.006389
# 2 -0.001732 0.006762 -0.002162 0.000835 0.001592 -0.001836
# 3 -0.000442 -0.002162 0.006817 0.003224 -0.003275 0.001133
# 4 -0.000176 0.000835 0.003224 0.021098 -0.003363 0.001920
# 5 -0.003556 0.001592 -0.003275 -0.003363 0.022300 -0.000482
# 6 -0.006389 -0.001836 0.001133 0.001920 -0.000482 0.025647
#
#
# Mechanical properties :
#
#
# Convention : Reuss Voigt Hill
#
# Bulk Modulus (GPa) = 60.57811 86.82907 73.70359
# Shear Modulus (GPa) = 46.12709 54.99734 50.56222
#
# Velocity S-wave (km/s) = 4.20759 4.59437 4.40523
# Velocity P-wave (km/s) = 6.84509 7.84026 7.35952
#
# Compressibility (1/GPa) = 0.01650761
#
# Stress axis : x y z
#
# Youngs Moduli (GPa) = 86.21429 147.88890 146.68520
#
# Poissons Ratio (x) = 0.25610 0.06482
# Poissons Ratio (y) = 0.14930 0.31708
# Poissons Ratio (z) = 0.03810 0.31968
#
# Static dielectric constant tensor:
#      x y z
#    x 2.222620 -0.048140 -0.004060 
#    y -0.048140 2.100140 0.134950 
#    z -0.004060 0.134950 2.237630 
# 
# From -- ./inp_files/68598.got.cif
#   From: 2010.05.17/outbox.cif.g08.bks.cpg/sg2_35_cif.got.tgz:68598.got - 2010.06.03 11:33:40.
