data_PCOD9030560
_publ_section_title
;
Structure prediction by ZEFSAII (Michael W. Deem and Ramdas Pophale) SiO2 
 PCOD9030560
Probable space group: P -1
;
_chemical_formula_sum "Si O2"
_cell_formula_units_Z 12
_cell_length_a 7.999379
_cell_length_b 9.021536
_cell_length_c 7.124350
_cell_angle_alpha 93.435240
_cell_angle_beta 72.276841
_cell_angle_gamma 82.246743
_cell_volume 482.475959
_symmetry_space_group_name_H-M "P -1"
_symmetry_group_IT_number 2
_symmetry_cell_setting 'triclinic'
loop_
_space_group_symop_operation_xyz
x,y,z
-x,-y,-z
loop_
_atom_site_type_symbol
_atom_site_label
_atom_site_fract_x
_atom_site_fract_y
_atom_site_fract_z
Si Si1 0.176724 0.538553 0.353497
Si Si2 0.516916 0.389026 0.171593
Si Si3 0.024186 0.856620 0.350484
Si Si4 0.242312 0.269684 0.066088
Si Si5 0.864994 0.181668 0.120023
Si Si6 0.323814 0.082824 0.663626
O O1 0.369118 0.475846 0.367445
O O2 0.177674 0.447501 0.146511
O O3 0.000000 0.500000 0.500000
O O4 0.157450 0.716322 0.370568
O O5 0.416172 0.247030 0.140436
O O6 0.712754 0.328744 0.171113
O O7 0.500000 0.500000 0.000000
O O8 0.823378 0.821000 0.411864
O O9 0.092063 0.866118 0.114735
O O10 0.000000 0.000000 0.500000
O O11 0.055216 0.206785 0.142623
O O12 0.330248 0.199026 0.839548
O O13 0.774280 0.053762 0.240169
O O14 0.500000 0.000000 0.500000
#
# Coordination Sequence:
#
# PCOD9030560 Si02
#       6
#     2   2   2   2   2   2
#     4  10  24  41  68 103 138 182 231 284 356 403
#     4  10  22  42  71  99 130 180 233 280 349 409
#     4  11  25  42  73 100 142 183 232 288 353 419
#     4   9  23  45  67  95 146 179 226 289 346 407
#     4  11  23  47  70 102 138 186 233 288 354 414
#     4  11  27  43  68 106 138 187 236 285 356 412
#
# _framework density 24.871704999999999
#
# number of rings (size 3 to 8) (size 9 to 14) (size 15 to 20)
#    1.000    0.667    1.667    2.000    9.333    6.667 
#    0.000    0.833    0.000    0.000    0.000    0.000 
#    0.000    0.000    0.000    0.000    0.000    0.000 
#
# Total GULP energy -66800.626860 kJ/mol
# GULP energy per Si atom -5566.718905 kJ/mol
# Density = 2.481510 g / cm^3
# Si number density = 24.871705 Si / 1000 Ang^3
#
#
#
# Elastic Constant Matrix: (Units=GPa)
#
#
# Indices 1 2 3 4 5 6 
#
# 1 109.5330 17.7904 48.4684 12.4652 -30.6748 -7.3551
# 2 17.7904 88.7234 46.6258 35.0335 -8.6431 -0.7025
# 3 48.4684 46.6258 144.6570 39.5093 -34.9677 5.5504
# 4 12.4652 35.0335 39.5093 57.6032 3.5884 -8.2982
# 5 -30.6748 -8.6431 -34.9677 3.5884 51.1292 17.1635
# 6 -7.3551 -0.7025 5.5504 -8.2982 17.1635 38.7762
#
#
#
# Elastic Compliance Matrix: (Units=1/GPa)
#
#
# Indices 1 2 3 4 5 6 
#
# 1 0.011871 -0.000124 -0.002092 -0.001481 0.005903 -0.000381
# 2 -0.000124 0.016120 -0.001873 -0.009061 0.002908 -0.002690
# 3 -0.002092 -0.001873 0.014607 -0.010718 0.012670 -0.010423
# 4 -0.001481 -0.009061 -0.010718 0.033959 -0.017546 0.016123
# 5 0.005903 0.002908 0.012670 -0.017546 0.041065 -0.022573
# 6 -0.000381 -0.002690 -0.010423 0.016123 -0.022573 0.040602
#
#
# Mechanical properties :
#
#
# Convention : Reuss Voigt Hill
#
# Bulk Modulus (GPa) = 29.05222 63.18697 46.11960
# Shear Modulus (GPa) = 28.10948 44.83698 36.47323
#
# Velocity S-wave (km/s) = 3.36546 4.25046 3.83359
# Velocity P-wave (km/s) = 5.17764 7.03910 6.17887
#
# Compressibility (1/GPa) = 0.03442078
#
# Stress axis : x y z
#
# Youngs Moduli (GPa) = 84.23624 62.03402 68.45842
#
# Poissons Ratio (x) = 0.00772 0.14318
# Poissons Ratio (y) = 0.01048 0.12824
# Poissons Ratio (z) = 0.17618 0.11620
#
# Static dielectric constant tensor:
#      x y z
#    x 2.079590 -0.013220 0.021040 
#    y -0.013220 2.114140 -0.051320 
#    z 0.021040 -0.051320 2.073060 
# 
# From -- ./inp_files/154489.got.cif
#   From: 2010.05.17/outbox.cif.g08.bks.cpg/sg2_78_cif.got.tgz:154489.got - 2010.06.03 11:33:40.
