data_PCOD9030658
_publ_section_title
;
Structure prediction by ZEFSAII (Michael W. Deem and Ramdas Pophale) SiO2 
 PCOD9030658
Probable space group: P -1
;
_chemical_formula_sum "Si O2"
_cell_formula_units_Z 16
_cell_length_a 17.386069
_cell_length_b 10.510557
_cell_length_c 14.737481
_cell_angle_alpha 31.984890
_cell_angle_beta 152.815473
_cell_angle_gamma 147.411676
_cell_volume 607.028774
_symmetry_space_group_name_H-M "P -1"
_symmetry_group_IT_number 2
_symmetry_cell_setting 'triclinic'
loop_
_space_group_symop_operation_xyz
x,y,z
-x,-y,-z
loop_
_atom_site_type_symbol
_atom_site_label
_atom_site_fract_x
_atom_site_fract_y
_atom_site_fract_z
Si Si1 0.528777 0.798893 0.367833
Si Si2 0.088952 0.607224 0.340738
Si Si3 0.656513 0.324520 0.929098
Si Si4 0.891633 0.045753 0.441447
Si Si5 0.207799 0.702856 0.591408
Si Si6 0.924482 0.708968 0.835121
Si Si7 0.266376 0.901640 0.179119
Si Si8 0.697298 0.609186 0.971316
O O1 0.500000 0.500000 0.500000
O O2 0.202308 0.445078 0.122053
O O3 0.724129 0.005451 0.476614
O O4 0.467752 0.854974 0.170676
O O5 0.151727 0.196229 0.391510
O O6 0.235455 0.736722 0.492776
O O7 0.590772 0.467165 0.855202
O O8 0.172005 0.671753 0.289731
O O9 0.020320 0.303062 0.470622
O O10 0.749317 0.152396 0.182073
O O11 0.000000 0.000000 0.500000
O O12 0.320883 0.581291 0.847073
O O13 0.910588 0.684810 0.119453
O O14 0.100983 0.928121 0.930668
O O15 0.600225 0.160463 0.713448
O O16 0.000000 0.500000 0.000000
O O17 0.339189 0.149776 0.171326
O O18 0.000000 0.500000 0.500000
#
# Coordination Sequence:
#
# PCOD9030658 Si02
#       8
#     2   2   2   2   2   2   2   2
#     4  12  30  50  78 116 163 216 274 347 414 475
#     4  10  22  42  72 119 152 208 271 321 405 484
#     4  11  25  45  71 120 155 209 268 325 415 476
#     4  11  20  38  71 117 163 210 267 328 392 490
#     4  10  25  52  77 109 154 216 278 330 414 487
#     4  12  21  41  74 118 162 211 259 329 402 487
#     4  12  23  45  76 116 164 211 271 333 404 487
#     4  10  23  44  76 110 155 211 262 330 397 500
#
# _framework density 26.357893000000001
#
# number of rings (size 3 to 8) (size 9 to 14) (size 15 to 20)
#    0.000    1.000    5.000    1.125    1.750    6.500 
#    0.000    0.000    0.000    0.000    0.000    0.000 
#    0.000    0.000    0.000    0.000    0.000    0.000 
#
# Total GULP energy -89420.983236 kJ/mol
# GULP energy per Si atom -5588.811452 kJ/mol
# Density = 2.629790 g / cm^3
# Si number density = 26.357893 Si / 1000 Ang^3
#
#
#
# Elastic Constant Matrix: (Units=GPa)
#
#
# Indices 1 2 3 4 5 6 
#
# 1 172.5773 84.6997 66.4527 -4.1211 -14.6394 -26.3017
# 2 84.6997 159.5008 50.2735 -0.6316 -3.6906 -22.8231
# 3 66.4527 50.2735 103.4695 -8.7524 -34.2820 0.3378
# 4 -4.1211 -0.6316 -8.7524 51.0249 -5.1880 -16.3219
# 5 -14.6394 -3.6906 -34.2820 -5.1880 48.9955 -1.8589
# 6 -26.3017 -22.8231 0.3378 -16.3219 -1.8589 59.0369
#
#
#
# Elastic Compliance Matrix: (Units=1/GPa)
#
#
# Indices 1 2 3 4 5 6 
#
# 1 0.009677 -0.003165 -0.004754 0.000958 -0.000444 0.003366
# 2 -0.003165 0.009225 -0.003324 -0.000328 -0.002535 0.002005
# 3 -0.004754 -0.003324 0.018404 0.003170 0.011456 -0.002271
# 4 0.000958 -0.000328 0.003170 0.022908 0.005163 0.006778
# 5 -0.000444 -0.002535 0.011456 0.005163 0.028690 0.001087
# 6 0.003366 0.002005 -0.002271 0.006778 0.001087 0.021134
#
#
# Mechanical properties :
#
#
# Convention : Reuss Voigt Hill
#
# Bulk Modulus (GPa) = 67.47639 93.15547 80.31593
# Shear Modulus (GPa) = 36.37335 47.41958 41.89647
#
# Velocity S-wave (km/s) = 3.71884 4.24614 3.99121
# Velocity P-wave (km/s) = 6.64043 7.71096 7.19563
#
# Compressibility (1/GPa) = 0.01482000
#
# Stress axis : x y z
#
# Youngs Moduli (GPa) = 103.34187 108.40425 54.33587
#
# Poissons Ratio (x) = 0.34310 0.25832
# Poissons Ratio (y) = 0.32708 0.18059
# Poissons Ratio (z) = 0.49130 0.36029
#
# Static dielectric constant tensor:
#      x y z
#    x 121.824960 -9.616770 43.176440 
#    y -9.616770 2.942010 -3.416400 
#    z 43.176440 -3.416400 17.827640 
# 
# From -- ./inp_files/579153.got.cif
#   From: 2010.05.17/outbox.cif.g08.bks.cpg/sg2_290_cif.got.tgz:579153.got - 2010.06.03 11:33:40.
