data_PCOD9030533
_publ_section_title
;
Structure prediction by ZEFSAII (Michael W. Deem and Ramdas Pophale) SiO2 
 PCOD9030533
Probable space group: P -1
;
_chemical_formula_sum "Si O2"
_cell_formula_units_Z 15
_cell_length_a 12.133044
_cell_length_b 7.141402
_cell_length_c 9.104592
_cell_angle_alpha 95.702820
_cell_angle_beta 125.403243
_cell_angle_gamma 103.646796
_cell_volume 596.470024
_symmetry_space_group_name_H-M "P -1"
_symmetry_group_IT_number 2
_symmetry_cell_setting 'triclinic'
loop_
_space_group_symop_operation_xyz
x,y,z
-x,-y,-z
loop_
_atom_site_type_symbol
_atom_site_label
_atom_site_fract_x
_atom_site_fract_y
_atom_site_fract_z
Si Si1 0.241215 0.526437 0.974273
Si Si2 0.481425 0.257088 0.631955
Si Si3 0.001396 0.935518 0.662730
Si Si4 0.201339 0.905897 0.304045
Si Si5 0.845118 0.506517 0.423933
Si Si6 0.729286 0.885924 0.943615
Si Si7 0.581442 0.330273 0.379233
Si Si8 0.000000 0.500000 0.000000
O O1 0.388193 0.706816 0.149560
O O2 0.248087 0.328340 0.047220
O O3 0.230672 0.485439 0.789613
O O4 0.095280 0.545596 0.923781
O O5 0.551390 0.280075 0.524497
O O6 0.426013 0.444202 0.624131
O O7 0.347482 0.044290 0.512615
O O8 0.891144 0.709264 0.569946
O O9 0.000000 0.000000 0.500000
O O10 0.935363 0.063746 0.722369
O O11 0.163717 0.972647 0.842878
O O12 0.222993 0.016244 0.170530
O O13 0.141478 0.669313 0.203912
O O14 0.728393 0.336743 0.416483
O O15 0.000000 0.500000 0.500000
O O16 0.558275 0.823579 0.823594
#
# Coordination Sequence:
#
# PCOD9030533 Si02
#       8
#     2   2   2   2   2   2   2   1
#     4  11  25  41  64 105 136 180 230 287 338 411
#     4   9  20  41  72  98 132 184 236 279 337 412
#     4  12  23  43  65  99 137 183 232 279 343 419
#     4  11  23  42  71 102 133 186 226 293 342 408
#     4  12  27  42  68 104 146 182 220 288 356 405
#     4  10  22  42  71  97 129 181 238 278 337 406
#     4   9  20  41  69 102 134 177 234 282 338 418
#     4  12  26  40  66 102 144 166 238 286 344 404
#
# _framework density 25.147950999999999
#
# number of rings (size 3 to 8) (size 9 to 14) (size 15 to 20)
#    0.000    1.333    4.000    1.200    3.733    3.733 
#    0.000    0.667    0.000    0.000    0.000    0.000 
#    0.000    0.000    0.000    0.000    0.000    0.000 
#
# Total GULP energy -83725.388018 kJ/mol
# GULP energy per Si atom -5581.692535 kJ/mol
# Density = 2.509071 g / cm^3
# Si number density = 25.147951 Si / 1000 Ang^3
#
#
#
# Elastic Constant Matrix: (Units=GPa)
#
#
# Indices 1 2 3 4 5 6 
#
# 1 96.4104 21.8309 30.4137 11.8467 23.0314 32.9349
# 2 21.8309 103.4367 54.7000 25.5218 22.1934 22.6195
# 3 30.4137 54.7000 204.2590 37.2214 43.4188 27.8217
# 4 11.8467 25.5218 37.2214 44.3961 11.2966 8.4583
# 5 23.0314 22.1934 43.4188 11.2966 37.6608 14.4086
# 6 32.9349 22.6195 27.8217 8.4583 14.4086 33.9886
#
#
#
# Elastic Compliance Matrix: (Units=1/GPa)
#
#
# Indices 1 2 3 4 5 6 
#
# 1 0.016297 0.000793 0.000683 -0.001290 -0.005370 -0.014281
# 2 0.000793 0.013391 -0.001345 -0.004849 -0.003044 -0.006082
# 3 0.000683 -0.001345 0.007460 -0.003632 -0.006249 -0.002321
# 4 -0.001290 -0.004849 -0.003632 0.028840 -0.001100 0.000739
# 5 -0.005370 -0.003044 -0.006249 -0.001100 0.040985 -0.004756
# 6 -0.014281 -0.006082 -0.002321 0.000739 -0.004756 0.051039
#
#
# Mechanical properties :
#
#
# Convention : Reuss Voigt Hill
#
# Bulk Modulus (GPa) = 26.73079 68.66615 47.69847
# Shear Modulus (GPa) = 29.37335 43.01986 36.19660
#
# Velocity S-wave (km/s) = 3.42134 4.14051 3.79799
# Velocity P-wave (km/s) = 5.12444 7.08679 6.18395
#
# Compressibility (1/GPa) = 0.03741005
#
# Stress axis : x y z
#
# Youngs Moduli (GPa) = 61.35932 74.67550 134.04031
#
# Poissons Ratio (x) = -0.05920 -0.09153
# Poissons Ratio (y) = -0.04864 0.18030
# Poissons Ratio (z) = -0.04190 0.10045
#
# Static dielectric constant tensor:
#      x y z
#    x 2.064810 -0.066120 0.015520 
#    y -0.066120 2.113770 -0.064800 
#    z 0.015520 -0.064800 2.032390 
# 
# From -- ./inp_files/239905.got.cif
#   From: 2010.05.17/outbox.cif.g08.bks.cpg/sg2_120_cif.got.tgz:239905.got - 2010.06.03 11:33:40.
