data_PCOD9030641
_publ_section_title
;
Structure prediction by ZEFSAII (Michael W. Deem and Ramdas Pophale) SiO2 
 PCOD9030641
Probable space group: P -1
;
_chemical_formula_sum "Si O2"
_cell_formula_units_Z 16
_cell_length_a 7.905525
_cell_length_b 11.333453
_cell_length_c 8.192326
_cell_angle_alpha 90.086924
_cell_angle_beta 126.237535
_cell_angle_gamma 86.821304
_cell_volume 590.673982
_symmetry_space_group_name_H-M "P -1"
_symmetry_group_IT_number 2
_symmetry_cell_setting 'triclinic'
loop_
_space_group_symop_operation_xyz
x,y,z
-x,-y,-z
loop_
_atom_site_type_symbol
_atom_site_label
_atom_site_fract_x
_atom_site_fract_y
_atom_site_fract_z
Si Si1 0.151903 0.762516 0.291892
Si Si2 0.978737 0.354893 0.113339
Si Si3 0.404640 0.365103 0.542459
Si Si4 0.110607 0.812167 0.633875
Si Si5 0.681089 0.013312 0.732050
Si Si6 0.588669 0.820748 0.884690
Si Si7 0.598538 0.540112 0.887542
Si Si8 0.679355 0.853609 0.293905
O O1 0.394209 0.709144 0.417845
O O2 0.091819 0.746037 0.446595
O O3 0.154225 0.901696 0.245706
O O4 0.041519 0.700370 0.078657
O O5 0.890994 0.268230 0.204271
O O6 0.208381 0.380420 0.309732
O O7 0.828747 0.474034 0.023383
O O8 0.473043 0.483439 0.667026
O O9 0.336647 0.279567 0.649426
O O10 0.339182 0.864656 0.748752
O O11 0.888995 0.891994 0.506138
O O12 0.717206 0.880582 0.815405
O O13 0.500000 0.000000 0.500000
O O14 0.549444 0.083328 0.799312
O O15 0.585106 0.680538 0.876641
O O16 0.699758 0.855910 0.113277
O O17 0.500000 0.500000 0.000000
#
# Coordination Sequence:
#
# PCOD9030641 Si02
#       8
#     2   2   2   2   2   2   2   2
#     4  10  22  45  69 104 142 181 238 284 355 416
#     4  10  22  42  72 107 144 181 232 295 340 418
#     4   9  20  41  70 102 142 182 226 289 349 413
#     4  11  22  41  72 104 136 182 235 282 347 417
#     4  11  23  45  71  98 142 186 226 291 359 411
#     4  12  23  42  69 101 140 185 227 289 347 410
#     4  11  20  38  70 107 138 183 236 281 349 417
#     4  10  23  41  69 107 133 177 240 282 348 423
#
# _framework density 27.087702
#
# number of rings (size 3 to 8) (size 9 to 14) (size 15 to 20)
#    0.000    1.500    3.750    1.875    0.000    3.000 
#    2.250    5.625    5.500    4.500    3.250    0.000 
#    0.000    0.000    0.000    0.000    0.000    0.000 
#
# Total GULP energy -89712.842277 kJ/mol
# GULP energy per Si atom -5607.052642 kJ/mol
# Density = 2.702605 g / cm^3
# Si number density = 27.087702 Si / 1000 Ang^3
#
#
#
# Elastic Constant Matrix: (Units=GPa)
#
#
# Indices 1 2 3 4 5 6 
#
# 1 112.0941 22.1264 43.7864 5.1191 -3.5752 14.8523
# 2 22.1264 140.8786 36.5610 -3.6537 -2.0989 21.5269
# 3 43.7864 36.5610 189.3723 -0.9531 2.8727 -0.5240
# 4 5.1191 -3.6537 -0.9531 44.2730 -2.2544 -1.2204
# 5 -3.5752 -2.0989 2.8727 -2.2544 74.4346 -6.4365
# 6 14.8523 21.5269 -0.5240 -1.2204 -6.4365 41.1303
#
#
#
# Elastic Compliance Matrix: (Units=1/GPa)
#
#
# Indices 1 2 3 4 5 6 
#
# 1 0.010480 -0.000530 -0.002341 -0.001392 0.000230 -0.003542
# 2 -0.000530 0.008206 -0.001469 0.000590 -0.000075 -0.004117
# 3 -0.002341 -0.001469 0.006115 0.000315 -0.000236 0.001665
# 4 -0.001392 0.000590 0.000315 0.022867 0.000716 0.000989
# 5 0.000230 -0.000075 -0.000236 0.000716 0.013657 0.002112
# 6 -0.003542 -0.004117 0.001665 0.000989 0.002112 0.028128
#
#
# Mechanical properties :
#
#
# Convention : Reuss Voigt Hill
#
# Bulk Modulus (GPa) = 62.02913 71.92139 66.97526
# Shear Modulus (GPa) = 48.30554 54.62566 51.46560
#
# Velocity S-wave (km/s) = 4.22750 4.49555 4.36358
# Velocity P-wave (km/s) = 6.83945 7.31817 7.08285
#
# Compressibility (1/GPa) = 0.01612146
#
# Stress axis : x y z
#
# Youngs Moduli (GPa) = 95.41545 121.86246 163.52288
#
# Poissons Ratio (x) = 0.06457 0.38285
# Poissons Ratio (y) = 0.05055 0.24022
# Poissons Ratio (z) = 0.22340 0.17902
#
# Static dielectric constant tensor:
#      x y z
#    x 2.308230 -0.080450 -0.004710 
#    y -0.080450 2.183390 -0.022950 
#    z -0.004710 -0.022950 2.078610 
# 
# From -- ./inp_files/188007.got.cif
#   From: 2010.05.17/outbox.cif.g08.bks.cpg/sg2_95_cif.got.tgz:188007.got - 2010.06.03 11:33:40.
