data_PCOD9030419
_publ_section_title
;
Structure prediction by ZEFSAII (Michael W. Deem and Ramdas Pophale) SiO2 
 PCOD9030419
Probable space group: P -1
;
_chemical_formula_sum "Si O2"
_cell_formula_units_Z 12
_cell_length_a 12.754771
_cell_length_b 9.588964
_cell_length_c 8.525750
_cell_angle_alpha 67.932553
_cell_angle_beta 123.403024
_cell_angle_gamma 147.172505
_cell_volume 463.124667
_symmetry_space_group_name_H-M "P -1"
_symmetry_group_IT_number 2
_symmetry_cell_setting 'triclinic'
loop_
_space_group_symop_operation_xyz
x,y,z
-x,-y,-z
loop_
_atom_site_type_symbol
_atom_site_label
_atom_site_fract_x
_atom_site_fract_y
_atom_site_fract_z
Si Si1 0.256474 0.399238 0.697793
Si Si2 0.795762 0.047053 0.396909
Si Si3 0.328330 0.262321 0.296611
Si Si4 0.787175 0.278981 0.027610
Si Si5 0.892429 0.703791 0.052061
Si Si6 0.393021 0.875512 0.633028
O O1 0.446416 0.508805 0.710200
O O2 0.322370 0.636341 0.670591
O O3 0.021075 0.177711 0.516553
O O4 0.214988 0.314763 0.879372
O O5 0.796914 0.193164 0.452495
O O6 0.644682 0.788003 0.488679
O O7 0.764557 0.100843 0.181925
O O8 0.201635 0.297253 0.173109
O O9 0.151277 0.980763 0.176660
O O10 0.816431 0.457273 0.081888
O O11 0.576409 0.086368 0.826109
O O12 0.000000 0.500000 0.000000
O O13 0.500000 0.000000 0.500000
#
# Coordination Sequence:
#
# PCOD9030419 Si02
#       6
#     2   2   2   2   2   2
#     4  11  21  38  72  99 133 175 225 266 334 397
#     4  11  24  41  69 101 130 171 223 278 328 390
#     4  10  22  42  70  98 139 181 218 266 337 400
#     4  12  26  42  68 103 134 171 225 279 330 385
#     4  10  23  42  66 103 138 178 222 271 326 401
#     4  12  23  41  70  97 132 175 221 280 332 388
#
# _framework density 25.910952000000002
#
# number of rings (size 3 to 8) (size 9 to 14) (size 15 to 20)
#    0.000    1.000    3.333    3.500    4.667    0.000 
#    0.000    1.667    0.000    0.000    0.000    0.000 
#    0.000    0.000    0.000    0.000    0.000    0.000 
#
# Total GULP energy -67109.013402 kJ/mol
# GULP energy per Si atom -5592.417783 kJ/mol
# Density = 2.585198 g / cm^3
# Si number density = 25.910952 Si / 1000 Ang^3
#
#
#
# Elastic Constant Matrix: (Units=GPa)
#
#
# Indices 1 2 3 4 5 6 
#
# 1 100.6000 16.5596 30.3177 9.9090 -6.6803 17.2717
# 2 16.5596 64.2705 39.5093 -5.3838 -4.7656 28.8795
# 3 30.3177 39.5093 158.9960 -21.0394 0.9458 8.7553
# 4 9.9090 -5.3838 -21.0394 56.1181 2.0758 0.7221
# 5 -6.6803 -4.7656 0.9458 2.0758 33.7515 -3.2471
# 6 17.2717 28.8795 8.7553 0.7221 -3.2471 54.7624
#
#
#
# Elastic Compliance Matrix: (Units=1/GPa)
#
#
# Indices 1 2 3 4 5 6 
#
# 1 0.011670 -0.000278 -0.002407 -0.003034 0.002238 -0.002977
# 2 -0.000278 0.024420 -0.005318 0.000462 0.002378 -0.011805
# 3 -0.002407 -0.005318 0.008371 0.003080 -0.001449 0.002099
# 4 -0.003034 0.000462 0.003080 0.019624 -0.001843 -0.000147
# 5 0.002238 0.002378 -0.001449 -0.001843 0.030571 0.000109
# 6 -0.002977 -0.011805 0.002099 -0.000147 0.000109 0.025098
#
#
# Mechanical properties :
#
#
# Convention : Reuss Voigt Hill
#
# Bulk Modulus (GPa) = 35.14421 55.18219 45.16320
# Shear Modulus (GPa) = 34.42469 44.75840 39.59154
#
# Velocity S-wave (km/s) = 3.64892 4.16070 3.91319
# Velocity P-wave (km/s) = 5.59872 6.66521 6.15511
#
# Compressibility (1/GPa) = 0.02845419
#
# Stress axis : x y z
#
# Youngs Moduli (GPa) = 85.68933 40.95070 119.46676
#
# Poissons Ratio (x) = 0.01138 0.28758
# Poissons Ratio (y) = 0.02380 0.63533
# Poissons Ratio (z) = 0.20627 0.21778
#
# Static dielectric constant tensor:
#      x y z
#    x 2.046150 0.051190 -0.067300 
#    y 0.051190 2.075270 -0.033280 
#    z -0.067300 -0.033280 2.191630 
# 
# From -- ./inp_files/181065.got.cif
#   From: 2010.05.17/outbox.cif.g08.bks.cpg/sg2_91_cif.got.tgz:181065.got - 2010.06.03 11:33:40.
