data_PCOD9030773
_publ_section_title
;
Structure prediction by ZEFSAII (Michael W. Deem and Ramdas Pophale) SiO2 
 PCOD9030773
Probable space group: P -1
;
_chemical_formula_sum "Si O2"
_cell_formula_units_Z 16
_cell_length_a 9.629732
_cell_length_b 8.919733
_cell_length_c 11.747764
_cell_angle_alpha 79.342839
_cell_angle_beta 126.995378
_cell_angle_gamma 88.700840
_cell_volume 780.407286
_symmetry_space_group_name_H-M "P -1"
_symmetry_group_IT_number 2
_symmetry_cell_setting 'triclinic'
loop_
_space_group_symop_operation_xyz
x,y,z
-x,-y,-z
loop_
_atom_site_type_symbol
_atom_site_label
_atom_site_fract_x
_atom_site_fract_y
_atom_site_fract_z
Si Si1 0.812190 0.608790 0.382070
Si Si2 0.053818 0.079095 0.131792
Si Si3 0.190928 0.388755 0.092907
Si Si4 0.476531 0.555485 0.610393
Si Si5 0.659568 0.084262 0.532646
Si Si6 0.296007 0.913110 0.919643
Si Si7 0.338852 0.252631 0.945460
Si Si8 0.814104 0.949389 0.398723
O O1 0.655447 0.531697 0.369848
O O2 0.776506 0.662471 0.226357
O O3 0.822649 0.766914 0.430872
O O4 0.000000 0.500000 0.500000
O O5 0.155732 0.220382 0.138965
O O6 0.872515 0.140451 0.100742
O O7 0.177981 0.961294 0.293184
O O8 0.000000 0.000000 0.000000
O O9 0.336455 0.452175 0.232580
O O10 0.278558 0.350920 0.015395
O O11 0.000000 0.500000 0.000000
O O12 0.500000 0.500000 0.500000
O O13 0.391400 0.733875 0.530180
O O14 0.500000 0.000000 0.500000
O O15 0.701249 0.023063 0.436076
O O16 0.320799 0.069989 0.978954
O O17 0.257942 0.982622 0.765991
O O18 0.461510 0.776193 0.003145
O O19 0.000000 0.000000 0.500000
#
# Coordination Sequence:
#
# PCOD9030773 Si02
#       8
#     2   2   2   2   2   2   2   2
#     4  11  27  44  73 105 145 192 234 299 369 437
#     4  12  26  44  77 107 140 196 244 299 365 431
#     4  12  29  49  72 109 152 194 243 302 371 441
#     4  12  29  48  71 107 148 194 243 303 371 436
#     4  12  25  46  72 103 144 186 246 302 355 438
#     4  10  22  42  74 102 137 180 243 302 350 425
#     4  10  24  47  69 103 142 186 239 297 360 430
#     4  11  22  43  72 104 134 183 244 292 360 429
#
# _framework density 20.502113999999999
#
# number of rings (size 3 to 8) (size 9 to 14) (size 15 to 20)
#    0.000    0.750    3.750    2.250    7.000    1.500 
#    2.250    0.000    0.000    0.000    0.000    0.000 
#    0.000    0.000    0.000    0.000    0.000    0.000 
#
# Total GULP energy -89382.944406 kJ/mol
# GULP energy per Si atom -5586.434025 kJ/mol
# Density = 2.045545 g / cm^3
# Si number density = 20.502114 Si / 1000 Ang^3
#
#
#
# Elastic Constant Matrix: (Units=GPa)
#
#
# Indices 1 2 3 4 5 6 
#
# 1 159.9851 60.0264 45.3371 16.2236 5.0390 -11.7355
# 2 60.0264 130.1131 52.9173 7.4947 -2.3344 -14.3226
# 3 45.3371 52.9173 107.8328 7.2021 16.5374 -22.6213
# 4 16.2236 7.4947 7.2021 39.1447 -5.6155 2.4215
# 5 5.0390 -2.3344 16.5374 -5.6155 36.8180 7.4711
# 6 -11.7355 -14.3226 -22.6213 2.4215 7.4711 53.0165
#
#
#
# Elastic Compliance Matrix: (Units=1/GPa)
#
#
# Indices 1 2 3 4 5 6 
#
# 1 0.008138 -0.002947 -0.001466 -0.002753 -0.001199 0.000674
# 2 -0.002947 0.010982 -0.004737 0.000482 0.003341 -0.000199
# 3 -0.001466 -0.004737 0.014994 -0.002844 -0.008511 0.006123
# 4 -0.002753 0.000482 -0.002844 0.028339 0.006808 -0.003946
# 5 -0.001199 0.003341 -0.008511 0.006808 0.034042 -0.008102
# 6 0.000674 -0.000199 0.006123 -0.003946 -0.008102 0.022892
#
#
# Mechanical properties :
#
#
# Convention : Reuss Voigt Hill
#
# Bulk Modulus (GPa) = 63.23309 79.38805 71.31057
# Shear Modulus (GPa) = 34.97555 41.77251 38.37403
#
# Velocity S-wave (km/s) = 4.13479 4.51873 4.33102
# Velocity P-wave (km/s) = 7.32834 8.12596 7.73743
#
# Compressibility (1/GPa) = 0.01581450
#
# Stress axis : x y z
#
# Youngs Moduli (GPa) = 122.87876 91.06061 66.69287
#
# Poissons Ratio (x) = 0.26834 0.09780
# Poissons Ratio (y) = 0.36210 0.31589
# Poissons Ratio (z) = 0.18018 0.43131
#
# Static dielectric constant tensor:
#      x y z
#    x 1.580250 -0.021300 0.030520 
#    y -0.021300 1.673160 0.022400 
#    z 0.030520 0.022400 1.743510 
# 
# From -- ./inp_files/382114.got.cif
#   From: 2010.05.17/outbox.cif.g08.bks.cpg/sg2_192_cif.got.tgz:382114.got - 2010.06.03 11:33:40.
