data_PCOD9030547
_publ_section_title
;
Structure prediction by ZEFSAII (Michael W. Deem and Ramdas Pophale) SiO2 
 PCOD9030547
Probable space group: P -1
;
_chemical_formula_sum "Si O2"
_cell_formula_units_Z 14
_cell_length_a 13.298081
_cell_length_b 15.213648
_cell_length_c 22.549629
_cell_angle_alpha 27.498443
_cell_angle_beta 160.958151
_cell_angle_gamma 150.145837
_cell_volume 674.552633
_symmetry_space_group_name_H-M "P -1"
_symmetry_group_IT_number 2
_symmetry_cell_setting 'triclinic'
loop_
_space_group_symop_operation_xyz
x,y,z
-x,-y,-z
loop_
_atom_site_type_symbol
_atom_site_label
_atom_site_fract_x
_atom_site_fract_y
_atom_site_fract_z
Si Si1 0.160557 0.835085 0.159413
Si Si2 0.626118 0.470961 0.802010
Si Si3 0.742708 0.056927 0.278723
Si Si4 0.461253 0.882763 0.110602
Si Si5 0.544722 0.597208 0.123205
Si Si6 0.177049 0.195529 0.121459
Si Si7 0.743932 0.223638 0.623894
O O1 0.289826 0.746676 0.341965
O O2 0.430308 0.945149 0.202505
O O3 0.928430 0.718586 0.051409
O O4 0.000000 0.000000 0.000000
O O5 0.521483 0.335112 0.768685
O O6 0.470332 0.367745 0.836042
O O7 0.505842 0.670554 0.609582
O O8 0.000000 0.500000 0.000000
O O9 0.722957 0.974366 0.249948
O O10 0.696217 0.279011 0.114502
O O11 0.000000 0.000000 0.500000
O O12 0.118941 0.865446 0.962043
O O13 0.500000 0.000000 0.000000
O O14 0.429034 0.368961 0.185086
O O15 0.897290 0.675211 0.251358
O O16 0.293094 0.999026 0.284852
#
# Coordination Sequence:
#
# PCOD9030547 Si02
#       7
#     2   2   2   2   2   2   2
#     4   9  19  43  64  91 134 173 216 283 334 396
#     4  12  26  43  68 100 134 179 232 287 344 407
#     4  11  24  41  71 103 141 178 226 289 343 406
#     4  11  21  44  69  96 143 180 222 288 342 403
#     4  12  23  44  69  99 136 181 230 280 345 411
#     4  10  22  42  71  98 133 179 226 280 339 411
#     4  11  24  46  67  95 139 180 228 287 339 414
#
# _framework density 20.754494999999999
#
# number of rings (size 3 to 8) (size 9 to 14) (size 15 to 20)
#    0.000    1.143    7.143    0.429    2.000    2.286 
#    7.714    2.857    0.000    0.000    0.000    0.000 
#    0.000    0.000    0.000    0.000    0.000    0.000 
#
# Total GULP energy -78082.642068 kJ/mol
# GULP energy per Si atom -5577.331576 kJ/mol
# Density = 2.070726 g / cm^3
# Si number density = 20.754495 Si / 1000 Ang^3
#
#
#
# Elastic Constant Matrix: (Units=GPa)
#
#
# Indices 1 2 3 4 5 6 
#
# 1 128.3632 31.5370 28.5363 -7.9663 -18.9189 -7.1906
# 2 31.5370 103.0550 38.9896 -9.2915 -0.1906 -23.1632
# 3 28.5363 38.9896 108.7050 -25.3459 -19.8295 -12.7163
# 4 -7.9663 -9.2915 -25.3459 23.9673 -0.8194 -4.1013
# 5 -18.9189 -0.1906 -19.8295 -0.8194 24.5885 -4.8261
# 6 -7.1906 -23.1632 -12.7163 -4.1013 -4.8261 35.2538
#
#
#
# Elastic Compliance Matrix: (Units=1/GPa)
#
#
# Indices 1 2 3 4 5 6 
#
# 1 0.009926 -0.002534 0.001411 0.004593 0.009438 0.002695
# 2 -0.002534 0.013515 -0.003639 0.001591 -0.003398 0.006770
# 3 0.001411 -0.003639 0.020638 0.023452 0.020620 0.010892
# 4 0.004593 0.001591 0.023452 0.073616 0.029433 0.023035
# 5 0.009438 -0.003398 0.020620 0.029433 0.069452 0.020062
# 6 0.002695 0.006770 0.010892 0.023035 0.020062 0.042719
#
#
# Mechanical properties :
#
#
# Convention : Reuss Voigt Hill
#
# Bulk Modulus (GPa) = 28.94035 59.80544 44.37290
# Shear Modulus (GPa) = 19.92758 32.83260 26.38009
#
# Velocity S-wave (km/s) = 3.10200 3.98169 3.56905
# Velocity P-wave (km/s) = 5.17729 7.07225 6.19762
#
# Compressibility (1/GPa) = 0.03455383
#
# Stress axis : x y z
#
# Youngs Moduli (GPa) = 100.74241 73.99341 48.45479
#
# Poissons Ratio (x) = 0.18752 -0.06836
# Poissons Ratio (y) = 0.25530 0.17633
# Poissons Ratio (z) = -0.14213 0.26927
#
# Static dielectric constant tensor:
#      x y z
#    x 1.796880 -0.031680 -0.056140 
#    y -0.031680 1.762410 0.007440 
#    z -0.056140 0.007440 1.784380 
# 
# From -- ./inp_files/306783.got.cif
#   From: 2010.05.17/outbox.cif.g08.bks.cpg/sg2_154_cif.got.tgz:306783.got - 2010.06.03 11:33:40.
