data_PCOD9030214
_publ_section_title
;
Structure prediction by ZEFSAII (Michael W. Deem and Ramdas Pophale) SiO2 
 PCOD9030214
Probable space group: P -1
;
_chemical_formula_sum "Si O2"
_cell_formula_units_Z 16
_cell_length_a 8.749082
_cell_length_b 5.068334
_cell_length_c 20.987682
_cell_angle_alpha 112.072658
_cell_angle_beta 44.859175
_cell_angle_gamma 105.810985
_cell_volume 608.318737
_symmetry_space_group_name_H-M "P -1"
_symmetry_group_IT_number 2
_symmetry_cell_setting 'triclinic'
loop_
_space_group_symop_operation_xyz
x,y,z
-x,-y,-z
loop_
_atom_site_type_symbol
_atom_site_label
_atom_site_fract_x
_atom_site_fract_y
_atom_site_fract_z
Si Si1 0.057813 0.256173 0.553351
Si Si2 0.640994 0.802376 0.068695
Si Si3 0.931770 0.485542 0.866007
Si Si4 0.765684 0.050333 0.729902
Si Si5 0.645210 0.520445 0.662298
Si Si6 0.019172 0.851949 0.753611
Si Si7 0.290266 0.551356 0.869939
Si Si8 0.499773 0.019300 0.425570
O O1 0.904565 0.494058 0.590797
O O2 0.315313 0.248214 0.481647
O O3 0.000000 0.000000 0.500000
O O4 0.957364 0.195326 0.646937
O O5 0.773875 0.676958 0.078380
O O6 0.396170 0.762402 0.162735
O O7 0.670588 0.139858 0.082275
O O8 0.716786 0.628883 0.969804
O O9 0.989884 0.599872 0.789357
O O10 0.119581 0.591331 0.867902
O O11 0.944753 0.146171 0.835301
O O12 0.626591 0.863179 0.702102
O O13 0.873170 0.848384 0.733337
O O14 0.505850 0.448488 0.760020
O O15 0.565041 0.290858 0.613502
O O16 0.267888 0.887600 0.661714
O O17 0.500000 0.000000 0.500000
#
# Coordination Sequence:
#
# PCOD9030214 Si02
#       8
#     2   2   2   2   2   2   2   2
#     4  10  22  42  70 101 143 182 247 292 369 427
#     4  11  24  42  75 108 141 197 239 302 361 445
#     4  12  26  46  71 106 153 188 245 301 376 425
#     4  11  25  45  72 105 147 188 251 293 370 439
#     4  10  23  43  72 102 142 191 234 304 356 433
#     4  12  28  47  72 106 153 194 239 311 365 436
#     4  11  21  41  73 105 149 184 244 293 368 429
#     4  11  23  46  72 106 144 191 244 297 371 432
#
# _framework density 26.302002000000002
#
# number of rings (size 3 to 8) (size 9 to 14) (size 15 to 20)
#    0.000    1.000    3.750    2.250    1.750    4.000 
#    2.250    1.250    0.000    0.000    0.000    0.000 
#    0.000    0.000    0.000    0.000    0.000    0.000 
#
# Total GULP energy -89583.676725 kJ/mol
# GULP energy per Si atom -5598.979795 kJ/mol
# Density = 2.624214 g / cm^3
# Si number density = 26.302002 Si / 1000 Ang^3
#
#
#
# Elastic Constant Matrix: (Units=GPa)
#
#
# Indices 1 2 3 4 5 6 
#
# 1 104.3169 11.8236 52.5380 -7.6275 -10.4825 7.5812
# 2 11.8236 84.2865 33.6930 8.8408 1.5083 -5.8528
# 3 52.5380 33.6930 184.4031 13.1994 0.7751 9.5995
# 4 -7.6275 8.8408 13.1994 42.2684 -8.6316 13.1589
# 5 -10.4825 1.5083 0.7751 -8.6316 40.7277 3.2563
# 6 7.5812 -5.8528 9.5995 13.1589 3.2563 35.1632
#
#
#
# Elastic Compliance Matrix: (Units=1/GPa)
#
#
# Indices 1 2 3 4 5 6 
#
# 1 0.012926 -0.001459 -0.003638 0.006358 0.005189 -0.004896
# 2 -0.001459 0.013744 -0.002025 -0.004531 -0.002210 0.005055
# 3 -0.003638 -0.002025 0.007043 -0.002636 -0.001526 -0.000348
# 4 0.006358 -0.004531 -0.002636 0.033235 0.010079 -0.014776
# 5 0.005189 -0.002210 -0.001526 0.010079 0.028736 -0.007503
# 6 -0.004896 0.005055 -0.000348 -0.014776 -0.007503 0.036655
#
#
# Mechanical properties :
#
#
# Convention : Reuss Voigt Hill
#
# Bulk Modulus (GPa) = 51.36432 63.23508 57.29970
# Shear Modulus (GPa) = 32.66431 41.96198 37.31315
#
# Velocity S-wave (km/s) = 3.52788 3.99857 3.77057
# Velocity P-wave (km/s) = 6.01378 6.73886 6.38662
#
# Compressibility (1/GPa) = 0.01946877
#
# Stress axis : x y z
#
# Youngs Moduli (GPa) = 77.36370 72.75748 141.99148
#
# Poissons Ratio (x) = 0.10612 0.51660
# Poissons Ratio (y) = 0.11284 0.28757
# Poissons Ratio (z) = 0.28147 0.14735
#
# Static dielectric constant tensor:
#      x y z
#    x 2.101580 -0.039980 -0.037430 
#    y -0.039980 2.058660 0.048800 
#    z -0.037430 0.048800 2.081100 
# 
# From -- ./inp_files/585370.got.cif
#   From: 2010.05.17/outbox.cif.g08.bks.cpg/sg2_293_cif.got.tgz:585370.got - 2010.06.03 11:33:40.
