data_PCOD9030962
_publ_section_title
;
Structure prediction by ZEFSAII (Michael W. Deem and Ramdas Pophale) SiO2 
 PCOD9030962
Probable space group: P -1
;
_chemical_formula_sum "Si O2"
_cell_formula_units_Z 16
_cell_length_a 27.707962
_cell_length_b 7.266086
_cell_length_c 5.353666
_cell_angle_alpha 112.614728
_cell_angle_beta 71.080838
_cell_angle_gamma 133.930948
_cell_volume 713.874408
_symmetry_space_group_name_H-M "P -1"
_symmetry_group_IT_number 2
_symmetry_cell_setting 'triclinic'
loop_
_space_group_symop_operation_xyz
x,y,z
-x,-y,-z
loop_
_atom_site_type_symbol
_atom_site_label
_atom_site_fract_x
_atom_site_fract_y
_atom_site_fract_z
Si Si1 0.854380 0.396071 0.750312
Si Si2 0.368468 0.458751 0.409979
Si Si3 0.996721 0.692533 0.445309
Si Si4 0.390144 0.749350 0.018828
Si Si5 0.213615 0.185265 0.540276
Si Si6 0.947673 0.786855 0.180904
Si Si7 0.234077 0.469257 0.151464
Si Si8 0.460549 0.338251 0.232058
O O1 0.922562 0.596498 0.582476
O O2 0.794124 0.381461 0.755432
O O3 0.835652 0.118913 0.608235
O O4 0.878032 0.531569 0.053209
O O5 0.391030 0.607286 0.183657
O O6 0.288653 0.282661 0.472554
O O7 0.392449 0.294462 0.311579
O O8 0.399744 0.659413 0.695091
O O9 0.986463 0.687631 0.164735
O O10 0.000000 0.500000 0.500000
O O11 0.054022 0.005888 0.560034
O O12 0.314509 0.649537 0.085071
O O13 0.442654 0.060952 0.120968
O O14 0.215105 0.341829 0.389848
O O15 0.202338 0.256960 0.866820
O O16 0.000000 0.000000 0.000000
O O17 0.500000 0.500000 0.500000
O O18 0.500000 0.500000 0.000000
#
# Coordination Sequence:
#
# PCOD9030962 Si02
#       8
#     2   2   2   2   2   2   2   2
#     4  11  24  37  66  92 124 159 209 269 312 380
#     4  10  22  43  63  89 130 168 213 257 315 383
#     4  10  23  40  63  88 126 169 207 257 325 385
#     4  10  22  43  64  88 129 172 205 264 320 366
#     4  10  24  41  66  95 123 169 210 260 322 375
#     4   9  22  41  59  89 121 164 205 257 317 377
#     4  10  24  42  65  94 127 164 212 261 318 382
#     4  12  25  38  63  98 126 168 217 261 310 371
#
# _framework density 22.412906
#
# number of rings (size 3 to 8) (size 9 to 14) (size 15 to 20)
#    0.000    1.750    0.000    2.250    5.250    7.000 
#    0.000    7.500    0.000    0.000    0.000    0.000 
#    0.000    0.000    0.000    0.000    0.000    0.000 
#
# Total GULP energy -89296.390962 kJ/mol
# GULP energy per Si atom -5581.024435 kJ/mol
# Density = 2.236189 g / cm^3
# Si number density = 22.412906 Si / 1000 Ang^3
#
#
#
# Elastic Constant Matrix: (Units=GPa)
#
#
# Indices 1 2 3 4 5 6 
#
# 1 70.0681 2.2491 12.1172 -10.7769 5.8708 -25.7223
# 2 2.2491 89.3844 20.7977 20.8365 19.3090 -15.4119
# 3 12.1172 20.7977 96.1802 3.9998 27.5963 -3.5923
# 4 -10.7769 20.8365 3.9998 31.8580 -1.1355 6.6905
# 5 5.8708 19.3090 27.5963 -1.1355 27.8538 -4.5210
# 6 -25.7223 -15.4119 -3.5923 6.6905 -4.5210 36.7410
#
#
#
# Elastic Compliance Matrix: (Units=1/GPa)
#
#
# Indices 1 2 3 4 5 6 
#
# 1 0.020349 0.002038 -0.002305 0.002814 -0.000992 0.014241
# 2 0.002038 0.019000 0.000293 -0.014430 -0.012778 0.010481
# 3 -0.002305 0.000293 0.014979 -0.003111 -0.014894 -0.001293
# 4 0.002814 -0.014430 -0.003111 0.044932 0.012535 -0.011027
# 5 -0.000992 -0.012778 -0.014894 0.012535 0.059842 -0.002430
# 6 0.014241 0.010481 -0.001293 -0.011027 -0.002430 0.043167
#
#
# Mechanical properties :
#
#
# Convention : Reuss Voigt Hill
#
# Bulk Modulus (GPa) = 18.38938 36.21787 27.30362
# Shear Modulus (GPa) = 22.69193 33.98848 28.34020
#
# Velocity S-wave (km/s) = 3.18535 3.89841 3.55978
# Velocity P-wave (km/s) = 4.66382 6.03804 5.39487
#
# Compressibility (1/GPa) = 0.05437922
#
# Stress axis : x y z
#
# Youngs Moduli (GPa) = 49.14251 52.63287 66.76120
#
# Poissons Ratio (x) = -0.10728 0.15387
# Poissons Ratio (y) = -0.10016 -0.01953
# Poissons Ratio (z) = 0.11326 -0.01540
#
# Static dielectric constant tensor:
#      x y z
#    x 1.865310 -0.004140 0.009130 
#    y -0.004140 1.785280 0.035780 
#    z 0.009130 0.035780 0.646620 
# 
# From -- ./inp_files/125876.got.cif
#   From: 2010.05.17/outbox.cif.g08.bks.cpg/sg2_63_cif.got.tgz:125876.got - 2010.06.03 11:33:40.
