data_PCOD9030708
_publ_section_title
;
Structure prediction by ZEFSAII (Michael W. Deem and Ramdas Pophale) SiO2 
 PCOD9030708
Probable space group: P -1
;
_chemical_formula_sum "Si O2"
_cell_formula_units_Z 14
_cell_length_a 14.027526
_cell_length_b 6.758408
_cell_length_c 13.677315
_cell_angle_alpha 98.845976
_cell_angle_beta 150.638639
_cell_angle_gamma 69.503495
_cell_volume 562.240514
_symmetry_space_group_name_H-M "P -1"
_symmetry_group_IT_number 2
_symmetry_cell_setting 'triclinic'
loop_
_space_group_symop_operation_xyz
x,y,z
-x,-y,-z
loop_
_atom_site_type_symbol
_atom_site_label
_atom_site_fract_x
_atom_site_fract_y
_atom_site_fract_z
Si Si1 0.300128 0.942886 0.029660
Si Si2 0.058856 0.408155 0.903321
Si Si3 0.347666 0.934698 0.556384
Si Si4 0.994640 0.599830 0.665219
Si Si5 0.393218 0.540615 0.700377
Si Si6 0.636577 0.635755 0.649598
Si Si7 0.804309 0.194081 0.279427
O O1 0.102914 0.148497 0.923059
O O2 0.259319 0.915747 0.877398
O O3 0.496070 0.007977 0.229118
O O4 0.394488 0.693772 0.139603
O O5 0.130269 0.442814 0.862411
O O6 0.808566 0.580436 0.711827
O O7 0.203644 0.442761 0.119016
O O8 0.345802 0.714886 0.583880
O O9 0.459418 0.878136 0.545770
O O10 0.119692 0.148411 0.374048
O O11 0.809645 0.519587 0.474955
O O12 0.116558 0.632360 0.683952
O O13 0.386017 0.669774 0.804230
O O14 0.500000 0.500000 0.500000
O O15 0.000000 0.000000 0.500000
#
# Coordination Sequence:
#
# PCOD9030708 Si02
#       7
#     2   2   2   2   2   2   2
#     4  10  25  42  66  96 138 178 227 278 336 403
#     4  10  23  46  67 101 140 175 225 286 342 407
#     4  10  23  45  68  98 135 177 222 283 341 400
#     4  11  24  43  69  97 141 176 224 281 338 402
#     4  11  23  45  66 100 137 180 229 278 334 399
#     4  10  22  42  73 100 133 177 227 281 345 411
#     4  12  24  42  67 100 135 184 228 275 339 400
#
# _framework density 24.900376000000001
#
# number of rings (size 3 to 8) (size 9 to 14) (size 15 to 20)
#    0.000    1.429    1.429    2.571    6.000    1.143 
#    0.000    4.286    0.000    0.000    0.000    0.000 
#    0.000    0.000    0.000    0.000    0.000    0.000 
#
# Total GULP energy -78317.093476 kJ/mol
# GULP energy per Si atom -5594.078105 kJ/mol
# Density = 2.484370 g / cm^3
# Si number density = 24.900376 Si / 1000 Ang^3
#
#
#
# Elastic Constant Matrix: (Units=GPa)
#
#
# Indices 1 2 3 4 5 6 
#
# 1 113.1223 43.0764 0.1683 -3.4334 5.2441 -5.0659
# 2 43.0764 132.3215 40.4843 -2.6408 -5.3201 -11.7360
# 3 0.1683 40.4843 56.0349 10.0683 -6.4749 -11.3257
# 4 -3.4334 -2.6408 10.0683 60.3376 -9.4930 -1.5665
# 5 5.2441 -5.3201 -6.4749 -9.4930 38.8554 -1.9114
# 6 -5.0659 -11.7360 -11.3257 -1.5665 -1.9114 38.4316
#
#
#
# Elastic Compliance Matrix: (Units=1/GPa)
#
#
# Indices 1 2 3 4 5 6 
#
# 1 0.010628 -0.004441 0.003245 -0.000350 -0.001542 0.000910
# 2 -0.004441 0.011766 -0.008555 0.001908 0.001282 0.000628
# 3 0.003245 -0.008555 0.026081 -0.004085 0.002006 0.005435
# 4 -0.000350 0.001908 -0.004085 0.017959 0.004029 0.000265
# 5 -0.001542 0.001282 0.002006 0.004029 0.027552 0.002314
# 6 0.000910 0.000628 0.005435 0.000265 0.002314 0.028059
#
#
# Mechanical properties :
#
#
# Convention : Reuss Voigt Hill
#
# Bulk Modulus (GPa) = 34.51416 52.10409 43.30913
# Shear Modulus (GPa) = 33.06746 42.04156 37.55451
#
# Velocity S-wave (km/s) = 3.64811 4.11346 3.88776
# Velocity P-wave (km/s) = 5.62459 6.59782 6.13054
#
# Compressibility (1/GPa) = 0.02897361
#
# Stress axis : x y z
#
# Youngs Moduli (GPa) = 94.09169 84.99152 38.34141
#
# Poissons Ratio (x) = 0.37745 -0.12443
# Poissons Ratio (y) = 0.41787 0.32801
# Poissons Ratio (z) = -0.30536 0.72711
#
# Static dielectric constant tensor:
#      x y z
#    x 1.967240 -0.018240 0.045040 
#    y -0.018240 1.983820 -0.000980 
#    z 0.045040 -0.000980 2.034200 
# 
# From -- ./inp_files/88661.got.cif
#   From: 2010.05.17/outbox.cif.g08.bks.cpg/sg2_45_cif.got.tgz:88661.got - 2010.06.03 11:33:40.
