data_PCOD9030147
_publ_section_title
;
Structure prediction by ZEFSAII (Michael W. Deem and Ramdas Pophale) SiO2 
 PCOD9030147
Probable space group: P -1
;
_chemical_formula_sum "Si O2"
_cell_formula_units_Z 16
_cell_length_a 13.399060
_cell_length_b 14.250428
_cell_length_c 15.512578
_cell_angle_alpha 31.203155
_cell_angle_beta 51.260790
_cell_angle_gamma 31.549675
_cell_volume 742.551662
_symmetry_space_group_name_H-M "P -1"
_symmetry_group_IT_number 2
_symmetry_cell_setting 'triclinic'
loop_
_space_group_symop_operation_xyz
x,y,z
-x,-y,-z
loop_
_atom_site_type_symbol
_atom_site_label
_atom_site_fract_x
_atom_site_fract_y
_atom_site_fract_z
Si Si1 0.271756 0.436724 0.565008
Si Si2 0.883978 0.336487 0.904334
Si Si3 0.900406 0.642652 0.534644
Si Si4 0.903797 0.405786 0.117996
Si Si5 0.389188 0.316188 0.794705
Si Si6 0.301841 0.833524 0.870197
Si Si7 0.453266 0.180533 0.151310
Si Si8 0.790180 0.087800 0.800955
O O1 0.344566 0.381748 0.666419
O O2 0.225187 0.681901 0.357524
O O3 0.063151 0.552527 0.581934
O O4 0.443126 0.130843 0.662018
O O5 0.852563 0.499921 0.711044
O O6 0.702668 0.606283 0.854353
O O7 0.863815 0.143296 0.049171
O O8 0.090540 0.133817 0.008904
O O9 0.000000 0.500000 0.500000
O O10 0.737343 0.978556 0.332963
O O11 0.823577 0.433077 0.233504
O O12 0.689360 0.642842 0.994017
O O13 0.069203 0.108907 0.205778
O O14 0.000000 0.500000 0.000000
O O15 0.561844 0.266924 0.768994
O O16 0.500000 0.000000 0.000000
O O17 0.361797 0.880895 0.885650
O O18 0.500000 0.500000 0.000000
#
# Coordination Sequence:
#
# PCOD9030147 Si02
#       8
#     2   2   2   2   2   2   2   2
#     4  12  24  44  66 102 140 175 234 292 344 415
#     4  10  24  45  72  97 139 188 226 284 354 407
#     4  12  25  45  67 101 139 179 227 284 349 418
#     4  11  23  43  70 100 135 185 232 285 349 412
#     4  12  23  42  71 100 138 186 231 283 352 412
#     4  10  22  45  69  98 134 178 231 283 335 416
#     4  10  22  42  69  99 135 180 230 286 346 417
#     4  11  24  45  70 103 141 182 238 286 345 419
#
# _framework density 21.547322000000001
#
# number of rings (size 3 to 8) (size 9 to 14) (size 15 to 20)
#    0.000    1.000    5.000    1.125    1.750    3.000 
#    4.500    0.000    0.000    0.000    0.000    0.000 
#    0.000    0.000    0.000    0.000    0.000    0.000 
#
# Total GULP energy -89345.913350 kJ/mol
# GULP energy per Si atom -5584.119584 kJ/mol
# Density = 2.149828 g / cm^3
# Si number density = 21.547322 Si / 1000 Ang^3
#
#
#
# Elastic Constant Matrix: (Units=GPa)
#
#
# Indices 1 2 3 4 5 6 
#
# 1 128.9181 23.1246 37.5673 3.7900 -0.5180 -9.7671
# 2 23.1246 83.5568 26.7277 -1.1111 -2.4644 13.2567
# 3 37.5673 26.7277 132.8132 -0.7743 -4.1129 9.1955
# 4 3.7900 -1.1111 -0.7743 34.0773 4.9492 -1.5091
# 5 -0.5180 -2.4644 -4.1129 4.9492 37.6105 -9.4691
# 6 -9.7671 13.2567 9.1955 -1.5091 -9.4691 28.6566
#
#
#
# Elastic Compliance Matrix: (Units=1/GPa)
#
#
# Indices 1 2 3 4 5 6 
#
# 1 0.009423 -0.002681 -0.002482 -0.001124 0.001240 0.005599
# 2 -0.002681 0.014388 -0.001658 0.000578 -0.001217 -0.007409
# 3 -0.002482 -0.001658 0.008766 0.000286 0.000059 -0.002857
# 4 -0.001124 0.000578 0.000286 0.030058 -0.004025 -0.000490
# 5 0.001240 -0.001217 0.000059 -0.004025 0.029725 0.010577
# 6 0.005599 -0.007409 -0.002857 -0.000490 0.010577 0.044618
#
#
# Mechanical properties :
#
#
# Convention : Reuss Voigt Hill
#
# Bulk Modulus (GPa) = 52.81141 57.79192 55.30166
# Shear Modulus (GPa) = 31.86110 37.26013 34.56061
#
# Velocity S-wave (km/s) = 3.84950 4.16290 4.00927
# Velocity P-wave (km/s) = 6.65740 7.07004 6.86682
#
# Compressibility (1/GPa) = 0.01893530
#
# Stress axis : x y z
#
# Youngs Moduli (GPa) = 106.12226 69.50451 114.07173
#
# Poissons Ratio (x) = 0.18632 0.28309
# Poissons Ratio (y) = 0.28448 0.18919
# Poissons Ratio (z) = 0.26337 0.11527
#
# Static dielectric constant tensor:
#      x y z
#    x 1.830380 -0.029210 -0.024210 
#    y -0.029210 1.817980 0.008590 
#    z -0.024210 0.008590 1.807930 
# 
# From -- ./inp_files/534121.got.cif
#   From: 2010.05.17/outbox.cif.g08.bks.cpg/sg2_268_cif.got.tgz:534121.got - 2010.06.03 11:33:40.
