data_PCOD9030161
_publ_section_title
;
Structure prediction by ZEFSAII (Michael W. Deem and Ramdas Pophale) SiO2 
 PCOD9030161
Probable space group: P -1
;
_chemical_formula_sum "Si O2"
_cell_formula_units_Z 14
_cell_length_a 5.532136
_cell_length_b 9.127292
_cell_length_c 11.949894
_cell_angle_alpha 95.284034
_cell_angle_beta 104.670226
_cell_angle_gamma 76.608879
_cell_volume 567.491263
_symmetry_space_group_name_H-M "P -1"
_symmetry_group_IT_number 2
_symmetry_cell_setting 'triclinic'
loop_
_space_group_symop_operation_xyz
x,y,z
-x,-y,-z
loop_
_atom_site_type_symbol
_atom_site_label
_atom_site_fract_x
_atom_site_fract_y
_atom_site_fract_z
Si Si1 0.749386 0.096813 0.335478
Si Si2 0.082206 0.922499 0.173847
Si Si3 0.273603 0.411752 0.978379
Si Si4 0.593102 0.618003 0.601235
Si Si5 0.781582 0.837983 0.468751
Si Si6 0.705540 0.887767 0.943867
Si Si7 0.973862 0.348757 0.728740
O O1 0.600229 0.269410 0.333050
O O2 0.016075 0.103151 0.426862
O O3 0.844785 0.017148 0.224218
O O4 0.631087 0.982425 0.391939
O O5 0.184176 0.768556 0.243504
O O6 0.974999 0.868754 0.041332
O O7 0.257435 0.036584 0.164644
O O8 0.200511 0.354615 0.843634
O O9 0.500000 0.500000 0.000000
O O10 0.361783 0.273084 0.063679
O O11 0.000000 0.500000 0.000000
O O12 0.500000 0.500000 0.500000
O O13 0.659126 0.735485 0.528111
O O14 0.812816 0.514487 0.694055
O O15 0.922713 0.727453 0.380596
O O16 0.500000 0.000000 0.000000
#
# Coordination Sequence:
#
# PCOD9030161 Si02
#       7
#     2   2   2   2   2   2   2
#     4  10  22  42  69  99 140 189 238 298 354 446
#     4   9  22  44  68 100 139 188 243 296 369 432
#     4  11  28  50  75 112 153 190 248 315 380 446
#     4  12  24  41  69 105 142 191 240 297 367 432
#     4  10  22  44  64  98 143 185 242 292 359 438
#     4  10  23  46  75  99 141 189 248 306 367 442
#     4  10  23  46  69 102 143 194 241 307 371 437
#
# _framework density 24.669982999999998
#
# number of rings (size 3 to 8) (size 9 to 14) (size 15 to 20)
#    0.000    1.714    1.429    0.857    6.000    4.571 
#    5.143    0.000    0.000    0.000    0.000    0.000 
#    0.000    0.000    0.000    0.000    0.000    0.000 
#
# Total GULP energy -78278.597866 kJ/mol
# GULP energy per Si atom -5591.328419 kJ/mol
# Density = 2.461383 g / cm^3
# Si number density = 24.669983 Si / 1000 Ang^3
#
#
#
# Elastic Constant Matrix: (Units=GPa)
#
#
# Indices 1 2 3 4 5 6 
#
# 1 79.7881 69.3807 30.8261 -24.9636 -19.5245 23.2851
# 2 69.3807 187.0538 35.2940 -27.4409 -17.5854 11.3023
# 3 30.8261 35.2940 131.2088 -9.3757 2.5020 12.1513
# 4 -24.9636 -27.4409 -9.3757 31.8765 8.2535 0.6848
# 5 -19.5245 -17.5854 2.5020 8.2535 38.1234 -3.5579
# 6 23.2851 11.3023 12.1513 0.6848 -3.5579 50.1223
#
#
#
# Elastic Compliance Matrix: (Units=1/GPa)
#
#
# Indices 1 2 3 4 5 6 
#
# 1 0.029235 -0.006734 -0.003172 0.014342 0.007950 -0.010926
# 2 -0.006734 0.008102 -0.000631 0.001445 0.000152 0.001445
# 3 -0.003172 -0.000631 0.008663 0.000206 -0.002591 -0.000671
# 4 0.014342 0.001445 0.000206 0.044699 -0.002409 -0.007820
# 5 0.007950 0.000152 -0.002591 -0.002409 0.030983 -0.000867
# 6 -0.010926 0.001445 -0.000671 -0.007820 -0.000867 0.024909
#
#
# Mechanical properties :
#
#
# Convention : Reuss Voigt Hill
#
# Bulk Modulus (GPa) = 40.11827 74.33914 57.22871
# Shear Modulus (GPa) = 28.41363 41.52780 34.97071
#
# Velocity S-wave (km/s) = 3.39742 4.10730 3.76911
# Velocity P-wave (km/s) = 5.62914 7.25893 6.49536
#
# Compressibility (1/GPa) = 0.02492630
#
# Stress axis : x y z
#
# Youngs Moduli (GPa) = 34.20535 123.43212 115.43821
#
# Poissons Ratio (x) = 0.83115 0.36619
# Poissons Ratio (y) = 0.23033 0.07281
# Poissons Ratio (z) = 0.10850 0.07785
#
# Static dielectric constant tensor:
#      x y z
#    x 2.036450 0.001550 0.046180 
#    y 0.001550 2.085370 -0.027650 
#    z 0.046180 -0.027650 1.990020 
# 
# From -- ./inp_files/107251.got.cif
#   From: 2010.05.17/outbox.cif.g08.bks.cpg/sg2_54_cif.got.tgz:107251.got - 2010.06.03 11:33:40.
