data_PCOD9030872
_publ_section_title
;
Structure prediction by ZEFSAII (Michael W. Deem and Ramdas Pophale) SiO2 
 PCOD9030872
Probable space group: P -1
;
_chemical_formula_sum "Si O2"
_cell_formula_units_Z 14
_cell_length_a 7.418566
_cell_length_b 15.812088
_cell_length_c 11.372582
_cell_angle_alpha 141.227157
_cell_angle_beta 62.127518
_cell_angle_gamma 135.395048
_cell_volume 574.895781
_symmetry_space_group_name_H-M "P -1"
_symmetry_group_IT_number 2
_symmetry_cell_setting 'triclinic'
loop_
_space_group_symop_operation_xyz
x,y,z
-x,-y,-z
loop_
_atom_site_type_symbol
_atom_site_label
_atom_site_fract_x
_atom_site_fract_y
_atom_site_fract_z
Si Si1 0.435384 0.579597 0.840928
Si Si2 0.322661 0.258936 0.615317
Si Si3 0.259470 0.576045 0.143066
Si Si4 0.874723 0.433683 0.288348
Si Si5 0.805318 0.980835 0.132594
Si Si6 0.330147 0.793650 0.672857
Si Si7 0.812079 0.137957 0.536733
O O1 0.479848 0.438763 0.685654
O O2 0.321124 0.562752 0.729260
O O3 0.269437 0.531027 0.959117
O O4 0.645806 0.784952 0.012983
O O5 0.833248 0.307352 0.702321
O O6 0.412992 0.160328 0.417403
O O7 0.014916 0.162789 0.596902
O O8 0.456685 0.317077 0.765637
O O9 0.049600 0.421783 0.127735
O O10 0.718651 0.275182 0.254446
O O11 0.079881 0.617838 0.492479
O O12 0.664644 0.045000 0.176359
O O13 0.897587 0.095907 0.346864
O O14 0.000000 0.000000 0.000000
O O15 0.500000 0.000000 0.500000
#
# Coordination Sequence:
#
# PCOD9030872 Si02
#       7
#     2   2   2   2   2   2   2
#     4  12  25  43  73 109 145 194 247 310 363 433
#     4  11  25  45  79 105 147 196 250 298 372 444
#     4  11  23  46  72 108 148 187 254 298 367 439
#     4  10  22  42  78  96 149 193 245 301 363 441
#     4  12  28  47  70 108 156 189 252 312 369 436
#     4  10  24  49  70 108 148 199 246 298 377 451
#     4  12  25  51  74 107 151 203 241 305 379 447
#
# _framework density 24.352236999999999
#
# number of rings (size 3 to 8) (size 9 to 14) (size 15 to 20)
#    0.000    0.857    5.714    0.857    8.000    1.714 
#    0.000    0.000    0.000    0.000    0.000    0.000 
#    0.000    0.000    0.000    0.000    0.000    0.000 
#
# Total GULP energy -78207.865745 kJ/mol
# GULP energy per Si atom -5586.276125 kJ/mol
# Density = 2.429681 g / cm^3
# Si number density = 24.352237 Si / 1000 Ang^3
#
#
#
# Elastic Constant Matrix: (Units=GPa)
#
#
# Indices 1 2 3 4 5 6 
#
# 1 152.1403 21.1429 49.5265 -7.8207 6.5200 -0.5017
# 2 21.1429 80.5288 31.8900 -12.9044 5.8770 -11.1210
# 3 49.5265 31.8900 93.4822 -17.7853 -6.3619 0.9619
# 4 -7.8207 -12.9044 -17.7853 31.5957 -6.0432 7.6482
# 5 6.5200 5.8770 -6.3619 -6.0432 49.5964 -3.8469
# 6 -0.5017 -11.1210 0.9619 7.6482 -3.8469 28.0471
#
#
#
# Elastic Compliance Matrix: (Units=1/GPa)
#
#
# Indices 1 2 3 4 5 6 
#
# 1 0.008104 -0.000366 -0.004486 -0.001045 -0.001709 0.000204
# 2 -0.000366 0.015692 -0.004999 0.001793 -0.001796 0.005652
# 3 -0.004486 -0.004999 0.016612 0.007989 0.003955 -0.004268
# 4 -0.001045 0.001793 0.007989 0.039956 0.005059 -0.009783
# 5 -0.001709 -0.001796 0.003955 0.005059 0.021781 0.000729
# 6 0.000204 0.005652 -0.004268 -0.009783 0.000729 0.040813
#
#
# Mechanical properties :
#
#
# Convention : Reuss Voigt Hill
#
# Bulk Modulus (GPa) = 48.29086 59.03002 53.66044
# Shear Modulus (GPa) = 29.48768 36.75398 33.12083
#
# Velocity S-wave (km/s) = 3.48355 3.88914 3.69192
# Velocity P-wave (km/s) = 6.00444 6.66783 6.34481
#
# Compressibility (1/GPa) = 0.02070785
#
# Stress axis : x y z
#
# Youngs Moduli (GPa) = 123.39201 63.72527 60.19727
#
# Poissons Ratio (x) = 0.02331 0.27005
# Poissons Ratio (y) = 0.04514 0.30090
# Poissons Ratio (z) = 0.55354 0.31854
#
# Static dielectric constant tensor:
#      x y z
#    x 2.007250 0.126750 0.018190 
#    y 0.126750 1.652640 -0.032170 
#    z 0.018190 -0.032170 1.918170 
# 
# From -- ./inp_files/368040.got.cif
#   From: 2010.05.17/outbox.cif.g08.bks.cpg/sg2_185_cif.got.tgz:368040.got - 2010.06.03 11:33:40.
