data_PCOD9030638
_publ_section_title
;
Structure prediction by ZEFSAII (Michael W. Deem and Ramdas Pophale) SiO2 
 PCOD9030638
Probable space group: P -1
;
_chemical_formula_sum "Si O2"
_cell_formula_units_Z 16
_cell_length_a 12.069797
_cell_length_b 8.935715
_cell_length_c 7.219748
_cell_angle_alpha 107.956591
_cell_angle_beta 72.051639
_cell_angle_gamma 119.217511
_cell_volume 634.730909
_symmetry_space_group_name_H-M "P -1"
_symmetry_group_IT_number 2
_symmetry_cell_setting 'triclinic'
loop_
_space_group_symop_operation_xyz
x,y,z
-x,-y,-z
loop_
_atom_site_type_symbol
_atom_site_label
_atom_site_fract_x
_atom_site_fract_y
_atom_site_fract_z
Si Si1 0.757349 0.906024 0.732691
Si Si2 0.175899 0.724150 0.101982
Si Si3 0.466269 0.474235 0.289110
Si Si4 0.742191 0.680935 0.130181
Si Si5 0.957940 0.840662 0.815034
Si Si6 0.758483 0.035856 0.365285
Si Si7 0.293226 0.667522 0.393015
Si Si8 0.879429 0.560296 0.294652
O O1 0.637838 0.722652 0.768064
O O2 0.887860 0.885018 0.698466
O O3 0.767057 0.073658 0.907050
O O4 0.747361 0.963181 0.551814
O O5 0.258057 0.697860 0.215544
O O6 0.032082 0.669174 0.236784
O O7 0.161643 0.602137 0.888446
O O8 0.500000 0.500000 0.500000
O O9 0.600620 0.526618 0.134918
O O10 0.406668 0.608561 0.324516
O O11 0.805873 0.667486 0.287430
O O12 0.727693 0.861337 0.197728
O O13 0.845562 0.686237 0.926354
O O14 0.089900 0.832588 0.694690
O O15 0.000000 0.000000 0.000000
O O16 0.680534 0.152390 0.443270
O O17 0.173701 0.514746 0.505684
#
# Coordination Sequence:
#
# PCOD9030638 Si02
#       8
#     2   2   2   2   2   2   2   2
#     4  11  23  44  71 100 144 190 232 291 350 433
#     4  10  25  43  68 114 140 178 238 298 374 425
#     4  12  25  49  71  95 144 199 245 281 346 430
#     4  11  24  45  69 102 138 195 232 284 355 424
#     4  10  23  39  70 104 138 173 229 294 361 420
#     4  10  22  42  72 107 135 175 236 293 366 416
#     4  11  25  43  71 106 140 188 235 298 355 422
#     4  11  23  43  73 100 153 180 229 305 365 425
#
# _framework density 25.207530999999999
#
# number of rings (size 3 to 8) (size 9 to 14) (size 15 to 20)
#    0.000    1.250    2.500    2.250    8.750    4.000 
#    0.000    0.625    0.000    0.000    0.000    0.000 
#    0.000    0.000    0.000    0.000    0.000    0.000 
#
# Total GULP energy -89707.597054 kJ/mol
# GULP energy per Si atom -5606.724816 kJ/mol
# Density = 2.515016 g / cm^3
# Si number density = 25.207531 Si / 1000 Ang^3
#
#
#
# Elastic Constant Matrix: (Units=GPa)
#
#
# Indices 1 2 3 4 5 6 
#
# 1 132.2882 50.1126 22.2048 -6.0690 0.4838 -8.1923
# 2 50.1126 122.6983 38.4107 11.4399 -10.9814 -11.6861
# 3 22.2048 38.4107 81.5911 0.1908 0.5088 0.3018
# 4 -6.0690 11.4399 0.1908 50.6190 -1.5301 -2.8055
# 5 0.4838 -10.9814 0.5088 -1.5301 41.1374 -9.1452
# 6 -8.1923 -11.6861 0.3018 -2.8055 -9.1452 47.8536
#
#
#
# Elastic Compliance Matrix: (Units=1/GPa)
#
#
# Indices 1 2 3 4 5 6 
#
# 1 0.009234 -0.003739 -0.000754 0.001962 -0.000887 0.000618
# 2 -0.003739 0.012028 -0.004673 -0.002872 0.003849 0.002894
# 3 -0.000754 -0.004673 0.014677 0.000765 -0.001759 -0.001654
# 4 0.001962 -0.002872 0.000765 0.020690 0.000165 0.000874
# 5 -0.000887 0.003849 -0.001759 0.000165 0.026688 0.005909
# 6 0.000618 0.002894 -0.001654 0.000874 0.005909 0.022901
#
#
# Mechanical properties :
#
#
# Convention : Reuss Voigt Hill
#
# Bulk Modulus (GPa) = 56.79665 62.00377 59.40021
# Shear Modulus (GPa) = 38.33848 42.97862 40.65855
#
# Velocity S-wave (km/s) = 3.90412 4.13363 4.02052
# Velocity P-wave (km/s) = 6.55007 6.88718 6.72074
#
# Compressibility (1/GPa) = 0.01760667
#
# Stress axis : x y z
#
# Youngs Moduli (GPa) = 108.29998 83.14140 68.13541
#
# Poissons Ratio (x) = 0.31083 0.05139
# Poissons Ratio (y) = 0.40488 0.31839
# Poissons Ratio (z) = 0.08169 0.38851
#
# Static dielectric constant tensor:
#      x y z
#    x 1.929010 -0.012100 0.015470 
#    y -0.012100 2.035070 0.046740 
#    z 0.015470 0.046740 2.051270 
# 
# From -- ./inp_files/239698.got.cif
#   From: 2010.05.17/outbox.cif.g08.bks.cpg/sg2_120_cif.got.tgz:239698.got - 2010.06.03 11:33:40.
