data_PCOD9030662
_publ_section_title
;
Structure prediction by ZEFSAII (Michael W. Deem and Ramdas Pophale) SiO2 
 PCOD9030662
Probable space group: P -1
;
_chemical_formula_sum "Si O2"
_cell_formula_units_Z 13
_cell_length_a 9.687639
_cell_length_b 11.063285
_cell_length_c 8.503066
_cell_angle_alpha 99.142522
_cell_angle_beta 106.997044
_cell_angle_gamma 135.868662
_cell_volume 505.332799
_symmetry_space_group_name_H-M "P -1"
_symmetry_group_IT_number 2
_symmetry_cell_setting 'triclinic'
loop_
_space_group_symop_operation_xyz
x,y,z
-x,-y,-z
loop_
_atom_site_type_symbol
_atom_site_label
_atom_site_fract_x
_atom_site_fract_y
_atom_site_fract_z
Si Si1 0.167273 0.484217 0.247712
Si Si2 0.851410 0.021905 0.790645
Si Si3 0.396527 0.458585 0.128566
Si Si4 0.367262 0.918056 0.106694
Si Si5 0.808516 0.113807 0.466216
Si Si6 0.000000 0.500000 0.500000
Si Si7 0.179521 0.258240 0.425951
O O1 0.346279 0.567763 0.181198
O O2 0.175459 0.584866 0.414537
O O3 0.165624 0.351691 0.308517
O O4 0.900467 0.322354 0.049590
O O5 0.674784 0.967598 0.844699
O O6 0.845992 0.110918 0.659070
O O7 0.769950 0.837142 0.656897
O O8 0.129953 0.209119 0.984435
O O9 0.606632 0.563873 0.342596
O O10 0.500000 0.500000 0.000000
O O11 0.534472 0.963898 0.297396
O O12 0.500000 0.000000 0.000000
O O13 0.970232 0.337524 0.501893
O O14 0.920626 0.078468 0.395627
#
# Coordination Sequence:
#
# PCOD9030662 Si02
#       7
#     2   2   2   2   2   1   2
#     4  10  24  46  68 103 134 179 238 274 346 412
#     4  11  26  46  69 102 141 177 229 285 344 404
#     4  11  24  43  67 105 138 177 228 279 346 405
#     4  11  22  45  69  97 136 179 232 275 338 414
#     4  11  23  46  67 102 134 179 227 280 347 408
#     4  10  22  42  72  92 138 178 226 280 334 406
#     4  11  23  46  72  98 138 182 224 286 341 405
#
# _framework density 25.725622000000001
#
# number of rings (size 3 to 8) (size 9 to 14) (size 15 to 20)
#    0.000    1.231    4.615    1.385    2.154    2.462 
#   13.846    1.538    0.000    0.000    0.000    0.000 
#    0.000    0.000    0.000    0.000    0.000    0.000 
#
# Total GULP energy -72485.677772 kJ/mol
# GULP energy per Si atom -5575.821367 kJ/mol
# Density = 2.566707 g / cm^3
# Si number density = 25.725622 Si / 1000 Ang^3
#
#
#
# Elastic Constant Matrix: (Units=GPa)
#
#
# Indices 1 2 3 4 5 6 
#
# 1 178.4176 37.1118 51.5689 -2.6527 -36.3986 36.1271
# 2 37.1118 61.5533 35.6748 -6.2269 -4.8063 -0.0993
# 3 51.5689 35.6748 165.9886 0.0546 13.0593 10.1036
# 4 -2.6527 -6.2269 0.0546 25.4088 14.0891 -2.5909
# 5 -36.3986 -4.8063 13.0593 14.0891 72.8167 -6.2120
# 6 36.1271 -0.0993 10.1036 -2.5909 -6.2120 47.9338
#
#
#
# Elastic Compliance Matrix: (Units=1/GPa)
#
#
# Indices 1 2 3 4 5 6 
#
# 1 0.009263 -0.004448 -0.001926 -0.003418 0.004819 -0.006145
# 2 -0.004448 0.021421 -0.003411 0.005755 -0.000944 0.004305
# 3 -0.001926 -0.003411 0.007595 0.000374 -0.002663 -0.000481
# 4 -0.003418 0.005755 0.000374 0.046360 -0.010049 0.003712
# 5 0.004819 -0.000944 -0.002663 -0.010049 0.018397 -0.001232
# 6 -0.006145 0.004305 -0.000481 0.003712 -0.001232 0.025645
#
#
# Mechanical properties :
#
#
# Convention : Reuss Voigt Hill
#
# Bulk Modulus (GPa) = 53.45423 72.74117 63.09770
# Shear Modulus (GPa) = 32.36509 48.00549 40.18529
#
# Velocity S-wave (km/s) = 3.55080 4.32448 3.95659
# Velocity P-wave (km/s) = 6.13471 7.29876 6.74190
#
# Compressibility (1/GPa) = 0.01870759
#
# Stress axis : x y z
#
# Youngs Moduli (GPa) = 107.95165 46.68396 131.66963
#
# Poissons Ratio (x) = 0.20766 0.25358
# Poissons Ratio (y) = 0.48020 0.44919
# Poissons Ratio (z) = 0.20790 0.15926
#
# Static dielectric constant tensor:
#      x y z
#    x 2.114020 0.079760 -0.032070 
#    y 0.079760 2.095480 0.024250 
#    z -0.032070 0.024250 2.038890 
# 
# From -- ./inp_files/181719.got.cif
#   From: 2010.05.17/outbox.cif.g08.bks.cpg/sg2_91_cif.got.tgz:181719.got - 2010.06.03 11:33:40.
