data_PCOD9030719
_publ_section_title
;
Structure prediction by ZEFSAII (Michael W. Deem and Ramdas Pophale) SiO2 
 PCOD9030719
Probable space group: P -1
;
_chemical_formula_sum "Si O2"
_cell_formula_units_Z 15
_cell_length_a 11.916586
_cell_length_b 13.166426
_cell_length_c 7.039291
_cell_angle_alpha 135.566325
_cell_angle_beta 123.546700
_cell_angle_gamma 51.885883
_cell_volume 595.668945
_symmetry_space_group_name_H-M "P -1"
_symmetry_group_IT_number 2
_symmetry_cell_setting 'triclinic'
loop_
_space_group_symop_operation_xyz
x,y,z
-x,-y,-z
loop_
_atom_site_type_symbol
_atom_site_label
_atom_site_fract_x
_atom_site_fract_y
_atom_site_fract_z
Si Si1 0.405908 0.310916 0.442845
Si Si2 0.411261 0.128775 0.874868
Si Si3 0.854436 0.625468 0.447851
Si Si4 0.089104 0.220781 0.648461
Si Si5 0.500000 0.500000 0.500000
Si Si6 0.806897 0.367151 0.824571
Si Si7 0.110198 0.901189 0.136299
Si Si8 0.577040 0.180921 0.761144
O O1 0.262997 0.304001 0.403388
O O2 0.394881 0.450637 0.480349
O O3 0.503686 0.313105 0.716320
O O4 0.474925 0.153404 0.168839
O O5 0.239153 0.225102 0.873918
O O6 0.488764 0.208596 0.908863
O O7 0.421813 0.975869 0.557443
O O8 0.896457 0.744694 0.515734
O O9 0.000000 0.500000 0.500000
O O10 0.788891 0.530762 0.122523
O O11 0.937588 0.329910 0.743111
O O12 0.104882 0.043387 0.457867
O O13 0.651608 0.385830 0.614123
O O14 0.875355 0.237798 0.886801
O O15 0.261175 0.836255 0.076173
O O16 0.000000 0.000000 0.000000
#
# Coordination Sequence:
#
# PCOD9030719 Si02
#       8
#     2   2   2   2   1   2   2   2
#     4  12  24  44  69 104 142 193 238 296 368 434
#     4  10  22  42  73 103 138 182 238 309 363 427
#     4  12  25  44  73 105 145 192 247 307 368 434
#     4  11  23  46  72 106 141 187 251 304 361 427
#     4  12  28  44  70 104 148 202 240 288 372 450
#     4  12  26  48  71 108 151 195 244 304 366 450
#     4  11  25  47  73 104 145 193 240 305 370 437
#     4  10  22  45  69 105 142 179 242 299 366 436
#
# _framework density 25.181774000000001
#
# number of rings (size 3 to 8) (size 9 to 14) (size 15 to 20)
#    0.000    0.800    2.667    4.400    0.000    2.667 
#    4.800    0.000    0.000    0.000    0.000    0.000 
#    0.000    0.000    0.000    0.000    0.000    0.000 
#
# Total GULP energy -83501.070525 kJ/mol
# GULP energy per Si atom -5566.738035 kJ/mol
# Density = 2.512446 g / cm^3
# Si number density = 25.181774 Si / 1000 Ang^3
#
#
#
# Elastic Constant Matrix: (Units=GPa)
#
#
# Indices 1 2 3 4 5 6 
#
# 1 167.4822 45.7572 46.8698 -18.6718 -29.9855 6.1544
# 2 45.7572 88.9278 21.0594 -9.2414 -3.2484 16.7549
# 3 46.8698 21.0594 75.4104 -5.2338 -25.0792 -1.8468
# 4 -18.6718 -9.2414 -5.2338 37.2711 -6.6808 10.0843
# 5 -29.9855 -3.2484 -25.0792 -6.6808 40.6438 -10.2744
# 6 6.1544 16.7549 -1.8468 10.0843 -10.2744 50.9267
#
#
#
# Elastic Compliance Matrix: (Units=1/GPa)
#
#
# Indices 1 2 3 4 5 6 
#
# 1 0.009107 -0.003488 -0.002497 0.004295 0.005669 0.000250
# 2 -0.003488 0.015111 -0.003629 0.002284 -0.004771 -0.006096
# 3 -0.002497 -0.003629 0.019837 0.001543 0.011427 0.004215
# 4 0.004295 0.002284 0.001543 0.032874 0.008171 -0.006076
# 5 0.005669 -0.004771 0.011427 0.008171 0.038692 0.007487
# 6 0.000250 -0.006096 0.004215 -0.006076 0.007487 0.024478
#
#
# Mechanical properties :
#
#
# Convention : Reuss Voigt Hill
#
# Bulk Modulus (GPa) = 40.28006 62.13259 51.20633
# Shear Modulus (GPa) = 29.83238 40.31059 35.07149
#
# Velocity S-wave (km/s) = 3.44565 4.00532 3.73598
# Velocity P-wave (km/s) = 5.64451 6.79097 6.24411
#
# Compressibility (1/GPa) = 0.02482618
#
# Stress axis : x y z
#
# Youngs Moduli (GPa) = 109.80402 66.17616 50.41134
#
# Poissons Ratio (x) = 0.23084 0.12586
# Poissons Ratio (y) = 0.38303 0.18296
# Poissons Ratio (z) = 0.27415 0.24018
#
# Static dielectric constant tensor:
#      x y z
#    x 2.017250 -0.095990 0.035360 
#    y -0.095990 2.381600 0.167940 
#    z 0.035360 0.167940 2.174050 
# 
# From -- ./inp_files/72428.got.cif
#   From: 2010.05.17/outbox.cif.g08.bks.cpg/sg2_37_cif.got.tgz:72428.got - 2010.06.03 11:33:40.
