data_PCOD9030792
_publ_section_title
;
Structure prediction by ZEFSAII (Michael W. Deem and Ramdas Pophale) SiO2 
 PCOD9030792
Probable space group: P -1
;
_chemical_formula_sum "Si O2"
_cell_formula_units_Z 15
_cell_length_a 11.521974
_cell_length_b 5.094127
_cell_length_c 12.837692
_cell_angle_alpha 68.142337
_cell_angle_beta 112.380360
_cell_angle_gamma 114.581528
_cell_volume 612.753616
_symmetry_space_group_name_H-M "P -1"
_symmetry_group_IT_number 2
_symmetry_cell_setting 'triclinic'
loop_
_space_group_symop_operation_xyz
x,y,z
-x,-y,-z
loop_
_atom_site_type_symbol
_atom_site_label
_atom_site_fract_x
_atom_site_fract_y
_atom_site_fract_z
Si Si1 0.760881 0.282346 0.337110
Si Si2 0.137190 0.362257 0.870467
Si Si3 0.511900 0.086079 0.158337
Si Si4 0.015066 0.293625 0.128596
Si Si5 0.649605 0.208207 0.533488
Si Si6 0.000000 0.000000 0.500000
Si Si7 0.215666 0.280456 0.351911
Si Si8 0.627641 0.462631 0.930872
O O1 0.793581 0.565926 0.229157
O O2 0.633512 0.048967 0.271569
O O3 0.712809 0.349665 0.423853
O O4 0.888390 0.175753 0.411778
O O5 0.089303 0.644699 0.835635
O O6 0.230910 0.350384 0.001142
O O7 0.024460 0.048917 0.866958
O O8 0.448505 0.308805 0.160423
O O9 0.401192 0.784329 0.131477
O O10 0.567626 0.265035 0.043527
O O11 0.156378 0.393666 0.215611
O O12 0.000000 0.500000 0.000000
O O13 0.671147 0.464593 0.588046
O O14 0.500000 0.000000 0.500000
O O15 0.734617 0.992028 0.622768
O O16 0.093684 0.164939 0.408712
#
# Coordination Sequence:
#
# PCOD9030792 Si02
#       8
#     2   2   2   2   2   1   2   2
#     4  10  23  41  74 107 147 187 239 304 360 429
#     4  11  23  42  72 104 141 187 237 299 364 427
#     4   9  18  34  56  91 133 175 220 269 339 404
#     4  12  26  47  70 106 144 184 241 298 372 434
#     4  11  26  48  71 105 147 190 243 293 362 433
#     4  10  22  42  74 108 142 176 244 302 360 410
#     4  11  25  46  76 105 141 189 241 301 365 430
#     4   9  18  35  57  89 131 175 220 275 331 415
#
# _framework density 24.479661
#
# number of rings (size 3 to 8) (size 9 to 14) (size 15 to 20)
#    0.000    1.600    1.333    2.400    1.867    6.400 
#    7.200    0.000    0.000    0.000    0.000    0.000 
#    0.000    0.000    0.000    0.000    0.000    0.000 
#
# Total GULP energy -83655.405380 kJ/mol
# GULP energy per Si atom -5577.027025 kJ/mol
# Density = 2.442394 g / cm^3
# Si number density = 24.479661 Si / 1000 Ang^3
#
#
#
# Elastic Constant Matrix: (Units=GPa)
#
#
# Indices 1 2 3 4 5 6 
#
# 1 46.6538 9.6209 5.6581 -5.8186 10.5313 9.2790
# 2 9.6209 89.0074 29.4426 14.5295 -3.0469 -4.6385
# 3 5.6581 29.4426 116.0199 5.4189 3.2405 8.8211
# 4 -5.8186 14.5295 5.4189 17.7485 4.4034 0.7699
# 5 10.5313 -3.0469 3.2405 4.4034 36.7871 -0.7237
# 6 9.2790 -4.6385 8.8211 0.7699 -0.7237 33.9434
#
#
#
# Elastic Compliance Matrix: (Units=1/GPa)
#
#
# Indices 1 2 3 4 5 6 
#
# 1 0.029930 -0.007490 0.000641 0.019094 -0.011728 -0.010055
# 2 -0.007490 0.016448 -0.003639 -0.016526 0.005918 0.005742
# 3 0.000641 -0.003639 0.009767 0.000719 -0.001496 -0.003259
# 4 0.019094 -0.016526 0.000719 0.080489 -0.016726 -0.009847
# 5 -0.011728 0.005918 -0.001496 -0.016726 0.033273 0.005492
# 6 -0.010055 0.005742 -0.003259 -0.009847 0.005492 0.034182
#
#
# Mechanical properties :
#
#
# Convention : Reuss Voigt Hill
#
# Bulk Modulus (GPa) = 28.43251 37.90269 33.16760
# Shear Modulus (GPa) = 21.11610 31.49310 26.30460
#
# Velocity S-wave (km/s) = 2.94019 3.59067 3.28159
# Velocity P-wave (km/s) = 4.81313 5.71905 5.28554
#
# Compressibility (1/GPa) = 0.03517100
#
# Stress axis : x y z
#
# Youngs Moduli (GPa) = 33.41147 60.79844 102.38246
#
# Poissons Ratio (x) = 0.45536 -0.06566
# Poissons Ratio (y) = 0.25024 0.37254
# Poissons Ratio (z) = -0.02143 0.22123
#
# Static dielectric constant tensor:
#      x y z
#    x 2.093000 0.076400 -0.063220 
#    y 0.076400 1.954120 0.012370 
#    z -0.063220 0.012370 1.958340 
# 
# From -- ./inp_files/510198.got.cif
#   From: 2010.05.17/outbox.cif.g08.bks.cpg/sg2_256_cif.got.tgz:510198.got - 2010.06.03 11:33:40.
