data_PCOD9030123
_publ_section_title
;
Structure prediction by ZEFSAII (Michael W. Deem and Ramdas Pophale) SiO2 
 PCOD9030123
Probable space group: P -1
;
_chemical_formula_sum "Si O2"
_cell_formula_units_Z 16
_cell_length_a 13.769290
_cell_length_b 8.637670
_cell_length_c 8.269525
_cell_angle_alpha 116.386730
_cell_angle_beta 82.162011
_cell_angle_gamma 133.812847
_cell_volume 613.048032
_symmetry_space_group_name_H-M "P -1"
_symmetry_group_IT_number 2
_symmetry_cell_setting 'triclinic'
loop_
_space_group_symop_operation_xyz
x,y,z
-x,-y,-z
loop_
_atom_site_type_symbol
_atom_site_label
_atom_site_fract_x
_atom_site_fract_y
_atom_site_fract_z
Si Si1 0.129336 0.038189 0.426219
Si Si2 0.683874 0.484445 0.591983
Si Si3 0.770926 0.946509 0.258692
Si Si4 0.944762 0.586336 0.664667
Si Si5 0.073617 0.396817 0.955014
Si Si6 0.329510 0.501853 0.037379
Si Si7 0.520748 0.939348 0.760063
Si Si8 0.711557 0.142332 0.084424
O O1 0.254685 0.312430 0.461446
O O2 0.189633 0.991937 0.532944
O O3 0.933190 0.147249 0.795471
O O4 0.000000 0.000000 0.500000
O O5 0.800203 0.478625 0.579274
O O6 0.683902 0.569775 0.807150
O O7 0.530657 0.221691 0.461475
O O8 0.723153 0.038676 0.191069
O O9 0.650881 0.650322 0.134333
O O10 0.929182 0.115652 0.230521
O O11 0.000000 0.500000 0.500000
O O12 0.921634 0.521434 0.827880
O O13 0.144625 0.613538 0.910520
O O14 0.181870 0.375839 0.939101
O O15 0.416785 0.789594 0.153765
O O16 0.375595 0.796753 0.817719
O O17 0.621147 0.961536 0.868167
#
# Coordination Sequence:
#
# PCOD9030123 Si02
#       8
#     2   2   2   2   2   2   2   2
#     4  12  22  38  69  98 139 180 222 274 337 412
#     4  11  22  42  69  98 132 177 231 273 342 407
#     4  12  25  41  65 102 138 171 230 277 341 392
#     4  11  24  42  69 102 138 174 221 286 339 409
#     4  10  22  44  68  99 138 182 222 269 347 409
#     4  10  22  42  69  98 130 180 225 284 329 405
#     4  10  22  44  72  92 130 182 232 273 341 404
#     4  10  24  42  68  97 133 178 228 279 334 400
#
# _framework density 26.099095999999999
#
# number of rings (size 3 to 8) (size 9 to 14) (size 15 to 20)
#    0.000    1.250    2.500    2.625    5.250    3.000 
#    2.250    0.625    0.000    0.000    0.000    0.000 
#    0.000    0.000    0.000    0.000    0.000    0.000 
#
# Total GULP energy -89454.446945 kJ/mol
# GULP energy per Si atom -5590.902934 kJ/mol
# Density = 2.603969 g / cm^3
# Si number density = 26.099096 Si / 1000 Ang^3
#
#
#
# Elastic Constant Matrix: (Units=GPa)
#
#
# Indices 1 2 3 4 5 6 
#
# 1 64.1194 25.4509 36.0783 1.6533 34.1377 -11.7311
# 2 25.4509 133.1002 57.6380 2.4245 18.1789 -24.5856
# 3 36.0783 57.6380 132.3645 11.9744 32.7670 -21.0252
# 4 1.6533 2.4245 11.9744 53.5907 1.7421 10.4399
# 5 34.1377 18.1789 32.7670 1.7421 52.4902 -5.4413
# 6 -11.7311 -24.5856 -21.0252 10.4399 -5.4413 29.5540
#
#
#
# Elastic Compliance Matrix: (Units=1/GPa)
#
#
# Indices 1 2 3 4 5 6 
#
# 1 0.026022 -0.001031 -0.002027 -0.000927 -0.014685 0.005653
# 2 -0.001031 0.010229 -0.003019 -0.000961 -0.000309 0.006235
# 3 -0.002027 -0.003019 0.011613 -0.003297 -0.004223 0.005332
# 4 -0.000927 -0.000961 -0.003297 0.021558 0.001147 -0.010917
# 5 -0.014685 -0.000309 -0.004223 0.001147 0.030913 -0.003804
# 6 0.005653 0.006235 0.005332 -0.010917 -0.003804 0.048217
#
#
# Mechanical properties :
#
#
# Convention : Reuss Voigt Hill
#
# Bulk Modulus (GPa) = 28.00399 63.10208 45.55304
# Shear Modulus (GPa) = 28.96707 41.15475 35.06091
#
# Velocity S-wave (km/s) = 3.33511 3.97528 3.66919
# Velocity P-wave (km/s) = 5.05804 6.73059 5.95335
#
# Compressibility (1/GPa) = 0.03570919
#
# Stress axis : x y z
#
# Youngs Moduli (GPa) = 38.42896 97.75894 86.11094
#
# Poissons Ratio (x) = 0.10084 0.17451
# Poissons Ratio (y) = 0.03964 0.26001
# Poissons Ratio (z) = 0.07788 0.29518
#
# Static dielectric constant tensor:
#      x y z
#    x 2.106280 -0.014970 -0.043620 
#    y -0.014970 2.099100 0.031760 
#    z -0.043620 0.031760 2.097020 
# 
# From -- ./inp_files/293008.got.cif
#   From: 2010.05.17/outbox.cif.g08.bks.cpg/sg2_147_cif.got.tgz:293008.got - 2010.06.03 11:33:40.
