data_PCOD9030420
_publ_section_title
;
Structure prediction by ZEFSAII (Michael W. Deem and Ramdas Pophale) SiO2 
 PCOD9030420
Probable space group: P -1
;
_chemical_formula_sum "Si O2"
_cell_formula_units_Z 16
_cell_length_a 9.544731
_cell_length_b 21.224060
_cell_length_c 8.412541
_cell_angle_alpha 58.843126
_cell_angle_beta 116.995071
_cell_angle_gamma 151.416977
_cell_volume 697.730920
_symmetry_space_group_name_H-M "P -1"
_symmetry_group_IT_number 2
_symmetry_cell_setting 'triclinic'
loop_
_space_group_symop_operation_xyz
x,y,z
-x,-y,-z
loop_
_atom_site_type_symbol
_atom_site_label
_atom_site_fract_x
_atom_site_fract_y
_atom_site_fract_z
Si Si1 0.295725 0.756069 0.526989
Si Si2 0.114952 0.968318 0.656134
Si Si3 0.786484 0.701966 0.779370
Si Si4 0.372462 0.883949 0.699408
Si Si5 0.362858 0.507727 0.533554
Si Si6 0.765837 0.953688 0.037209
Si Si7 0.319467 0.651064 0.166193
Si Si8 0.636797 0.377272 0.137980
O O1 0.544295 0.900490 0.379568
O O2 0.281050 0.783483 0.660978
O O3 0.386808 0.706320 0.657245
O O4 0.983250 0.641623 0.433604
O O5 0.095772 0.957138 0.850260
O O6 0.000000 0.000000 0.500000
O O7 0.926712 0.836420 0.633174
O O8 0.549695 0.579065 0.695833
O O9 0.593647 0.649653 0.901519
O O10 0.091341 0.779315 0.810444
O O11 0.500000 0.000000 0.500000
O O12 0.637081 0.964217 0.842163
O O13 0.500000 0.500000 0.500000
O O14 0.377811 0.597254 0.357069
O O15 0.508173 0.792431 0.149413
O O16 0.000000 0.000000 0.000000
O O17 0.973681 0.533760 0.137729
O O18 0.397639 0.663415 0.007180
#
# Coordination Sequence:
#
# PCOD9030420 Si02
#       8
#     2   2   2   2   2   2   2   2
#     4  11  22  44  70  98 141 187 238 288 358 432
#     4  12  24  43  72 106 142 185 244 298 353 423
#     4  12  25  43  68 105 145 181 236 296 367 414
#     4  12  26  47  72 107 148 187 233 308 364 424
#     4  11  25  43  69 103 140 192 235 291 365 427
#     4  12  27  45  75 104 142 196 248 287 362 440
#     4  10  23  43  69  98 139 187 247 286 353 428
#     4  10  22  42  70  98 139 184 235 295 349 423
#
# _framework density 22.931477999999998
#
# number of rings (size 3 to 8) (size 9 to 14) (size 15 to 20)
#    0.000    0.750    5.000    2.250    3.500    1.500 
#    2.250    1.250    0.000    0.000    0.000    0.000 
#    0.000    0.000    0.000    0.000    0.000    0.000 
#
# Total GULP energy -89372.321796 kJ/mol
# GULP energy per Si atom -5585.770112 kJ/mol
# Density = 2.287928 g / cm^3
# Si number density = 22.931478 Si / 1000 Ang^3
#
#
#
# Elastic Constant Matrix: (Units=GPa)
#
#
# Indices 1 2 3 4 5 6 
#
# 1 111.5647 19.9003 16.4366 5.7081 -9.2665 22.4938
# 2 19.9003 90.1237 -1.0695 1.4961 -0.2941 6.7400
# 3 16.4366 -1.0695 39.6593 8.9632 17.7813 15.1832
# 4 5.7081 1.4961 8.9632 34.0506 3.0761 -0.3160
# 5 -9.2665 -0.2941 17.7813 3.0761 26.8154 -2.1248
# 6 22.4938 6.7400 15.1832 -0.3160 -2.1248 50.7836
#
#
#
# Elastic Compliance Matrix: (Units=1/GPa)
#
#
# Indices 1 2 3 4 5 6 
#
# 1 0.011874 -0.002529 -0.008351 -0.000560 0.009516 -0.002032
# 2 -0.002529 0.011824 0.003602 -0.000772 -0.003176 -0.001664
# 3 -0.008351 0.003602 0.053794 -0.009569 -0.038571 -0.014536
# 4 -0.000560 -0.000772 -0.009569 0.031797 0.002775 0.003525
# 5 0.009516 -0.003176 -0.038571 0.002775 0.066639 0.010544
# 6 -0.002032 -0.001664 -0.014536 0.003525 0.010544 0.025621
#
#
# Mechanical properties :
#
#
# Convention : Reuss Voigt Hill
#
# Bulk Modulus (GPa) = 15.88906 34.65363 25.27135
# Shear Modulus (GPa) = 21.08970 36.06860 28.57915
#
# Velocity S-wave (km/s) = 3.03592 3.97027 3.53411
# Velocity P-wave (km/s) = 4.38555 6.01348 5.26284
#
# Compressibility (1/GPa) = 0.06293638
#
# Stress axis : x y z
#
# Youngs Moduli (GPa) = 84.22049 84.57483 18.58945
#
# Poissons Ratio (x) = 0.21386 0.15525
# Poissons Ratio (y) = 0.21296 -0.06697
# Poissons Ratio (z) = 0.70335 -0.30468
#
# Static dielectric constant tensor:
#      x y z
#    x 1.901740 0.036160 -0.006440 
#    y 0.036160 1.869300 -0.057450 
#    z -0.006440 -0.057450 1.852500 
# 
# From -- ./inp_files/223494.got.cif
#   From: 2010.05.17/outbox.cif.g08.bks.cpg/sg2_112_cif.got.tgz:223494.got - 2010.06.03 11:33:40.
