data_PCOD9030919
_publ_section_title
;
Structure prediction by ZEFSAII (Michael W. Deem and Ramdas Pophale) SiO2 
 PCOD9030919
Probable space group: P -1
;
_chemical_formula_sum "Si O2"
_cell_formula_units_Z 16
_cell_length_a 11.414696
_cell_length_b 11.353061
_cell_length_c 12.398274
_cell_angle_alpha 46.551974
_cell_angle_beta 115.670368
_cell_angle_gamma 79.971552
_cell_volume 728.075745
_symmetry_space_group_name_H-M "P -1"
_symmetry_group_IT_number 2
_symmetry_cell_setting 'triclinic'
loop_
_space_group_symop_operation_xyz
x,y,z
-x,-y,-z
loop_
_atom_site_type_symbol
_atom_site_label
_atom_site_fract_x
_atom_site_fract_y
_atom_site_fract_z
Si Si1 0.510512 0.361119 0.187554
Si Si2 0.014713 0.155232 0.127084
Si Si3 0.705154 0.605000 0.606045
Si Si4 0.816953 0.808799 0.642690
Si Si5 0.798830 0.541462 0.100186
Si Si6 0.777271 0.323432 0.432002
Si Si7 0.279637 0.019498 0.136749
Si Si8 0.953473 0.391417 0.628513
O O1 0.586194 0.390536 0.302663
O O2 0.671059 0.086142 0.398422
O O3 0.500000 0.500000 0.000000
O O4 0.318984 0.433972 0.059484
O O5 0.082938 0.249144 0.165673
O O6 0.164235 0.014740 0.177904
O O7 0.052898 0.960078 0.334118
O O8 0.814204 0.361239 0.862884
O O9 0.706932 0.745046 0.608999
O O10 0.839009 0.533339 0.603268
O O11 0.494718 0.772603 0.374839
O O12 0.986406 0.661825 0.719215
O O13 0.772740 0.455808 0.249783
O O14 0.731951 0.783242 0.948813
O O15 0.823951 0.381229 0.520193
O O16 0.153656 0.136449 0.905210
O O17 0.000000 0.500000 0.500000
#
# Coordination Sequence:
#
# PCOD9030919 Si02
#       8
#     2   2   2   2   2   2   2   2
#     4   9  21  36  59  92 129 158 195 264 313 365
#     4  10  24  40  60  94 130 165 204 260 316 372
#     4  11  23  39  64  95 125 166 212 256 308 372
#     4  11  20  38  65  94 125 166 211 254 318 371
#     4  11  20  40  66  94 127 160 211 262 311 371
#     4  10  22  43  62  90 131 168 201 262 316 364
#     4  11  23  40  64  95 123 166 211 258 307 367
#     4  11  22  44  67  92 125 164 214 258 308 372
#
# _framework density 21.975733999999999
#
# number of rings (size 3 to 8) (size 9 to 14) (size 15 to 20)
#    0.000    1.500    5.000    0.375    0.000    9.500 
#    0.000    7.500    0.000    0.000    0.000    0.000 
#    0.000    0.000    0.000    0.000    0.000    0.000 
#
# Total GULP energy -89309.234982 kJ/mol
# GULP energy per Si atom -5581.827186 kJ/mol
# Density = 2.192572 g / cm^3
# Si number density = 21.975734 Si / 1000 Ang^3
#
#
#
# Elastic Constant Matrix: (Units=GPa)
#
#
# Indices 1 2 3 4 5 6 
#
# 1 36.8205 14.1162 36.2248 -4.7463 7.5130 6.7220
# 2 14.1162 67.1700 25.9932 23.5027 4.1217 15.5297
# 3 36.2248 25.9932 153.3753 8.1975 19.2532 2.0816
# 4 -4.7463 23.5027 8.1975 43.6697 6.5433 7.5776
# 5 7.5130 4.1217 19.2532 6.5433 41.7049 1.3068
# 6 6.7220 15.5297 2.0816 7.5776 1.3068 28.3242
#
#
#
# Elastic Compliance Matrix: (Units=1/GPa)
#
#
# Indices 1 2 3 4 5 6 
#
# 1 0.042930 -0.007823 -0.008797 0.012684 -0.004625 -0.008433
# 2 -0.007823 0.022897 -0.001542 -0.011876 0.001956 -0.007497
# 3 -0.008797 -0.001542 0.009215 -0.002016 -0.002292 0.002901
# 4 0.012684 -0.011876 -0.002016 0.032661 -0.005153 -0.004851
# 5 -0.004625 0.001956 -0.002292 -0.005153 0.026473 0.000351
# 6 -0.008433 -0.007497 0.002901 -0.004851 0.000351 0.042486
#
#
# Mechanical properties :
#
#
# Convention : Reuss Voigt Hill
#
# Bulk Modulus (GPa) = 25.82640 45.55936 35.69288
# Shear Modulus (GPa) = 22.13453 34.80855 28.47154
#
# Velocity S-wave (km/s) = 3.17713 3.98421 3.60334
# Velocity P-wave (km/s) = 5.02360 6.47626 5.79562
#
# Compressibility (1/GPa) = 0.03872007
#
# Stress axis : x y z
#
# Youngs Moduli (GPa) = 23.29363 43.67386 108.51962
#
# Poissons Ratio (x) = 0.34164 0.95459
# Poissons Ratio (y) = 0.18221 0.16734
# Poissons Ratio (z) = 0.20490 0.06734
#
# Static dielectric constant tensor:
#      x y z
#    x 1.807620 0.043340 -0.001490 
#    y 0.043340 1.822860 0.024970 
#    z -0.001490 0.024970 1.808400 
# 
# From -- ./inp_files/427638.got.cif
#   From: 2010.05.17/outbox.cif.g08.bks.cpg/sg2_214_cif.got.tgz:427638.got - 2010.06.03 11:33:40.
