data_PCOD9030182
_publ_section_title
;
Structure prediction by ZEFSAII (Michael W. Deem and Ramdas Pophale) SiO2 
 PCOD9030182
Probable space group: P -1
;
_chemical_formula_sum "Si O2"
_cell_formula_units_Z 14
_cell_length_a 7.782036
_cell_length_b 8.251881
_cell_length_c 18.402327
_cell_angle_alpha 45.998250
_cell_angle_beta 60.087181
_cell_angle_gamma 95.146496
_cell_volume 526.552640
_symmetry_space_group_name_H-M "P -1"
_symmetry_group_IT_number 2
_symmetry_cell_setting 'triclinic'
loop_
_space_group_symop_operation_xyz
x,y,z
-x,-y,-z
loop_
_atom_site_type_symbol
_atom_site_label
_atom_site_fract_x
_atom_site_fract_y
_atom_site_fract_z
Si Si1 0.509375 0.109026 0.613734
Si Si2 0.819636 0.292308 0.967973
Si Si3 0.000000 0.500000 0.500000
Si Si4 0.710934 0.393210 0.744516
Si Si5 0.857962 0.548612 0.278859
Si Si6 0.500000 0.500000 0.000000
Si Si7 0.033131 0.875469 0.877785
Si Si8 0.593794 0.689058 0.787688
O O1 0.739395 0.375504 0.540711
O O2 0.603300 0.249182 0.470318
O O3 0.215932 0.982532 0.735538
O O4 0.521310 0.853570 0.708312
O O5 0.092300 0.497371 0.797844
O O6 0.665014 0.405442 0.963137
O O7 0.896974 0.275091 0.037265
O O8 0.605245 0.934649 0.095468
O O9 0.856937 0.518614 0.596512
O O10 0.716901 0.614000 0.727781
O O11 0.872868 0.328853 0.773606
O O12 0.868306 0.823860 0.195950
O O13 0.279159 0.151320 0.210599
O O14 0.699647 0.633161 0.009671
#
# Coordination Sequence:
#
# PCOD9030182 Si02
#       8
#     2   2   1   2   2   1   2   2
#     4  11  25  45  68 107 145 183 239 293 367 409
#     4  12  23  44  69 104 135 189 245 284 352 431
#     4  10  22  42  70 100 138 182 232 296 344 426
#     4  11  22  44  71 102 139 186 245 281 360 419
#     4  11  24  41  70 101 141 189 234 293 346 431
#     4  12  24  42  70 102 140 176 248 288 340 420
#     4  12  24  44  76 100 144 189 239 294 357 423
#     4  12  25  45  75 105 144 188 236 305 345 429
#
# _framework density 26.588035999999999
#
# number of rings (size 3 to 8) (size 9 to 14) (size 15 to 20)
#    0.000    0.571    5.714    2.571    0.000    3.429 
#    2.571    0.714    0.000    0.000    0.000    0.000 
#    0.000    0.000    0.000    0.000    0.000    0.000 
#
# Total GULP energy -78086.378676 kJ/mol
# GULP energy per Si atom -5577.598477 kJ/mol
# Density = 2.652752 g / cm^3
# Si number density = 26.588036 Si / 1000 Ang^3
#
#
#
# Elastic Constant Matrix: (Units=GPa)
#
#
# Indices 1 2 3 4 5 6 
#
# 1 113.0193 24.2501 35.5241 4.6097 -7.2184 -12.3643
# 2 24.2501 160.5930 56.2584 54.3194 5.8885 -17.2120
# 3 35.5241 56.2584 141.8899 55.5706 -11.0069 -0.9462
# 4 4.6097 54.3194 55.5706 57.3627 5.2176 0.8796
# 5 -7.2184 5.8885 -11.0069 5.2176 32.2946 2.8918
# 6 -12.3643 -17.2120 -0.9462 0.8796 2.8918 50.0953
#
#
#
# Elastic Compliance Matrix: (Units=1/GPa)
#
#
# Indices 1 2 3 4 5 6 
#
# 1 0.010331 -0.001462 -0.003431 0.003793 0.000625 0.001880
# 2 -0.001462 0.009979 0.000000 -0.009297 -0.000939 0.003285
# 3 -0.003431 0.000000 0.013672 -0.013517 0.006140 -0.000706
# 4 0.003793 -0.009297 -0.013517 0.039819 -0.008252 -0.002736
# 5 0.000625 -0.000939 0.006140 -0.008252 0.034874 -0.001920
# 6 0.001880 0.003285 -0.000706 -0.002736 -0.001920 0.021700
#
#
# Mechanical properties :
#
#
# Convention : Reuss Voigt Hill
#
# Bulk Modulus (GPa) = 41.33162 71.95192 56.64177
# Shear Modulus (GPa) = 33.73192 47.91516 40.82354
#
# Velocity S-wave (km/s) = 3.56573 4.24976 3.92268
# Velocity P-wave (km/s) = 5.70364 7.15550 6.47042
#
# Compressibility (1/GPa) = 0.02419455
#
# Stress axis : x y z
#
# Youngs Moduli (GPa) = 96.79410 100.21162 73.14076
#
# Poissons Ratio (x) = 0.14655 0.25096
# Poissons Ratio (y) = 0.14155 0.00003
# Poissons Ratio (z) = 0.33211 0.00004
#
# Static dielectric constant tensor:
#      x y z
#    x 2.374240 0.263790 -0.151640 
#    y 0.263790 1.859820 0.226150 
#    z -0.151640 0.226150 2.808940 
# 
# From -- ./inp_files/185311.got.cif
#   From: 2010.05.17/outbox.cif.g08.bks.cpg/sg2_93_cif.got.tgz:185311.got - 2010.06.03 11:33:40.
