data_PCOD9030914
_publ_section_title
;
Structure prediction by ZEFSAII (Michael W. Deem and Ramdas Pophale) SiO2 
 PCOD9030914
Probable space group: P -1
;
_chemical_formula_sum "Si O2"
_cell_formula_units_Z 16
_cell_length_a 19.396205
_cell_length_b 9.826437
_cell_length_c 11.098009
_cell_angle_alpha 137.016714
_cell_angle_beta 38.092789
_cell_angle_gamma 150.871114
_cell_volume 628.346178
_symmetry_space_group_name_H-M "P -1"
_symmetry_group_IT_number 2
_symmetry_cell_setting 'triclinic'
loop_
_space_group_symop_operation_xyz
x,y,z
-x,-y,-z
loop_
_atom_site_type_symbol
_atom_site_label
_atom_site_fract_x
_atom_site_fract_y
_atom_site_fract_z
Si Si1 0.080601 0.359011 0.852488
Si Si2 0.404122 0.645248 0.178735
Si Si3 0.227188 0.815628 0.557071
Si Si4 0.848074 0.934471 0.711138
Si Si5 0.348831 0.927415 0.714670
Si Si6 0.851079 0.856973 0.202497
Si Si7 0.115171 0.676650 0.248860
Si Si8 0.349897 0.671560 0.016724
O O1 0.100545 0.160483 0.745184
O O2 0.224273 0.613861 0.737359
O O3 0.085068 0.495083 0.056120
O O4 0.921382 0.161711 0.866067
O O5 0.360519 0.826239 0.346213
O O6 0.282350 0.378450 0.259743
O O7 0.574744 0.845289 0.136047
O O8 0.379831 0.565862 0.021198
O O9 0.059783 0.489505 0.575689
O O10 0.270522 0.932582 0.710572
O O11 0.198489 0.977585 0.626828
O O12 0.798375 0.020975 0.728183
O O13 0.000000 0.000000 0.500000
O O14 0.500000 0.000000 0.500000
O O15 0.702445 0.538664 0.155575
O O16 0.000000 0.000000 0.000000
O O17 0.206816 0.653904 0.202889
O O18 0.500000 0.000000 0.000000
#
# Coordination Sequence:
#
# PCOD9030914 Si02
#       8
#     2   2   2   2   2   2   2   2
#     4  11  22  40  67  89 126 169 210 253 314 375
#     4  11  24  41  65  94 131 166 202 264 326 358
#     4  11  22  42  66  94 126 166 214 257 304 384
#     4  12  23  39  62 101 127 159 208 268 315 365
#     4  10  22  43  62  88 128 169 206 253 308 378
#     4  11  22  41  66  95 124 166 215 253 308 383
#     4  11  23  41  66  94 127 164 213 257 310 381
#     4  11  25  45  63  94 134 163 208 266 314 368
#
# _framework density 25.463671000000001
#
# number of rings (size 3 to 8) (size 9 to 14) (size 15 to 20)
#    0.000    1.000    5.000    3.375    0.000    2.500 
#    0.000    7.500    0.000    0.000    0.000    0.000 
#    0.000    0.000    0.000    0.000    0.000    0.000 
#
# Total GULP energy -89600.449378 kJ/mol
# GULP energy per Si atom -5600.028086 kJ/mol
# Density = 2.540571 g / cm^3
# Si number density = 25.463671 Si / 1000 Ang^3
#
#
#
# Elastic Constant Matrix: (Units=GPa)
#
#
# Indices 1 2 3 4 5 6 
#
# 1 154.8814 43.9545 -5.6001 3.2648 -6.4415 -11.5381
# 2 43.9545 144.5534 -1.3715 -1.5687 -6.3059 -4.4353
# 3 -5.6001 -1.3715 61.9953 3.8559 -5.6088 -2.0262
# 4 3.2648 -1.5687 3.8559 25.4434 -2.1598 -5.8395
# 5 -6.4415 -6.3059 -5.6088 -2.1598 36.5085 8.7807
# 6 -11.5381 -4.4353 -2.0262 -5.8395 8.7807 53.6226
#
#
#
# Elastic Compliance Matrix: (Units=1/GPa)
#
#
# Indices 1 2 3 4 5 6 
#
# 1 0.007225 -0.002132 0.000759 -0.000839 0.000684 0.001204
# 2 -0.002132 0.007621 0.000014 0.000848 0.000967 0.000106
# 3 0.000759 0.000014 0.016578 -0.002368 0.002514 0.000121
# 4 -0.000839 0.000848 -0.002368 0.040847 0.001072 0.004073
# 5 0.000684 0.000967 0.002514 0.001072 0.029172 -0.004338
# 6 0.001204 0.000106 0.000121 0.004073 -0.004338 0.020075
#
#
# Mechanical properties :
#
#
# Convention : Reuss Voigt Hill
#
# Bulk Modulus (GPa) = 34.83625 48.37731 41.60678
# Shear Modulus (GPa) = 37.36811 44.74471 41.05641
#
# Velocity S-wave (km/s) = 3.83496 4.19644 4.01977
# Velocity P-wave (km/s) = 5.77232 6.52073 6.15791
#
# Compressibility (1/GPa) = 0.02870573
#
# Stress axis : x y z
#
# Youngs Moduli (GPa) = 138.41144 131.21794 60.32175
#
# Poissons Ratio (x) = 0.27976 -0.04578
# Poissons Ratio (y) = 0.29509 -0.00086
# Poissons Ratio (z) = -0.10504 -0.00187
#
# Static dielectric constant tensor:
#      x y z
#    x 2.016140 0.012870 0.032300 
#    y 0.012870 1.957280 0.034000 
#    z 0.032300 0.034000 2.174250 
# 
# From -- ./inp_files/262725.got.cif
#   From: 2010.05.17/outbox.cif.g08.bks.cpg/sg2_132_cif.got.tgz:262725.got - 2010.06.03 11:33:40.
