data_PCOD9030251
_publ_section_title
;
Structure prediction by ZEFSAII (Michael W. Deem and Ramdas Pophale) SiO2 
 PCOD9030251
Probable space group: P -1
;
_chemical_formula_sum "Si O2"
_cell_formula_units_Z 16
_cell_length_a 20.246947
_cell_length_b 9.787236
_cell_length_c 6.366593
_cell_angle_alpha 46.627405
_cell_angle_beta 111.496103
_cell_angle_gamma 130.131256
_cell_volume 694.544793
_symmetry_space_group_name_H-M "P -1"
_symmetry_group_IT_number 2
_symmetry_cell_setting 'triclinic'
loop_
_space_group_symop_operation_xyz
x,y,z
-x,-y,-z
loop_
_atom_site_type_symbol
_atom_site_label
_atom_site_fract_x
_atom_site_fract_y
_atom_site_fract_z
Si Si1 0.180858 0.972951 0.572248
Si Si2 0.868258 0.308639 0.596718
Si Si3 0.107719 0.200138 0.507350
Si Si4 0.007456 0.252553 0.983059
Si Si5 0.370784 0.432435 0.379038
Si Si6 0.494900 0.358802 0.340349
Si Si7 0.757710 0.282870 0.840084
Si Si8 0.408793 0.893115 0.889112
O O1 0.123409 0.043678 0.541294
O O2 0.276395 0.203474 0.480442
O O3 0.152258 0.880931 0.400852
O O4 0.187362 0.776905 0.889167
O O5 0.940299 0.324339 0.816471
O O6 0.778971 0.230124 0.691274
O O7 0.916269 0.562298 0.280922
O O8 0.198265 0.443536 0.403302
O O9 0.053695 0.269378 0.238125
O O10 0.053235 0.027075 0.818631
O O11 0.435208 0.382020 0.407067
O O12 0.410608 0.526150 0.560737
O O13 0.375981 0.639661 0.047697
O O14 0.438388 0.081648 0.542975
O O15 0.500000 0.500000 0.000000
O O16 0.663238 0.145669 0.985079
O O17 0.500000 0.000000 0.000000
#
# Coordination Sequence:
#
# PCOD9030251 Si02
#       8
#     2   2   2   2   2   2   2   2
#     4  12  24  45  67 107 142 186 231 296 358 410
#     4  11  26  43  74 102 144 187 242 295 350 429
#     4  11  24  44  76  95 147 192 230 298 360 415
#     4  10  24  46  68 109 137 192 244 289 359 423
#     4  10  22  43  69  97 142 178 228 290 349 424
#     4  10  22  42  70 103 135 181 226 289 357 416
#     4  12  24  46  70 105 140 186 235 299 358 409
#     4  10  22  45  73 100 140 183 232 289 348 419
#
# _framework density 23.036670999999998
#
# number of rings (size 3 to 8) (size 9 to 14) (size 15 to 20)
#    0.000    1.250    5.000    0.000    0.000    8.500 
#    0.000    5.000    0.000    0.000    0.000    0.000 
#    0.000    0.000    0.000    0.000    0.000    0.000 
#
# Total GULP energy -89192.833307 kJ/mol
# GULP energy per Si atom -5574.552082 kJ/mol
# Density = 2.298424 g / cm^3
# Si number density = 23.036671 Si / 1000 Ang^3
#
#
#
# Elastic Constant Matrix: (Units=GPa)
#
#
# Indices 1 2 3 4 5 6 
#
# 1 65.8785 27.1472 -34.0256 -11.6367 15.6553 42.0437
# 2 27.1472 79.7534 22.6534 -33.0241 3.2913 7.1104
# 3 -34.0256 22.6534 93.6232 -51.4330 33.6094 53.2175
# 4 -11.6367 -33.0241 -51.4330 33.6990 9.5657 5.5977
# 5 15.6553 3.2913 33.6094 9.5657 14.3096 -27.7895
# 6 42.0437 7.1104 53.2175 5.5977 -27.7895 15.8108
#
#
#
# Elastic Compliance Matrix: (Units=1/GPa)
#
#
# Indices 1 2 3 4 5 6 
#
# 1 0.012094 -0.008481 -0.003576 -0.011962 0.007596 0.001277
# 2 -0.008481 0.023066 -0.000068 0.019171 -0.000928 0.003993
# 3 -0.003576 -0.000068 0.004059 0.001843 0.006675 0.006958
# 4 -0.011962 0.019171 0.001843 0.042088 0.008179 0.016460
# 5 0.007596 -0.000928 0.006675 0.008179 0.019487 -0.010893
# 6 0.001277 0.003993 0.006958 0.016460 -0.010893 0.009664
#
#
# Mechanical properties :
#
#
# Convention : Reuss Voigt Hill
#
# Bulk Modulus (GPa) = 66.81504 30.08946 48.45225
# Shear Modulus (GPa) = 35.79142 27.66255 31.72699
#
# Velocity S-wave (km/s) = 3.94594 3.46902 3.71514
# Velocity P-wave (km/s) = 7.05885 5.39772 6.28342
#
# Compressibility (1/GPa) = 0.01496669
#
# Stress axis : x y z
#
# Youngs Moduli (GPa) = 82.68353 43.35479 246.35639
#
# Poissons Ratio (x) = 0.36771 0.88109
# Poissons Ratio (y) = 0.70127 0.01681
# Poissons Ratio (z) = 0.29572 0.00296
#
# Static dielectric constant tensor:
#      x y z
#    x 1.878950 -0.029570 -0.036430 
#    y -0.029570 1.632880 -0.095520 
#    z -0.036430 -0.095520 1.894670 
# 
# From -- ./inp_files/116547.got.cif
#   From: 2010.05.17/outbox.cif.g08.bks.cpg/sg2_59_cif.got.tgz:116547.got - 2010.06.03 11:33:40.
