data_PCOD9030487
_publ_section_title
;
Structure prediction by ZEFSAII (Michael W. Deem and Ramdas Pophale) SiO2 
 PCOD9030487
Probable space group: P -1
;
_chemical_formula_sum "Si O2"
_cell_formula_units_Z 16
_cell_length_a 9.775554
_cell_length_b 13.681624
_cell_length_c 11.215377
_cell_angle_alpha 34.548898
_cell_angle_beta 103.460674
_cell_angle_gamma 84.275733
_cell_volume 702.337942
_symmetry_space_group_name_H-M "P -1"
_symmetry_group_IT_number 2
_symmetry_cell_setting 'triclinic'
loop_
_space_group_symop_operation_xyz
x,y,z
-x,-y,-z
loop_
_atom_site_type_symbol
_atom_site_label
_atom_site_fract_x
_atom_site_fract_y
_atom_site_fract_z
Si Si1 0.522493 0.230834 0.230310
Si Si2 0.304854 0.501162 0.390235
Si Si3 0.837396 0.037258 0.139174
Si Si4 0.835767 0.053930 0.615996
Si Si5 0.255977 0.242194 0.027120
Si Si6 0.514653 0.850480 0.049112
Si Si7 0.479744 0.590573 0.709366
Si Si8 0.962426 0.609957 0.509846
O O1 0.719045 0.108876 0.420453
O O2 0.450993 0.347730 0.224218
O O3 0.402945 0.155657 0.240311
O O4 0.491451 0.387899 0.960355
O O5 0.585154 0.629120 0.343811
O O6 0.419445 0.437898 0.359924
O O7 0.177713 0.423695 0.429472
O O8 0.212853 0.743784 0.144297
O O9 0.986518 0.973360 0.326191
O O10 0.903639 0.845216 0.257194
O O11 0.666045 0.069661 0.120916
O O12 0.712638 0.228969 0.509015
O O13 0.854790 0.850612 0.874997
O O14 0.354577 0.163233 0.003786
O O15 0.129655 0.482142 0.749616
O O16 0.500000 0.000000 0.000000
O O17 0.000000 0.500000 0.500000
#
# Coordination Sequence:
#
# PCOD9030487 Si02
#       8
#     2   2   2   2   2   2   2   2
#     4   9  21  42  72  96 138 188 233 289 347 417
#     4  12  24  48  67 107 139 186 229 292 350 425
#     4  12  26  43  73 101 140 186 231 294 347 408
#     4  10  22  42  71 105 132 184 239 286 349 418
#     4  12  22  44  73  99 142 191 234 283 356 427
#     4  12  25  46  68 104 146 185 232 291 354 422
#     4   9  21  43  70  96 139 180 241 279 352 419
#     4  12  26  47  68 105 147 180 238 290 346 422
#
# _framework density 22.781054999999999
#
# number of rings (size 3 to 8) (size 9 to 14) (size 15 to 20)
#    0.750    0.250    3.750    3.000    0.000    0.500 
#    4.500    3.125    0.000    0.000    0.000    0.000 
#    0.000    0.000    0.000    0.000    0.000    0.000 
#
# Total GULP energy -89317.992278 kJ/mol
# GULP energy per Si atom -5582.374517 kJ/mol
# Density = 2.272920 g / cm^3
# Si number density = 22.781055 Si / 1000 Ang^3
#
#
#
# Elastic Constant Matrix: (Units=GPa)
#
#
# Indices 1 2 3 4 5 6 
#
# 1 116.8124 19.4846 19.3514 14.3300 25.7844 26.3480
# 2 19.4846 64.8414 19.5052 -10.3601 6.9945 6.6382
# 3 19.3514 19.5052 98.1440 -17.5835 22.5249 3.1883
# 4 14.3300 -10.3601 -17.5835 39.2720 3.5267 0.3860
# 5 25.7844 6.9945 22.5249 3.5267 39.5800 4.1959
# 6 26.3480 6.6382 3.1883 0.3860 4.1959 31.0281
#
#
#
# Elastic Compliance Matrix: (Units=1/GPa)
#
#
# Indices 1 2 3 4 5 6 
#
# 1 0.013504 -0.002894 -0.001431 -0.005703 -0.005921 -0.009830
# 2 -0.002894 0.017836 -0.001940 0.004947 -0.000481 -0.001156
# 3 -0.001431 -0.001940 0.013698 0.006783 -0.007243 0.001118
# 4 -0.005703 0.004947 0.006783 0.032235 -0.004237 0.003260
# 5 -0.005921 -0.000481 -0.007243 -0.004237 0.033560 0.001390
# 6 -0.009830 -0.001156 0.001118 0.003260 0.001390 0.040480
#
#
# Mechanical properties :
#
#
# Convention : Reuss Voigt Hill
#
# Bulk Modulus (GPa) = 30.76057 44.05333 37.40695
# Shear Modulus (GPa) = 28.62389 36.73979 32.68184
#
# Velocity S-wave (km/s) = 3.54853 4.02024 3.79173
# Velocity P-wave (km/s) = 5.50649 6.39762 5.96871
#
# Compressibility (1/GPa) = 0.03250915
#
# Stress axis : x y z
#
# Youngs Moduli (GPa) = 74.05019 56.06644 73.00239
#
# Poissons Ratio (x) = 0.16224 0.10447
# Poissons Ratio (y) = 0.21428 0.14162
# Poissons Ratio (z) = 0.10597 0.10876
#
# Static dielectric constant tensor:
#      x y z
#    x 1.861910 0.048350 0.017800 
#    y 0.048350 1.855090 -0.021660 
#    z 0.017800 -0.021660 1.899330 
# 
# From -- ./inp_files/398201.got.cif
#   From: 2010.05.17/outbox.cif.g08.bks.cpg/sg2_200_cif.got.tgz:398201.got - 2010.06.03 11:33:40.
