data_PCOD9030855
_publ_section_title
;
Structure prediction by ZEFSAII (Michael W. Deem and Ramdas Pophale) SiO2 
 PCOD9030855
Probable space group: P -1
;
_chemical_formula_sum "Si O2"
_cell_formula_units_Z 15
_cell_length_a 11.638747
_cell_length_b 8.179342
_cell_length_c 7.940667
_cell_angle_alpha 109.768082
_cell_angle_beta 69.187437
_cell_angle_gamma 124.783291
_cell_volume 571.231817
_symmetry_space_group_name_H-M "P -1"
_symmetry_group_IT_number 2
_symmetry_cell_setting 'triclinic'
loop_
_space_group_symop_operation_xyz
x,y,z
-x,-y,-z
loop_
_atom_site_type_symbol
_atom_site_label
_atom_site_fract_x
_atom_site_fract_y
_atom_site_fract_z
Si Si1 0.070611 0.153477 0.170740
Si Si2 0.242251 0.533704 0.638107
Si Si3 0.559062 0.225903 0.984582
Si Si4 0.000000 0.500000 0.500000
Si Si5 0.825020 0.039798 0.472920
Si Si6 0.877460 0.522275 0.981343
Si Si7 0.390740 0.001954 0.689171
Si Si8 0.342956 0.302026 0.291176
O O1 0.234877 0.245681 0.167969
O O2 0.972024 0.052193 0.347711
O O3 0.056574 0.342164 0.175008
O O4 0.000000 0.000000 0.000000
O O5 0.113552 0.477599 0.558324
O O6 0.180198 0.410490 0.802556
O O7 0.312444 0.773029 0.726164
O O8 0.344616 0.475802 0.464625
O O9 0.483588 0.184130 0.829494
O O10 0.728314 0.339098 0.932217
O O11 0.493856 0.334062 0.167585
O O12 0.500000 0.000000 0.000000
O O13 0.129045 0.728263 0.453083
O O14 0.725202 0.966483 0.334175
O O15 0.737999 0.899303 0.622338
O O16 0.000000 0.500000 0.000000
O O17 0.500000 0.000000 0.500000
#
# Coordination Sequence:
#
# PCOD9030855 Si02
#       8
#     2   2   2   1   2   2   2   2
#     4  12  27  47  72 117 160 207 263 331 398 472
#     4  11  25  48  75 120 150 215 262 328 403 470
#     4  12  28  53  79 121 158 215 262 337 417 482
#     4  10  22  42  76 108 154 198 278 306 394 470
#     4  11  24  46  75 114 153 212 259 328 398 477
#     4  12  29  50  85 113 163 212 272 330 398 491
#     4  11  25  48  78 109 157 209 267 321 402 488
#     4  12  28  49  82 113 168 206 273 338 409 483
#
# _framework density 26.259045
#
# number of rings (size 3 to 8) (size 9 to 14) (size 15 to 20)
#    0.000    0.533    2.667    4.400    5.600    3.200 
#    2.400    0.000    0.000    0.000    0.000    0.000 
#    0.000    0.000    0.000    0.000    0.000    0.000 
#
# Total GULP energy -83822.252000 kJ/mol
# GULP energy per Si atom -5588.150133 kJ/mol
# Density = 2.619928 g / cm^3
# Si number density = 26.259045 Si / 1000 Ang^3
#
#
#
# Elastic Constant Matrix: (Units=GPa)
#
#
# Indices 1 2 3 4 5 6 
#
# 1 141.7772 40.5506 35.0756 4.0363 3.4719 29.2860
# 2 40.5506 95.2243 15.1676 -5.2430 18.2603 11.4678
# 3 35.0756 15.1676 119.8230 -3.1168 -10.4640 11.2974
# 4 4.0363 -5.2430 -3.1168 46.6816 3.9278 7.1937
# 5 3.4719 18.2603 -10.4640 3.9278 44.2863 -5.4438
# 6 29.2860 11.4678 11.2974 7.1937 -5.4438 44.1623
#
#
#
# Elastic Compliance Matrix: (Units=1/GPa)
#
#
# Indices 1 2 3 4 5 6 
#
# 1 0.009465 -0.003045 -0.001975 -0.000483 -0.000521 -0.004966
# 2 -0.003045 0.013580 -0.001069 0.002606 -0.006141 -0.002416
# 3 -0.001975 -0.001069 0.009361 0.000536 0.002691 -0.000563
# 4 -0.000483 0.002606 0.000536 0.022802 -0.003503 -0.004640
# 5 -0.000521 -0.006141 0.002691 -0.003503 0.026729 0.005117
# 6 -0.004966 -0.002416 -0.000563 -0.004640 0.005117 0.028095
#
#
# Mechanical properties :
#
#
# Convention : Reuss Voigt Hill
#
# Bulk Modulus (GPa) = 49.43178 59.82357 54.62768
# Shear Modulus (GPa) = 38.77403 44.76140 41.76772
#
# Velocity S-wave (km/s) = 3.84682 4.13317 3.99256
# Velocity P-wave (km/s) = 6.21259 6.75344 6.48865
#
# Compressibility (1/GPa) = 0.02022990
#
# Stress axis : x y z
#
# Youngs Moduli (GPa) = 105.65033 73.63576 106.82519
#
# Poissons Ratio (x) = 0.22420 0.21099
# Poissons Ratio (y) = 0.32167 0.11415
# Poissons Ratio (z) = 0.20867 0.07868
#
# Static dielectric constant tensor:
#      x y z
#    x 2.260690 -0.196160 -0.242310 
#    y -0.196160 2.172660 0.165130 
#    z -0.242310 0.165130 2.344240 
# 
# From -- ./inp_files/240325.got.cif
#   From: 2010.05.17/outbox.cif.g08.bks.cpg/sg2_121_cif.got.tgz:240325.got - 2010.06.03 11:33:40.
