data_PCOD9030285
_publ_section_title
;
Structure prediction by ZEFSAII (Michael W. Deem and Ramdas Pophale) SiO2 
 PCOD9030285
Probable space group: P -1
;
_chemical_formula_sum "Si O2"
_cell_formula_units_Z 15
_cell_length_a 10.908294
_cell_length_b 9.254414
_cell_length_c 9.780499
_cell_angle_alpha 136.336948
_cell_angle_beta 63.768802
_cell_angle_gamma 106.861978
_cell_volume 610.772581
_symmetry_space_group_name_H-M "P -1"
_symmetry_group_IT_number 2
_symmetry_cell_setting 'triclinic'
loop_
_space_group_symop_operation_xyz
x,y,z
-x,-y,-z
loop_
_atom_site_type_symbol
_atom_site_label
_atom_site_fract_x
_atom_site_fract_y
_atom_site_fract_z
Si Si1 0.243923 0.404527 0.093079
Si Si2 0.560692 0.967611 0.297529
Si Si3 0.058381 0.487670 0.733549
Si Si4 0.541800 0.269696 0.272508
Si Si5 0.910406 0.072897 0.834889
Si Si6 0.265901 0.294276 0.290441
Si Si7 0.000000 0.000000 0.500000
Si Si8 0.316393 0.773704 0.115573
O O1 0.310906 0.418015 0.219594
O O2 0.284277 0.566076 0.069200
O O3 0.083849 0.443765 0.222036
O O4 0.303819 0.181160 0.860373
O O5 0.437553 0.866121 0.204349
O O6 0.500000 0.000000 0.500000
O O7 0.592908 0.152128 0.302753
O O8 0.180845 0.442525 0.536363
O O9 0.042471 0.266828 0.666090
O O10 0.083475 0.697662 0.952120
O O11 0.500000 0.500000 0.500000
O O12 0.398616 0.190368 0.228475
O O13 0.639776 0.266824 0.090757
O O14 0.828290 0.086089 0.732473
O O15 0.830291 0.897558 0.833494
O O16 0.043774 0.974484 0.629305
#
# Coordination Sequence:
#
# PCOD9030285 Si02
#       8
#     2   2   2   2   2   2   1   2
#     4  12  26  46  71 107 156 190 246 323 376 449
#     4  12  27  46  73 115 150 195 252 314 387 454
#     4  11  25  46  75 111 148 199 257 307 388 445
#     4  12  25  47  77 106 146 203 254 308 380 461
#     4  11  23  45  74 103 144 200 255 308 373 457
#     4  11  25  47  73 106 151 199 254 314 377 454
#     4  10  22  42  70 106 144 192 254 312 360 452
#     4  12  24  46  72 105 149 192 244 317 378 445
#
# _framework density 24.559058
#
# number of rings (size 3 to 8) (size 9 to 14) (size 15 to 20)
#    0.000    0.533    4.000    4.000    1.867    1.600 
#    0.000    0.000    0.000    0.000    0.000    0.000 
#    0.000    0.000    0.000    0.000    0.000    0.000 
#
# Total GULP energy -83665.333811 kJ/mol
# GULP energy per Si atom -5577.688921 kJ/mol
# Density = 2.450316 g / cm^3
# Si number density = 24.559058 Si / 1000 Ang^3
#
#
#
# Elastic Constant Matrix: (Units=GPa)
#
#
# Indices 1 2 3 4 5 6 
#
# 1 57.9565 16.2705 17.1889 2.4626 -9.4912 -12.4852
# 2 16.2705 159.8251 62.2238 -9.9171 -5.1241 -23.4820
# 3 17.1889 62.2238 176.5162 -16.1433 -8.9610 0.6037
# 4 2.4626 -9.9171 -16.1433 55.3224 5.6156 -1.6514
# 5 -9.4912 -5.1241 -8.9610 5.6156 40.1233 6.8750
# 6 -12.4852 -23.4820 0.6037 -1.6514 6.8750 38.2558
#
#
#
# Elastic Compliance Matrix: (Units=1/GPa)
#
#
# Indices 1 2 3 4 5 6 
#
# 1 0.019734 -0.000528 -0.001729 -0.001672 0.003517 0.005440
# 2 -0.000528 0.008177 -0.002802 0.000893 -0.000698 0.005055
# 3 -0.001729 -0.002802 0.007014 0.001442 0.001029 -0.002518
# 4 -0.001672 0.000893 0.001442 0.019060 -0.002852 0.001315
# 5 0.003517 -0.000698 0.001029 -0.002852 0.027028 -0.004277
# 6 0.005440 0.005055 -0.002518 0.001315 -0.004277 0.031883
#
#
# Mechanical properties :
#
#
# Convention : Reuss Voigt Hill
#
# Bulk Modulus (GPa) = 40.30933 65.07378 52.69156
# Shear Modulus (GPa) = 38.08568 46.64797 42.36682
#
# Velocity S-wave (km/s) = 3.94227 4.36296 4.15794
# Velocity P-wave (km/s) = 6.09679 7.20659 6.67479
#
# Compressibility (1/GPa) = 0.02480815
#
# Stress axis : x y z
#
# Youngs Moduli (GPa) = 50.67419 122.28914 142.57086
#
# Poissons Ratio (x) = 0.06454 0.24645
# Poissons Ratio (y) = 0.02674 0.39951
# Poissons Ratio (z) = 0.08760 0.34268
#
# Static dielectric constant tensor:
#      x y z
#    x 2.128040 0.089660 -0.084690 
#    y 0.089660 2.009030 -0.076650 
#    z -0.084690 -0.076650 2.162880 
# 
# From -- ./inp_files/241279.got.cif
#   From: 2010.05.17/outbox.cif.g08.bks.cpg/sg2_121_cif.got.tgz:241279.got - 2010.06.03 11:33:40.
