data_PCOD9030366
_publ_section_title
;
Structure prediction by ZEFSAII (Michael W. Deem and Ramdas Pophale) SiO2 
 PCOD9030366
Probable space group: P -1
;
_chemical_formula_sum "Si O2"
_cell_formula_units_Z 16
_cell_length_a 7.837293
_cell_length_b 5.283304
_cell_length_c 28.922475
_cell_angle_alpha 115.450440
_cell_angle_beta 37.534143
_cell_angle_gamma 118.671567
_cell_volume 637.424853
_symmetry_space_group_name_H-M "P -1"
_symmetry_group_IT_number 2
_symmetry_cell_setting 'triclinic'
loop_
_space_group_symop_operation_xyz
x,y,z
-x,-y,-z
loop_
_atom_site_type_symbol
_atom_site_label
_atom_site_fract_x
_atom_site_fract_y
_atom_site_fract_z
Si Si1 0.773720 0.160469 0.083637
Si Si2 0.970863 0.271109 0.391390
Si Si3 0.212714 0.509638 0.090099
Si Si4 0.070356 0.701425 0.701378
Si Si5 0.963888 0.029359 0.176779
Si Si6 0.477530 0.318099 0.833506
Si Si7 0.178263 0.755482 0.448441
Si Si8 0.585284 0.714410 0.433963
O O1 0.655835 0.407861 0.102777
O O2 0.951958 0.343016 0.100920
O O3 0.538570 0.902647 0.138162
O O4 0.000000 0.000000 0.000000
O O5 0.666828 0.342624 0.478163
O O6 0.030344 0.223804 0.321586
O O7 0.201952 0.553523 0.383281
O O8 0.880852 0.942310 0.405535
O O9 0.188354 0.835419 0.121353
O O10 0.139114 0.328490 0.138742
O O11 0.500000 0.500000 0.000000
O O12 0.799455 0.453159 0.758150
O O13 0.339101 0.569720 0.622472
O O14 0.149741 0.920704 0.744051
O O15 0.716535 0.861352 0.180928
O O16 0.468410 0.851058 0.424140
O O17 0.000000 0.500000 0.500000
O O18 0.000000 0.000000 0.500000
#
# Coordination Sequence:
#
# PCOD9030366 Si02
#       8
#     2   2   2   2   2   2   2   2
#     4  10  22  42  70  96 132 177 225 282 338 407
#     4  10  25  45  70 101 137 183 242 290 345 417
#     4  10  22  42  70  97 133 179 227 284 340 413
#     4  12  27  41  74  98 143 188 230 294 355 411
#     4  10  25  44  63 102 142 176 228 282 349 417
#     4  10  25  44  62 101 140 175 226 280 345 417
#     4  10  24  44  70 100 134 175 226 292 351 406
#     4  10  25  45  71 102 138 183 243 291 350 414
#
# _framework density 25.100997
#
# number of rings (size 3 to 8) (size 9 to 14) (size 15 to 20)
#    0.000    1.750    0.000    1.125   15.750    2.000 
#    2.250    0.000    0.000    0.000    0.000    0.000 
#    0.000    0.000    0.000    0.000    0.000    0.000 
#
# Total GULP energy -89337.779630 kJ/mol
# GULP energy per Si atom -5583.611227 kJ/mol
# Density = 2.504387 g / cm^3
# Si number density = 25.100997 Si / 1000 Ang^3
#
#
#
# Elastic Constant Matrix: (Units=GPa)
#
#
# Indices 1 2 3 4 5 6 
#
# 1 79.9089 6.8086 -19.8654 4.3406 14.2811 9.8742
# 2 6.8086 78.2795 -13.8396 -4.3208 -0.2272 8.5928
# 3 -19.8654 -13.8396 69.5769 10.7624 10.9119 3.5901
# 4 4.3406 -4.3208 10.7624 53.6574 1.9741 -4.1494
# 5 14.2811 -0.2272 10.9119 1.9741 35.2704 3.7509
# 6 9.8742 8.5928 3.5901 -4.1494 3.7509 40.7990
#
#
#
# Elastic Compliance Matrix: (Units=1/GPa)
#
#
# Indices 1 2 3 4 5 6 
#
# 1 0.016196 0.000013 0.006495 -0.002629 -0.007992 -0.004027
# 2 0.000013 0.013638 0.002908 0.000296 -0.000509 -0.003054
# 3 0.006495 0.002908 0.018845 -0.004056 -0.007838 -0.003534
# 4 -0.002629 0.000296 -0.004056 0.019875 0.000904 0.002869
# 5 -0.007992 -0.000509 -0.007838 0.000904 0.033992 -0.000302
# 6 -0.004027 -0.003054 -0.003534 0.002869 -0.000302 0.026759
#
#
# Mechanical properties :
#
#
# Convention : Reuss Voigt Hill
#
# Bulk Modulus (GPa) = 14.81233 19.33027 17.07130
# Shear Modulus (GPa) = 37.60074 42.92281 40.26178
#
# Velocity S-wave (km/s) = 3.87457 4.13971 4.00933
# Velocity P-wave (km/s) = 5.09218 5.52877 5.31496
#
# Compressibility (1/GPa) = 0.06751134
#
# Stress axis : x y z
#
# Youngs Moduli (GPa) = 61.74185 73.32509 53.06586
#
# Poissons Ratio (x) = -0.00097 -0.34466
# Poissons Ratio (y) = -0.00082 -0.15432
# Poissons Ratio (z) = -0.40101 -0.21324
#
# Static dielectric constant tensor:
#      x y z
#    x 2.102380 0.049470 0.037520 
#    y 0.049470 2.050710 -0.021840 
#    z 0.037520 -0.021840 1.844870 
# 
# From -- ./inp_files/622247.got.cif
#   From: 2010.05.17/outbox.cif.g08.bks.cpg/sg2_312_cif.got.tgz:622247.got - 2010.06.03 11:33:40.
