data_PCOD9030804
_publ_section_title
;
Structure prediction by ZEFSAII (Michael W. Deem and Ramdas Pophale) SiO2 
 PCOD9030804
Probable space group: P -1
;
_chemical_formula_sum "Si O2"
_cell_formula_units_Z 15
_cell_length_a 9.745402
_cell_length_b 10.091465
_cell_length_c 12.951263
_cell_angle_alpha 126.084793
_cell_angle_beta 146.181098
_cell_angle_gamma 71.498956
_cell_volume 529.351214
_symmetry_space_group_name_H-M "P -1"
_symmetry_group_IT_number 2
_symmetry_cell_setting 'triclinic'
loop_
_space_group_symop_operation_xyz
x,y,z
-x,-y,-z
loop_
_atom_site_type_symbol
_atom_site_label
_atom_site_fract_x
_atom_site_fract_y
_atom_site_fract_z
Si Si1 0.513587 0.586062 0.159660
Si Si2 0.580536 0.292262 0.532201
Si Si3 0.311045 0.211125 0.963753
Si Si4 0.717217 0.113635 0.893940
Si Si5 0.801884 0.315833 0.471010
Si Si6 0.814732 0.135885 0.751402
Si Si7 0.000000 0.000000 0.500000
Si Si8 0.892329 0.676724 0.615684
O O1 0.406715 0.742671 0.148280
O O2 0.787779 0.683492 0.439497
O O3 0.500000 0.500000 0.000000
O O4 0.364746 0.415902 0.062728
O O5 0.719053 0.387377 0.559386
O O6 0.782844 0.304541 0.757226
O O7 0.343505 0.324711 0.455366
O O8 0.478876 0.088845 0.331835
O O9 0.022806 0.107841 0.790427
O O10 0.274077 0.106518 0.786042
O O11 0.548018 0.222725 0.194428
O O12 0.919511 0.143470 0.936250
O O13 0.856722 0.160415 0.111777
O O14 0.953547 0.189347 0.539499
O O15 0.954472 0.502384 0.593658
O O16 0.500000 0.000000 0.500000
#
# Coordination Sequence:
#
# PCOD9030804 Si02
#       8
#     2   2   2   2   2   2   1   2
#     4  11  27  47  71 105 155 204 257 304 370 457
#     4  11  22  44  73 110 148 193 244 321 385 448
#     4  11  25  46  73 108 151 202 253 316 375 456
#     4  11  24  44  73 109 147 196 251 313 386 446
#     4  11  25  45  72 113 148 198 255 312 384 457
#     4  10  22  42  74 111 148 190 247 315 386 442
#     4  12  24  46  74 100 152 202 256 306 374 446
#     4  11  24  47  73 108 149 196 251 320 380 456
#
# _framework density 28.336573999999999
#
# number of rings (size 3 to 8) (size 9 to 14) (size 15 to 20)
#    0.000    1.067    2.667    2.800    1.867    3.200 
#    2.400    0.000    0.000    0.000    0.000    0.000 
#    0.000    0.000    0.000    0.000    0.000    0.000 
#
# Total GULP energy -83744.521767 kJ/mol
# GULP energy per Si atom -5582.968118 kJ/mol
# Density = 2.827208 g / cm^3
# Si number density = 28.336574 Si / 1000 Ang^3
#
#
#
# Elastic Constant Matrix: (Units=GPa)
#
#
# Indices 1 2 3 4 5 6 
#
# 1 103.2115 44.2360 31.5680 -8.1641 -8.4287 16.0409
# 2 44.2360 179.5370 35.4473 -9.9507 -0.0305 -16.3438
# 3 31.5680 35.4473 157.3939 -8.8153 -21.2534 12.9489
# 4 -8.1641 -9.9507 -8.8153 52.3549 -0.2255 -7.3435
# 5 -8.4287 -0.0305 -21.2534 -0.2255 32.9943 -6.9452
# 6 16.0409 -16.3438 12.9489 -7.3435 -6.9452 31.9431
#
#
#
# Elastic Compliance Matrix: (Units=1/GPa)
#
#
# Indices 1 2 3 4 5 6 
#
# 1 0.012844 -0.003669 -0.000974 0.000067 0.001032 -0.007693
# 2 -0.003669 0.007433 -0.001453 0.001502 -0.000494 0.006473
# 3 -0.000974 -0.001453 0.007666 0.000555 0.004203 -0.002320
# 4 0.000067 0.001502 0.000555 0.020273 0.001680 0.005536
# 5 0.001032 -0.000494 0.004203 0.001680 0.034426 0.005397
# 6 -0.007693 0.006473 -0.002320 0.005536 0.005397 0.041867
#
#
# Mechanical properties :
#
#
# Convention : Reuss Voigt Hill
#
# Bulk Modulus (GPa) = 63.48772 73.62724 68.55748
# Shear Modulus (GPa) = 35.22313 45.38453 40.30383
#
# Velocity S-wave (km/s) = 3.52948 4.00637 3.77546
# Velocity P-wave (km/s) = 6.25005 6.88773 6.57663
#
# Compressibility (1/GPa) = 0.01575108
#
# Stress axis : x y z
#
# Youngs Moduli (GPa) = 77.85571 134.53288 130.45152
#
# Poissons Ratio (x) = 0.49357 0.12705
# Poissons Ratio (y) = 0.28564 0.18958
# Poissons Ratio (z) = 0.07583 0.19551
#
# Static dielectric constant tensor:
#      x y z
#    x 2.451150 0.081160 0.027780 
#    y 0.081160 2.275610 0.008990 
#    z 0.027780 0.008990 2.185580 
# 
# From -- ./inp_files/518243.got.cif
#   From: 2010.05.17/outbox.cif.g08.bks.cpg/sg2_260_cif.got.tgz:518243.got - 2010.06.03 11:33:40.
