data_PCOD9030259
_publ_section_title
;
Structure prediction by ZEFSAII (Michael W. Deem and Ramdas Pophale) SiO2 
 PCOD9030259
Probable space group: P -1
;
_chemical_formula_sum "Si O2"
_cell_formula_units_Z 16
_cell_length_a 11.576158
_cell_length_b 17.847682
_cell_length_c 9.088423
_cell_angle_alpha 52.439627
_cell_angle_beta 47.736874
_cell_angle_gamma 29.061683
_cell_volume 673.786837
_symmetry_space_group_name_H-M "P -1"
_symmetry_group_IT_number 2
_symmetry_cell_setting 'triclinic'
loop_
_space_group_symop_operation_xyz
x,y,z
-x,-y,-z
loop_
_atom_site_type_symbol
_atom_site_label
_atom_site_fract_x
_atom_site_fract_y
_atom_site_fract_z
Si Si1 0.800170 0.878121 0.887740
Si Si2 0.637064 0.469082 0.569926
Si Si3 0.289352 0.885240 0.844394
Si Si4 0.865221 0.549079 0.203881
Si Si5 0.067223 0.359978 0.734172
Si Si6 0.414611 0.368240 0.337710
Si Si7 0.670013 0.130414 0.839186
Si Si8 0.980060 0.856772 0.439942
O O1 0.899054 0.840585 0.678908
O O2 0.820981 0.968699 0.841481
O O3 0.902973 0.746268 0.064172
O O4 0.500000 0.000000 0.000000
O O5 0.500000 0.500000 0.500000
O O6 0.829492 0.457948 0.370839
O O7 0.477586 0.607128 0.663048
O O8 0.821947 0.293382 0.656864
O O9 0.404244 0.744430 0.817735
O O10 0.255743 0.991827 0.636991
O O11 0.409884 0.844675 0.950724
O O12 0.000000 0.000000 0.000000
O O13 0.049638 0.507292 0.213818
O O14 0.583923 0.729602 0.206750
O O15 0.000000 0.500000 0.000000
O O16 0.309707 0.311408 0.540010
O O17 0.851931 0.451612 0.688343
O O18 0.855832 0.130983 0.664745
#
# Coordination Sequence:
#
# PCOD9030259 Si02
#       8
#     2   2   2   2   2   2   2   2
#     4  12  24  42  70 108 138 184 238 294 349 423
#     4  11  24  41  71 104 133 180 234 286 355 419
#     4  10  24  45  67  97 139 190 232 278 352 421
#     4  11  21  40  67  95 140 180 236 288 342 416
#     4  10  22  42  70 104 138 185 238 283 360 411
#     4  10  23  46  72 102 145 184 230 300 355 416
#     4  11  24  43  69  98 144 189 233 287 356 416
#     4  11  25  45  67 100 146 183 230 291 360 418
#
# _framework density 23.746383000000002
#
# number of rings (size 3 to 8) (size 9 to 14) (size 15 to 20)
#    0.000    1.250    2.500    2.625    3.500    2.000 
#    0.000    3.750    0.000    0.000    0.000    0.000 
#    0.000    0.000    0.000    0.000    0.000    0.000 
#
# Total GULP energy -89087.789699 kJ/mol
# GULP energy per Si atom -5567.986856 kJ/mol
# Density = 2.369234 g / cm^3
# Si number density = 23.746383 Si / 1000 Ang^3
#
#
#
# Elastic Constant Matrix: (Units=GPa)
#
#
# Indices 1 2 3 4 5 6 
#
# 1 100.5324 41.4477 18.6789 -7.8230 14.8888 22.1269
# 2 41.4477 82.0167 43.1062 4.9705 5.3939 19.5035
# 3 18.6789 43.1062 125.6165 -9.5474 13.5181 6.2734
# 4 -7.8230 4.9705 -9.5474 42.3916 12.4886 10.8596
# 5 14.8888 5.3939 13.5181 12.4886 40.4571 -6.2501
# 6 22.1269 19.5035 6.2734 10.8596 -6.2501 43.6131
#
#
#
# Elastic Compliance Matrix: (Units=1/GPa)
#
#
# Indices 1 2 3 4 5 6 
#
# 1 0.017172 -0.007562 0.002483 0.010323 -0.010844 -0.009812
# 2 -0.007562 0.020057 -0.006478 -0.005718 0.003691 -0.002248
# 3 0.002483 -0.006478 0.011031 0.006050 -0.005960 -0.002310
# 4 0.010323 -0.005718 0.006050 0.037060 -0.018890 -0.015486
# 5 -0.010844 0.003691 -0.005960 -0.018890 0.038342 0.014907
# 6 -0.009812 -0.002248 -0.002310 -0.015486 0.014907 0.035237
#
#
# Mechanical properties :
#
#
# Convention : Reuss Voigt Hill
#
# Bulk Modulus (GPa) = 39.76683 57.18123 48.47403
# Shear Modulus (GPa) = 26.26114 38.95457 32.60785
#
# Velocity S-wave (km/s) = 3.32912 4.05463 3.70965
# Velocity P-wave (km/s) = 5.61785 6.78618 6.22947
#
# Compressibility (1/GPa) = 0.02514659
#
# Stress axis : x y z
#
# Youngs Moduli (GPa) = 58.23314 49.85693 90.65330
#
# Poissons Ratio (x) = 0.37704 -0.22511
# Poissons Ratio (y) = 0.44038 0.58723
# Poissons Ratio (z) = -0.14460 0.32296
#
# Static dielectric constant tensor:
#      x y z
#    x 1.817170 0.108040 -0.050180 
#    y 0.108040 1.888270 0.053390 
#    z -0.050180 0.053390 1.908870 
# 
# From -- ./inp_files/278965.got.cif
#   From: 2010.05.17/outbox.cif.g08.bks.cpg/sg2_140_cif.got.tgz:278965.got - 2010.06.03 11:33:40.
