data_PCOD9030925
_publ_section_title
;
Structure prediction by ZEFSAII (Michael W. Deem and Ramdas Pophale) SiO2 
 PCOD9030925
Probable space group: P -1
;
_chemical_formula_sum "Si O2"
_cell_formula_units_Z 15
_cell_length_a 5.038822
_cell_length_b 9.180375
_cell_length_c 18.198543
_cell_angle_alpha 63.539788
_cell_angle_beta 79.761477
_cell_angle_gamma 60.157765
_cell_volume 652.662604
_symmetry_space_group_name_H-M "P -1"
_symmetry_group_IT_number 2
_symmetry_cell_setting 'triclinic'
loop_
_space_group_symop_operation_xyz
x,y,z
-x,-y,-z
loop_
_atom_site_type_symbol
_atom_site_label
_atom_site_fract_x
_atom_site_fract_y
_atom_site_fract_z
Si Si1 0.500000 0.500000 0.500000
Si Si2 0.114767 0.503108 0.383760
Si Si3 0.168793 0.837311 0.237920
Si Si4 0.190071 0.602051 0.947191
Si Si5 0.459947 0.803338 0.381265
Si Si6 0.170619 0.210739 0.331506
Si Si7 0.300722 0.766970 0.767875
Si Si8 0.785773 0.999620 0.946148
O O1 0.400180 0.441872 0.437211
O O2 0.248007 0.722997 0.442651
O O3 0.119014 0.660998 0.295173
O O4 0.116338 0.335951 0.376522
O O5 0.777118 0.606742 0.417248
O O6 0.402834 0.832424 0.290536
O O7 0.277572 0.848773 0.148139
O O8 0.868761 0.029470 0.231354
O O9 0.268140 0.621808 0.855045
O O10 0.976784 0.809249 0.937223
O O11 0.500000 0.500000 0.000000
O O12 0.000000 0.500000 0.000000
O O13 0.400259 0.991273 0.378816
O O14 0.353359 0.278503 0.252205
O O15 0.873786 0.224479 0.301441
O O16 0.500000 0.000000 0.000000
O O17 0.000000 0.000000 0.000000
#
# Coordination Sequence:
#
# PCOD9030925 Si02
#       8
#     1   2   2   2   2   2   2   2
#     4  10  24  44  66 100 136 174 208 276 336 400
#     4  11  23  42  69  97 130 174 220 270 333 398
#     4   9  22  41  66  87 133 179 218 272 337 387
#     4  11  23  41  62  90 133 177 216 281 344 391
#     4  10  22  45  66  95 135 172 219 272 332 394
#     4  11  24  40  70  99 126 173 226 268 320 396
#     4  10  22  43  62  92 130 173 222 275 328 391
#     4  11  25  41  63  96 135 175 227 278 334 396
#
# _framework density 22.982778
#
# number of rings (size 3 to 8) (size 9 to 14) (size 15 to 20)
#    0.000    1.600    1.333    2.000    5.600    5.867 
#    0.000    1.333    0.000    0.000    0.000    0.000 
#    0.000    0.000    0.000    0.000    0.000    0.000 
#
# Total GULP energy -83611.045822 kJ/mol
# GULP energy per Si atom -5574.069721 kJ/mol
# Density = 2.293047 g / cm^3
# Si number density = 22.982778 Si / 1000 Ang^3
#
#
#
# Elastic Constant Matrix: (Units=GPa)
#
#
# Indices 1 2 3 4 5 6 
#
# 1 85.6105 20.0144 16.3228 4.3066 0.2464 6.2043
# 2 20.0144 123.2782 41.1765 -1.2874 -4.2663 29.4256
# 3 16.3228 41.1765 140.0881 -4.1642 -5.6476 8.3064
# 4 4.3066 -1.2874 -4.1642 18.3305 1.5814 -4.8337
# 5 0.2464 -4.2663 -5.6476 1.5814 34.1809 -3.0654
# 6 6.2043 29.4256 8.3064 -4.8337 -3.0654 37.9263
#
#
#
# Elastic Compliance Matrix: (Units=1/GPa)
#
#
# Indices 1 2 3 4 5 6 
#
# 1 0.012489 -0.001435 -0.001085 -0.003558 -0.000389 -0.001177
# 2 -0.001435 0.011141 -0.002668 -0.001625 0.000317 -0.008006
# 3 -0.001085 -0.002668 0.008101 0.002037 0.000992 0.000813
# 4 -0.003558 -0.001625 0.002037 0.058176 -0.001755 0.008670
# 5 -0.000389 0.000317 0.000992 -0.001755 0.029703 0.001777
# 6 -0.001177 -0.008006 0.000813 0.008670 0.001777 0.033842
#
#
# Mechanical properties :
#
#
# Convention : Reuss Voigt Hill
#
# Bulk Modulus (GPa) = 46.82833 56.00047 51.41440
# Shear Modulus (GPa) = 29.24894 36.18505 32.71699
#
# Velocity S-wave (km/s) = 3.57129 3.97223 3.77708
# Velocity P-wave (km/s) = 6.11760 6.74220 6.43748
#
# Compressibility (1/GPa) = 0.02135459
#
# Stress axis : x y z
#
# Youngs Moduli (GPa) = 80.07337 89.75878 123.43502
#
# Poissons Ratio (x) = 0.12878 0.13394
# Poissons Ratio (y) = 0.11489 0.32936
# Poissons Ratio (z) = 0.08689 0.23951
#
# Static dielectric constant tensor:
#      x y z
#    x 1.592510 -0.009280 0.228600 
#    y -0.009280 1.874210 0.000070 
#    z 0.228600 0.000070 1.696250 
# 
# From -- ./inp_files/43543.got.cif
#   From: 2010.05.17/outbox.cif.g08.bks.cpg/sg2_22_cif.got.tgz:43543.got - 2010.06.03 11:33:40.
