data_PCOD9030100
_publ_section_title
;
Structure prediction by ZEFSAII (Michael W. Deem and Ramdas Pophale) SiO2 
 PCOD9030100
Probable space group: P -1
;
_chemical_formula_sum "Si O2"
_cell_formula_units_Z 14
_cell_length_a 5.066225
_cell_length_b 25.684018
_cell_length_c 15.523185
_cell_angle_alpha 164.242944
_cell_angle_beta 100.636686
_cell_angle_gamma 81.721023
_cell_volume 534.792617
_symmetry_space_group_name_H-M "P -1"
_symmetry_group_IT_number 2
_symmetry_cell_setting 'triclinic'
loop_
_space_group_symop_operation_xyz
x,y,z
-x,-y,-z
loop_
_atom_site_type_symbol
_atom_site_label
_atom_site_fract_x
_atom_site_fract_y
_atom_site_fract_z
Si Si1 0.071122 0.711673 0.227631
Si Si2 0.868274 0.335634 0.362935
Si Si3 0.211289 0.985319 0.414420
Si Si4 0.399276 0.042925 0.867882
Si Si5 0.843618 0.675855 0.813412
Si Si6 0.809551 0.820298 0.741877
Si Si7 0.529023 0.482176 0.870833
O O1 0.871999 0.850669 0.393487
O O2 0.846267 0.534305 0.954928
O O3 0.227614 0.837238 0.514220
O O4 0.323142 0.635561 0.071888
O O5 0.702696 0.512224 0.609192
O O6 0.078162 0.376514 0.362597
O O7 0.005665 0.341210 0.471865
O O8 0.719375 0.116416 0.000306
O O9 0.500000 0.000000 0.500000
O O10 0.000000 0.000000 0.500000
O O11 0.118524 0.779801 0.037602
O O12 0.328647 0.153461 0.950827
O O13 0.321952 0.119393 0.079498
O O14 0.592101 0.720304 0.502229
O O15 0.000000 0.000000 0.000000
O O16 0.500000 0.500000 0.000000
#
# Coordination Sequence:
#
# PCOD9030100 Si02
#       7
#     2   2   2   2   2   2   2
#     4  11  27  47  75 106 147 194 241 297 376 432
#     4  10  22  42  69  96 138 177 245 293 358 419
#     4  11  25  41  69 104 148 187 232 292 358 449
#     4  10  23  43  75 100 141 190 241 300 357 446
#     4   9  22  40  65 102 135 184 231 293 356 424
#     4  11  27  45  70 104 138 191 246 305 362 432
#     4  12  28  50  74 105 148 191 245 307 368 434
#
# _framework density 26.178370000000001
#
# number of rings (size 3 to 8) (size 9 to 14) (size 15 to 20)
#    0.000    1.429    0.000    2.571   18.000    0.571 
#    0.000    0.000    0.000    0.000    0.000    0.000 
#    0.000    0.000    0.000    0.000    0.000    0.000 
#
# Total GULP energy -78104.900762 kJ/mol
# GULP energy per Si atom -5578.921483 kJ/mol
# Density = 2.611879 g / cm^3
# Si number density = 26.178370 Si / 1000 Ang^3
#
#
#
# Elastic Constant Matrix: (Units=GPa)
#
#
# Indices 1 2 3 4 5 6 
#
# 1 112.1503 27.4744 42.1104 -3.4657 27.9130 -7.1051
# 2 27.4744 144.7149 74.2038 -5.7771 16.7913 -13.9964
# 3 42.1104 74.2038 174.9877 -19.8177 33.3119 -1.8126
# 4 -3.4657 -5.7771 -19.8177 47.6643 -3.8873 6.8208
# 5 27.9130 16.7913 33.3119 -3.8873 44.8703 -0.8707
# 6 -7.1051 -13.9964 -1.8126 6.8208 -0.8707 44.3465
#
#
#
# Elastic Compliance Matrix: (Units=1/GPa)
#
#
# Indices 1 2 3 4 5 6 
#
# 1 0.011067 -0.000621 -0.001366 -0.000513 -0.005654 0.001489
# 2 -0.000621 0.009238 -0.003790 -0.000925 -0.000283 0.002798
# 3 -0.001366 -0.003790 0.008730 0.002974 -0.003986 -0.001594
# 4 -0.000513 -0.000925 0.002974 0.022629 0.000345 -0.003726
# 5 -0.005654 -0.000283 -0.003986 0.000345 0.028886 -0.000644
# 6 0.001489 0.002798 -0.001594 -0.003726 -0.000644 0.024167
#
#
# Mechanical properties :
#
#
# Convention : Reuss Voigt Hill
#
# Bulk Modulus (GPa) = 57.20641 79.93667 68.57154
# Shear Modulus (GPa) = 40.95102 46.58051 43.76576
#
# Velocity S-wave (km/s) = 3.95942 4.22281 4.09324
# Velocity P-wave (km/s) = 6.54238 7.37413 6.97067
#
# Compressibility (1/GPa) = 0.01748056
#
# Stress axis : x y z
#
# Youngs Moduli (GPa) = 90.35539 108.25140 114.55222
#
# Poissons Ratio (x) = 0.06722 0.15653
# Poissons Ratio (y) = 0.05611 0.43412
# Poissons Ratio (z) = 0.12346 0.41024
#
# Static dielectric constant tensor:
#      x y z
#    x 2.280540 -0.183620 -0.166150 
#    y -0.183620 2.082140 0.160110 
#    z -0.166150 0.160110 2.303150 
# 
# From -- ./inp_files/486036.got.cif
#   From: 2010.05.17/outbox.cif.g08.bks.cpg/sg2_244_cif.got.tgz:486036.got - 2010.06.03 11:33:40.
