data_PCOD9030410
_publ_section_title
;
Structure prediction by ZEFSAII (Michael W. Deem and Ramdas Pophale) SiO2 
 PCOD9030410
Probable space group: P -1
;
_chemical_formula_sum "Si O2"
_cell_formula_units_Z 15
_cell_length_a 9.168473
_cell_length_b 6.969501
_cell_length_c 13.615574
_cell_angle_alpha 82.404261
_cell_angle_beta 68.086073
_cell_angle_gamma 52.306156
_cell_volume 633.216281
_symmetry_space_group_name_H-M "P -1"
_symmetry_group_IT_number 2
_symmetry_cell_setting 'triclinic'
loop_
_space_group_symop_operation_xyz
x,y,z
-x,-y,-z
loop_
_atom_site_type_symbol
_atom_site_label
_atom_site_fract_x
_atom_site_fract_y
_atom_site_fract_z
Si Si1 0.239153 0.286199 0.956100
Si Si2 0.871563 0.938088 0.135593
Si Si3 0.692666 0.475235 0.925648
Si Si4 0.331964 0.537938 0.758236
Si Si5 0.725959 0.740102 0.342963
Si Si6 0.260863 0.183154 0.437029
Si Si7 0.248842 0.600979 0.314428
Si Si8 0.000000 0.000000 0.500000
O O1 0.255127 0.059222 0.922621
O O2 0.339222 0.360640 0.849128
O O3 0.312022 0.303850 0.042643
O O4 0.000000 0.500000 0.000000
O O5 0.843096 0.798989 0.239011
O O6 0.104545 0.768856 0.064236
O O7 0.795042 0.195049 0.181073
O O8 0.718624 0.437563 0.806144
O O9 0.500000 0.500000 0.000000
O O10 0.241259 0.502941 0.687392
O O11 0.546288 0.467767 0.686830
O O12 0.763779 0.745232 0.446918
O O13 0.491005 0.957170 0.375076
O O14 0.216898 0.409417 0.373710
O O15 0.127575 0.103394 0.447964
O O16 0.076033 0.864988 0.380813
#
# Coordination Sequence:
#
# PCOD9030410 Si02
#       8
#     2   2   2   2   2   2   2   1
#     4   9  21  42  68  97 139 178 230 280 333 409
#     4  10  22  42  73  99 135 179 235 280 342 413
#     4  11  23  44  70 103 144 181 225 289 350 404
#     4  11  21  42  73 101 137 182 233 287 338 411
#     4  10  22  42  70  98 134 179 240 286 331 408
#     4  11  24  43  68 100 134 187 234 284 344 416
#     4  12  25  44  70 103 143 186 231 281 356 414
#     4  12  26  46  68 100 148 178 214 298 358 400
#
# _framework density 23.688586999999998
#
# number of rings (size 3 to 8) (size 9 to 14) (size 15 to 20)
#    0.000    1.333    4.000    1.200    0.000    4.800 
#    0.000    7.333    0.000    0.000    0.000    0.000 
#    0.000    0.000    0.000    0.000    0.000    0.000 
#
# Total GULP energy -83714.531011 kJ/mol
# GULP energy per Si atom -5580.968734 kJ/mol
# Density = 2.363467 g / cm^3
# Si number density = 23.688587 Si / 1000 Ang^3
#
#
#
# Elastic Constant Matrix: (Units=GPa)
#
#
# Indices 1 2 3 4 5 6 
#
# 1 144.6197 56.6098 56.8326 5.9302 -2.4416 45.8757
# 2 56.6098 87.6098 33.5066 27.6397 15.4041 34.3548
# 3 56.8326 33.5066 144.3613 22.8693 14.4421 26.0956
# 4 5.9302 27.6397 22.8693 36.6413 16.6675 6.9159
# 5 -2.4416 15.4041 14.4421 16.6675 51.8809 13.2131
# 6 45.8757 34.3548 26.0956 6.9159 13.2131 42.0513
#
#
#
# Elastic Compliance Matrix: (Units=1/GPa)
#
#
# Indices 1 2 3 4 5 6 
#
# 1 0.013532 -0.005449 -0.003254 0.003828 0.004568 -0.010356
# 2 -0.005449 0.024189 0.001210 -0.016048 0.000455 -0.012072
# 3 -0.003254 0.001210 0.009229 -0.005384 -0.000838 -0.002017
# 4 0.003828 -0.016048 -0.005384 0.045233 -0.010130 0.008020
# 5 0.004568 0.000455 -0.000838 -0.010130 0.025707 -0.011247
# 6 -0.010356 -0.012072 -0.002017 0.008020 -0.011247 0.048408
#
#
# Mechanical properties :
#
#
# Convention : Reuss Voigt Hill
#
# Bulk Modulus (GPa) = 31.28561 74.49873 52.89217
# Shear Modulus (GPa) = 26.05022 41.42417 33.73720
#
# Velocity S-wave (km/s) = 3.31976 4.18628 3.77795
# Velocity P-wave (km/s) = 5.28490 7.40838 6.43484
#
# Compressibility (1/GPa) = 0.03196358
#
# Stress axis : x y z
#
# Youngs Moduli (GPa) = 73.90069 41.34079 108.35919
#
# Poissons Ratio (x) = 0.22526 0.35258
# Poissons Ratio (y) = 0.40268 -0.13109
# Poissons Ratio (z) = 0.24046 -0.05001
#
# Static dielectric constant tensor:
#      x y z
#    x 1.900560 -0.045810 0.043330 
#    y -0.045810 1.928050 0.007200 
#    z 0.043330 0.007200 1.909940 
# 
# From -- ./inp_files/222706.got.cif
#   From: 2010.05.17/outbox.cif.g08.bks.cpg/sg2_112_cif.got.tgz:222706.got - 2010.06.03 11:33:40.
