data_PCOD9030927
_publ_section_title
;
Structure prediction by ZEFSAII (Michael W. Deem and Ramdas Pophale) SiO2 
 PCOD9030927
Probable space group: P -1
;
_chemical_formula_sum "Si O2"
_cell_formula_units_Z 16
_cell_length_a 16.284356
_cell_length_b 7.522184
_cell_length_c 22.974312
_cell_angle_alpha 126.160117
_cell_angle_beta 160.527487
_cell_angle_gamma 46.123483
_cell_volume 652.261861
_symmetry_space_group_name_H-M "P -1"
_symmetry_group_IT_number 2
_symmetry_cell_setting 'triclinic'
loop_
_space_group_symop_operation_xyz
x,y,z
-x,-y,-z
loop_
_atom_site_type_symbol
_atom_site_label
_atom_site_fract_x
_atom_site_fract_y
_atom_site_fract_z
Si Si1 0.233819 0.885103 0.795577
Si Si2 0.397811 0.835983 0.600408
Si Si3 0.450818 0.605562 0.303513
Si Si4 0.010403 0.203628 0.225821
Si Si5 0.703375 0.742969 0.163163
Si Si6 0.812279 0.873607 0.976359
Si Si7 0.494244 0.254169 0.166898
Si Si8 0.549653 0.872961 0.587300
O O1 0.453975 0.704699 0.857440
O O2 0.205558 0.156514 0.813182
O O3 0.384313 0.810104 0.943907
O O4 0.919386 0.935071 0.583860
O O5 0.384698 0.603554 0.577083
O O6 0.563648 0.747000 0.633305
O O7 0.567814 0.909631 0.774550
O O8 0.549340 0.440100 0.278765
O O9 0.486581 0.848617 0.371004
O O10 0.116023 0.717081 0.116497
O O11 0.261423 0.945487 0.373670
O O12 0.886839 0.443276 0.232505
O O13 0.176919 0.258927 0.296622
O O14 0.794652 0.131200 0.037625
O O15 0.696230 0.940243 0.244374
O O16 0.785613 0.724160 0.985677
#
# Coordination Sequence:
#
# PCOD9030927 Si02
#       8
#     2   2   2   2   2   2   2   2
#     4   9  21  38  58  95 127 161 226 247 313 388
#     4  11  22  42  64  97 129 163 215 265 308 378
#     4  10  22  43  67  93 127 166 214 261 318 377
#     4  10  22  43  62  92 132 164 211 260 319 383
#     4   9  20  39  62  88 125 174 206 257 317 374
#     4  10  23  39  65  95 123 171 213 250 332 376
#     4   9  19  38  63  85 125 171 202 259 313 367
#     4  10  24  42  67  97 127 164 210 269 315 367
#
# _framework density 24.530024000000001
#
# number of rings (size 3 to 8) (size 9 to 14) (size 15 to 20)
#    0.750    1.500    0.000    2.250    1.750    7.500 
#    0.000    7.500    0.000    0.000    0.000    0.000 
#    0.000    0.000    0.000    0.000    0.000    0.000 
#
# Total GULP energy -89247.107994 kJ/mol
# GULP energy per Si atom -5577.944250 kJ/mol
# Density = 2.447419 g / cm^3
# Si number density = 24.530024 Si / 1000 Ang^3
#
#
#
# Elastic Constant Matrix: (Units=GPa)
#
#
# Indices 1 2 3 4 5 6 
#
# 1 78.4775 8.4736 4.8332 2.2502 -14.5273 -14.7454
# 2 8.4736 101.7200 9.6659 9.5909 -2.5336 -32.4711
# 3 4.8332 9.6659 111.6288 3.3907 10.6276 -10.3945
# 4 2.2502 9.5909 3.3907 25.4647 -1.2464 -1.1709
# 5 -14.5273 -2.5336 10.6276 -1.2464 18.1749 7.7127
# 6 -14.7454 -32.4711 -10.3945 -1.1709 7.7127 33.8255
#
#
#
# Elastic Compliance Matrix: (Units=1/GPa)
#
#
# Indices 1 2 3 4 5 6 
#
# 1 0.015746 0.000535 -0.001419 -0.000638 0.011636 0.004266
# 2 0.000535 0.015222 0.000806 -0.005399 -0.005112 0.016072
# 3 -0.001419 0.000806 0.010425 -0.001783 -0.009565 0.005478
# 4 -0.000638 -0.005399 -0.001783 0.041582 0.005060 -0.005723
# 5 0.011636 -0.005112 -0.009565 0.005060 0.078221 -0.020435
# 6 0.004266 0.016072 0.005478 -0.005723 -0.020435 0.052997
#
#
# Mechanical properties :
#
#
# Convention : Reuss Voigt Hill
#
# Bulk Modulus (GPa) = 24.25029 37.53018 30.89024
# Shear Modulus (GPa) = 21.92082 33.41659 27.66871
#
# Velocity S-wave (km/s) = 2.99261 3.69490 3.36214
# Velocity P-wave (km/s) = 4.67423 5.79103 5.26234
#
# Compressibility (1/GPa) = 0.04123662
#
# Stress axis : x y z
#
# Youngs Moduli (GPa) = 63.50788 65.69418 95.92577
#
# Poissons Ratio (x) = -0.03515 0.13614
# Poissons Ratio (y) = -0.03398 -0.07732
# Poissons Ratio (z) = 0.09013 -0.05295
#
# Static dielectric constant tensor:
#      x y z
#    x 1.994170 -0.018240 0.037420 
#    y -0.018240 1.937840 0.012730 
#    z 0.037420 0.012730 2.016050 
# 
# From -- ./inp_files/612879.got.cif
#   From: 2010.05.17/outbox.cif.g08.bks.cpg/sg2_307_cif.got.tgz:612879.got - 2010.06.03 11:33:40.
