data_PCOD9030334
_publ_section_title
;
Structure prediction by ZEFSAII (Michael W. Deem and Ramdas Pophale) SiO2 
 PCOD9030334
Probable space group: P -1
;
_chemical_formula_sum "Si O2"
_cell_formula_units_Z 14
_cell_length_a 18.122619
_cell_length_b 9.395897
_cell_length_c 9.078549
_cell_angle_alpha 135.580344
_cell_angle_beta 38.348489
_cell_angle_gamma 132.659593
_cell_volume 646.260644
_symmetry_space_group_name_H-M "P -1"
_symmetry_group_IT_number 2
_symmetry_cell_setting 'triclinic'
loop_
_space_group_symop_operation_xyz
x,y,z
-x,-y,-z
loop_
_atom_site_type_symbol
_atom_site_label
_atom_site_fract_x
_atom_site_fract_y
_atom_site_fract_z
Si Si1 0.473977 0.891846 0.618494
Si Si2 0.854391 0.551394 0.482869
Si Si3 0.699563 0.555749 0.434187
Si Si4 0.924911 0.895703 0.868193
Si Si5 0.368321 0.012287 0.149728
Si Si6 0.070958 0.341390 0.025779
Si Si7 0.739343 0.113757 0.489043
O O1 0.416951 0.643755 0.511175
O O2 0.500000 0.000000 0.500000
O O3 0.605150 0.969734 0.549097
O O4 0.374103 0.956754 0.927970
O O5 0.789574 0.570402 0.444413
O O6 0.876769 0.763764 0.700699
O O7 0.017442 0.516098 0.780285
O O8 0.767210 0.348757 0.554698
O O9 0.647975 0.755914 0.645680
O O10 0.787351 0.549111 0.152213
O O11 0.953487 0.728553 0.816752
O O12 0.033169 0.111215 0.832570
O O13 0.828276 0.993852 0.180483
O O14 0.262333 0.877345 0.324391
O O15 0.500000 0.000000 0.000000
#
# Coordination Sequence:
#
# PCOD9030334 Si02
#       7
#     2   2   2   2   2   2   2
#     4  11  25  44  67  97 137 170 218 282 327 385
#     4  11  24  39  71  99 131 177 215 271 334 386
#     4  12  25  43  69  99 135 176 219 273 333 391
#     4  10  22  42  70  93 138 171 215 276 324 390
#     4  10  25  43  65  95 130 175 225 266 320 398
#     4  10  23  43  64 101 132 170 226 266 324 399
#     4  10  22  44  63  99 132 170 227 265 323 400
#
# _framework density 21.663087000000001
#
# number of rings (size 3 to 8) (size 9 to 14) (size 15 to 20)
#    0.000    1.429    2.857    0.857    4.000    6.857 
#    0.000    0.000    0.000    0.000    0.000    0.000 
#    0.000    0.000    0.000    0.000    0.000    0.000 
#
# Total GULP energy -78163.134224 kJ/mol
# GULP energy per Si atom -5583.081016 kJ/mol
# Density = 2.161378 g / cm^3
# Si number density = 21.663087 Si / 1000 Ang^3
#
#
#
# Elastic Constant Matrix: (Units=GPa)
#
#
# Indices 1 2 3 4 5 6 
#
# 1 31.7735 8.2874 16.7352 -1.6548 -2.0518 -5.0775
# 2 8.2874 97.2726 21.5213 -10.6844 -1.6652 -17.5939
# 3 16.7352 21.5213 79.1147 -3.9900 0.1043 -16.7526
# 4 -1.6548 -10.6844 -3.9900 21.2933 0.5153 6.7734
# 5 -2.0518 -1.6652 0.1043 0.5153 35.3990 0.5599
# 6 -5.0775 -17.5939 -16.7526 6.7734 0.5599 30.1039
#
#
#
# Elastic Compliance Matrix: (Units=1/GPa)
#
#
# Indices 1 2 3 4 5 6 
#
# 1 0.035809 -0.001191 -0.006947 0.000406 0.002013 0.001349
# 2 -0.001191 0.012130 -0.001791 0.004069 0.000369 0.004970
# 3 -0.006947 -0.001791 0.016016 -0.000598 -0.000634 0.006841
# 4 0.000406 0.004069 -0.000598 0.051979 -0.000389 -0.009575
# 5 0.002013 0.000369 -0.000634 -0.000389 0.028395 -0.000238
# 6 0.001349 0.004970 0.006841 -0.009575 -0.000238 0.042316
#
#
# Mechanical properties :
#
#
# Convention : Reuss Voigt Hill
#
# Bulk Modulus (GPa) = 22.67717 33.47208 28.07462
# Shear Modulus (GPa) = 22.60379 28.13371 25.36875
#
# Velocity S-wave (km/s) = 3.23371 3.60765 3.42579
# Velocity P-wave (km/s) = 4.94301 5.73047 5.35124
#
# Compressibility (1/GPa) = 0.04409722
#
# Stress axis : x y z
#
# Youngs Moduli (GPa) = 27.92574 82.43937 62.43835
#
# Poissons Ratio (x) = 0.09817 0.43378
# Poissons Ratio (y) = 0.03325 0.11181
# Poissons Ratio (z) = 0.19401 0.14763
#
# Static dielectric constant tensor:
#      x y z
#    x 1.822070 0.004240 0.011110 
#    y 0.004240 1.783240 -0.030240 
#    z 0.011110 -0.030240 1.794200 
# 
# From -- ./inp_files/202840.got.cif
#   From: 2010.05.17/outbox.cif.g08.bks.cpg/sg2_102_cif.got.tgz:202840.got - 2010.06.03 11:33:40.
