data_PCOD9030342
_publ_section_title
;
Structure prediction by ZEFSAII (Michael W. Deem and Ramdas Pophale) SiO2 
 PCOD9030342
Probable space group: P -1
;
_chemical_formula_sum "Si O2"
_cell_formula_units_Z 15
_cell_length_a 12.318304
_cell_length_b 12.570073
_cell_length_c 15.415059
_cell_angle_alpha 27.239404
_cell_angle_beta 34.996958
_cell_angle_gamma 45.789076
_cell_volume 622.193977
_symmetry_space_group_name_H-M "P -1"
_symmetry_group_IT_number 2
_symmetry_cell_setting 'triclinic'
loop_
_space_group_symop_operation_xyz
x,y,z
-x,-y,-z
loop_
_atom_site_type_symbol
_atom_site_label
_atom_site_fract_x
_atom_site_fract_y
_atom_site_fract_z
Si Si1 0.709039 0.596087 0.857425
Si Si2 0.060906 0.039304 0.066757
Si Si3 0.392013 0.728737 0.102408
Si Si4 0.201878 0.340244 0.915668
Si Si5 0.507963 0.895961 0.666269
Si Si6 0.500000 0.000000 0.000000
Si Si7 0.002627 0.272952 0.281969
Si Si8 0.265387 0.238737 0.628340
O O1 0.698898 0.785177 0.650172
O O2 0.893489 0.614569 0.782138
O O3 0.538222 0.658792 0.986244
O O4 0.649894 0.331261 0.059228
O O5 0.071143 0.162426 0.064840
O O6 0.148204 0.226803 0.802252
O O7 0.205817 0.841603 0.112910
O O8 0.865097 0.912799 0.247865
O O9 0.318868 0.495884 0.371998
O O10 0.500822 0.913550 0.962124
O O11 0.185641 0.600500 0.702440
O O12 0.400413 0.236623 0.863720
O O13 0.120631 0.325491 0.077647
O O14 0.500000 0.000000 0.500000
O O15 0.452501 0.103821 0.612384
O O16 0.000000 0.000000 0.500000
#
# Coordination Sequence:
#
# PCOD9030342 Si02
#       8
#     2   2   2   2   2   1   2   2
#     4  11  23  41  63  94 132 166 223 275 324 402
#     4  10  23  41  60  95 132 163 216 276 324 404
#     4  11  21  41  63  93 127 171 214 270 326 391
#     4  10  23  45  67  95 136 178 222 282 331 392
#     4  11  23  40  66  96 126 171 218 277 336 391
#     4  10  22  42  70  94 136 172 224 270 326 400
#     4  11  25  44  68  97 134 179 228 276 336 394
#     4  11  22  39  65  92 127 169 216 267 338 387
#
# _framework density 24.108238
#
# number of rings (size 3 to 8) (size 9 to 14) (size 15 to 20)
#    0.000    1.333    4.000    1.200    0.000    6.400 
#    0.000    2.000    0.000    0.000    0.000    0.000 
#    0.000    0.000    0.000    0.000    0.000    0.000 
#
# Total GULP energy -83599.837416 kJ/mol
# GULP energy per Si atom -5573.322494 kJ/mol
# Density = 2.405337 g / cm^3
# Si number density = 24.108238 Si / 1000 Ang^3
#
#
#
# Elastic Constant Matrix: (Units=GPa)
#
#
# Indices 1 2 3 4 5 6 
#
# 1 120.9215 26.4033 19.0815 -9.2986 29.8981 -12.3747
# 2 26.4033 101.5429 19.9426 -25.8078 18.1718 -27.2451
# 3 19.0815 19.9426 66.7588 -14.0095 40.2515 -17.5291
# 4 -9.2986 -25.8078 -14.0095 21.3474 -9.3041 18.1350
# 5 29.8981 18.1718 40.2515 -9.3041 33.7201 -13.9170
# 6 -12.3747 -27.2451 -17.5291 18.1350 -13.9170 57.1325
#
#
#
# Elastic Compliance Matrix: (Units=1/GPa)
#
#
# Indices 1 2 3 4 5 6 
#
# 1 0.012735 -0.000901 0.011499 0.002020 -0.024261 -0.000694
# 2 -0.000901 0.014975 0.003146 0.015978 -0.006055 0.001365
# 3 0.011499 0.003146 0.066317 0.015923 -0.087497 -0.002030
# 4 0.002020 0.015978 0.015923 0.087056 -0.012731 -0.017792
# 5 -0.024261 -0.006055 -0.087497 -0.012731 0.158527 0.007670
# 6 -0.000694 0.001365 -0.002030 -0.017792 0.007670 0.024897
#
#
# Mechanical properties :
#
#
# Convention : Reuss Voigt Hill
#
# Bulk Modulus (GPa) = 8.22945 46.67533 27.45239
# Shear Modulus (GPa) = 13.24423 37.35973 25.30198
#
# Velocity S-wave (km/s) = 2.34640 3.94085 3.24314
# Velocity P-wave (km/s) = 3.28051 6.33323 5.04339
#
# Compressibility (1/GPa) = 0.12151474
#
# Stress axis : x y z
#
# Youngs Moduli (GPa) = 78.52413 66.77776 15.07920
#
# Poissons Ratio (x) = 0.06016 -0.17339
# Poissons Ratio (y) = 0.07074 -0.04744
# Poissons Ratio (z) = -0.90293 -0.21010
#
# Static dielectric constant tensor:
#      x y z
#    x 2.032490 0.049530 -0.057170 
#    y 0.049530 1.957580 -0.035570 
#    z -0.057170 -0.035570 1.964400 
# 
# From -- ./inp_files/67066.got.cif
#   From: 2010.05.17/outbox.cif.g08.bks.cpg/sg2_34_cif.got.tgz:67066.got - 2010.06.03 11:33:40.
