data_PCOD9030076
_publ_section_title
;
Structure prediction by ZEFSAII (Michael W. Deem and Ramdas Pophale) SiO2 
 PCOD9030076
Probable space group: P -1
;
_chemical_formula_sum "Si O2"
_cell_formula_units_Z 15
_cell_length_a 8.532798
_cell_length_b 8.345702
_cell_length_c 21.319137
_cell_angle_alpha 33.280748
_cell_angle_beta 139.014410
_cell_angle_gamma 130.995243
_cell_volume 545.086161
_symmetry_space_group_name_H-M "P -1"
_symmetry_group_IT_number 2
_symmetry_cell_setting 'triclinic'
loop_
_space_group_symop_operation_xyz
x,y,z
-x,-y,-z
loop_
_atom_site_type_symbol
_atom_site_label
_atom_site_fract_x
_atom_site_fract_y
_atom_site_fract_z
Si Si1 0.000000 0.000000 0.000000
Si Si2 0.509427 0.824057 0.705352
Si Si3 0.861258 0.399303 0.631762
Si Si4 0.403080 0.564492 0.253912
Si Si5 0.782213 0.045152 0.089395
Si Si6 0.224830 0.350360 0.043635
Si Si7 0.789645 0.819121 0.582813
Si Si8 0.841587 0.760092 0.389962
O O1 0.829082 0.271686 0.855471
O O2 0.769376 0.761516 0.988005
O O3 0.603080 0.571651 0.772248
O O4 0.548203 0.729715 0.819340
O O5 0.680254 0.119721 0.655931
O O6 0.271102 0.917668 0.568586
O O7 0.841475 0.548588 0.643832
O O8 0.779125 0.643074 0.478979
O O9 0.116799 0.254461 0.756421
O O10 0.417345 0.294479 0.394950
O O11 0.627290 0.774867 0.272886
O O12 0.982553 0.138449 0.063765
O O13 0.814712 0.318502 0.057462
O O14 0.500000 0.000000 0.000000
O O15 0.001729 0.942405 0.650762
O O16 0.000000 0.500000 0.500000
#
# Coordination Sequence:
#
# PCOD9030076 Si02
#       8
#     1   2   2   2   2   2   2   2
#     4  12  26  46  74  98 142 178 224 288 340 406
#     4  11  22  44  74  94 137 179 221 280 340 405
#     4  11  24  41  66 102 135 178 230 281 337 402
#     4  12  25  46  71 103 136 182 228 280 345 402
#     4  10  22  42  69  95 135 180 224 272 339 407
#     4  10  24  44  67 102 130 179 229 272 338 407
#     4  12  25  44  71 103 138 176 227 288 341 399
#     4  12  26  43  66 105 137 182 230 277 340 408
#
# _framework density 27.518585999999999
#
# number of rings (size 3 to 8) (size 9 to 14) (size 15 to 20)
#    0.000    0.800    2.667    6.000    3.733    2.133 
#    0.000    1.333    0.000    0.000    0.000    0.000 
#    0.000    0.000    0.000    0.000    0.000    0.000 
#
# Total GULP energy -83799.582575 kJ/mol
# GULP energy per Si atom -5586.638838 kJ/mol
# Density = 2.745595 g / cm^3
# Si number density = 27.518586 Si / 1000 Ang^3
#
#
#
# Elastic Constant Matrix: (Units=GPa)
#
#
# Indices 1 2 3 4 5 6 
#
# 1 37.0438 8.9907 11.4284 5.2105 2.0172 9.0403
# 2 8.9907 169.2247 25.8908 22.4216 18.5018 -0.0298
# 3 11.4284 25.8908 131.7738 10.1751 25.7793 -4.7115
# 4 5.2105 22.4216 10.1751 51.0625 -1.6704 -1.6194
# 5 2.0172 18.5018 25.7793 -1.6704 38.3901 0.4427
# 6 9.0403 -0.0298 -4.7115 -1.6194 0.4427 28.3510
#
#
#
# Elastic Compliance Matrix: (Units=1/GPa)
#
#
# Indices 1 2 3 4 5 6 
#
# 1 0.030973 -0.000968 -0.002827 -0.002480 0.000750 -0.010500
# 2 -0.000968 0.006738 -0.000418 -0.002872 -0.003042 0.000130
# 3 -0.002827 -0.000418 0.009290 -0.001497 -0.005981 0.002453
# 4 -0.002480 -0.002872 -0.001497 0.021563 0.003438 0.001717
# 5 0.000750 -0.003042 -0.005981 0.003438 0.031659 -0.001534
# 6 -0.010500 0.000130 0.002453 0.001717 -0.001534 0.039150
#
#
# Mechanical properties :
#
#
# Convention : Reuss Voigt Hill
#
# Bulk Modulus (GPa) = 25.92460 47.85136 36.88798
# Shear Modulus (GPa) = 31.12226 43.00954 37.06590
#
# Velocity S-wave (km/s) = 3.36661 3.95768 3.67405
# Velocity P-wave (km/s) = 4.95513 6.18957 5.60643
#
# Compressibility (1/GPa) = 0.03857340
#
# Stress axis : x y z
#
# Youngs Moduli (GPa) = 32.28644 148.41504 107.64828
#
# Poissons Ratio (x) = 0.14371 0.30428
# Poissons Ratio (y) = 0.03126 0.04504
# Poissons Ratio (z) = 0.09126 0.06209
#
# Static dielectric constant tensor:
#      x y z
#    x 2.849610 -0.431610 -0.182990 
#    y -0.431610 2.512850 0.152880 
#    z -0.182990 0.152880 2.217490 
# 
# From -- ./inp_files/618150.got.cif
#   From: 2010.05.17/outbox.cif.g08.bks.cpg/sg2_310_cif.got.tgz:618150.got - 2010.06.03 11:33:40.
