data_PCOD9030449
_publ_section_title
;
Structure prediction by ZEFSAII (Michael W. Deem and Ramdas Pophale) SiO2 
 PCOD9030449
Probable space group: P -1
;
_chemical_formula_sum "Si O2"
_cell_formula_units_Z 12
_cell_length_a 21.545145
_cell_length_b 14.131197
_cell_length_c 18.358123
_cell_angle_alpha 161.151659
_cell_angle_beta 162.446254
_cell_angle_gamma 20.794434
_cell_volume 513.309135
_symmetry_space_group_name_H-M "P -1"
_symmetry_group_IT_number 2
_symmetry_cell_setting 'triclinic'
loop_
_space_group_symop_operation_xyz
x,y,z
-x,-y,-z
loop_
_atom_site_type_symbol
_atom_site_label
_atom_site_fract_x
_atom_site_fract_y
_atom_site_fract_z
Si Si1 0.345433 0.132912 0.164730
Si Si2 0.522577 0.582705 0.353563
Si Si3 0.243031 0.721159 0.273153
Si Si4 0.813206 0.896252 0.178849
Si Si5 0.126788 0.661480 0.707519
Si Si6 0.524194 0.596003 0.198766
O O1 0.308628 0.316447 0.333154
O O2 0.533780 0.245167 0.420690
O O3 0.157012 0.171220 0.923538
O O4 0.451733 0.770515 0.037515
O O5 0.297273 0.716045 0.243195
O O6 0.518273 0.694566 0.347616
O O7 0.600914 0.208976 0.171722
O O8 0.214884 0.401274 0.031275
O O9 0.042221 0.027920 0.289218
O O10 0.000000 0.000000 0.500000
O O11 0.263986 0.424850 0.626839
O O12 0.000000 0.500000 0.500000
O O13 0.304646 0.746614 0.017782
#
# Coordination Sequence:
#
# PCOD9030449 Si02
#       6
#     2   2   2   2   2   2
#     4   9  21  44  69  95 139 182 230 280 342 412
#     4   9  22  44  65  98 138 179 227 280 349 405
#     4  10  22  42  71 100 137 184 236 276 348 411
#     4  11  23  41  67 106 140 181 228 288 347 412
#     4  11  22  44  71 102 136 187 230 288 346 410
#     4  10  22  44  70  99 142 175 232 290 345 415
#
# _framework density 23.377725000000002
#
# number of rings (size 3 to 8) (size 9 to 14) (size 15 to 20)
#    1.000    1.000    1.667    1.000    2.333    1.333 
#    9.000    7.500    0.000    0.000    0.000    0.000 
#    0.000    0.000    0.000    0.000    0.000    0.000 
#
# Total GULP energy -67028.053087 kJ/mol
# GULP energy per Si atom -5585.671091 kJ/mol
# Density = 2.332452 g / cm^3
# Si number density = 23.377725 Si / 1000 Ang^3
#
#
#
# Elastic Constant Matrix: (Units=GPa)
#
#
# Indices 1 2 3 4 5 6 
#
# 1 149.8782 19.1215 53.8696 -10.2572 -18.3983 3.0383
# 2 19.1215 68.3593 17.5501 -1.4529 -4.7413 -6.0919
# 3 53.8696 17.5501 105.3250 7.8547 -8.1536 11.7937
# 4 -10.2572 -1.4529 7.8547 31.9342 4.0259 2.4817
# 5 -18.3983 -4.7413 -8.1536 4.0259 57.6693 5.4366
# 6 3.0383 -6.0919 11.7937 2.4817 5.4366 33.7064
#
#
#
# Elastic Compliance Matrix: (Units=1/GPa)
#
#
# Indices 1 2 3 4 5 6 
#
# 1 0.008915 -0.001131 -0.004502 0.003685 0.001858 -0.000004
# 2 -0.001131 0.015963 -0.002542 0.000670 0.000187 0.003797
# 3 -0.004502 -0.002542 0.013135 -0.004565 0.000952 -0.004467
# 4 0.003685 0.000670 -0.004565 0.033931 -0.001704 -0.000837
# 5 0.001858 0.000187 0.000952 -0.001704 0.018516 -0.003327
# 6 -0.000004 0.003797 -0.004467 -0.000837 -0.003327 0.032516
#
#
# Mechanical properties :
#
#
# Convention : Reuss Voigt Hill
#
# Bulk Modulus (GPa) = 46.16132 56.07166 51.11649
# Shear Modulus (GPa) = 34.11906 40.19675 37.15790
#
# Velocity S-wave (km/s) = 3.82444 4.15112 3.99113
# Velocity P-wave (km/s) = 6.26822 6.85659 6.56900
#
# Compressibility (1/GPa) = 0.02166316
#
# Stress axis : x y z
#
# Youngs Moduli (GPa) = 112.17418 62.64417 76.13429
#
# Poissons Ratio (x) = 0.07086 0.34273
# Poissons Ratio (y) = 0.12688 0.19353
# Poissons Ratio (z) = 0.50497 0.15924
#
# Static dielectric constant tensor:
#      x y z
#    x 1.910270 -0.031840 -0.001200 
#    y -0.031840 1.906530 0.003720 
#    z -0.001200 0.003720 1.893360 
# 
# From -- ./inp_files/578247.got.cif
#   From: 2010.05.17/outbox.cif.g08.bks.cpg/sg2_290_cif.got.tgz:578247.got - 2010.06.03 11:33:40.
