data_PCOD9030215
_publ_section_title
;
Structure prediction by ZEFSAII (Michael W. Deem and Ramdas Pophale) SiO2 
 PCOD9030215
Probable space group: P -1
;
_chemical_formula_sum "Si O2"
_cell_formula_units_Z 16
_cell_length_a 8.646394
_cell_length_b 14.135315
_cell_length_c 11.696844
_cell_angle_alpha 150.049303
_cell_angle_beta 68.931182
_cell_angle_gamma 111.779646
_cell_volume 660.548029
_symmetry_space_group_name_H-M "P -1"
_symmetry_group_IT_number 2
_symmetry_cell_setting 'triclinic'
loop_
_space_group_symop_operation_xyz
x,y,z
-x,-y,-z
loop_
_atom_site_type_symbol
_atom_site_label
_atom_site_fract_x
_atom_site_fract_y
_atom_site_fract_z
Si Si1 0.016192 0.947468 0.225979
Si Si2 0.416297 0.779163 0.295797
Si Si3 0.655298 0.759862 0.036752
Si Si4 0.201402 0.365087 0.357801
Si Si5 0.865538 0.348441 0.939063
Si Si6 0.136017 0.787354 0.803190
Si Si7 0.564266 0.137118 0.372550
Si Si8 0.749552 0.689298 0.460043
O O1 0.827266 0.880263 0.163484
O O2 0.077278 0.170681 0.462305
O O3 0.054968 0.812647 0.179332
O O4 0.130714 0.899835 0.039034
O O5 0.554907 0.671766 0.081207
O O6 0.377857 0.749638 0.408168
O O7 0.500000 0.000000 0.500000
O O8 0.254999 0.746612 0.226460
O O9 0.544758 0.911909 0.170211
O O10 0.698776 0.630913 0.784031
O O11 0.139257 0.567797 0.607139
O O12 0.289475 0.320151 0.404038
O O13 0.036836 0.213739 0.221674
O O14 0.767298 0.480459 0.187045
O O15 0.000000 0.500000 0.000000
O O16 0.294033 0.842033 0.739215
O O17 0.395314 0.213014 0.459598
#
# Coordination Sequence:
#
# PCOD9030215 Si02
#       8
#     2   2   2   2   2   2   2   2
#     4  11  24  48  76 106 143 190 241 303 359 425
#     4  10  25  48  71 100 147 193 235 290 361 432
#     4  10  23  44  75 102 140 196 242 288 360 438
#     4  10  22  42  70 106 136 189 240 299 358 424
#     4  12  30  48  74 112 146 187 247 301 356 433
#     4  10  22  42  70 101 145 183 241 296 361 429
#     4  11  25  43  66 103 139 193 234 294 358 435
#     4  12  27  45  73 108 146 187 240 302 366 422
#
# _framework density 24.222311000000001
#
# number of rings (size 3 to 8) (size 9 to 14) (size 15 to 20)
#    0.000    1.250    1.250    3.000    8.750    6.500 
#    0.000    0.000    0.000    0.000    0.000    0.000 
#    0.000    0.000    0.000    0.000    0.000    0.000 
#
# Total GULP energy -89576.112447 kJ/mol
# GULP energy per Si atom -5598.507028 kJ/mol
# Density = 2.416718 g / cm^3
# Si number density = 24.222311 Si / 1000 Ang^3
#
#
#
# Elastic Constant Matrix: (Units=GPa)
#
#
# Indices 1 2 3 4 5 6 
#
# 1 94.6403 31.1188 20.2750 -18.8877 14.5911 -21.9211
# 2 31.1188 99.5998 14.5716 -17.2570 14.0904 1.0630
# 3 20.2750 14.5716 99.3149 -5.0829 10.6090 -12.9568
# 4 -18.8877 -17.2570 -5.0829 39.9193 2.6896 -3.6065
# 5 14.5911 14.0904 10.6090 2.6896 37.4040 -7.4759
# 6 -21.9211 1.0630 -12.9568 -3.6065 -7.4759 41.0053
#
#
#
# Elastic Compliance Matrix: (Units=1/GPa)
#
#
# Indices 1 2 3 4 5 6 
#
# 1 0.015579 -0.003130 -0.000941 0.006864 -0.003511 0.008076
# 2 -0.003130 0.012403 -0.000909 0.003793 -0.004002 -0.002678
# 3 -0.000941 -0.000909 0.011005 0.000940 -0.001934 0.002728
# 4 0.006864 0.003793 0.000940 0.030932 -0.005480 0.005590
# 5 -0.003511 -0.004002 -0.001934 -0.005480 0.031116 0.002807
# 6 0.008076 -0.002678 0.002728 0.005590 0.002807 0.030639
#
#
# Mechanical properties :
#
#
# Convention : Reuss Voigt Hill
#
# Bulk Modulus (GPa) = 34.45045 47.27620 40.86333
# Shear Modulus (GPa) = 33.04508 38.83838 35.94173
#
# Velocity S-wave (km/s) = 3.69757 4.00861 3.85623
# Velocity P-wave (km/s) = 5.69937 6.40197 6.06086
#
# Compressibility (1/GPa) = 0.02902719
#
# Stress axis : x y z
#
# Youngs Moduli (GPa) = 64.18956 80.62664 90.86738
#
# Poissons Ratio (x) = 0.25236 0.08553
# Poissons Ratio (y) = 0.20091 0.08256
# Poissons Ratio (z) = 0.06042 0.07326
#
# Static dielectric constant tensor:
#      x y z
#    x 1.903190 0.013060 -0.011760 
#    y 0.013060 1.978680 0.003370 
#    z -0.011760 0.003370 1.951490 
# 
# From -- ./inp_files/308104.got.cif
#   From: 2010.05.17/outbox.cif.g08.bks.cpg/sg2_155_cif.got.tgz:308104.got - 2010.06.03 11:33:40.
