data_PCOD9030047
_publ_section_title
;
Structure prediction by ZEFSAII (Michael W. Deem and Ramdas Pophale) SiO2 
 PCOD9030047
Probable space group: P -1
;
_chemical_formula_sum "Si O2"
_cell_formula_units_Z 16
_cell_length_a 7.768567
_cell_length_b 17.890774
_cell_length_c 9.978873
_cell_angle_alpha 47.694794
_cell_angle_beta 132.897380
_cell_angle_gamma 131.536480
_cell_volume 695.586901
_symmetry_space_group_name_H-M "P -1"
_symmetry_group_IT_number 2
_symmetry_cell_setting 'triclinic'
loop_
_space_group_symop_operation_xyz
x,y,z
-x,-y,-z
loop_
_atom_site_type_symbol
_atom_site_label
_atom_site_fract_x
_atom_site_fract_y
_atom_site_fract_z
Si Si1 0.295784 0.553330 0.326993
Si Si2 0.350422 0.090811 0.743223
Si Si3 0.611950 0.052824 0.299470
Si Si4 0.908399 0.301834 0.092945
Si Si5 0.401957 0.314474 0.423721
Si Si6 0.048704 0.776691 0.084622
Si Si7 0.132042 0.028924 0.224396
Si Si8 0.903379 0.394898 0.479252
O O1 0.500000 0.500000 0.500000
O O2 0.416557 0.642669 0.402740
O O3 0.040248 0.450490 0.350287
O O4 0.247921 0.621050 0.098820
O O5 0.281866 0.184051 0.520786
O O6 0.651489 0.146948 0.855694
O O7 0.318068 0.991825 0.746773
O O8 0.160695 0.053932 0.812465
O O9 0.738326 0.184023 0.204837
O O10 0.311240 0.017144 0.214551
O O11 0.729439 0.998440 0.540423
O O12 0.171771 0.353965 0.248741
O O13 0.997222 0.285191 0.007993
O O14 0.600823 0.350982 0.364224
O O15 0.020063 0.696754 0.294161
O O16 0.886727 0.852552 0.924083
O O17 0.000000 0.500000 0.500000
#
# Coordination Sequence:
#
# PCOD9030047 Si02
#       8
#     2   2   2   2   2   2   2   2
#     4  11  25  45  66  93 133 163 213 281 325 383
#     4  11  20  43  63  93 135 173 216 262 321 385
#     4  11  25  39  62  98 135 172 220 266 315 397
#     4  12  22  42  69  93 128 177 213 262 338 380
#     4  10  22  42  69  94 125 168 217 266 321 397
#     4  11  22  38  67  92 124 175 219 268 322 384
#     4  11  23  40  60  95 134 171 217 271 317 385
#     4   9  19  43  61  93 120 156 221 266 314 386
#
# _framework density 23.002158999999999
#
# number of rings (size 3 to 8) (size 9 to 14) (size 15 to 20)
#    0.000    1.250    6.250    1.500    1.750    1.500 
#    4.500    1.250    0.000    0.000    0.000    0.000 
#    0.000    0.000    0.000    0.000    0.000    0.000 
#
# Total GULP energy -89305.327497 kJ/mol
# GULP energy per Si atom -5581.582969 kJ/mol
# Density = 2.294980 g / cm^3
# Si number density = 23.002159 Si / 1000 Ang^3
#
#
#
# Elastic Constant Matrix: (Units=GPa)
#
#
# Indices 1 2 3 4 5 6 
#
# 1 71.9952 24.4278 38.1012 -6.2235 22.4194 18.3388
# 2 24.4278 64.4116 46.4393 -21.0449 4.4052 27.2506
# 3 38.1012 46.4393 150.6703 -23.7335 26.4701 8.8198
# 4 -6.2235 -21.0449 -23.7335 37.0837 -7.4665 1.0563
# 5 22.4194 4.4052 26.4701 -7.4665 34.5816 0.3825
# 6 18.3388 27.2506 8.8198 1.0563 0.3825 29.2441
#
#
#
# Elastic Compliance Matrix: (Units=1/GPa)
#
#
# Indices 1 2 3 4 5 6 
#
# 1 0.022555 -0.000557 -0.002664 -0.000383 -0.012455 -0.012645
# 2 -0.000557 0.047684 -0.009667 0.023431 0.007211 -0.042109
# 3 -0.002664 -0.009667 0.010747 -0.000363 -0.005429 0.007522
# 4 -0.000383 0.023431 -0.000363 0.042007 0.006866 -0.023092
# 5 -0.012455 0.007211 -0.005429 0.006866 0.041690 0.001935
# 6 -0.012645 -0.042109 0.007522 -0.023092 0.001935 0.079904
#
#
# Mechanical properties :
#
#
# Convention : Reuss Voigt Hill
#
# Bulk Modulus (GPa) = 18.11289 56.11262 37.11275
# Shear Modulus (GPa) = 17.31508 32.05581 24.68544
#
# Velocity S-wave (km/s) = 2.74662 3.73715 3.27950
# Velocity P-wave (km/s) = 4.23676 6.56271 5.52355
#
# Compressibility (1/GPa) = 0.05520930
#
# Stress axis : x y z
#
# Youngs Moduli (GPa) = 44.33590 20.97144 93.05266
#
# Poissons Ratio (x) = 0.01168 0.24790
# Poissons Ratio (y) = 0.02469 0.89956
# Poissons Ratio (z) = 0.11811 0.20274
#
# Static dielectric constant tensor:
#      x y z
#    x 1.969280 -0.026750 0.024970 
#    y -0.026750 1.895580 -0.008070 
#    z 0.024970 -0.008070 1.948340 
# 
# From -- ./inp_files/404738.got.cif
#   From: 2010.05.17/outbox.cif.g08.bks.cpg/sg2_203_cif.got.tgz:404738.got - 2010.06.03 11:33:40.
