data_PCOD9030680
_publ_section_title
;
Structure prediction by ZEFSAII (Michael W. Deem and Ramdas Pophale) SiO2 
 PCOD9030680
Probable space group: P -1
;
_chemical_formula_sum "Si O2"
_cell_formula_units_Z 16
_cell_length_a 14.137120
_cell_length_b 7.958096
_cell_length_c 11.380377
_cell_angle_alpha 106.409811
_cell_angle_beta 147.241038
_cell_angle_gamma 68.984641
_cell_volume 646.258457
_symmetry_space_group_name_H-M "P -1"
_symmetry_group_IT_number 2
_symmetry_cell_setting 'triclinic'
loop_
_space_group_symop_operation_xyz
x,y,z
-x,-y,-z
loop_
_atom_site_type_symbol
_atom_site_label
_atom_site_fract_x
_atom_site_fract_y
_atom_site_fract_z
Si Si1 0.515379 0.166483 0.629713
Si Si2 0.436378 0.917979 0.072844
Si Si3 0.941878 0.129100 0.350064
Si Si4 0.065496 0.871427 0.930919
Si Si5 0.227598 0.358879 0.701232
Si Si6 0.368975 0.332228 0.079161
Si Si7 0.045727 0.492951 0.911188
Si Si8 0.714488 0.470822 0.454408
O O1 0.375508 0.360102 0.520222
O O2 0.500000 0.000000 0.500000
O O3 0.496589 0.102031 0.728526
O O4 0.719160 0.187187 0.840722
O O5 0.612363 0.823827 0.168631
O O6 0.357091 0.127797 0.018624
O O7 0.274683 0.821688 0.861134
O O8 0.978053 0.061477 0.236659
O O9 0.043279 0.292226 0.497264
O O10 0.000000 0.000000 0.500000
O O11 0.994789 0.691845 0.840903
O O12 0.000000 0.000000 0.000000
O O13 0.264682 0.441650 0.881057
O O14 0.266540 0.460412 0.644766
O O15 0.254016 0.410423 0.087907
O O16 0.573358 0.346829 0.290776
O O17 0.914908 0.385050 0.689997
O O18 0.000000 0.500000 0.000000
#
# Coordination Sequence:
#
# PCOD9030680 Si02
#       8
#     2   2   2   2   2   2   2   2
#     4  10  22  42  72  97 133 183 240 294 350 417
#     4  10  25  42  69 106 136 178 246 294 347 431
#     4  11  23  43  75 106 140 182 246 298 356 419
#     4  11  24  46  72 102 141 182 245 299 349 431
#     4  11  24  46  75 100 139 188 242 288 364 426
#     4  12  26  45  67 107 147 183 231 298 365 425
#     4  12  29  46  67 104 147 189 240 286 362 433
#     4  11  25  47  69 101 143 189 234 293 360 430
#
# _framework density 24.757895000000001
#
# number of rings (size 3 to 8) (size 9 to 14) (size 15 to 20)
#    0.000    1.000    3.750    1.500    7.000    4.000 
#    0.000    0.000    0.000    0.000    0.000    0.000 
#    0.000    0.000    0.000    0.000    0.000    0.000 
#
# Total GULP energy -89502.941768 kJ/mol
# GULP energy per Si atom -5593.933860 kJ/mol
# Density = 2.470155 g / cm^3
# Si number density = 24.757895 Si / 1000 Ang^3
#
#
#
# Elastic Constant Matrix: (Units=GPa)
#
#
# Indices 1 2 3 4 5 6 
#
# 1 148.1759 39.3882 24.2385 5.4222 -4.9940 -1.6299
# 2 39.3882 64.8045 5.7907 7.5974 2.5749 4.6915
# 3 24.2385 5.7907 84.2652 24.0240 -0.4225 12.9910
# 4 5.4222 7.5974 24.0240 35.9354 10.8481 1.5841
# 5 -4.9940 2.5749 -0.4225 10.8481 42.0347 4.7940
# 6 -1.6299 4.6915 12.9910 1.5841 4.7940 33.1641
#
#
#
# Elastic Compliance Matrix: (Units=1/GPa)
#
#
# Indices 1 2 3 4 5 6 
#
# 1 0.008628 -0.005339 -0.002843 0.001418 0.000716 0.002122
# 2 -0.005339 0.019275 0.001999 -0.004371 -0.000265 -0.003525
# 3 -0.002843 0.001999 0.017155 -0.012263 0.003685 -0.007090
# 4 0.001418 -0.004371 -0.012263 0.039684 -0.010512 0.005116
# 5 0.000716 -0.000265 0.003685 -0.010512 0.027188 -0.004799
# 6 0.002122 -0.003525 -0.007090 0.005116 -0.004799 0.033983
#
#
# Mechanical properties :
#
#
# Convention : Reuss Voigt Hill
#
# Bulk Modulus (GPa) = 30.58583 48.45337 39.51960
# Shear Modulus (GPa) = 29.55509 37.41539 33.48524
#
# Velocity S-wave (km/s) = 3.45884 3.89170 3.68164
# Velocity P-wave (km/s) = 5.32280 6.30929 5.83692
#
# Compressibility (1/GPa) = 0.03269488
#
# Stress axis : x y z
#
# Youngs Moduli (GPa) = 115.89594 51.87981 58.29173
#
# Poissons Ratio (x) = 0.27696 0.16571
# Poissons Ratio (y) = 0.61872 -0.11654
# Poissons Ratio (z) = 0.32946 -0.10372
#
# Static dielectric constant tensor:
#      x y z
#    x 2.087420 -0.088940 -0.032140 
#    y -0.088940 2.063270 0.023760 
#    z -0.032140 0.023760 1.949160 
# 
# From -- ./inp_files/447954.got.cif
#   From: 2010.05.17/outbox.cif.g08.bks.cpg/sg2_224_cif.got.tgz:447954.got - 2010.06.03 11:33:40.
