data_PCOD9030799
_publ_section_title
;
Structure prediction by ZEFSAII (Michael W. Deem and Ramdas Pophale) SiO2 
 PCOD9030799
Probable space group: P -1
;
_chemical_formula_sum "Si O2"
_cell_formula_units_Z 13
_cell_length_a 9.947070
_cell_length_b 12.806580
_cell_length_c 7.926749
_cell_angle_alpha 35.679596
_cell_angle_beta 95.557303
_cell_angle_gamma 81.678843
_cell_volume 541.045527
_symmetry_space_group_name_H-M "P -1"
_symmetry_group_IT_number 2
_symmetry_cell_setting 'triclinic'
loop_
_space_group_symop_operation_xyz
x,y,z
-x,-y,-z
loop_
_atom_site_type_symbol
_atom_site_label
_atom_site_fract_x
_atom_site_fract_y
_atom_site_fract_z
Si Si1 0.845061 0.655018 0.732620
Si Si2 0.187084 0.756073 0.234162
Si Si3 0.166213 0.963883 0.609034
Si Si4 0.500000 0.500000 0.500000
Si Si5 0.428500 0.408143 0.248928
Si Si6 0.386769 0.971919 0.386951
Si Si7 0.143052 0.160066 0.868269
O O1 0.818282 0.834149 0.617446
O O2 0.733916 0.552718 0.879974
O O3 0.834709 0.739378 0.431658
O O4 0.000000 0.500000 0.000000
O O5 0.339078 0.572207 0.498980
O O6 0.029490 0.737595 0.240138
O O7 0.203085 0.847037 0.937959
O O8 0.171178 0.932283 0.131476
O O9 0.287948 0.874493 0.599933
O O10 0.000000 0.000000 0.500000
O O11 0.423985 0.466782 0.364578
O O12 0.513254 0.174805 0.547735
O O13 0.500000 0.500000 0.000000
O O14 0.500000 0.000000 0.500000
O O15 0.263672 0.148556 0.039288
#
# Coordination Sequence:
#
# PCOD9030799 Si02
#       7
#     2   2   2   1   2   2   2
#     4  11  28  47  72 110 151 198 255 319 378 456
#     4  10  22  42  74 109 141 198 246 314 369 460
#     4  11  23  44  76 107 146 194 252 299 385 459
#     4  12  26  46  74 112 154 198 254 314 384 446
#     4  12  29  48  74 111 156 199 256 318 387 450
#     4  12  24  47  78 109 148 201 253 315 379 461
#     4  10  23  45  75 103 149 195 256 304 383 450
#
# _framework density 24.027553000000001
#
# number of rings (size 3 to 8) (size 9 to 14) (size 15 to 20)
#    0.000    0.923    4.615    0.923    6.462    3.077 
#    0.000    1.538    0.000    0.000    0.000    0.000 
#    0.000    0.000    0.000    0.000    0.000    0.000 
#
# Total GULP energy -72413.541695 kJ/mol
# GULP energy per Si atom -5570.272438 kJ/mol
# Density = 2.397287 g / cm^3
# Si number density = 24.027553 Si / 1000 Ang^3
#
#
#
# Elastic Constant Matrix: (Units=GPa)
#
#
# Indices 1 2 3 4 5 6 
#
# 1 211.5200 48.7249 37.4951 -7.3632 23.9274 1.3076
# 2 48.7249 114.3085 23.5050 5.7758 4.2315 -2.5445
# 3 37.4951 23.5050 36.3439 6.7254 0.2804 11.9776
# 4 -7.3632 5.7758 6.7254 26.7783 -4.8694 9.0789
# 5 23.9274 4.2315 0.2804 -4.8694 41.4886 2.0173
# 6 1.3076 -2.5445 11.9776 9.0789 2.0173 48.0562
#
#
#
# Elastic Compliance Matrix: (Units=1/GPa)
#
#
# Indices 1 2 3 4 5 6 
#
# 1 0.006770 -0.001466 -0.006898 0.002934 -0.003415 0.001046
# 2 -0.001466 0.010770 -0.005868 -0.002214 -0.000595 0.002516
# 3 -0.006898 -0.005868 0.042933 -0.007462 0.003876 -0.009577
# 4 0.002934 -0.002214 -0.007462 0.043513 0.004018 -0.006726
# 5 -0.003415 -0.000595 0.003876 0.004018 0.026714 -0.002785
# 6 0.001046 0.002516 -0.009577 -0.006726 -0.002785 0.024688
#
#
# Mechanical properties :
#
#
# Convention : Reuss Voigt Hill
#
# Bulk Modulus (GPa) = 31.24037 64.62470 47.93254
# Shear Modulus (GPa) = 25.70412 40.09447 32.89930
#
# Velocity S-wave (km/s) = 3.27429 4.08939 3.70433
# Velocity P-wave (km/s) = 5.22731 7.01797 6.18776
#
# Compressibility (1/GPa) = 0.03200986
#
# Stress axis : x y z
#
# Youngs Moduli (GPa) = 147.70787 92.85435 23.29200
#
# Poissons Ratio (x) = 0.13612 0.16067
# Poissons Ratio (y) = 0.21654 0.13667
# Poissons Ratio (z) = 1.01889 0.54483
#
# Static dielectric constant tensor:
#      x y z
#    x 2.515370 -0.871230 0.311070 
#    y -0.871230 3.177070 -0.514790 
#    z 0.311070 -0.514790 2.109950 
# 
# From -- ./inp_files/198819.got.cif
#   From: 2010.05.17/outbox.cif.g08.bks.cpg/sg2_100_cif.got.tgz:198819.got - 2010.06.03 11:33:40.
