data_PCOD9030411
_publ_section_title
;
Structure prediction by ZEFSAII (Michael W. Deem and Ramdas Pophale) SiO2 
 PCOD9030411
Probable space group: P -1
;
_chemical_formula_sum "Si O2"
_cell_formula_units_Z 14
_cell_length_a 8.915231
_cell_length_b 11.433188
_cell_length_c 14.624753
_cell_angle_alpha 116.016031
_cell_angle_beta 30.538372
_cell_angle_gamma 129.548614
_cell_volume 560.654885
_symmetry_space_group_name_H-M "P -1"
_symmetry_group_IT_number 2
_symmetry_cell_setting 'triclinic'
loop_
_space_group_symop_operation_xyz
x,y,z
-x,-y,-z
loop_
_atom_site_type_symbol
_atom_site_label
_atom_site_fract_x
_atom_site_fract_y
_atom_site_fract_z
Si Si1 0.334895 0.157415 0.922961
Si Si2 0.372444 0.669408 0.674780
Si Si3 0.556139 0.283234 0.664724
Si Si4 0.308763 0.655580 0.034264
Si Si5 0.657802 0.966195 0.722212
Si Si6 0.298843 0.389017 0.348112
Si Si7 0.068556 0.161878 0.725064
O O1 0.471798 0.285671 0.815549
O O2 0.360411 0.234750 0.033015
O O3 0.601136 0.102043 0.777526
O O4 0.000000 0.000000 0.000000
O O5 0.343506 0.798034 0.790537
O O6 0.608562 0.640449 0.610472
O O7 0.596264 0.746902 0.491061
O O8 0.991249 0.505059 0.810288
O O9 0.650586 0.443396 0.623509
O O10 0.215746 0.149849 0.740232
O O11 0.891215 0.269115 0.486644
O O12 0.105909 0.738900 0.142897
O O13 0.435377 0.612566 0.863063
O O14 0.000000 0.000000 0.500000
O O15 0.773839 0.993086 0.776223
#
# Coordination Sequence:
#
# PCOD9030411 Si02
#       7
#     2   2   2   2   2   2   2
#     4  11  27  47  66  96 137 175 216 277 334 390
#     4  11  22  42  72  97 133 174 228 268 327 395
#     4  11  25  44  65  99 139 172 218 274 338 388
#     4  11  24  42  69  97 128 177 228 266 325 393
#     4   9  21  42  66  93 127 177 217 260 322 394
#     4  11  25  41  67 104 135 168 220 283 326 390
#     4  10  22  42  70  98 134 180 217 271 331 393
#
# _framework density 24.970801000000002
#
# number of rings (size 3 to 8) (size 9 to 14) (size 15 to 20)
#    0.000    1.429    1.429    3.429    6.000    4.000 
#    0.000    7.143    0.000    0.000    0.000    0.000 
#    0.000    0.000    0.000    0.000    0.000    0.000 
#
# Total GULP energy -78344.666118 kJ/mol
# GULP energy per Si atom -5596.047580 kJ/mol
# Density = 2.491397 g / cm^3
# Si number density = 24.970801 Si / 1000 Ang^3
#
#
#
# Elastic Constant Matrix: (Units=GPa)
#
#
# Indices 1 2 3 4 5 6 
#
# 1 130.1509 8.7361 9.7588 -1.5086 7.1186 21.2923
# 2 8.7361 72.6193 5.3549 -7.6584 3.6480 17.0633
# 3 9.7588 5.3549 68.8627 0.6114 -0.9123 14.7184
# 4 -1.5086 -7.6584 0.6114 33.3209 -0.5364 -0.6774
# 5 7.1186 3.6480 -0.9123 -0.5364 22.2365 -5.1033
# 6 21.2923 17.0633 14.7184 -0.6774 -5.1033 44.5685
#
#
#
# Elastic Compliance Matrix: (Units=1/GPa)
#
#
# Indices 1 2 3 4 5 6 
#
# 1 0.008652 0.000285 -0.000325 0.000308 -0.003872 -0.004574
# 2 0.000285 0.015867 0.000062 0.003457 -0.004135 -0.006652
# 3 -0.000325 0.000062 0.015649 -0.000398 -0.000443 -0.005093
# 4 0.000308 0.003457 -0.000398 0.030807 -0.000142 -0.000887
# 5 -0.003872 -0.004135 -0.000443 -0.000142 0.048975 0.009185
# 6 -0.004574 -0.006652 -0.005093 -0.000887 0.009185 0.029890
#
#
# Mechanical properties :
#
#
# Convention : Reuss Voigt Hill
#
# Bulk Modulus (GPa) = 24.86762 35.48140 30.17451
# Shear Modulus (GPa) = 30.63728 36.54406 33.59067
#
# Velocity S-wave (km/s) = 3.50655 3.82968 3.67167
# Velocity P-wave (km/s) = 5.13564 5.81337 5.48499
#
# Compressibility (1/GPa) = 0.04021293
#
# Stress axis : x y z
#
# Youngs Moduli (GPa) = 115.57643 63.02412 63.90127
#
# Poissons Ratio (x) = -0.01795 0.02075
# Poissons Ratio (y) = -0.03292 -0.00397
# Poissons Ratio (z) = 0.03753 -0.00392
#
# Static dielectric constant tensor:
#      x y z
#    x 1.984110 0.052100 -0.043680 
#    y 0.052100 2.029280 -0.068850 
#    z -0.043680 -0.068850 1.965850 
# 
# From -- ./inp_files/206757.got.cif
#   From: 2010.05.17/outbox.cif.g08.bks.cpg/sg2_104_cif.got.tgz:206757.got - 2010.06.03 11:33:40.
