data_PCOD9030733
_publ_section_title
;
Structure prediction by ZEFSAII (Michael W. Deem and Ramdas Pophale) SiO2 
 PCOD9030733
Probable space group: P -1
;
_chemical_formula_sum "Si O2"
_cell_formula_units_Z 16
_cell_length_a 12.006948
_cell_length_b 8.664207
_cell_length_c 17.507786
_cell_angle_alpha 31.689695
_cell_angle_beta 127.038335
_cell_angle_gamma 124.896278
_cell_volume 755.998240
_symmetry_space_group_name_H-M "P -1"
_symmetry_group_IT_number 2
_symmetry_cell_setting 'triclinic'
loop_
_space_group_symop_operation_xyz
x,y,z
-x,-y,-z
loop_
_atom_site_type_symbol
_atom_site_label
_atom_site_fract_x
_atom_site_fract_y
_atom_site_fract_z
Si Si1 0.427450 0.664557 0.599300
Si Si2 0.125237 0.552930 0.592855
Si Si3 0.620208 0.676161 0.424520
Si Si4 0.933196 0.442272 0.126564
Si Si5 0.615720 0.282183 0.920949
Si Si6 0.912667 0.085639 0.115519
Si Si7 0.880765 0.851621 0.569346
Si Si8 0.379412 0.665084 0.920410
O O1 0.288673 0.551598 0.638513
O O2 0.366236 0.565382 0.533331
O O3 0.555006 0.490648 0.748021
O O4 0.500000 0.000000 0.500000
O O5 0.000000 0.500000 0.500000
O O6 0.135327 0.878822 0.494345
O O7 0.089220 0.261113 0.752902
O O8 0.500000 0.500000 0.500000
O O9 0.748902 0.752051 0.503418
O O10 0.594918 0.986623 0.241904
O O11 0.925504 0.168792 0.176816
O O12 0.789677 0.431660 0.120786
O O13 0.061341 0.406648 0.250562
O O14 0.968836 0.722971 0.967062
O O15 0.762947 0.193523 0.991686
O O16 0.620233 0.396803 0.961960
O O17 0.500000 0.000000 0.000000
O O18 0.000000 0.000000 0.500000
O O19 0.500000 0.500000 0.000000
#
# Coordination Sequence:
#
# PCOD9030733 Si02
#       8
#     2   2   2   2   2   2   2   2
#     4  12  27  46  73 107 136 186 249 292 352 422
#     4  12  24  43  74 104 138 184 244 290 341 431
#     4  12  27  47  67 104 148 185 230 297 359 422
#     4  10  22  45  70 102 140 183 231 297 345 418
#     4  11  22  43  74  98 136 184 232 297 347 407
#     4  10  22  42  73 106 134 176 247 292 347 401
#     4  12  25  45  71  98 147 188 223 290 368 413
#     4  11  25  45  70 104 144 186 232 286 363 425
#
# _framework density 21.164072000000001
#
# number of rings (size 3 to 8) (size 9 to 14) (size 15 to 20)
#    0.000    0.750    5.000    2.250    7.000    1.000 
#    2.250    0.625    0.000    0.000    0.000    0.000 
#    0.000    0.000    0.000    0.000    0.000    0.000 
#
# Total GULP energy -89218.551186 kJ/mol
# GULP energy per Si atom -5576.159449 kJ/mol
# Density = 2.111590 g / cm^3
# Si number density = 21.164072 Si / 1000 Ang^3
#
#
#
# Elastic Constant Matrix: (Units=GPa)
#
#
# Indices 1 2 3 4 5 6 
#
# 1 78.5499 14.7298 19.6035 -7.4304 -2.5893 21.0934
# 2 14.7298 137.3521 45.2102 5.9784 11.8490 17.4035
# 3 19.6035 45.2102 79.3550 -0.5237 8.5279 13.3370
# 4 -7.4304 5.9784 -0.5237 38.1643 10.3540 -5.3288
# 5 -2.5893 11.8490 8.5279 10.3540 26.3089 -3.8435
# 6 21.0934 17.4035 13.3370 -5.3288 -3.8435 30.4559
#
#
#
# Elastic Compliance Matrix: (Units=1/GPa)
#
#
# Indices 1 2 3 4 5 6 
#
# 1 0.016124 0.000254 -0.002469 0.001631 0.000181 -0.009923
# 2 0.000254 0.009588 -0.004497 -0.001314 -0.002945 -0.004287
# 3 -0.002469 -0.004497 0.016870 0.001239 -0.004682 -0.003482
# 4 0.001631 -0.001314 0.001239 0.030164 -0.011089 0.002957
# 5 0.000181 -0.002945 -0.004682 -0.011089 0.046334 0.007515
# 6 -0.009923 -0.004287 -0.003482 0.002957 0.007515 0.045148
#
#
# Mechanical properties :
#
#
# Convention : Reuss Voigt Hill
#
# Bulk Modulus (GPa) = 34.29485 50.48269 42.38877
# Shear Modulus (GPa) = 26.68505 33.36671 30.02588
#
# Velocity S-wave (km/s) = 3.55472 3.97492 3.77068
# Velocity P-wave (km/s) = 5.75217 6.70607 6.24736
#
# Compressibility (1/GPa) = 0.02915890
#
# Stress axis : x y z
#
# Youngs Moduli (GPa) = 62.01821 104.29776 59.27636
#
# Poissons Ratio (x) = -0.02652 0.14636
# Poissons Ratio (y) = -0.01577 0.26656
# Poissons Ratio (z) = 0.15313 0.46902
#
# Static dielectric constant tensor:
#      x y z
#    x 1.608280 -0.032090 0.062660 
#    y -0.032090 1.842760 0.038000 
#    z 0.062660 0.038000 1.708250 
# 
# From -- ./inp_files/566389.got.cif
#   From: 2010.05.17/outbox.cif.g08.bks.cpg/sg2_284_cif.got.tgz:566389.got - 2010.06.03 11:33:40.
