data_PCOD9030631
_publ_section_title
;
Structure prediction by ZEFSAII (Michael W. Deem and Ramdas Pophale) SiO2 
 PCOD9030631
Probable space group: P -1
;
_chemical_formula_sum "Si O2"
_cell_formula_units_Z 15
_cell_length_a 7.957344
_cell_length_b 13.019890
_cell_length_c 9.774316
_cell_angle_alpha 132.407470
_cell_angle_beta 103.889524
_cell_angle_gamma 61.854547
_cell_volume 654.539928
_symmetry_space_group_name_H-M "P -1"
_symmetry_group_IT_number 2
_symmetry_cell_setting 'triclinic'
loop_
_space_group_symop_operation_xyz
x,y,z
-x,-y,-z
loop_
_atom_site_type_symbol
_atom_site_label
_atom_site_fract_x
_atom_site_fract_y
_atom_site_fract_z
Si Si1 0.170016 0.948529 0.879240
Si Si2 0.551035 0.631736 0.696367
Si Si3 0.158770 0.889447 0.532051
Si Si4 0.217473 0.557519 0.174649
Si Si5 0.831547 0.563737 0.223521
Si Si6 0.539428 0.899227 0.551677
Si Si7 0.786197 0.797180 0.754645
Si Si8 0.000000 0.500000 0.500000
O O1 0.363002 0.794052 0.807842
O O2 0.084206 0.920819 0.698277
O O3 0.216519 0.097994 0.025838
O O4 0.000000 0.000000 0.000000
O O5 0.500000 0.500000 0.500000
O O6 0.640643 0.573205 0.810914
O O7 0.709857 0.665155 0.665107
O O8 0.236272 0.713203 0.346866
O O9 0.337444 0.930014 0.603009
O O10 0.000000 0.000000 0.500000
O O11 0.002770 0.590487 0.209067
O O12 0.235018 0.518889 0.982543
O O13 0.654602 0.723696 0.368724
O O14 0.914719 0.483092 0.311439
O O15 0.662062 0.911438 0.714715
O O16 0.500000 0.000000 0.500000
O O17 0.980712 0.674392 0.614467
#
# Coordination Sequence:
#
# PCOD9030631 Si02
#       8
#     2   2   2   2   2   2   2   1
#     4  12  30  47  74 112 149 201 251 308 380 445
#     4  12  24  47  76 105 155 195 248 314 371 449
#     4  12  28  47  70 105 153 191 247 311 373 444
#     4  11  24  46  71 109 142 192 247 307 376 444
#     4  10  24  42  74 102 139 187 243 300 371 439
#     4  11  25  45  72 101 143 192 243 302 370 437
#     4  11  25  45  75 105 147 192 254 300 371 446
#     4  10  22  42  72 106 138 188 242 306 366 442
#
# _framework density 22.916858000000001
#
# number of rings (size 3 to 8) (size 9 to 14) (size 15 to 20)
#    0.000    0.800    4.000    1.200   11.200    0.533 
#    0.000    0.000    0.000    0.000    0.000    0.000 
#    0.000    0.000    0.000    0.000    0.000    0.000 
#
# Total GULP energy -83645.626509 kJ/mol
# GULP energy per Si atom -5576.375101 kJ/mol
# Density = 2.286470 g / cm^3
# Si number density = 22.916858 Si / 1000 Ang^3
#
#
#
# Elastic Constant Matrix: (Units=GPa)
#
#
# Indices 1 2 3 4 5 6 
#
# 1 38.1866 6.2244 9.8011 -5.1497 -1.7827 3.1702
# 2 6.2244 131.4050 47.2081 -23.2908 3.9011 -8.5578
# 3 9.8011 47.2081 160.5898 -20.0308 -2.6681 -0.1164
# 4 -5.1497 -23.2908 -20.0308 51.0808 4.6769 -0.0941
# 5 -1.7827 3.9011 -2.6681 4.6769 27.9554 3.9229
# 6 3.1702 -8.5578 -0.1164 -0.0941 3.9229 32.2363
#
#
#
# Elastic Compliance Matrix: (Units=1/GPa)
#
#
# Indices 1 2 3 4 5 6 
#
# 1 0.027203 -0.000819 -0.001175 0.001730 0.001886 -0.003121
# 2 -0.000819 0.009366 -0.002304 0.003525 -0.002573 0.002882
# 3 -0.001175 -0.002304 0.007185 0.001579 0.000746 -0.000556
# 4 0.001730 0.003525 0.001579 0.022361 -0.004160 0.001343
# 5 0.001886 -0.002573 0.000746 -0.004160 0.037786 -0.005476
# 6 -0.003121 0.002882 -0.000556 0.001343 -0.005476 0.032761
#
#
# Mechanical properties :
#
#
# Convention : Reuss Voigt Hill
#
# Bulk Modulus (GPa) = 28.44353 50.73875 39.59114
# Shear Modulus (GPa) = 31.85183 40.05104 35.95143
#
# Velocity S-wave (km/s) = 3.73216 4.18505 3.96508
# Velocity P-wave (km/s) = 5.56872 6.74842 6.18675
#
# Compressibility (1/GPa) = 0.03515738
#
# Stress axis : x y z
#
# Youngs Moduli (GPa) = 36.76118 106.77468 139.17811
#
# Poissons Ratio (x) = 0.08747 0.16347
# Poissons Ratio (y) = 0.03011 0.32068
# Poissons Ratio (z) = 0.04318 0.24602
#
# Static dielectric constant tensor:
#      x y z
#    x 1.609950 0.148220 0.469770 
#    y 0.148220 1.757740 -0.182580 
#    z 0.469770 -0.182580 1.352790 
# 
# From -- ./inp_files/190952.got.cif
#   From: 2010.05.17/outbox.cif.g08.bks.cpg/sg2_96_cif.got.tgz:190952.got - 2010.06.03 11:33:40.
