data_PCOD9030223
_publ_section_title
;
Structure prediction by ZEFSAII (Michael W. Deem and Ramdas Pophale) SiO2 
 PCOD9030223
Probable space group: P -1
;
_chemical_formula_sum "Si O2"
_cell_formula_units_Z 16
_cell_length_a 12.533027
_cell_length_b 13.240046
_cell_length_c 8.666891
_cell_angle_alpha 55.800685
_cell_angle_beta 115.851564
_cell_angle_gamma 68.830472
_cell_volume 621.100192
_symmetry_space_group_name_H-M "P -1"
_symmetry_group_IT_number 2
_symmetry_cell_setting 'triclinic'
loop_
_space_group_symop_operation_xyz
x,y,z
-x,-y,-z
loop_
_atom_site_type_symbol
_atom_site_label
_atom_site_fract_x
_atom_site_fract_y
_atom_site_fract_z
Si Si1 0.317434 0.791500 0.431570
Si Si2 0.021809 0.828922 0.596152
Si Si3 0.373113 0.490659 0.359277
Si Si4 0.328178 0.881040 0.673754
Si Si5 0.712491 0.821391 0.684472
Si Si6 0.917779 0.230674 0.663258
Si Si7 0.120939 0.329208 0.414796
Si Si8 0.273365 0.395018 0.652375
O O1 0.457445 0.726111 0.442833
O O2 0.407100 0.739443 0.700519
O O3 0.282800 0.675875 0.491749
O O4 0.098141 0.035938 0.055225
O O5 0.935008 0.764517 0.562079
O O6 0.050842 0.845843 0.424235
O O7 0.837948 0.045779 0.388536
O O8 0.209964 0.661547 0.976784
O O9 0.500000 0.500000 0.500000
O O10 0.276008 0.481860 0.430292
O O11 0.229581 0.084411 0.361937
O O12 0.510356 0.774573 0.984236
O O13 0.735010 0.763805 0.565807
O O14 0.500000 0.000000 0.500000
O O15 0.902851 0.583368 0.070945
O O16 0.883564 0.403317 0.507090
O O17 0.235532 0.289104 0.668245
#
# Coordination Sequence:
#
# PCOD9030223 Si02
#       8
#     2   2   2   2   2   2   2   2
#     4  11  25  45  69 101 137 185 230 290 350 417
#     4  11  26  47  71 104 139 185 230 292 350 417
#     4  12  25  43  72 100 139 182 230 291 350 409
#     4  11  26  44  70 103 140 182 234 283 352 423
#     4  10  22  42  70 102 133 190 237 288 351 417
#     4  11  25  45  71 101 139 181 237 284 350 420
#     4  10  24  47  70 100 148 182 236 299 347 416
#     4  12  25  46  69 105 142 184 232 289 346 421
#
# _framework density 25.760739999999998
#
# number of rings (size 3 to 8) (size 9 to 14) (size 15 to 20)
#    0.000    1.000    1.250    5.250    8.750    4.000 
#    4.500    0.000    0.000    0.000    0.000    0.000 
#    0.000    0.000    0.000    0.000    0.000    0.000 
#
# Total GULP energy -89429.101506 kJ/mol
# GULP energy per Si atom -5589.318844 kJ/mol
# Density = 2.570211 g / cm^3
# Si number density = 25.760740 Si / 1000 Ang^3
#
#
#
# Elastic Constant Matrix: (Units=GPa)
#
#
# Indices 1 2 3 4 5 6 
#
# 1 88.1596 26.7469 8.2204 4.5273 -0.2903 -21.0257
# 2 26.7469 130.0916 34.8297 17.8489 13.0141 -17.0985
# 3 8.2204 34.8297 99.7709 26.6896 9.3270 4.5184
# 4 4.5273 17.8489 26.6896 47.0867 3.2433 5.4477
# 5 -0.2903 13.0141 9.3270 3.2433 33.9376 -4.5031
# 6 -21.0257 -17.0985 4.5184 5.4477 -4.5031 50.8995
#
#
#
# Elastic Compliance Matrix: (Units=1/GPa)
#
#
# Indices 1 2 3 4 5 6 
#
# 1 0.013266 -0.001953 -0.000561 -0.000934 0.001787 0.005131
# 2 -0.001953 0.009661 -0.002517 -0.002188 -0.002465 0.002678
# 3 -0.000561 -0.002517 0.012815 -0.005895 -0.002234 -0.001781
# 4 -0.000934 -0.002188 -0.005895 0.025926 -0.000480 -0.003415
# 5 0.001787 -0.002465 -0.002234 -0.000480 0.031477 0.002944
# 6 0.005131 0.002678 -0.001781 -0.003415 0.002944 0.023450
#
#
# Mechanical properties :
#
#
# Convention : Reuss Voigt Hill
#
# Bulk Modulus (GPa) = 38.94307 50.84623 44.89465
# Shear Modulus (GPa) = 36.97754 42.93310 39.95532
#
# Velocity S-wave (km/s) = 3.79281 4.08684 3.94257
# Velocity P-wave (km/s) = 5.85923 6.48463 6.17985
#
# Compressibility (1/GPa) = 0.02567851
#
# Stress axis : x y z
#
# Youngs Moduli (GPa) = 75.38249 103.50617 78.03608
#
# Poissons Ratio (x) = 0.20220 0.04375
# Poissons Ratio (y) = 0.14726 0.19645
# Poissons Ratio (z) = 0.04226 0.26056
#
# Static dielectric constant tensor:
#      x y z
#    x 2.119130 0.013090 0.017020 
#    y 0.013090 2.096560 -0.003270 
#    z 0.017020 -0.003270 1.983450 
# 
# From -- ./inp_files/307162.got.cif
#   From: 2010.05.17/outbox.cif.g08.bks.cpg/sg2_154_cif.got.tgz:307162.got - 2010.06.03 11:33:40.
