data_PCOD9030252
_publ_section_title
;
Structure prediction by ZEFSAII (Michael W. Deem and Ramdas Pophale) SiO2 
 PCOD9030252
Probable space group: P -1
;
_chemical_formula_sum "Si O2"
_cell_formula_units_Z 16
_cell_length_a 17.930860
_cell_length_b 5.284518
_cell_length_c 13.950491
_cell_angle_alpha 71.102790
_cell_angle_beta 146.457959
_cell_angle_gamma 106.305585
_cell_volume 690.893459
_symmetry_space_group_name_H-M "P -1"
_symmetry_group_IT_number 2
_symmetry_cell_setting 'triclinic'
loop_
_space_group_symop_operation_xyz
x,y,z
-x,-y,-z
loop_
_atom_site_type_symbol
_atom_site_label
_atom_site_fract_x
_atom_site_fract_y
_atom_site_fract_z
Si Si1 0.853890 0.000387 0.718988
Si Si2 0.562783 0.603327 0.255982
Si Si3 0.716284 0.150076 0.361683
Si Si4 0.416835 0.315361 0.508947
Si Si5 0.085473 0.734116 0.611057
Si Si6 0.273834 0.571631 0.992344
Si Si7 0.671753 0.021648 0.832224
Si Si8 0.888359 0.268431 0.903193
O O1 0.738860 0.784369 0.660682
O O2 0.820016 0.044761 0.567262
O O3 0.839073 0.249826 0.743308
O O4 0.010938 0.950483 0.915728
O O5 0.649082 0.403217 0.309601
O O6 0.573129 0.564228 0.387699
O O7 0.610917 0.909186 0.258591
O O8 0.406120 0.561324 0.068546
O O9 0.792912 0.208751 0.338937
O O10 0.500000 0.500000 0.500000
O O11 0.510996 0.050639 0.643402
O O12 0.141094 0.621499 0.784065
O O13 0.000000 0.500000 0.500000
O O14 0.000000 0.000000 0.500000
O O15 0.295850 0.830959 0.050962
O O16 0.278420 0.281638 0.084289
O O17 0.752928 0.215761 0.823007
O O18 0.000000 0.500000 0.000000
#
# Coordination Sequence:
#
# PCOD9030252 Si02
#       8
#     2   2   2   2   2   2   2   2
#     4  10  25  41  63  95 138 178 232 286 341 419
#     4  10  23  44  69 105 136 178 232 280 370 404
#     4  11  25  45  71 102 137 179 228 300 349 421
#     4  10  22  42  70 103 141 187 236 293 346 421
#     4  12  28  47  73 106 136 186 241 284 360 425
#     4  11  25  47  71 101 140 178 234 298 347 431
#     4  11  26  43  72 101 142 186 233 296 360 408
#     4  11  26  41  62  97 134 193 236 273 354 423
#
# _framework density 23.158417
#
# number of rings (size 3 to 8) (size 9 to 14) (size 15 to 20)
#    0.000    1.250    0.000    4.500   15.750    1.500 
#    0.000    0.000    0.000    0.000    0.000    0.000 
#    0.000    0.000    0.000    0.000    0.000    0.000 
#
# Total GULP energy -89326.428028 kJ/mol
# GULP energy per Si atom -5582.901752 kJ/mol
# Density = 2.310571 g / cm^3
# Si number density = 23.158417 Si / 1000 Ang^3
#
#
#
# Elastic Constant Matrix: (Units=GPa)
#
#
# Indices 1 2 3 4 5 6 
#
# 1 71.8286 16.8469 -13.5232 0.0343 21.9730 2.1243
# 2 16.8469 114.9576 7.9776 15.2344 8.3181 -5.3739
# 3 -13.5232 7.9776 68.5895 0.6648 14.8274 -8.1513
# 4 0.0343 15.2344 0.6648 36.8904 0.1699 7.4505
# 5 21.9730 8.3181 14.8274 0.1699 25.8552 -2.3919
# 6 2.1243 -5.3739 -8.1513 7.4505 -2.3919 32.9260
#
#
#
# Elastic Compliance Matrix: (Units=1/GPa)
#
#
# Indices 1 2 3 4 5 6 
#
# 1 0.024690 -0.002704 0.010685 0.001348 -0.026399 -0.001612
# 2 -0.002704 0.009901 -0.001379 -0.004566 0.000164 0.002494
# 3 0.010685 -0.001379 0.021707 -0.000347 -0.020803 0.003027
# 4 0.001348 -0.004566 -0.000347 0.030589 -0.000407 -0.007869
# 5 -0.026399 0.000164 -0.020803 -0.000407 0.073175 0.001988
# 6 -0.001612 0.002494 0.003027 -0.007869 0.001988 0.033556
#
#
# Mechanical properties :
#
#
# Convention : Reuss Voigt Hill
#
# Bulk Modulus (GPa) = 14.38838 30.88648 22.63743
# Shear Modulus (GPa) = 24.56009 35.40595 29.98302
#
# Velocity S-wave (km/s) = 3.26010 3.91430 3.60209
# Velocity P-wave (km/s) = 4.51636 5.81335 5.20541
#
# Compressibility (1/GPa) = 0.06950053
#
# Stress axis : x y z
#
# Youngs Moduli (GPa) = 40.50158 101.00457 46.06885
#
# Poissons Ratio (x) = 0.27308 -0.49223
# Poissons Ratio (y) = 0.10950 0.06355
# Poissons Ratio (z) = -0.43274 0.13934
#
# Static dielectric constant tensor:
#      x y z
#    x 2.109640 -0.119890 0.195830 
#    y -0.119890 2.052750 -0.183100 
#    z 0.195830 -0.183100 2.061350 
# 
# From -- ./inp_files/536296.got.cif
#   From: 2010.05.17/outbox.cif.g08.bks.cpg/sg2_269_cif.got.tgz:536296.got - 2010.06.03 11:33:40.
