data_PCOD9030039
_publ_section_title
;
Structure prediction by ZEFSAII (Michael W. Deem and Ramdas Pophale) SiO2 
 PCOD9030039
Probable space group: P -1
;
_chemical_formula_sum "Si O2"
_cell_formula_units_Z 14
_cell_length_a 15.670429
_cell_length_b 6.412110
_cell_length_c 27.724273
_cell_angle_alpha 47.672200
_cell_angle_beta 162.504166
_cell_angle_gamma 131.561025
_cell_volume 616.343633
_symmetry_space_group_name_H-M "P -1"
_symmetry_group_IT_number 2
_symmetry_cell_setting 'triclinic'
loop_
_space_group_symop_operation_xyz
x,y,z
-x,-y,-z
loop_
_atom_site_type_symbol
_atom_site_label
_atom_site_fract_x
_atom_site_fract_y
_atom_site_fract_z
Si Si1 0.031453 0.176375 0.102087
Si Si2 0.725179 0.255704 0.098577
Si Si3 0.203040 0.946401 0.375247
Si Si4 0.182980 0.299757 0.061507
Si Si5 0.502893 0.207849 0.155836
Si Si6 0.004162 0.680421 0.659537
Si Si7 0.502575 0.205785 0.577140
O O1 0.223699 0.295394 0.141839
O O2 0.185950 0.898585 0.241788
O O3 0.994601 0.424409 0.081790
O O4 0.714374 0.064733 0.931028
O O5 0.820779 0.247630 0.207451
O O6 0.601337 0.543359 0.972715
O O7 0.006364 0.202764 0.227686
O O8 0.500000 0.000000 0.000000
O O9 0.029155 0.658740 0.311131
O O10 0.500000 0.000000 0.500000
O O11 0.307116 0.950261 0.485809
O O12 0.441575 0.302276 0.162856
O O13 0.000000 0.000000 0.000000
O O14 0.821084 0.182358 0.312762
O O15 0.675552 0.751047 0.477325
O O16 0.500000 0.500000 0.500000
#
# Coordination Sequence:
#
# PCOD9030039 Si02
#       7
#     2   2   2   2   2   2   2
#     4  10  22  42  69  93 127 165 218 273 315 383
#     4  11  24  37  58  93 129 172 214 259 322 384
#     4  11  23  35  55  84 133 173 210 254 311 383
#     4   9  22  42  66  97 118 164 224 272 321 368
#     4  11  23  36  65  91 128 164 216 272 320 379
#     4  11  24  39  54  94 133 168 212 257 324 387
#     4  11  23  39  62  94 134 174 211 252 328 393
#
# _framework density 22.714600000000001
#
# number of rings (size 3 to 8) (size 9 to 14) (size 15 to 20)
#    0.000    1.429    2.857    2.143    4.000    1.143 
#    0.000    0.714    0.000    8.571    0.000    0.000 
#    0.000    0.000    0.000    0.000    0.000    0.000 
#
# Total GULP energy -78057.436747 kJ/mol
# GULP energy per Si atom -5575.531196 kJ/mol
# Density = 2.266290 g / cm^3
# Si number density = 22.714600 Si / 1000 Ang^3
#
#
#
# Elastic Constant Matrix: (Units=GPa)
#
#
# Indices 1 2 3 4 5 6 
#
# 1 138.4023 34.8182 23.1488 6.2688 40.2672 -2.0102
# 2 34.8182 111.8640 29.1010 4.5285 12.6960 -19.1395
# 3 23.1488 29.1010 49.1126 7.3696 31.0559 -1.8536
# 4 6.2688 4.5285 7.3696 35.0824 -6.5870 3.7921
# 5 40.2672 12.6960 31.0559 -6.5870 45.4761 -0.1946
# 6 -2.0102 -19.1395 -1.8536 3.7921 -0.1946 34.5966
#
#
#
# Elastic Compliance Matrix: (Units=1/GPa)
#
#
# Indices 1 2 3 4 5 6 
#
# 1 0.011493 -0.003506 0.006777 -0.005738 -0.014659 -0.000362
# 2 -0.003506 0.012954 -0.010390 0.001750 0.006864 0.006253
# 3 0.006777 -0.010390 0.052361 -0.018591 -0.041554 -0.000745
# 4 -0.005738 0.001750 -0.018591 0.037959 0.022767 -0.004394
# 5 -0.014659 0.006864 -0.041554 0.022767 0.064722 -0.001412
# 6 -0.000362 0.006253 -0.000745 -0.004394 -0.001412 0.032776
#
#
# Mechanical properties :
#
#
# Convention : Reuss Voigt Hill
#
# Bulk Modulus (GPa) = 15.98215 52.61276 34.29746
# Shear Modulus (GPa) = 20.21351 37.18508 28.69929
#
# Velocity S-wave (km/s) = 2.98634 4.05044 3.55839
# Velocity P-wave (km/s) = 4.35228 6.71473 5.65818
#
# Compressibility (1/GPa) = 0.06256981
#
# Stress axis : x y z
#
# Youngs Moduli (GPa) = 87.00644 77.19873 19.09824
#
# Poissons Ratio (x) = 0.27069 -0.12943
# Poissons Ratio (y) = 0.30508 0.19842
# Poissons Ratio (z) = -0.58964 0.80206
#
# Static dielectric constant tensor:
#      x y z
#    x 1.960960 -0.011070 -0.002230 
#    y -0.011070 1.863980 -0.024590 
#    z -0.002230 -0.024590 1.965240 
# 
# From -- ./inp_files/127276.got.cif
#   From: 2010.05.17/outbox.cif.g08.bks.cpg/sg2_64_cif.got.tgz:127276.got - 2010.06.03 11:33:40.
