data_PCOD9030015
_publ_section_title
;
Structure prediction by ZEFSAII (Michael W. Deem and Ramdas Pophale) SiO2 
 PCOD9030015
Probable space group: P -1
;
_chemical_formula_sum "Si O2"
_cell_formula_units_Z 14
_cell_length_a 6.359408
_cell_length_b 10.350162
_cell_length_c 18.634995
_cell_angle_alpha 34.043719
_cell_angle_beta 57.310234
_cell_angle_gamma 56.640001
_cell_volume 564.096395
_symmetry_space_group_name_H-M "P -1"
_symmetry_group_IT_number 2
_symmetry_cell_setting 'triclinic'
loop_
_space_group_symop_operation_xyz
x,y,z
-x,-y,-z
loop_
_atom_site_type_symbol
_atom_site_label
_atom_site_fract_x
_atom_site_fract_y
_atom_site_fract_z
Si Si1 0.725935 0.167355 0.899899
Si Si2 0.730935 0.613076 0.379568
Si Si3 0.409453 0.902978 0.181085
Si Si4 0.604525 0.780744 0.811268
Si Si5 0.027865 0.904354 0.457052
Si Si6 0.156298 0.002484 0.703819
Si Si7 0.177110 0.711656 0.027589
O O1 0.188227 0.230421 0.642414
O O2 0.952952 0.936574 0.949601
O O3 0.514495 0.076436 0.028031
O O4 0.825080 0.318515 0.872491
O O5 0.500000 0.500000 0.500000
O O6 0.615830 0.772223 0.259607
O O7 0.640330 0.280855 0.787344
O O8 0.928315 0.379187 0.424755
O O9 0.135605 0.012544 0.216449
O O10 0.436910 0.767720 0.919732
O O11 0.376251 0.789748 0.790853
O O12 0.729898 0.993210 0.664102
O O13 0.826465 0.545916 0.882048
O O14 0.000000 0.000000 0.500000
O O15 0.827230 0.981838 0.392458
#
# Coordination Sequence:
#
# PCOD9030015 Si02
#       7
#     2   2   2   2   2   2   2
#     4  10  22  42  69 108 138 180 239 294 346 419
#     4  12  25  46  75 101 136 192 244 282 350 437
#     4  11  24  40  72 107 137 177 240 292 345 419
#     4  11  24  46  68 101 144 186 235 289 357 426
#     4  12  29  46  68 107 146 181 237 301 351 420
#     4  12  23  47  74  99 140 193 232 286 358 425
#     4  10  22  43  72 100 141 189 230 292 358 413
#
# _framework density 24.818453999999999
#
# number of rings (size 3 to 8) (size 9 to 14) (size 15 to 20)
#    0.000    0.857    4.286    2.143    4.000    1.714 
#    2.571    2.143    0.000    0.000    0.000    0.000 
#    0.000    0.000    0.000    0.000    0.000    0.000 
#
# Total GULP energy -78035.776548 kJ/mol
# GULP energy per Si atom -5573.984039 kJ/mol
# Density = 2.476197 g / cm^3
# Si number density = 24.818454 Si / 1000 Ang^3
#
#
#
# Elastic Constant Matrix: (Units=GPa)
#
#
# Indices 1 2 3 4 5 6 
#
# 1 82.4388 37.2027 35.8462 24.0464 10.0316 9.7644
# 2 37.2027 121.6947 34.0698 12.6914 18.5922 24.8615
# 3 35.8462 34.0698 96.5328 17.8603 6.0876 17.3471
# 4 24.0464 12.6914 17.8603 47.5453 13.5017 9.5371
# 5 10.0316 18.5922 6.0876 13.5017 65.0965 22.2161
# 6 9.7644 24.8615 17.3471 9.5371 22.2161 33.7822
#
#
#
# Elastic Compliance Matrix: (Units=1/GPa)
#
#
# Indices 1 2 3 4 5 6 
#
# 1 0.017403 -0.003803 -0.004282 -0.006445 -0.000604 0.002184
# 2 -0.003803 0.011048 -0.001516 0.000929 -0.000512 -0.006178
# 3 -0.004282 -0.001516 0.013724 -0.002084 0.002118 -0.005499
# 4 -0.006445 0.000929 -0.002084 0.026416 -0.003583 -0.002852
# 5 -0.000604 -0.000512 0.002118 -0.003583 0.020609 -0.013079
# 6 0.002184 -0.006178 -0.005499 -0.002852 -0.013079 0.045747
#
#
# Mechanical properties :
#
#
# Convention : Reuss Voigt Hill
#
# Bulk Modulus (GPa) = 43.53059 57.21152 50.37105
# Shear Modulus (GPa) = 30.90068 42.18794 36.54431
#
# Velocity S-wave (km/s) = 3.53238 4.12741 3.84143
# Velocity P-wave (km/s) = 5.84933 6.76876 6.32577
#
# Compressibility (1/GPa) = 0.02297235
#
# Stress axis : x y z
#
# Youngs Moduli (GPa) = 57.46105 90.51439 72.86241
#
# Poissons Ratio (x) = 0.34425 0.31201
# Poissons Ratio (y) = 0.21854 0.11047
# Poissons Ratio (z) = 0.24606 0.13724
#
# Static dielectric constant tensor:
#      x y z
#    x 2.174630 0.118200 -0.047090 
#    y 0.118200 2.098200 -0.023410 
#    z -0.047090 -0.023410 1.962760 
# 
# From -- ./inp_files/559491.got.cif
#   From: 2010.05.17/outbox.cif.g08.bks.cpg/sg2_280_cif.got.tgz:559491.got - 2010.06.03 11:33:40.
