data_PCOD9030699
_publ_section_title
;
Structure prediction by ZEFSAII (Michael W. Deem and Ramdas Pophale) SiO2 
 PCOD9030699
Probable space group: P -1
;
_chemical_formula_sum "Si O2"
_cell_formula_units_Z 16
_cell_length_a 17.690662
_cell_length_b 6.718282
_cell_length_c 17.452497
_cell_angle_alpha 128.919295
_cell_angle_beta 150.843215
_cell_angle_gamma 59.471150
_cell_volume 781.724342
_symmetry_space_group_name_H-M "P -1"
_symmetry_group_IT_number 2
_symmetry_cell_setting 'triclinic'
loop_
_space_group_symop_operation_xyz
x,y,z
-x,-y,-z
loop_
_atom_site_type_symbol
_atom_site_label
_atom_site_fract_x
_atom_site_fract_y
_atom_site_fract_z
Si Si1 0.181147 0.919392 0.449729
Si Si2 0.557517 0.272433 0.156118
Si Si3 0.508364 0.780806 0.734507
Si Si4 0.944124 0.075763 0.828293
Si Si5 0.053899 0.555037 0.838328
Si Si6 0.678872 0.349295 0.026240
Si Si7 0.783004 0.497814 0.866898
Si Si8 0.817546 0.523658 0.353133
O O1 0.346887 0.814104 0.557906
O O2 0.102838 0.983187 0.315425
O O3 0.067754 0.697054 0.335822
O O4 0.204907 0.178316 0.582402
O O5 0.531327 0.266744 0.222455
O O6 0.735650 0.362226 0.312064
O O7 0.454451 0.481396 0.079148
O O8 0.500000 0.000000 0.000000
O O9 0.607884 0.568212 0.735662
O O10 0.617130 0.050744 0.892307
O O11 0.814576 0.238086 0.789198
O O12 0.967855 0.812827 0.828148
O O13 0.104604 0.269131 0.016578
O O14 0.170928 0.585438 0.878292
O O15 0.151803 0.525145 0.994905
O O16 0.727059 0.416066 0.171651
O O17 0.000000 0.500000 0.500000
#
# Coordination Sequence:
#
# PCOD9030699 Si02
#       8
#     2   2   2   2   2   2   2   2
#     4  11  27  42  63 100 138 170 217 270 332 384
#     4  12  25  43  67  92 131 177 223 267 316 388
#     4  12  24  44  67  98 134 174 219 269 324 392
#     4  10  22  44  68  97 135 168 218 277 323 390
#     4  11  23  42  70  98 132 172 219 269 328 392
#     4  12  24  44  67  95 133 177 220 263 321 391
#     4  10  22  42  72  99 125 175 222 267 329 390
#     4  12  27  43  65  96 134 174 215 269 325 384
#
# _framework density 20.467573000000002
#
# number of rings (size 3 to 8) (size 9 to 14) (size 15 to 20)
#    0.000    0.750    5.000    2.250    7.000    1.000 
#    0.000    0.625    0.000    0.000    0.000    0.000 
#    0.000    0.000    0.000    0.000    0.000    0.000 
#
# Total GULP energy -89539.851040 kJ/mol
# GULP energy per Si atom -5596.240690 kJ/mol
# Density = 2.042099 g / cm^3
# Si number density = 20.467573 Si / 1000 Ang^3
#
#
#
# Elastic Constant Matrix: (Units=GPa)
#
#
# Indices 1 2 3 4 5 6 
#
# 1 77.7284 19.1883 9.4205 16.9558 30.8190 -13.6571
# 2 19.1883 86.8282 7.7772 1.2099 26.8171 -8.5668
# 3 9.4205 7.7772 48.4709 3.2466 29.7657 1.3241
# 4 16.9558 1.2099 3.2466 33.5167 0.4485 9.1413
# 5 30.8190 26.8171 29.7657 0.4485 33.0521 -4.5683
# 6 -13.6571 -8.5668 1.3241 9.1413 -4.5683 31.3748
#
#
#
# Elastic Compliance Matrix: (Units=1/GPa)
#
#
# Indices 1 2 3 4 5 6 
#
# 1 0.099577 0.041709 0.115569 -0.070337 -0.224610 0.037645
# 2 0.041709 0.036576 0.062841 -0.031461 -0.122406 0.016834
# 3 0.115569 0.062841 0.193449 -0.085056 -0.326762 0.036504
# 4 -0.070337 -0.031461 -0.085056 0.082483 0.161598 -0.036120
# 5 -0.224610 -0.122406 -0.326762 0.161598 0.620844 -0.074088
# 6 0.037645 0.016834 0.036504 -0.036120 -0.074088 0.051051
#
#
# Mechanical properties :
#
#
# Convention : Reuss Voigt Hill
#
# Bulk Modulus (GPa) = 1.29897 31.75551 16.52724
# Shear Modulus (GPa) = 5.55336 31.36482 18.45909
#
# Velocity S-wave (km/s) = 1.64898 3.91885 3.00637
# Velocity P-wave (km/s) = 2.06435 6.00211 4.48814
#
# Compressibility (1/GPa) = 0.76984013
#
# Stress axis : x y z
#
# Youngs Moduli (GPa) = 10.04247 27.34051 5.16932
#
# Poissons Ratio (x) = -1.14034 -0.59741
# Poissons Ratio (y) = -0.41886 -0.32485
# Poissons Ratio (z) = -1.16060 -1.71811
#
# Static dielectric constant tensor:
#      x y z
#    x 1.724360 -0.009410 0.017110 
#    y -0.009410 1.714420 -0.011420 
#    z 0.017110 -0.011420 1.697710 
# 
# From -- ./inp_files/37843.got.cif
#   From: 2010.05.17/outbox.cif.g08.bks.cpg/sg2_19_cif.got.tgz:37843.got - 2010.06.03 11:33:40.
