data_PCOD9030344
_publ_section_title
;
Structure prediction by ZEFSAII (Michael W. Deem and Ramdas Pophale) SiO2 
 PCOD9030344
Probable space group: P -1
;
_chemical_formula_sum "Si O2"
_cell_formula_units_Z 16
_cell_length_a 17.870473
_cell_length_b 11.139323
_cell_length_c 8.039044
_cell_angle_alpha 40.512413
_cell_angle_beta 78.887382
_cell_angle_gamma 52.076244
_cell_volume 692.431604
_symmetry_space_group_name_H-M "P -1"
_symmetry_group_IT_number 2
_symmetry_cell_setting 'triclinic'
loop_
_space_group_symop_operation_xyz
x,y,z
-x,-y,-z
loop_
_atom_site_type_symbol
_atom_site_label
_atom_site_fract_x
_atom_site_fract_y
_atom_site_fract_z
Si Si1 0.087164 0.901066 0.761384
Si Si2 0.373272 0.796846 0.270679
Si Si3 0.642789 0.237401 0.055780
Si Si4 0.346168 0.263678 0.904975
Si Si5 0.466120 0.925457 0.739691
Si Si6 0.784309 0.003772 0.569954
Si Si7 0.880857 0.445002 0.148814
Si Si8 0.710978 0.503969 0.668111
O O1 0.154097 0.916859 0.587781
O O2 0.078802 0.716856 0.871012
O O3 0.164581 0.752362 0.047062
O O4 0.965667 0.211867 0.496004
O O5 0.500000 0.500000 0.500000
O O6 0.301848 0.829714 0.414402
O O7 0.314777 0.880242 0.027094
O O8 0.379932 0.999257 0.107081
O O9 0.538427 0.284060 0.072387
O O10 0.720615 0.060313 0.367386
O O11 0.632694 0.476607 0.798844
O O12 0.244288 0.407649 0.921816
O O13 0.302526 0.456784 0.563696
O O14 0.449593 0.177153 0.040225
O O15 0.500000 0.000000 0.500000
O O16 0.340512 0.216072 0.532105
O O17 0.869902 0.684521 0.907571
#
# Coordination Sequence:
#
# PCOD9030344 Si02
#       8
#     2   2   2   2   2   2   2   2
#     4  10  22  42  70  96 125 173 218 277 330 389
#     4  11  24  40  65  94 133 179 222 265 327 396
#     4  11  25  40  64  92 132 176 215 265 324 394
#     4  11  24  42  63  95 136 173 215 274 328 394
#     4  12  24  41  63  92 128 178 216 267 323 392
#     4  10  23  44  66  97 132 172 221 277 328 391
#     4  10  22  42  70  95 125 171 223 271 335 384
#     4  11  24  41  61  96 133 167 217 266 331 399
#
# _framework density 23.106976
#
# number of rings (size 3 to 8) (size 9 to 14) (size 15 to 20)
#    0.000    1.250    1.250    4.500    3.500    3.500 
#    0.000    0.000    0.000    3.750    0.000    0.000 
#    0.000    0.000    0.000    0.000    0.000    0.000 
#
# Total GULP energy -89494.894759 kJ/mol
# GULP energy per Si atom -5593.430922 kJ/mol
# Density = 2.305438 g / cm^3
# Si number density = 23.106976 Si / 1000 Ang^3
#
#
#
# Elastic Constant Matrix: (Units=GPa)
#
#
# Indices 1 2 3 4 5 6 
#
# 1 73.9770 2.3265 12.1573 -8.6208 -0.5875 13.5295
# 2 2.3265 60.6851 23.7181 -1.8803 6.8016 13.0379
# 3 12.1573 23.7181 114.2437 -8.8697 5.9103 20.4706
# 4 -8.6208 -1.8803 -8.8697 41.3959 6.5871 -5.6931
# 5 -0.5875 6.8016 5.9103 6.5871 42.2197 3.6172
# 6 13.5295 13.0379 20.4706 -5.6931 3.6172 34.7634
#
#
#
# Elastic Compliance Matrix: (Units=1/GPa)
#
#
# Indices 1 2 3 4 5 6 
#
# 1 0.014841 0.000877 -0.000637 0.002209 0.000272 -0.005397
# 2 0.000877 0.019023 -0.002942 0.000003 -0.002168 -0.005518
# 3 -0.000637 -0.002942 0.010385 0.001483 -0.000840 -0.004434
# 4 0.002209 0.000003 0.001483 0.026064 -0.004501 0.003003
# 5 0.000272 -0.002168 -0.000840 -0.004501 0.025042 -0.002141
# 6 -0.005397 -0.005518 -0.004434 0.003003 -0.002141 0.036261
#
#
# Mechanical properties :
#
#
# Convention : Reuss Voigt Hill
#
# Bulk Modulus (GPa) = 25.74237 36.14552 30.94395
# Shear Modulus (GPa) = 33.34050 37.72275 35.53162
#
# Velocity S-wave (km/s) = 3.80264 4.04484 3.92561
# Velocity P-wave (km/s) = 5.51768 6.12298 5.82820
#
# Compressibility (1/GPa) = 0.03884646
#
# Stress axis : x y z
#
# Youngs Moduli (GPa) = 67.37938 52.56745 96.29495
#
# Poissons Ratio (x) = -0.04612 0.06135
# Poissons Ratio (y) = -0.05912 0.28327
# Poissons Ratio (z) = 0.04293 0.15464
#
# Static dielectric constant tensor:
#      x y z
#    x 1.873350 -0.007570 -0.009460 
#    y -0.007570 1.877780 0.001490 
#    z -0.009460 0.001490 1.870530 
# 
# From -- ./inp_files/332729.got.cif
#   From: 2010.05.17/outbox.cif.g08.bks.cpg/sg2_167_cif.got.tgz:332729.got - 2010.06.03 11:33:40.
