data_PCOD9030904
_publ_section_title
;
Structure prediction by ZEFSAII (Michael W. Deem and Ramdas Pophale) SiO2 
 PCOD9030904
Probable space group: P -1
;
_chemical_formula_sum "Si O2"
_cell_formula_units_Z 16
_cell_length_a 6.675918
_cell_length_b 10.303688
_cell_length_c 14.104507
_cell_angle_alpha 54.064873
_cell_angle_beta 84.314125
_cell_angle_gamma 107.329939
_cell_volume 701.235344
_symmetry_space_group_name_H-M "P -1"
_symmetry_group_IT_number 2
_symmetry_cell_setting 'triclinic'
loop_
_space_group_symop_operation_xyz
x,y,z
-x,-y,-z
loop_
_atom_site_type_symbol
_atom_site_label
_atom_site_fract_x
_atom_site_fract_y
_atom_site_fract_z
Si Si1 0.109534 0.419766 0.372647
Si Si2 0.832742 0.191443 0.181905
Si Si3 0.237796 0.443632 0.143459
Si Si4 0.606541 0.352397 0.437513
Si Si5 0.979289 0.022848 0.102385
Si Si6 0.414617 0.203846 0.118068
Si Si7 0.837234 0.911133 0.457557
Si Si8 0.518042 0.690508 0.318745
O O1 0.203351 0.407634 0.270989
O O2 0.116788 0.258051 0.503823
O O3 0.270964 0.618396 0.315981
O O4 0.855772 0.385115 0.393948
O O5 0.574837 0.143568 0.196400
O O6 0.988307 0.382555 0.138870
O O7 0.944275 0.188223 0.076245
O O8 0.859609 0.051405 0.314190
O O9 0.325999 0.313069 0.144566
O O10 0.415473 0.645171 0.026354
O O11 0.423745 0.188546 0.457412
O O12 0.582789 0.533976 0.349060
O O13 0.532566 0.305530 0.570170
O O14 0.206477 0.051876 0.135953
O O15 0.737580 0.865639 0.208203
O O16 0.000000 0.000000 0.000000
O O17 0.000000 0.000000 0.500000
#
# Coordination Sequence:
#
# PCOD9030904 Si02
#       8
#     2   2   2   2   2   2   2   2
#     4  11  23  40  68  97 133 175 225 272 336 396
#     4  11  23  43  67  98 136 179 218 276 336 400
#     4  10  22  44  64 101 132 171 225 279 326 410
#     4  10  23  41  65  94 129 184 212 274 337 394
#     4  11  24  43  69 101 133 173 225 283 328 394
#     4  10  24  43  71  94 137 180 216 275 345 387
#     4  11  23  44  63 100 138 170 227 272 330 405
#     4  10  22  43  61  95 135 167 227 270 328 399
#
# _framework density 22.816876000000001
#
# number of rings (size 3 to 8) (size 9 to 14) (size 15 to 20)
#    0.000    1.500    2.500    1.500    0.000    7.000 
#    0.000    0.000    0.000    0.000    0.000    0.000 
#    0.000    0.000    0.000    0.000    0.000    0.000 
#
# Total GULP energy -89297.460872 kJ/mol
# GULP energy per Si atom -5581.091304 kJ/mol
# Density = 2.276494 g / cm^3
# Si number density = 22.816876 Si / 1000 Ang^3
#
#
#
# Elastic Constant Matrix: (Units=GPa)
#
#
# Indices 1 2 3 4 5 6 
#
# 1 140.0876 45.3170 48.0318 1.8258 -13.6587 44.5751
# 2 45.3170 105.2468 35.0845 5.5531 -3.6928 42.1917
# 3 48.0318 35.0845 87.2671 2.0985 -6.9505 7.2169
# 4 1.8258 5.5531 2.0985 34.7649 10.3675 -2.9867
# 5 -13.6587 -3.6928 -6.9505 10.3675 28.6234 -8.8114
# 6 44.5751 42.1917 7.2169 -2.9867 -8.8114 46.1758
#
#
#
# Elastic Compliance Matrix: (Units=1/GPa)
#
#
# Indices 1 2 3 4 5 6 
#
# 1 0.013317 0.002216 -0.006911 -0.002282 0.001589 -0.013645
# 2 0.002216 0.018558 -0.007277 -0.003401 -0.002847 -0.018721
# 3 -0.006911 -0.007277 0.017512 0.000445 0.003316 0.011245
# 4 -0.002282 -0.003401 0.000445 0.033402 -0.011941 0.005123
# 5 0.001589 -0.002847 0.003316 -0.011941 0.042910 0.007965
# 6 -0.013645 -0.018721 0.011245 0.005123 0.007965 0.052028
#
#
# Mechanical properties :
#
#
# Convention : Reuss Voigt Hill
#
# Bulk Modulus (GPa) = 39.30426 65.49646 52.40036
# Shear Modulus (GPa) = 23.79226 35.52404 29.65815
#
# Velocity S-wave (km/s) = 3.23266 3.95006 3.60923
# Velocity P-wave (km/s) = 5.58541 7.04071 6.35486
#
# Compressibility (1/GPa) = 0.02544254
#
# Stress axis : x y z
#
# Youngs Moduli (GPa) = 75.08936 53.88493 57.10396
#
# Poissons Ratio (x) = -0.11939 0.39464
# Poissons Ratio (y) = -0.16637 0.41556
# Poissons Ratio (z) = 0.51893 0.39213
#
# Static dielectric constant tensor:
#      x y z
#    x 1.919300 0.049600 0.040080 
#    y 0.049600 1.917160 -0.045190 
#    z 0.040080 -0.045190 1.866230 
# 
# From -- ./inp_files/482644.got.cif
#   From: 2010.05.17/outbox.cif.g08.bks.cpg/sg2_242_cif.got.tgz:482644.got - 2010.06.03 11:33:40.
