data_PCOD9030583
_publ_section_title
;
Structure prediction by ZEFSAII (Michael W. Deem and Ramdas Pophale) SiO2 
 PCOD9030583
Probable space group: P -1
;
_chemical_formula_sum "Si O2"
_cell_formula_units_Z 16
_cell_length_a 9.068058
_cell_length_b 13.681657
_cell_length_c 12.014430
_cell_angle_alpha 113.866928
_cell_angle_beta 64.864000
_cell_angle_gamma 60.244121
_cell_volume 728.623863
_symmetry_space_group_name_H-M "P -1"
_symmetry_group_IT_number 2
_symmetry_cell_setting 'triclinic'
loop_
_space_group_symop_operation_xyz
x,y,z
-x,-y,-z
loop_
_atom_site_type_symbol
_atom_site_label
_atom_site_fract_x
_atom_site_fract_y
_atom_site_fract_z
Si Si1 0.744568 0.994425 0.136863
Si Si2 0.851099 0.049194 0.899483
Si Si3 0.615625 0.543155 0.425468
Si Si4 0.179508 0.370785 0.486059
Si Si5 0.931824 0.676345 0.997603
Si Si6 0.184657 0.778508 0.477781
Si Si7 0.598492 0.640195 0.121747
Si Si8 0.674255 0.531969 0.809412
O O1 0.414869 0.159635 0.301553
O O2 0.806385 0.859148 0.130770
O O3 0.836600 0.969180 0.967105
O O4 0.907094 0.999713 0.157488
O O5 0.572779 0.270013 0.080266
O O6 0.915375 0.959126 0.717196
O O7 0.500000 0.500000 0.500000
O O8 0.633960 0.626526 0.545782
O O9 0.408489 0.676693 0.455444
O O10 0.913323 0.389737 0.201133
O O11 0.000000 0.500000 0.500000
O O12 0.956078 0.451457 0.683324
O O13 0.707294 0.701281 0.086053
O O14 0.164927 0.529827 0.948386
O O15 0.302626 0.789745 0.346071
O O16 0.236684 0.627784 0.350268
O O17 0.587224 0.573896 0.984838
#
# Coordination Sequence:
#
# PCOD9030583 Si02
#       8
#     2   2   2   2   2   2   2   2
#     4  11  24  43  70 108 142 184 242 295 361 440
#     4  11  24  45  71 109 145 185 244 295 358 445
#     4  11  21  40  69  99 136 185 235 280 358 432
#     4  12  24  43  67 106 145 180 229 300 364 418
#     4  10  22  42  72 100 141 189 235 295 356 421
#     4  11  24  43  73  99 139 199 239 286 362 424
#     4  10  23  45  70 103 143 188 243 296 355 423
#     4  12  25  46  71 108 148 185 238 306 363 417
#
# _framework density 21.959204
#
# number of rings (size 3 to 8) (size 9 to 14) (size 15 to 20)
#    0.000    1.000    3.750    3.375    1.750    1.500 
#    0.000    5.625    0.000    0.000    0.000    0.000 
#    0.000    0.000    0.000    0.000    0.000    0.000 
#
# Total GULP energy -89118.578821 kJ/mol
# GULP energy per Si atom -5569.911176 kJ/mol
# Density = 2.190922 g / cm^3
# Si number density = 21.959204 Si / 1000 Ang^3
#
#
#
# Elastic Constant Matrix: (Units=GPa)
#
#
# Indices 1 2 3 4 5 6 
#
# 1 100.1398 45.6951 36.8213 1.8928 1.2781 12.9369
# 2 45.6951 90.4805 44.2434 -10.8639 -6.4251 24.1866
# 3 36.8213 44.2434 111.6804 -14.6219 -3.6192 8.8108
# 4 1.8928 -10.8639 -14.6219 35.6756 -9.1840 -5.3525
# 5 1.2781 -6.4251 -3.6192 -9.1840 32.0685 -6.2792
# 6 12.9369 24.1866 8.8108 -5.3525 -6.2792 27.5825
#
#
#
# Elastic Compliance Matrix: (Units=1/GPa)
#
#
# Indices 1 2 3 4 5 6 
#
# 1 0.014290 -0.006056 -0.002938 -0.005215 -0.004077 -0.002393
# 2 -0.006056 0.020145 -0.004503 0.003386 0.002352 -0.012194
# 3 -0.002938 -0.004503 0.012196 0.004891 0.002573 0.002965
# 4 -0.005215 0.003386 0.004891 0.035950 0.013284 0.007915
# 5 -0.004077 0.002352 0.002573 0.013284 0.037916 0.010238
# 6 -0.002393 -0.012194 0.002965 0.007915 0.010238 0.050989
#
#
# Mechanical properties :
#
#
# Convention : Reuss Voigt Hill
#
# Bulk Modulus (GPa) = 50.92159 61.75779 56.33969
# Shear Modulus (GPa) = 24.38717 30.76804 27.57761
#
# Velocity S-wave (km/s) = 3.33613 3.74725 3.54765
# Velocity P-wave (km/s) = 6.17084 6.84890 6.51869
#
# Compressibility (1/GPa) = 0.01963803
#
# Stress axis : x y z
#
# Youngs Moduli (GPa) = 69.98122 49.63947 81.99113
#
# Poissons Ratio (x) = 0.30060 0.24092
# Poissons Ratio (y) = 0.42378 0.36917
# Poissons Ratio (z) = 0.20563 0.22351
#
# Static dielectric constant tensor:
#      x y z
#    x 1.845820 -0.031540 -0.009130 
#    y -0.031540 1.464680 -0.508920 
#    z -0.009130 -0.508920 1.347690 
# 
# From -- ./inp_files/399426.got.cif
#   From: 2010.05.17/outbox.cif.g08.bks.cpg/sg2_200_cif.got.tgz:399426.got - 2010.06.03 11:33:40.
