data_PCOD9030905
_publ_section_title
;
Structure prediction by ZEFSAII (Michael W. Deem and Ramdas Pophale) SiO2 
 PCOD9030905
Probable space group: P -1
;
_chemical_formula_sum "Si O2"
_cell_formula_units_Z 16
_cell_length_a 7.318916
_cell_length_b 11.359928
_cell_length_c 16.132569
_cell_angle_alpha 124.723482
_cell_angle_beta 144.611190
_cell_angle_gamma 65.618016
_cell_volume 634.684440
_symmetry_space_group_name_H-M "P -1"
_symmetry_group_IT_number 2
_symmetry_cell_setting 'triclinic'
loop_
_space_group_symop_operation_xyz
x,y,z
-x,-y,-z
loop_
_atom_site_type_symbol
_atom_site_label
_atom_site_fract_x
_atom_site_fract_y
_atom_site_fract_z
Si Si1 0.940789 0.537847 0.697948
Si Si2 0.171380 0.476349 0.919589
Si Si3 0.609384 0.114390 0.169076
Si Si4 0.176379 0.331415 0.027218
Si Si5 0.439362 0.066235 0.261140
Si Si6 0.750292 0.573036 0.378205
Si Si7 0.737091 0.160420 0.010682
Si Si8 0.695225 0.759681 0.577867
O O1 0.541926 0.544799 0.795619
O O2 0.699604 0.622979 0.588573
O O3 0.899081 0.470478 0.746214
O O4 0.071962 0.418613 0.640585
O O5 0.865882 0.655670 0.082074
O O6 0.121549 0.614379 0.013774
O O7 0.500000 0.500000 0.000000
O O8 0.310018 0.194552 0.061862
O O9 0.651959 0.142140 0.295988
O O10 0.937753 0.168821 0.268801
O O11 0.505093 0.055693 0.941187
O O12 0.798404 0.323909 0.128013
O O13 0.497261 0.125467 0.399036
O O14 0.401567 0.897247 0.153408
O O15 0.090931 0.113867 0.131311
O O16 0.635268 0.703575 0.439826
O O17 0.000000 0.500000 0.500000
#
# Coordination Sequence:
#
# PCOD9030905 Si02
#       8
#     2   2   2   2   2   2   2   2
#     4  10  18  35  54  77 116 144 172 227 278 322
#     4  11  22  37  54  73 113 150 187 229 261 323
#     4  10  17  32  52  81 111 138 176 223 279 331
#     4  11  21  35  55  80 109 147 189 218 275 328
#     4   8  17  30  44  75 110 142 170 213 273 324
#     4  10  19  35  52  81 119 143 181 221 269 341
#     4   8  17  31  49  77 112 138 172 225 280 329
#     4  10  18  32  51  77 117 142 173 217 268 332
#
# _framework density 25.209377
#
# number of rings (size 3 to 8) (size 9 to 14) (size 15 to 20)
#    0.750    1.500    3.750    1.500    0.000    2.000 
#    2.250    1.875    0.000    0.000    0.000    1.750 
#    3.750    3.625    0.000    0.000    0.000    0.000 
#
# Total GULP energy -89126.734141 kJ/mol
# GULP energy per Si atom -5570.420884 kJ/mol
# Density = 2.515200 g / cm^3
# Si number density = 25.209377 Si / 1000 Ang^3
#
#
#
# Elastic Constant Matrix: (Units=GPa)
#
#
# Indices 1 2 3 4 5 6 
#
# 1 131.6677 7.9917 23.2608 -5.1695 -26.7442 15.7911
# 2 7.9917 68.6803 30.3406 -3.6976 -5.5027 13.6410
# 3 23.2608 30.3406 95.4425 5.9932 -30.4985 0.2147
# 4 -5.1695 -3.6976 5.9932 23.6508 -6.5811 -8.9144
# 5 -26.7442 -5.5027 -30.4985 -6.5811 59.5305 2.8763
# 6 15.7911 13.6410 0.2147 -8.9144 2.8763 33.0371
#
#
#
# Elastic Compliance Matrix: (Units=1/GPa)
#
#
# Indices 1 2 3 4 5 6 
#
# 1 0.009208 0.000858 -0.001363 0.001861 0.003945 -0.004588
# 2 0.000858 0.018899 -0.006514 0.001731 -0.000644 -0.007648
# 3 -0.001363 -0.006514 0.014984 -0.002672 0.006070 0.001994
# 4 0.001861 0.001731 -0.002672 0.049145 0.004515 0.011281
# 5 0.003945 -0.000644 0.006070 0.004515 0.022235 -0.002377
# 6 -0.004588 -0.007648 0.001994 0.011281 -0.002377 0.038858
#
#
# Mechanical properties :
#
#
# Convention : Reuss Voigt Hill
#
# Bulk Modulus (GPa) = 34.42018 46.55297 40.48658
# Shear Modulus (GPa) = 28.24064 38.85684 33.54874
#
# Velocity S-wave (km/s) = 3.35063 3.93028 3.65198
# Velocity P-wave (km/s) = 5.35279 6.25322 5.82044
#
# Compressibility (1/GPa) = 0.02905273
#
# Stress axis : x y z
#
# Youngs Moduli (GPa) = 108.59828 52.91352 66.73997
#
# Poissons Ratio (x) = -0.04541 0.09095
# Poissons Ratio (y) = -0.09319 0.43476
# Poissons Ratio (z) = 0.14799 0.34469
#
# Static dielectric constant tensor:
#      x y z
#    x 2.133590 0.010880 -0.039480 
#    y 0.010880 2.046590 -0.003020 
#    z -0.039480 -0.003020 2.113470 
# 
# From -- ./inp_files/483645.got.cif
#   From: 2010.05.17/outbox.cif.g08.bks.cpg/sg2_242_cif.got.tgz:483645.got - 2010.06.03 11:33:40.
