data_PCOD9030539
_publ_section_title
;
Structure prediction by ZEFSAII (Michael W. Deem and Ramdas Pophale) SiO2 
 PCOD9030539
Probable space group: P -1
;
_chemical_formula_sum "Si O2"
_cell_formula_units_Z 12
_cell_length_a 10.358930
_cell_length_b 10.723354
_cell_length_c 5.552579
_cell_angle_alpha 81.362523
_cell_angle_beta 64.113228
_cell_angle_gamma 85.442364
_cell_volume 548.543760
_symmetry_space_group_name_H-M "P -1"
_symmetry_group_IT_number 2
_symmetry_cell_setting 'triclinic'
loop_
_space_group_symop_operation_xyz
x,y,z
-x,-y,-z
loop_
_atom_site_type_symbol
_atom_site_label
_atom_site_fract_x
_atom_site_fract_y
_atom_site_fract_z
Si Si1 0.349722 0.562277 0.531787
Si Si2 0.939324 0.560515 0.284967
Si Si3 0.161705 0.745455 0.934375
Si Si4 0.388990 0.806545 0.100683
Si Si5 0.608206 0.949775 0.630323
Si Si6 0.084034 0.981438 0.686204
O O1 0.500000 0.500000 0.500000
O O2 0.230806 0.462820 0.568902
O O3 0.268970 0.632518 0.799171
O O4 0.378344 0.674763 0.286091
O O5 0.000000 0.500000 0.500000
O O6 0.000000 0.500000 0.000000
O O7 0.012618 0.696323 0.173617
O O8 0.131727 0.833950 0.705823
O O9 0.253517 0.819692 0.031379
O O10 0.388381 0.931401 0.226559
O O11 0.537097 0.824225 0.828887
O O12 0.500000 0.000000 0.500000
O O13 0.774007 0.934608 0.434046
O O14 0.000000 0.000000 0.500000
O O15 0.000000 0.000000 0.000000
#
# Coordination Sequence:
#
# PCOD9030539 Si02
#       6
#     2   2   2   2   2   2
#     4  11  24  43  71 104 136 183 240 295 350 416
#     4  10  22  42  71  97 134 187 233 279 353 416
#     4  11  23  46  68  98 144 189 228 298 354 420
#     4  11  21  41  75  94 146 181 235 287 364 410
#     4  11  23  42  72 102 135 191 232 287 365 423
#     4  12  27  44  71 106 141 184 239 290 355 426
#
# _framework density 21.876100999999998
#
# number of rings (size 3 to 8) (size 9 to 14) (size 15 to 20)
#    0.000    1.000    5.000    1.000    2.333    2.000 
#    3.000    0.000    0.000    0.000    0.000    0.000 
#    0.000    0.000    0.000    0.000    0.000    0.000 
#
# Total GULP energy -66984.739634 kJ/mol
# GULP energy per Si atom -5582.061636 kJ/mol
# Density = 2.182631 g / cm^3
# Si number density = 21.876101 Si / 1000 Ang^3
#
#
#
# Elastic Constant Matrix: (Units=GPa)
#
#
# Indices 1 2 3 4 5 6 
#
# 1 230.5574 59.1573 94.8162 -19.0892 -11.7219 16.1303
# 2 59.1573 54.1248 31.4856 -14.3068 -5.4496 -1.9428
# 3 94.8162 31.4856 139.5323 -30.4938 -20.7755 8.3449
# 4 -19.0892 -14.3068 -30.4938 48.0728 13.0922 -6.9425
# 5 -11.7219 -5.4496 -20.7755 13.0922 62.8563 -7.1622
# 6 16.1303 -1.9428 8.3449 -6.9425 -7.1622 44.0052
#
#
#
# Elastic Compliance Matrix: (Units=1/GPa)
#
#
# Indices 1 2 3 4 5 6 
#
# 1 0.007742 -0.006724 -0.004028 -0.001761 -0.000413 -0.002716
# 2 -0.006724 0.027981 -0.000720 0.005821 0.000268 0.004798
# 3 -0.004028 -0.000720 0.011418 0.004947 0.001974 0.000381
# 4 -0.001761 0.005821 0.004947 0.026383 -0.003275 0.003594
# 5 -0.000413 0.000268 0.001974 -0.003275 0.017430 0.002109
# 6 -0.002716 0.004798 0.000381 0.003594 0.002109 0.024770
#
#
# Mechanical properties :
#
#
# Convention : Reuss Voigt Hill
#
# Bulk Modulus (GPa) = 41.32413 88.34808 64.83610
# Shear Modulus (GPa) = 34.07513 46.90389 40.48951
#
# Velocity S-wave (km/s) = 3.95098 4.63543 4.30682
# Velocity P-wave (km/s) = 6.30434 8.31402 7.37793
#
# Compressibility (1/GPa) = 0.02419894
#
# Stress axis : x y z
#
# Youngs Moduli (GPa) = 129.16444 35.73823 87.57757
#
# Poissons Ratio (x) = 0.24029 0.35274
# Poissons Ratio (y) = 0.86844 0.06306
# Poissons Ratio (z) = 0.52025 0.02574
#
# Static dielectric constant tensor:
#      x y z
#    x 2.237690 -0.122580 -0.044280 
#    y -0.122580 1.920300 0.059900 
#    z -0.044280 0.059900 1.865420 
# 
# From -- ./inp_files/18746.got.cif
#   From: 2010.05.17/outbox.cif.g08.bks.cpg/sg2_10_cif.got.tgz:18746.got - 2010.06.03 11:33:40.
