data_PCOD9030943
_publ_section_title
;
Structure prediction by ZEFSAII (Michael W. Deem and Ramdas Pophale) SiO2 
 PCOD9030943
Probable space group: P -1
;
_chemical_formula_sum "Si O2"
_cell_formula_units_Z 13
_cell_length_a 17.988893
_cell_length_b 7.251513
_cell_length_c 4.928603
_cell_angle_alpha 100.144946
_cell_angle_beta 95.505808
_cell_angle_gamma 130.026765
_cell_volume 465.571305
_symmetry_space_group_name_H-M "P -1"
_symmetry_group_IT_number 2
_symmetry_cell_setting 'triclinic'
loop_
_space_group_symop_operation_xyz
x,y,z
-x,-y,-z
loop_
_atom_site_type_symbol
_atom_site_label
_atom_site_fract_x
_atom_site_fract_y
_atom_site_fract_z
Si Si1 0.852446 0.367335 0.756731
Si Si2 0.500000 0.000000 0.000000
Si Si3 0.374702 0.353160 0.729606
Si Si4 0.470172 0.677233 0.360878
Si Si5 0.271364 0.730363 0.845153
Si Si6 0.054153 0.860013 0.139884
Si Si7 0.828553 0.830135 0.275716
O O1 0.792249 0.332548 0.464218
O O2 0.920163 0.294493 0.743394
O O3 0.771693 0.205139 0.925578
O O4 0.937423 0.660133 0.964141
O O5 0.390724 0.932368 0.902524
O O6 0.540603 0.152487 0.763485
O O7 0.427448 0.613022 0.638065
O O8 0.424672 0.257024 0.586643
O O9 0.256078 0.171912 0.631075
O O10 0.405459 0.430094 0.073614
O O11 0.237358 0.466891 0.866568
O O12 0.090698 0.066161 0.432520
O O13 0.119975 0.003348 0.930987
#
# Coordination Sequence:
#
# PCOD9030943 Si02
#       7
#     2   1   2   2   2   2   2
#     4  11  27  51  72 109 139 191 228 313 348 435
#     4  12  28  46  68 110 140 200 222 306 334 446
#     4  10  22  43  62  98 132 185 229 290 334 417
#     4  10  23  41  66  89 140 182 239 276 345 404
#     4  12  28  46  72 104 154 181 244 281 377 403
#     4  11  26  47  79 103 142 179 254 283 368 416
#     4  12  24  44  73 110 140 190 232 298 345 444
#
# _framework density 27.922684
#
# number of rings (size 3 to 8) (size 9 to 14) (size 15 to 20)
#    0.000    0.923    1.538    3.692    6.462    8.615 
#    0.000    0.000    0.000    0.000    0.000    0.000 
#    0.000    0.000    0.000    0.000    0.000    0.000 
#
# Total GULP energy -72746.230373 kJ/mol
# GULP energy per Si atom -5595.863875 kJ/mol
# Density = 2.785913 g / cm^3
# Si number density = 27.922684 Si / 1000 Ang^3
#
#
#
# Elastic Constant Matrix: (Units=GPa)
#
#
# Indices 1 2 3 4 5 6 
#
# 1 109.2210 15.3204 38.4423 -3.4592 23.4204 36.3836
# 2 15.3204 119.0126 47.3382 -9.0906 26.4759 23.4181
# 3 38.4423 47.3382 190.9748 -11.0861 20.1351 34.1592
# 4 -3.4592 -9.0906 -11.0861 55.7433 0.4757 10.8762
# 5 23.4204 26.4759 20.1351 0.4757 48.2057 0.9592
# 6 36.3836 23.4181 34.1592 10.8762 0.9592 55.5969
#
#
#
# Elastic Compliance Matrix: (Units=1/GPa)
#
#
# Indices 1 2 3 4 5 6 
#
# 1 0.014338 0.002480 -0.000582 0.003310 -0.007907 -0.010581
# 2 0.002480 0.011608 -0.001373 0.003031 -0.006914 -0.006142
# 3 -0.000582 -0.001373 0.006575 0.001723 -0.001659 -0.003389
# 4 0.003310 0.003031 0.001723 0.020670 -0.004028 -0.008476
# 5 -0.007907 -0.006914 -0.001659 -0.004028 0.028929 0.009395
# 6 -0.010581 -0.006142 -0.003389 -0.008476 0.009395 0.031076
#
#
# Mechanical properties :
#
#
# Convention : Reuss Voigt Hill
#
# Bulk Modulus (GPa) = 29.78909 69.04559 49.41734
# Shear Modulus (GPa) = 40.53958 53.11633 46.82795
#
# Velocity S-wave (km/s) = 3.81445 4.36623 4.09963
# Velocity P-wave (km/s) = 5.48558 7.08517 6.33606
#
# Compressibility (1/GPa) = 0.03356933
#
# Stress axis : x y z
#
# Youngs Moduli (GPa) = 69.74538 86.15011 152.09450
#
# Poissons Ratio (x) = -0.21363 0.08859
# Poissons Ratio (y) = -0.17295 0.20880
# Poissons Ratio (z) = 0.04062 0.11827
#
# Static dielectric constant tensor:
#      x y z
#    x 2.148200 0.012090 0.024530 
#    y 0.012090 1.890480 -0.104280 
#    z 0.024530 -0.104280 2.047700 
# 
# From -- ./inp_files/115513.got.cif
#   From: 2010.05.17/outbox.cif.g08.bks.cpg/sg2_58_cif.got.tgz:115513.got - 2010.06.03 11:33:40.
