data_PCOD9030029
_publ_section_title
;
Structure prediction by ZEFSAII (Michael W. Deem and Ramdas Pophale) SiO2 
 PCOD9030029
Probable space group: P -1
;
_chemical_formula_sum "Si O2"
_cell_formula_units_Z 14
_cell_length_a 9.463744
_cell_length_b 8.281387
_cell_length_c 9.242364
_cell_angle_alpha 99.607639
_cell_angle_beta 57.830707
_cell_angle_gamma 98.801849
_cell_volume 602.758817
_symmetry_space_group_name_H-M "P -1"
_symmetry_group_IT_number 2
_symmetry_cell_setting 'triclinic'
loop_
_space_group_symop_operation_xyz
x,y,z
-x,-y,-z
loop_
_atom_site_type_symbol
_atom_site_label
_atom_site_fract_x
_atom_site_fract_y
_atom_site_fract_z
Si Si1 0.942983 0.019203 0.870843
Si Si2 0.139477 0.795708 0.546178
Si Si3 0.311772 0.551001 0.629613
Si Si4 0.212158 0.340913 0.416365
Si Si5 0.671744 0.364161 0.801484
Si Si6 0.390709 0.154273 0.081020
Si Si7 0.852732 0.390174 0.986890
O O1 0.778737 0.896633 0.919483
O O2 0.894844 0.204151 0.911384
O O3 0.077889 0.962009 0.672468
O O4 0.000000 0.000000 0.000000
O O5 0.233663 0.701882 0.608550
O O6 0.258421 0.793958 0.340971
O O7 0.969497 0.696065 0.563118
O O8 0.500000 0.500000 0.500000
O O9 0.204090 0.391614 0.595714
O O10 0.292034 0.594821 0.814049
O O11 0.310829 0.500469 0.312546
O O12 0.327208 0.199848 0.282089
O O13 0.499821 0.301145 0.962451
O O14 0.792260 0.442905 0.872221
O O15 0.500000 0.000000 0.000000
O O16 0.000000 0.500000 0.000000
#
# Coordination Sequence:
#
# PCOD9030029 Si02
#       7
#     2   2   2   2   2   2   2
#     4  11  24  45  68  88 135 174 212 266 331 389
#     4  10  22  44  68  95 126 177 217 262 323 385
#     4  11  22  39  63  95 132 164 206 268 323 373
#     4  10  22  42  69  90 131 175 217 260 316 393
#     4  11  22  41  68  99 127 168 228 262 316 390
#     4  11  23  42  65  95 131 174 213 270 322 381
#     4  12  24  41  67  99 129 168 220 267 323 387
#
# _framework density 23.226538999999999
#
# number of rings (size 3 to 8) (size 9 to 14) (size 15 to 20)
#    0.000    1.143    2.857    4.714    2.000    1.714 
#    2.571    0.714    0.000    0.000    0.000    0.000 
#    0.000    0.000    0.000    0.000    0.000    0.000 
#
# Total GULP energy -78208.790761 kJ/mol
# GULP energy per Si atom -5586.342197 kJ/mol
# Density = 2.317367 g / cm^3
# Si number density = 23.226539 Si / 1000 Ang^3
#
#
#
# Elastic Constant Matrix: (Units=GPa)
#
#
# Indices 1 2 3 4 5 6 
#
# 1 91.1520 5.4723 21.0245 10.4417 -0.2096 8.3455
# 2 5.4723 69.8685 19.5362 25.1540 -9.6772 5.2906
# 3 21.0245 19.5362 138.4380 44.9162 -2.1935 -5.7571
# 4 10.4417 25.1540 44.9162 47.1123 2.9919 -7.6150
# 5 -0.2096 -9.6772 -2.1935 2.9919 45.9998 9.2945
# 6 8.3455 5.2906 -5.7571 -7.6150 9.2945 32.0056
#
#
#
# Elastic Compliance Matrix: (Units=1/GPa)
#
#
# Indices 1 2 3 4 5 6 
#
# 1 0.011931 0.000936 -0.001198 -0.002815 0.001292 -0.004526
# 2 0.000936 0.020751 0.001377 -0.014505 0.007191 -0.008966
# 3 -0.001198 0.001377 0.010770 -0.011027 0.001739 -0.001106
# 4 -0.002815 -0.014505 -0.011027 0.042964 -0.009223 0.014049
# 5 0.001292 0.007191 0.001739 -0.009223 0.026164 -0.011005
# 6 -0.004526 -0.008966 -0.001106 0.014049 -0.011005 0.040246
#
#
# Mechanical properties :
#
#
# Convention : Reuss Voigt Hill
#
# Bulk Modulus (GPa) = 21.89108 43.50271 32.69689
# Shear Modulus (GPa) = 30.15205 41.91855 36.03530
#
# Velocity S-wave (km/s) = 3.60692 4.25287 3.94314
# Velocity P-wave (km/s) = 5.17610 6.54876 5.90247
#
# Compressibility (1/GPa) = 0.04568071
#
# Stress axis : x y z
#
# Youngs Moduli (GPa) = 83.81712 48.18953 92.84664
#
# Poissons Ratio (x) = -0.04509 0.11127
# Poissons Ratio (y) = -0.07843 -0.12783
# Poissons Ratio (z) = 0.10045 -0.06635
#
# Static dielectric constant tensor:
#      x y z
#    x 1.887120 -0.026920 -0.037750 
#    y -0.026920 1.886820 0.035130 
#    z -0.037750 0.035130 1.913340 
# 
# From -- ./inp_files/158438.got.cif
#   From: 2010.05.17/outbox.cif.g08.bks.cpg/sg2_80_cif.got.tgz:158438.got - 2010.06.03 11:33:40.
