data_PCOD9030890
_publ_section_title
;
Structure prediction by ZEFSAII (Michael W. Deem and Ramdas Pophale) SiO2 
 PCOD9030890
Probable space group: P -1
;
_chemical_formula_sum "Si O2"
_cell_formula_units_Z 16
_cell_length_a 11.983195
_cell_length_b 20.337675
_cell_length_c 18.201041
_cell_angle_alpha 160.855430
_cell_angle_beta 37.777031
_cell_angle_gamma 148.106273
_cell_volume 766.852497
_symmetry_space_group_name_H-M "P -1"
_symmetry_group_IT_number 2
_symmetry_cell_setting 'triclinic'
loop_
_space_group_symop_operation_xyz
x,y,z
-x,-y,-z
loop_
_atom_site_type_symbol
_atom_site_label
_atom_site_fract_x
_atom_site_fract_y
_atom_site_fract_z
Si Si1 0.853551 0.669229 0.303312
Si Si2 0.839904 0.473459 0.945601
Si Si3 0.841517 0.162857 0.452539
Si Si4 0.525091 0.741132 0.263737
Si Si5 0.498946 0.174116 0.012559
Si Si6 0.715103 0.742428 0.661191
Si Si7 0.835919 0.077677 0.813495
Si Si8 0.552918 0.996975 0.303095
O O1 0.892231 0.625683 0.153924
O O2 0.026077 0.655957 0.250836
O O3 0.854247 0.902898 0.563370
O O4 0.632758 0.444085 0.203483
O O5 0.946325 0.673947 0.040682
O O6 0.688148 0.263328 0.657832
O O7 0.600262 0.261948 0.856344
O O8 0.778212 0.092941 0.326628
O O9 0.089578 0.302178 0.481626
O O10 0.733935 0.933782 0.317023
O O11 0.530042 0.834602 0.443225
O O12 0.500000 0.500000 0.000000
O O13 0.653546 0.124090 0.928639
O O14 0.445789 0.026843 0.809725
O O15 0.313145 0.150943 0.136046
O O16 0.500000 0.500000 0.500000
O O17 0.770645 0.934445 0.771869
#
# Coordination Sequence:
#
# PCOD9030890 Si02
#       8
#     2   2   2   2   2   2   2   2
#     4   9  18  36  56  93 133 170 212 271 329 391
#     4   9  19  34  60  95 133 163 215 276 339 385
#     4   9  23  43  65 100 129 171 222 269 342 390
#     4   9  20  45  68 101 130 166 218 272 344 402
#     4  10  22  43  60  95 134 173 229 268 325 385
#     4  12  25  45  66  91 140 185 227 266 317 397
#     4  11  22  37  62  94 131 183 223 267 325 391
#     4   9  20  42  68  96 134 164 213 288 331 393
#
# _framework density 20.864508000000001
#
# number of rings (size 3 to 8) (size 9 to 14) (size 15 to 20)
#    0.750    1.500    1.250    1.500    1.750    1.500 
#    9.000    0.000    0.000    1.500    0.000    0.000 
#    0.000    0.000    0.000    0.000    0.000    0.000 
#
# Total GULP energy -89233.427273 kJ/mol
# GULP energy per Si atom -5577.089205 kJ/mol
# Density = 2.081702 g / cm^3
# Si number density = 20.864508 Si / 1000 Ang^3
#
#
#
# Elastic Constant Matrix: (Units=GPa)
#
#
# Indices 1 2 3 4 5 6 
#
# 1 63.0953 45.7860 18.2845 7.3881 11.4211 -2.6516
# 2 45.7860 98.4228 33.5838 2.7321 4.5049 1.3658
# 3 18.2845 33.5838 113.0780 -1.3879 0.8954 -4.0282
# 4 7.3881 2.7321 -1.3879 35.5185 -5.5836 4.4970
# 5 11.4211 4.5049 0.8954 -5.5836 34.7324 -2.5963
# 6 -2.6516 1.3658 -4.0282 4.4970 -2.5963 39.8141
#
#
#
# Elastic Compliance Matrix: (Units=1/GPa)
#
#
# Indices 1 2 3 4 5 6 
#
# 1 0.026895 -0.011724 -0.000798 -0.006294 -0.008143 0.002293
# 2 -0.011724 0.016558 -0.003079 0.001562 0.001910 -0.001712
# 3 -0.000798 -0.003079 0.009927 0.000758 0.000603 0.001011
# 4 -0.006294 0.001562 0.000758 0.030839 0.006547 -0.003452
# 5 -0.008143 0.001910 0.000603 0.006547 0.032320 0.000821
# 6 0.002293 -0.001712 0.001011 -0.003452 0.000821 0.025874
#
#
# Mechanical properties :
#
#
# Convention : Reuss Voigt Hill
#
# Bulk Modulus (GPa) = 45.08753 52.21163 48.64958
# Shear Modulus (GPa) = 27.62320 33.80913 30.71616
#
# Velocity S-wave (km/s) = 3.64254 4.02980 3.84105
# Velocity P-wave (km/s) = 6.27275 6.83600 6.56042
#
# Compressibility (1/GPa) = 0.02217908
#
# Stress axis : x y z
#
# Youngs Moduli (GPa) = 37.18153 60.39539 100.73098
#
# Poissons Ratio (x) = 0.70805 0.08040
# Poissons Ratio (y) = 0.43590 0.31013
# Poissons Ratio (z) = 0.02968 0.18595
#
# Static dielectric constant tensor:
#      x y z
#    x 1.831600 -0.005800 0.052650 
#    y -0.005800 1.744050 -0.033220 
#    z 0.052650 -0.033220 1.787280 
# 
# From -- ./inp_files/277738.got.cif
#   From: 2010.05.17/outbox.cif.g08.bks.cpg/sg2_139_cif.got.tgz:277738.got - 2010.06.03 11:33:40.
