data_PCOD9030723
_publ_section_title
;
Structure prediction by ZEFSAII (Michael W. Deem and Ramdas Pophale) SiO2 
 PCOD9030723
Probable space group: P -1
;
_chemical_formula_sum "Si O2"
_cell_formula_units_Z 14
_cell_length_a 14.113420
_cell_length_b 23.600984
_cell_length_c 15.544011
_cell_angle_alpha 161.805744
_cell_angle_beta 149.290600
_cell_angle_gamma 21.206126
_cell_volume 569.188375
_symmetry_space_group_name_H-M "P -1"
_symmetry_group_IT_number 2
_symmetry_cell_setting 'triclinic'
loop_
_space_group_symop_operation_xyz
x,y,z
-x,-y,-z
loop_
_atom_site_type_symbol
_atom_site_label
_atom_site_fract_x
_atom_site_fract_y
_atom_site_fract_z
Si Si1 0.398434 0.790579 0.151716
Si Si2 0.720001 0.183355 0.710304
Si Si3 0.324638 0.703196 0.460015
Si Si4 0.281630 0.390618 0.091718
Si Si5 0.576757 0.951412 0.141039
Si Si6 0.749294 0.859545 0.590287
Si Si7 0.781201 0.670236 0.735364
O O1 0.260466 0.871481 0.252390
O O2 0.637257 0.767365 0.317880
O O3 0.176198 0.036281 0.268928
O O4 0.551097 0.509197 0.826257
O O5 0.611220 0.092073 0.437489
O O6 0.500000 0.500000 0.000000
O O7 0.021119 0.993732 0.635497
O O8 0.309973 0.575986 0.347008
O O9 0.537410 0.714155 0.640782
O O10 0.000000 0.500000 0.000000
O O11 0.353598 0.280720 0.086402
O O12 0.504106 0.124220 0.828490
O O13 0.297879 0.187386 0.212101
O O14 0.790179 0.801582 0.012548
O O15 0.960626 0.638348 0.504721
#
# Coordination Sequence:
#
# PCOD9030723 Si02
#       7
#     2   2   2   2   2   2   2
#     4  10  22  42  73 104 128 184 240 289 341 408
#     4  12  25  45  74 105 135 183 248 291 342 417
#     4  11  25  46  71 108 145 178 234 301 349 412
#     4  11  22  45  76 104 134 184 246 292 340 418
#     4  11  25  47  69 100 146 188 234 281 358 421
#     4  10  22  42  73  99 137 182 234 285 349 424
#     4  11  27  45  65 106 149 190 221 288 369 420
#
# _framework density 24.596428
#
# number of rings (size 3 to 8) (size 9 to 14) (size 15 to 20)
#    0.000    1.143    2.857    1.714    6.000    8.000 
#    5.143    0.000    0.000    0.000    0.000    0.000 
#    0.000    0.000    0.000    0.000    0.000    0.000 
#
# Total GULP energy -78174.210065 kJ/mol
# GULP energy per Si atom -5583.872148 kJ/mol
# Density = 2.454045 g / cm^3
# Si number density = 24.596428 Si / 1000 Ang^3
#
#
#
# Elastic Constant Matrix: (Units=GPa)
#
#
# Indices 1 2 3 4 5 6 
#
# 1 102.1933 26.3966 31.3947 -8.1259 -0.7217 25.3909
# 2 26.3966 99.0040 29.3264 36.8346 7.0802 15.0616
# 3 31.3947 29.3264 114.2985 20.0050 -9.2507 -7.0729
# 4 -8.1259 36.8346 20.0050 38.3032 2.4961 -3.4448
# 5 -0.7217 7.0802 -9.2507 2.4961 38.0807 -0.5375
# 6 25.3909 15.0616 -7.0729 -3.4448 -0.5375 37.2298
#
#
#
# Elastic Compliance Matrix: (Units=1/GPa)
#
#
# Indices 1 2 3 4 5 6 
#
# 1 0.015756 -0.004995 -0.005461 0.010262 -0.000897 -0.008826
# 2 -0.004995 0.020872 -0.000978 -0.021078 -0.002933 -0.007216
# 3 -0.005461 -0.000978 0.012260 -0.006321 0.003554 0.005916
# 4 0.010262 -0.021078 -0.006321 0.052371 -0.000782 0.005162
# 5 -0.000897 -0.002933 0.003554 -0.000782 0.027743 0.002802
# 6 -0.008826 -0.007216 0.005916 0.005162 0.002802 0.037441
#
#
# Mechanical properties :
#
#
# Convention : Reuss Voigt Hill
#
# Bulk Modulus (GPa) = 38.43212 54.41458 46.42335
# Shear Modulus (GPa) = 25.25483 37.94796 31.60140
#
# Velocity S-wave (km/s) = 3.20780 3.93214 3.58829
# Velocity P-wave (km/s) = 5.42024 6.54115 6.00690
#
# Compressibility (1/GPa) = 0.02601991
#
# Stress axis : x y z
#
# Youngs Moduli (GPa) = 63.46910 47.91209 81.56587
#
# Poissons Ratio (x) = 0.23930 0.44544
# Poissons Ratio (y) = 0.31700 0.07978
# Poissons Ratio (z) = 0.34661 0.04686
#
# Static dielectric constant tensor:
#      x y z
#    x 2.087880 0.077500 0.066920 
#    y 0.077500 2.007540 0.036870 
#    z 0.066920 0.036870 2.018460 
# 
# From -- ./inp_files/535452.got.cif
#   From: 2010.05.17/outbox.cif.g08.bks.cpg/sg2_268_cif.got.tgz:535452.got - 2010.06.03 11:33:40.
