data_PCOD9030450
_publ_section_title
;
Structure prediction by ZEFSAII (Michael W. Deem and Ramdas Pophale) SiO2 
 PCOD9030450
Probable space group: P -1
;
_chemical_formula_sum "Si O2"
_cell_formula_units_Z 14
_cell_length_a 19.211630
_cell_length_b 8.141016
_cell_length_c 16.246611
_cell_angle_alpha 38.779658
_cell_angle_beta 21.352684
_cell_angle_gamma 48.275565
_cell_volume 558.713823
_symmetry_space_group_name_H-M "P -1"
_symmetry_group_IT_number 2
_symmetry_cell_setting 'triclinic'
loop_
_space_group_symop_operation_xyz
x,y,z
-x,-y,-z
loop_
_atom_site_type_symbol
_atom_site_label
_atom_site_fract_x
_atom_site_fract_y
_atom_site_fract_z
Si Si1 0.400429 0.083098 0.157989
Si Si2 0.013952 0.272736 0.826548
Si Si3 0.239793 0.490463 0.342128
Si Si4 0.665495 0.782347 0.226251
Si Si5 0.992454 0.114519 0.616475
Si Si6 0.688136 0.474626 0.482412
Si Si7 0.408511 0.775894 0.756254
O O1 0.178204 0.070576 0.379849
O O2 0.389072 0.840520 0.331914
O O3 0.532126 0.358638 0.946936
O O4 0.500000 0.000000 0.000000
O O5 0.163400 0.289960 0.580287
O O6 0.115374 0.499273 0.691544
O O7 0.818989 0.323169 0.981756
O O8 0.000000 0.000000 0.000000
O O9 0.130108 0.316617 0.453714
O O10 0.138314 0.740631 0.351380
O O11 0.500000 0.500000 0.500000
O O12 0.742444 0.686907 0.265040
O O13 0.588668 0.049540 0.231046
O O14 0.836398 0.880624 0.931580
O O15 0.529181 0.557563 0.686382
O O16 0.500000 0.000000 0.500000
#
# Coordination Sequence:
#
# PCOD9030450 Si02
#       7
#     2   2   2   2   2   2   2
#     4  12  27  45  69 108 142 186 243 294 345 428
#     4  12  21  42  72 104 130 182 242 283 351 417
#     4  11  25  47  73  99 141 189 237 288 359 425
#     4  11  23  46  73 108 142 185 235 292 361 419
#     4  11  26  49  70 101 146 190 232 293 361 421
#     4  11  25  45  70 105 140 182 241 287 354 414
#     4  10  22  42  71 100 138 181 226 293 347 420
#
# _framework density 25.057551
#
# number of rings (size 3 to 8) (size 9 to 14) (size 15 to 20)
#    0.000    0.857    5.714    1.286    2.000    4.571 
#    5.143    1.429    0.000    0.000    0.000    0.000 
#    0.000    0.000    0.000    0.000    0.000    0.000 
#
# Total GULP energy -78122.441028 kJ/mol
# GULP energy per Si atom -5580.174359 kJ/mol
# Density = 2.500052 g / cm^3
# Si number density = 25.057551 Si / 1000 Ang^3
#
#
#
# Elastic Constant Matrix: (Units=GPa)
#
#
# Indices 1 2 3 4 5 6 
#
# 1 66.0943 8.5398 16.7561 -6.4593 -7.6217 4.5933
# 2 8.5398 20.4661 39.6797 -8.5479 4.5190 -1.5409
# 3 16.7561 39.6797 157.3216 -0.4024 -13.1622 -1.2898
# 4 -6.4593 -8.5479 -0.4024 37.7464 1.0694 1.6887
# 5 -7.6217 4.5190 -13.1622 1.0694 47.8432 -7.3449
# 6 4.5933 -1.5409 -1.2898 1.6887 -7.3449 33.5782
#
#
#
# Elastic Compliance Matrix: (Units=1/GPa)
#
#
# Indices 1 2 3 4 5 6 
#
# 1 0.016710 -0.009010 0.000763 0.000819 0.003403 -0.001967
# 2 -0.009010 0.144384 -0.037580 0.031539 -0.026257 -0.000915
# 3 0.000763 -0.037580 0.016457 -0.008496 0.008558 0.001102
# 4 0.000819 0.031539 -0.008496 0.033954 -0.006262 -0.002069
# 5 0.003403 -0.026257 0.008558 -0.006262 0.027173 0.004917
# 6 -0.001967 -0.000915 0.001102 -0.002069 0.004917 0.031230
#
#
# Mechanical properties :
#
#
# Convention : Reuss Voigt Hill
#
# Bulk Modulus (GPa) = 11.64197 41.53701 26.58949
# Shear Modulus (GPa) = 12.81415 35.76067 24.28741
#
# Velocity S-wave (km/s) = 2.26384 3.78185 3.11668
# Velocity P-wave (km/s) = 3.38962 5.97348 4.85654
#
# Compressibility (1/GPa) = 0.08589608
#
# Stress axis : x y z
#
# Youngs Moduli (GPa) = 59.84588 6.92600 60.76467
#
# Poissons Ratio (x) = 0.06240 -0.04639
# Poissons Ratio (y) = 0.53921 2.28356
# Poissons Ratio (z) = -0.04569 0.26028
#
# Static dielectric constant tensor:
#      x y z
#    x 1.970350 0.066670 0.033700 
#    y 0.066670 2.116200 -0.054470 
#    z 0.033700 -0.054470 1.961720 
# 
# From -- ./inp_files/577192.got.cif
#   From: 2010.05.17/outbox.cif.g08.bks.cpg/sg2_289_cif.got.tgz:577192.got - 2010.06.03 11:33:40.
