data_PCOD9030388
_publ_section_title
;
Structure prediction by ZEFSAII (Michael W. Deem and Ramdas Pophale) SiO2 
 PCOD9030388
Probable space group: P -1
;
_chemical_formula_sum "Si O2"
_cell_formula_units_Z 16
_cell_length_a 13.520181
_cell_length_b 14.261860
_cell_length_c 8.419339
_cell_angle_alpha 91.090625
_cell_angle_beta 116.110941
_cell_angle_gamma 141.571094
_cell_volume 687.104054
_symmetry_space_group_name_H-M "P -1"
_symmetry_group_IT_number 2
_symmetry_cell_setting 'triclinic'
loop_
_space_group_symop_operation_xyz
x,y,z
-x,-y,-z
loop_
_atom_site_type_symbol
_atom_site_label
_atom_site_fract_x
_atom_site_fract_y
_atom_site_fract_z
Si Si1 0.858577 0.517487 0.289993
Si Si2 0.788157 0.930413 0.014127
Si Si3 0.297749 0.313158 0.469209
Si Si4 0.691420 0.474245 0.482079
Si Si5 0.516127 0.618761 0.081724
Si Si6 0.387472 0.843700 0.040285
Si Si7 0.910536 0.222304 0.014554
Si Si8 0.305576 0.910945 0.459660
O O1 0.824081 0.506809 0.452933
O O2 0.120790 0.708922 0.417983
O O3 0.725530 0.506407 0.115819
O O4 0.727060 0.326463 0.138268
O O5 0.584877 0.751600 0.737420
O O6 0.800953 0.052977 0.028713
O O7 0.693146 0.810234 0.101805
O O8 0.061496 0.107607 0.203509
O O9 0.500000 0.500000 0.500000
O O10 0.248833 0.375291 0.526152
O O11 0.391498 0.315422 0.670832
O O12 0.816662 0.563016 0.743424
O O13 0.500000 0.500000 0.000000
O O14 0.204433 0.768005 0.008927
O O15 0.566056 0.938677 0.303109
O O16 0.500000 0.000000 0.000000
O O17 0.842853 0.149831 0.783635
O O18 0.500000 0.000000 0.500000
#
# Coordination Sequence:
#
# PCOD9030388 Si02
#       8
#     2   2   2   2   2   2   2   2
#     4  11  24  41  71 100 136 188 235 282 351 412
#     4  10  22  42  70  97 133 188 228 280 353 413
#     4  11  24  43  69 102 142 181 234 295 353 409
#     4  10  22  43  66 100 136 182 237 277 347 419
#     4  11  22  46  69  98 141 185 237 291 339 422
#     4  11  23  43  69 102 132 178 234 282 343 422
#     4  10  23  41  68  95 144 173 225 294 342 412
#     4  10  25  45  67 105 144 181 231 291 353 411
#
# _framework density 23.286138999999999
#
# number of rings (size 3 to 8) (size 9 to 14) (size 15 to 20)
#    0.000    1.500    2.500    2.625    3.500    9.500 
#    2.250    0.000    0.000    0.000    0.000    0.000 
#    0.000    0.000    0.000    0.000    0.000    0.000 
#
# Total GULP energy -89324.294357 kJ/mol
# GULP energy per Si atom -5582.768397 kJ/mol
# Density = 2.323314 g / cm^3
# Si number density = 23.286139 Si / 1000 Ang^3
#
#
#
# Elastic Constant Matrix: (Units=GPa)
#
#
# Indices 1 2 3 4 5 6 
#
# 1 67.0293 41.5111 15.7857 7.2762 -2.1677 -3.2231
# 2 41.5111 100.4020 53.2989 16.0806 -3.6718 12.0817
# 3 15.7857 53.2989 183.4782 2.4318 9.6016 3.2204
# 4 7.2762 16.0806 2.4318 40.5218 -0.2055 7.8383
# 5 -2.1677 -3.6718 9.6016 -0.2055 27.8007 12.1997
# 6 -3.2231 12.0817 3.2204 7.8383 12.1997 38.6279
#
#
#
# Elastic Compliance Matrix: (Units=1/GPa)
#
#
# Indices 1 2 3 4 5 6 
#
# 1 0.021134 -0.009964 0.001125 -0.001049 -0.002621 0.005827
# 2 -0.009964 0.018248 -0.004602 -0.003703 0.006462 -0.007445
# 3 0.001125 -0.004602 0.006841 0.000811 -0.003746 0.001981
# 4 -0.001049 -0.003703 0.000811 0.027266 0.001553 -0.005020
# 5 -0.002621 0.006462 -0.003746 0.001553 0.045169 -0.016508
# 6 0.005827 -0.007445 0.001981 -0.005020 -0.016508 0.034770
#
#
# Mechanical properties :
#
#
# Convention : Reuss Voigt Hill
#
# Bulk Modulus (GPa) = 51.70517 63.56675 57.63596
# Shear Modulus (GPa) = 26.77281 37.41100 32.09190
#
# Velocity S-wave (km/s) = 3.39445 4.01256 3.71638
# Velocity P-wave (km/s) = 6.13315 6.98748 6.57421
#
# Compressibility (1/GPa) = 0.01934043
#
# Stress axis : x y z
#
# Youngs Moduli (GPa) = 47.31750 54.80093 146.18172
#
# Poissons Ratio (x) = 0.54604 -0.16446
# Poissons Ratio (y) = 0.47147 0.67273
# Poissons Ratio (z) = -0.05323 0.25219
#
# Static dielectric constant tensor:
#      x y z
#    x 1.962820 0.050630 0.086280 
#    y 0.050630 1.876780 0.034820 
#    z 0.086280 0.034820 2.063330 
# 
# From -- ./inp_files/313438.got.cif
#   From: 2010.05.17/outbox.cif.g08.bks.cpg/sg2_157_cif.got.tgz:313438.got - 2010.06.03 11:33:40.
