data_PCOD9030418
_publ_section_title
;
Structure prediction by ZEFSAII (Michael W. Deem and Ramdas Pophale) SiO2 
 PCOD9030418
Probable space group: P -1
;
_chemical_formula_sum "Si O2"
_cell_formula_units_Z 14
_cell_length_a 18.129731
_cell_length_b 9.069917
_cell_length_c 5.607106
_cell_angle_alpha 88.006811
_cell_angle_beta 87.946700
_cell_angle_gamma 43.742575
_cell_volume 637.030304
_symmetry_space_group_name_H-M "P -1"
_symmetry_group_IT_number 2
_symmetry_cell_setting 'triclinic'
loop_
_space_group_symop_operation_xyz
x,y,z
-x,-y,-z
loop_
_atom_site_type_symbol
_atom_site_label
_atom_site_fract_x
_atom_site_fract_y
_atom_site_fract_z
Si Si1 0.899364 0.158546 0.672651
Si Si2 0.855266 0.471847 0.995799
Si Si3 0.495978 0.100967 0.741470
Si Si4 0.272542 0.590951 0.705816
Si Si5 0.821605 0.021639 0.005594
Si Si6 0.098786 0.354650 0.672655
Si Si7 0.724082 0.901247 0.719901
O O1 0.903679 0.312763 0.780801
O O2 0.784007 0.307646 0.549144
O O3 0.899457 0.025954 0.869471
O O4 0.000000 0.000000 0.500000
O O5 0.764168 0.711251 0.894613
O O6 0.804472 0.418737 0.164916
O O7 0.923045 0.484202 0.146549
O O8 0.388842 0.352908 0.721594
O O9 0.500000 0.000000 0.500000
O O10 0.598370 0.060602 0.714861
O O11 0.500000 0.000000 0.000000
O O12 0.259927 0.760181 0.845081
O O13 0.763345 0.998124 0.825064
O O14 0.883297 0.824780 0.187362
O O15 0.209600 0.219418 0.524318
O O16 0.000000 0.500000 0.500000
#
# Coordination Sequence:
#
# PCOD9030418 Si02
#       7
#     2   2   2   2   2   2   2
#     4  11  25  45  70 103 144 191 243 303 370 449
#     4  10  22  42  70  98 138 189 238 299 364 444
#     4  12  26  47  79 113 149 197 258 315 371 447
#     4  11  24  44  72 105 144 187 245 302 373 440
#     4  10  26  46  68 102 148 185 240 309 374 442
#     4  11  25  45  70 103 144 191 243 303 370 449
#     4  11  24  44  72 105 144 187 245 302 373 440
#
# _framework density 21.976974999999999
#
# number of rings (size 3 to 8) (size 9 to 14) (size 15 to 20)
#    0.000    1.143    1.429    3.429    4.000   12.000 
#    0.000    7.143    0.000    0.000    0.000    0.000 
#    0.000    0.000    0.000    0.000    0.000    0.000 
#
# Total GULP energy -78356.247955 kJ/mol
# GULP energy per Si atom -5596.874854 kJ/mol
# Density = 2.192695 g / cm^3
# Si number density = 21.976975 Si / 1000 Ang^3
#
#
#
# Elastic Constant Matrix: (Units=GPa)
#
#
# Indices 1 2 3 4 5 6 
#
# 1 93.4157 65.7442 26.5578 3.7334 6.3941 1.5123
# 2 65.7442 175.7063 71.3649 17.8900 23.1096 2.7541
# 3 26.5578 71.3649 99.2034 2.8846 9.8450 2.0493
# 4 3.7334 17.8900 2.8846 36.7691 6.3376 5.4982
# 5 6.3941 23.1096 9.8450 6.3376 35.5306 7.2125
# 6 1.5123 2.7541 2.0493 5.4982 7.2125 51.0345
#
#
#
# Elastic Compliance Matrix: (Units=1/GPa)
#
#
# Indices 1 2 3 4 5 6 
#
# 1 0.014617 -0.005752 0.000104 0.001202 0.000947 -0.000390
# 2 -0.005752 0.011198 -0.006018 -0.003810 -0.004062 0.000792
# 3 0.000104 -0.006018 0.014369 0.001911 -0.000343 -0.000413
# 4 0.001202 -0.003810 0.001911 0.029700 -0.003021 -0.002680
# 5 0.000947 -0.004062 -0.000343 -0.003021 0.032062 -0.004001
# 6 -0.000390 0.000792 -0.000413 -0.002680 -0.004001 0.020434
#
#
# Mechanical properties :
#
#
# Convention : Reuss Voigt Hill
#
# Bulk Modulus (GPa) = 59.34340 77.29548 68.31944
# Shear Modulus (GPa) = 33.04058 38.31075 35.67566
#
# Velocity S-wave (km/s) = 3.88160 4.17972 4.03342
# Velocity P-wave (km/s) = 6.86660 7.65120 7.26950
#
# Compressibility (1/GPa) = 0.01685107
#
# Stress axis : x y z
#
# Youngs Moduli (GPa) = 68.41293 89.30422 69.59634
#
# Poissons Ratio (x) = 0.51371 -0.00725
# Poissons Ratio (y) = 0.39354 0.41882
# Poissons Ratio (z) = -0.00712 0.53742
#
# Static dielectric constant tensor:
#      x y z
#    x 1.798370 -0.004750 0.004370 
#    y -0.004750 1.812980 -0.024830 
#    z 0.004370 -0.024830 1.895550 
# 
# From -- ./inp_files/106915.got.cif
#   From: 2010.05.17/outbox.cif.g08.bks.cpg/sg2_54_cif.got.tgz:106915.got - 2010.06.03 11:33:40.
