data_PCOD9030442
_publ_section_title
;
Structure prediction by ZEFSAII (Michael W. Deem and Ramdas Pophale) SiO2 
 PCOD9030442
Probable space group: P -1
;
_chemical_formula_sum "Si O2"
_cell_formula_units_Z 16
_cell_length_a 12.170042
_cell_length_b 8.485011
_cell_length_c 7.974364
_cell_angle_alpha 123.712764
_cell_angle_beta 84.647886
_cell_angle_gamma 114.561522
_cell_volume 612.631146
_symmetry_space_group_name_H-M "P -1"
_symmetry_group_IT_number 2
_symmetry_cell_setting 'triclinic'
loop_
_space_group_symop_operation_xyz
x,y,z
-x,-y,-z
loop_
_atom_site_type_symbol
_atom_site_label
_atom_site_fract_x
_atom_site_fract_y
_atom_site_fract_z
Si Si1 0.742351 0.471459 0.864797
Si Si2 0.414213 0.899021 0.737332
Si Si3 0.495361 0.567972 0.234118
Si Si4 0.373504 0.149823 0.195269
Si Si5 0.800904 0.175485 0.483948
Si Si6 0.132818 0.046487 0.354653
Si Si7 0.093289 0.052301 0.866750
Si Si8 0.727911 0.521318 0.277260
O O1 0.604145 0.343301 0.737073
O O2 0.823873 0.398821 0.691826
O O3 0.789825 0.723656 0.994827
O O4 0.748350 0.436702 0.043514
O O5 0.545968 0.895984 0.699758
O O6 0.341334 0.937103 0.618147
O O7 0.330098 0.672103 0.700852
O O8 0.413903 0.062685 0.974080
O O9 0.421896 0.392586 0.283054
O O10 0.632774 0.622874 0.309546
O O11 0.500000 0.500000 0.000000
O O12 0.231097 0.054639 0.204085
O O13 0.833994 0.057866 0.556176
O O14 0.870765 0.135743 0.292589
O O15 0.008335 0.076954 0.747255
O O16 0.161282 0.287058 0.536093
O O17 0.000000 0.000000 0.000000
#
# Coordination Sequence:
#
# PCOD9030442 Si02
#       8
#     2   2   2   2   2   2   2   2
#     4  11  24  45  73 102 143 183 235 296 347 413
#     4  10  23  42  68 107 141 177 239 285 354 416
#     4   9  20  39  70 104 140 189 225 279 361 408
#     4  10  22  42  70  99 148 189 225 296 346 420
#     4  12  27  45  73 108 135 186 240 292 352 417
#     4  12  26  46  71 102 142 188 236 281 358 418
#     4  12  28  51  72 100 142 189 236 292 351 419
#     4  10  23  43  71 101 147 186 224 291 351 428
#
# _framework density 26.116857
#
# number of rings (size 3 to 8) (size 9 to 14) (size 15 to 20)
#    0.000    1.250    1.250    3.375    7.000    3.500 
#    2.250    0.000    0.000    0.000    0.000    0.000 
#    0.000    0.000    0.000    0.000    0.000    0.000 
#
# Total GULP energy -89437.969652 kJ/mol
# GULP energy per Si atom -5589.873103 kJ/mol
# Density = 2.605741 g / cm^3
# Si number density = 26.116857 Si / 1000 Ang^3
#
#
#
# Elastic Constant Matrix: (Units=GPa)
#
#
# Indices 1 2 3 4 5 6 
#
# 1 122.4611 -4.3087 36.5064 -6.3875 2.1787 -7.4913
# 2 -4.3087 40.6636 13.5380 -5.4033 -3.6093 -7.6035
# 3 36.5064 13.5380 119.8067 9.8560 -37.6591 -6.5252
# 4 -6.3875 -5.4033 9.8560 29.0793 0.1990 1.4986
# 5 2.1787 -3.6093 -37.6591 0.1990 62.0211 -9.0861
# 6 -7.4913 -7.6035 -6.5252 1.4986 -9.0861 36.2855
#
#
#
# Elastic Compliance Matrix: (Units=1/GPa)
#
#
# Indices 1 2 3 4 5 6 
#
# 1 0.009970 0.003084 -0.004568 0.004279 -0.002811 0.001003
# 2 0.003084 0.028367 -0.004606 0.007238 -0.000497 0.005329
# 3 -0.004568 -0.004606 0.013702 -0.006717 0.008674 0.003005
# 4 0.004279 0.007238 -0.006717 0.039054 -0.004147 -0.001459
# 5 -0.002811 -0.000497 0.008674 -0.004147 0.022450 0.006668
# 6 0.001003 0.005329 0.003005 -0.001459 0.006668 0.031153
#
#
# Mechanical properties :
#
#
# Convention : Reuss Voigt Hill
#
# Bulk Modulus (GPa) = 25.08900 41.60031 33.34466
# Shear Modulus (GPa) = 29.38356 41.29024 35.33690
#
# Velocity S-wave (km/s) = 3.35786 3.98047 3.68235
# Velocity P-wave (km/s) = 4.96598 6.09004 5.55651
#
# Compressibility (1/GPa) = 0.03985810
#
# Stress axis : x y z
#
# Youngs Moduli (GPa) = 100.29602 35.25285 72.98269
#
# Poissons Ratio (x) = -0.10871 0.33335
# Poissons Ratio (y) = -0.30928 0.33619
# Poissons Ratio (z) = 0.45811 0.16239
#
# Static dielectric constant tensor:
#      x y z
#    x 2.053620 -0.022310 0.020970 
#    y -0.022310 2.047180 -0.009360 
#    z 0.020970 -0.009360 2.244540 
# 
# From -- ./inp_files/198089.got.cif
#   From: 2010.05.17/outbox.cif.g08.bks.cpg/sg2_100_cif.got.tgz:198089.got - 2010.06.03 11:33:40.
