data_PCOD9030136
_publ_section_title
;
Structure prediction by ZEFSAII (Michael W. Deem and Ramdas Pophale) SiO2 
 PCOD9030136
Probable space group: P -1
;
_chemical_formula_sum "Si O2"
_cell_formula_units_Z 16
_cell_length_a 5.675097
_cell_length_b 18.945094
_cell_length_c 9.085300
_cell_angle_alpha 104.703981
_cell_angle_beta 50.278424
_cell_angle_gamma 102.912994
_cell_volume 724.247137
_symmetry_space_group_name_H-M "P -1"
_symmetry_group_IT_number 2
_symmetry_cell_setting 'triclinic'
loop_
_space_group_symop_operation_xyz
x,y,z
-x,-y,-z
loop_
_atom_site_type_symbol
_atom_site_label
_atom_site_fract_x
_atom_site_fract_y
_atom_site_fract_z
Si Si1 0.279996 0.293799 0.822852
Si Si2 0.569998 0.425361 0.627347
Si Si3 0.327504 0.796341 0.591678
Si Si4 0.262596 0.824846 0.958934
Si Si5 0.666222 0.728524 0.884299
Si Si6 0.298421 0.408521 0.394522
Si Si7 0.755921 0.035850 0.810893
Si Si8 0.275969 0.935864 0.485993
O O1 0.328209 0.378182 0.802227
O O2 0.424770 0.251159 0.607484
O O3 0.437396 0.287774 0.916417
O O4 0.957179 0.248576 0.960470
O O5 0.442960 0.407764 0.501735
O O6 0.582719 0.513067 0.680145
O O7 0.920784 0.406106 0.523353
O O8 0.383867 0.832360 0.748274
O O9 0.279474 0.860315 0.529561
O O10 0.029764 0.742435 0.717955
O O11 0.553655 0.807022 0.928369
O O12 0.096985 0.894505 0.118387
O O13 0.580798 0.659632 0.777067
O O14 0.651366 0.069360 0.717486
O O15 0.953088 0.970037 0.652759
O O16 0.500000 0.000000 0.000000
O O17 0.500000 0.000000 0.500000
#
# Coordination Sequence:
#
# PCOD9030136 Si02
#       8
#     2   2   2   2   2   2   2   2
#     4  11  24  40  65  96 128 171 220 271 336 394
#     4  10  22  42  69  99 134 184 221 281 335 402
#     4  11  23  42  62  90 127 167 213 269 332 395
#     4  11  25  40  62  94 128 165 218 272 329 400
#     4  11  24  40  65  95 128 171 218 274 326 403
#     4  10  22  42  69  98 137 178 230 272 340 400
#     4  11  24  42  62  92 126 165 213 269 330 396
#     4  11  24  40  64  90 122 165 212 265 330 396
#
# _framework density 22.091908
#
# number of rings (size 3 to 8) (size 9 to 14) (size 15 to 20)
#    0.000    1.250    1.250    3.750    3.500    9.500 
#    0.000    0.625    0.000    0.000    0.000    0.000 
#    0.000    0.000    0.000    0.000    0.000    0.000 
#
# Total GULP energy -89223.268769 kJ/mol
# GULP energy per Si atom -5576.454298 kJ/mol
# Density = 2.204163 g / cm^3
# Si number density = 22.091908 Si / 1000 Ang^3
#
#
#
# Elastic Constant Matrix: (Units=GPa)
#
#
# Indices 1 2 3 4 5 6 
#
# 1 59.2904 14.6750 25.9771 -5.0239 14.6844 0.0294
# 2 14.6750 107.0218 31.8182 -15.6825 9.1924 -0.7309
# 3 25.9771 31.8182 112.6211 -15.2014 19.9323 -4.3585
# 4 -5.0239 -15.6825 -15.2014 47.0552 -2.4912 7.2585
# 5 14.6844 9.1924 19.9323 -2.4912 34.1924 -3.7324
# 6 0.0294 -0.7309 -4.3585 7.2585 -3.7324 33.2214
#
#
#
# Elastic Compliance Matrix: (Units=1/GPa)
#
#
# Indices 1 2 3 4 5 6 
#
# 1 0.020228 -0.001195 -0.003121 0.000607 -0.006648 -0.001333
# 2 -0.001195 0.010650 -0.002223 0.002772 -0.000936 -0.000767
# 3 -0.003121 -0.002223 0.011342 0.002286 -0.004459 0.000442
# 4 0.000607 0.002772 0.002286 0.023680 -0.001153 -0.004943
# 5 -0.006648 -0.000936 -0.004459 -0.001153 0.035263 0.003614
# 6 -0.001333 -0.000767 0.000442 -0.004943 0.003614 0.031629
#
#
# Mechanical properties :
#
#
# Convention : Reuss Voigt Hill
#
# Bulk Modulus (GPa) = 34.31535 47.09711 40.70623
# Shear Modulus (GPa) = 32.13677 36.65800 34.39739
#
# Velocity S-wave (km/s) = 3.81817 4.07792 3.95018
# Velocity P-wave (km/s) = 5.91647 6.59830 6.26667
#
# Compressibility (1/GPa) = 0.02914147
#
# Stress axis : x y z
#
# Youngs Moduli (GPa) = 49.43663 93.89585 88.16649
#
# Poissons Ratio (x) = 0.11220 0.27520
# Poissons Ratio (y) = 0.05907 0.19601
# Poissons Ratio (z) = 0.15431 0.20874
#
# Static dielectric constant tensor:
#      x y z
#    x 1.974770 0.000900 -0.052900 
#    y 0.000900 1.735460 -0.120210 
#    z -0.052900 -0.120210 1.407220 
# 
# From -- ./inp_files/11295.got.cif
#   From: 2010.05.17/outbox.cif.g08.bks.cpg/sg2_6_cif.got.tgz:11295.got - 2010.06.03 11:33:40.
