data_PCOD9030486
_publ_section_title
;
Structure prediction by ZEFSAII (Michael W. Deem and Ramdas Pophale) SiO2 
 PCOD9030486
Probable space group: P -1
;
_chemical_formula_sum "Si O2"
_cell_formula_units_Z 14
_cell_length_a 14.194204
_cell_length_b 20.316391
_cell_length_c 11.844712
_cell_angle_alpha 150.633267
_cell_angle_beta 138.703219
_cell_angle_gamma 21.874513
_cell_volume 592.430547
_symmetry_space_group_name_H-M "P -1"
_symmetry_group_IT_number 2
_symmetry_cell_setting 'triclinic'
loop_
_space_group_symop_operation_xyz
x,y,z
-x,-y,-z
loop_
_atom_site_type_symbol
_atom_site_label
_atom_site_fract_x
_atom_site_fract_y
_atom_site_fract_z
Si Si1 0.206691 0.731974 0.524128
Si Si2 0.140132 0.243008 0.759068
Si Si3 0.321884 0.339104 0.651028
Si Si4 0.785550 0.723121 0.880613
Si Si5 0.170895 0.958617 0.008034
Si Si6 0.576383 0.511615 0.858093
Si Si7 0.225547 0.525063 0.593587
O O1 0.500000 0.500000 0.500000
O O2 0.198199 0.735475 0.386551
O O3 0.038235 0.737329 0.418876
O O4 0.107325 0.948298 0.812609
O O5 0.441845 0.960032 0.570536
O O6 0.143428 0.244469 0.899941
O O7 0.000000 0.500000 0.000000
O O8 0.293090 0.398141 0.581481
O O9 0.034756 0.529601 0.729926
O O10 0.389043 0.423242 0.905282
O O11 0.730923 0.607397 0.671037
O O12 0.500000 0.000000 0.000000
O O13 0.456755 0.709335 0.949924
O O14 0.077120 0.184058 0.255200
O O15 0.000000 0.000000 0.000000
O O16 0.393495 0.528398 0.744159
#
# Coordination Sequence:
#
# PCOD9030486 Si02
#       7
#     2   2   2   2   2   2   2
#     4  10  22  44  69 108 146 181 241 307 361 424
#     4  12  28  46  77 109 145 193 246 303 366 435
#     4  12  26  50  71 106 149 189 250 302 362 431
#     4  12  28  51  70 107 152 193 245 296 366 446
#     4   9  20  39  67  98 138 181 236 291 357 416
#     4  10  22  42  71 104 142 184 246 308 353 424
#     4  11  24  43  71 100 144 197 235 296 370 432
#
# _framework density 23.631463
#
# number of rings (size 3 to 8) (size 9 to 14) (size 15 to 20)
#    0.000    1.143    2.857    2.571    8.000    4.000 
#    0.000    2.143    0.000    0.000    0.000    0.000 
#    0.000    0.000    0.000    0.000    0.000    0.000 
#
# Total GULP energy -77990.389282 kJ/mol
# GULP energy per Si atom -5570.742092 kJ/mol
# Density = 2.357768 g / cm^3
# Si number density = 23.631463 Si / 1000 Ang^3
#
#
#
# Elastic Constant Matrix: (Units=GPa)
#
#
# Indices 1 2 3 4 5 6 
#
# 1 44.8760 37.5222 16.1665 15.3754 -7.8695 -9.8610
# 2 37.5222 95.3663 38.7021 -1.6159 11.5815 -14.1093
# 3 16.1665 38.7021 149.8612 -5.8879 -1.3670 -9.6654
# 4 15.3754 -1.6159 -5.8879 53.2406 -0.7333 -3.2562
# 5 -7.8695 11.5815 -1.3670 -0.7333 37.2130 -5.7480
# 6 -9.8610 -14.1093 -9.6654 -3.2562 -5.7480 26.9688
#
#
#
# Elastic Compliance Matrix: (Units=1/GPa)
#
#
# Indices 1 2 3 4 5 6 
#
# 1 0.049513 -0.020583 0.000204 -0.014067 0.018084 0.009565
# 2 -0.020583 0.021413 -0.003102 0.006162 -0.010856 0.000995
# 3 0.000204 -0.003102 0.007601 0.000807 0.001551 0.001604
# 4 -0.014067 0.006162 0.000807 0.023075 -0.004374 0.000223
# 5 0.018084 -0.010856 0.001551 -0.004374 0.035359 0.008497
# 6 0.009565 0.000995 0.001604 0.000223 0.008497 0.043511
#
#
# Mechanical properties :
#
#
# Convention : Reuss Voigt Hill
#
# Bulk Modulus (GPa) = 31.68172 52.76502 42.22337
# Shear Modulus (GPa) = 21.01214 36.66530 28.83872
#
# Velocity S-wave (km/s) = 2.98511 3.94324 3.49714
# Velocity P-wave (km/s) = 5.03159 6.56574 5.84918
#
# Compressibility (1/GPa) = 0.03156394
#
# Stress axis : x y z
#
# Youngs Moduli (GPa) = 20.19660 46.69960 131.55500
#
# Poissons Ratio (x) = 0.96123 -0.02677
# Poissons Ratio (y) = 0.41571 0.40813
# Poissons Ratio (z) = -0.00411 0.14488
#
# Static dielectric constant tensor:
#      x y z
#    x 1.937050 -0.057830 -0.091390 
#    y -0.057830 2.018920 0.109330 
#    z -0.091390 0.109330 2.068100 
# 
# From -- ./inp_files/457763.got.cif
#   From: 2010.05.17/outbox.cif.g08.bks.cpg/sg2_229_cif.got.tgz:457763.got - 2010.06.03 11:33:40.
