data_PCOD9030433
_publ_section_title
;
Structure prediction by ZEFSAII (Michael W. Deem and Ramdas Pophale) SiO2 
 PCOD9030433
Probable space group: P -1
;
_chemical_formula_sum "Si O2"
_cell_formula_units_Z 16
_cell_length_a 10.992273
_cell_length_b 13.111160
_cell_length_c 21.240326
_cell_angle_alpha 159.600341
_cell_angle_beta 132.837560
_cell_angle_gamma 56.889078
_cell_volume 731.143916
_symmetry_space_group_name_H-M "P -1"
_symmetry_group_IT_number 2
_symmetry_cell_setting 'triclinic'
loop_
_space_group_symop_operation_xyz
x,y,z
-x,-y,-z
loop_
_atom_site_type_symbol
_atom_site_label
_atom_site_fract_x
_atom_site_fract_y
_atom_site_fract_z
Si Si1 0.220859 0.227228 0.038713
Si Si2 0.756846 0.611661 0.665711
Si Si3 0.750359 0.417070 0.298530
Si Si4 0.861420 0.335654 0.151142
Si Si5 0.174369 0.157898 0.312620
Si Si6 0.438256 0.764510 0.517337
Si Si7 0.553207 0.373100 0.746325
Si Si8 0.400479 0.367064 0.823541
O O1 0.347937 0.448240 0.263746
O O2 0.259456 0.427851 0.104089
O O3 0.273422 0.918852 0.874638
O O4 0.014567 0.114004 0.920798
O O5 0.779372 0.614707 0.600298
O O6 0.592852 0.338526 0.480598
O O7 0.931251 0.574115 0.736147
O O8 0.771414 0.962682 0.892548
O O9 0.845704 0.417165 0.265846
O O10 0.845771 0.669721 0.531128
O O11 0.580461 0.499510 0.265651
O O12 0.757105 0.507342 0.173068
O O13 0.353083 0.076972 0.333242
O O14 0.340143 0.995796 0.595980
O O15 0.526245 0.441712 0.849154
O O16 0.500000 0.000000 0.500000
O O17 0.500000 0.500000 0.000000
#
# Coordination Sequence:
#
# PCOD9030433 Si02
#       8
#     2   2   2   2   2   2   2   2
#     4  12  23  43  72 101 140 188 222 294 352 403
#     4  11  22  43  70 101 139 181 230 289 347 414
#     4  11  22  43  69 106 141 173 237 294 336 421
#     4  10  22  42  70  99 137 182 230 282 354 413
#     4  12  25  41  72 111 142 172 245 287 345 417
#     4  12  25  45  71 101 142 191 229 286 357 407
#     4  11  23  44  73  98 141 189 228 281 360 414
#     4  11  25  45  68 101 141 179 236 291 337 425
#
# _framework density 21.883514999999999
#
# number of rings (size 3 to 8) (size 9 to 14) (size 15 to 20)
#    0.000    0.750    5.000    2.625    0.000    1.500 
#    0.000    2.500    0.000    0.000    0.000    0.000 
#    0.000    0.000    0.000    0.000    0.000    0.000 
#
# Total GULP energy -89419.331777 kJ/mol
# GULP energy per Si atom -5588.708236 kJ/mol
# Density = 2.183371 g / cm^3
# Si number density = 21.883515 Si / 1000 Ang^3
#
#
#
# Elastic Constant Matrix: (Units=GPa)
#
#
# Indices 1 2 3 4 5 6 
#
# 1 95.0241 48.8826 38.5574 -4.5337 5.4707 -1.7885
# 2 48.8826 125.2209 36.1407 7.9225 -6.6247 -1.3964
# 3 38.5574 36.1407 53.4494 7.4026 4.3012 -8.4610
# 4 -4.5337 7.9225 7.4026 41.4778 6.1486 -14.4458
# 5 5.4707 -6.6247 4.3012 6.1486 36.6695 -0.6351
# 6 -1.7885 -1.3964 -8.4610 -14.4458 -0.6351 52.7998
#
#
#
# Elastic Compliance Matrix: (Units=1/GPa)
#
#
# Indices 1 2 3 4 5 6 
#
# 1 0.017172 -0.004326 -0.009877 0.004987 -0.003017 0.000213
# 2 -0.004326 0.011390 -0.004698 -0.002821 0.003704 -0.001325
# 3 -0.009877 -0.004698 0.030271 -0.004136 -0.002177 0.003234
# 4 0.004987 -0.002821 -0.004136 0.029329 -0.005558 0.007389
# 5 -0.003017 0.003704 -0.002177 -0.005558 0.029551 -0.001518
# 6 0.000213 -0.001325 0.003234 0.007389 -0.001518 0.021433
#
#
# Mechanical properties :
#
#
# Convention : Reuss Voigt Hill
#
# Bulk Modulus (GPa) = 47.54821 57.87286 52.71053
# Shear Modulus (GPa) = 27.17985 36.19700 31.68842
#
# Velocity S-wave (km/s) = 3.52806 4.07145 3.80945
# Velocity P-wave (km/s) = 6.19446 6.97177 6.59457
#
# Compressibility (1/GPa) = 0.02103129
#
# Stress axis : x y z
#
# Youngs Moduli (GPa) = 58.23312 87.79478 33.03457
#
# Poissons Ratio (x) = 0.37977 0.32629
# Poissons Ratio (y) = 0.25190 0.15521
# Poissons Ratio (z) = 0.57518 0.41250
#
# Static dielectric constant tensor:
#      x y z
#    x 1.875650 0.009750 -0.004430 
#    y 0.009750 1.827740 -0.016180 
#    z -0.004430 -0.016180 1.805430 
# 
# From -- ./inp_files/595177.got.cif
#   From: 2010.05.17/outbox.cif.g08.bks.cpg/sg2_298_cif.got.tgz:595177.got - 2010.06.03 11:33:40.
