data_PCOD9030643
_publ_section_title
;
Structure prediction by ZEFSAII (Michael W. Deem and Ramdas Pophale) SiO2 
 PCOD9030643
Probable space group: P -1
;
_chemical_formula_sum "Si O2"
_cell_formula_units_Z 14
_cell_length_a 5.607331
_cell_length_b 21.537960
_cell_length_c 5.057468
_cell_angle_alpha 62.242251
_cell_angle_beta 93.863347
_cell_angle_gamma 101.457761
_cell_volume 529.511510
_symmetry_space_group_name_H-M "P -1"
_symmetry_group_IT_number 2
_symmetry_cell_setting 'triclinic'
loop_
_space_group_symop_operation_xyz
x,y,z
-x,-y,-z
loop_
_atom_site_type_symbol
_atom_site_label
_atom_site_fract_x
_atom_site_fract_y
_atom_site_fract_z
Si Si1 0.149797 0.212161 0.865710
Si Si2 0.032393 0.721181 0.764557
Si Si3 0.059347 0.083251 0.759126
Si Si4 0.213220 0.548568 0.758011
Si Si5 0.656323 0.584028 0.133691
Si Si6 0.471105 0.947710 0.353262
Si Si7 0.601712 0.318813 0.751653
O O1 0.089351 0.233314 0.115732
O O2 0.115526 0.130922 0.931104
O O3 0.421682 0.254017 0.730993
O O4 0.971597 0.243929 0.589682
O O5 0.870943 0.641958 0.908969
O O6 0.289028 0.712956 0.921398
O O7 0.304610 0.093948 0.578958
O O8 0.805410 0.096056 0.586618
O O9 0.000000 0.000000 0.000000
O O10 0.185897 0.624885 0.486623
O O11 0.437452 0.568567 0.938170
O O12 0.000000 0.500000 0.000000
O O13 0.734105 0.508795 0.343150
O O14 0.570997 0.625990 0.287852
O O15 0.500000 0.000000 0.500000
O O16 0.500000 0.000000 0.000000
#
# Coordination Sequence:
#
# PCOD9030643 Si02
#       7
#     2   2   2   2   2   2   2
#     4  11  27  47  71 108 142 195 242 304 361 455
#     4  11  26  45  74 100 147 189 246 291 375 436
#     4  10  24  48  77 111 153 192 253 310 378 441
#     4  11  23  39  71  99 137 180 242 299 369 419
#     4  10  23  42  63 101 136 182 239 300 355 437
#     4  10  22  42  72 107 147 187 234 300 370 438
#     4  11  25  45  71  94 149 185 242 294 374 432
#
# _framework density 26.43946
#
# number of rings (size 3 to 8) (size 9 to 14) (size 15 to 20)
#    0.000    1.429    1.429    1.714    6.000    8.000 
#    2.571    0.000    0.000    0.000    0.000    0.000 
#    0.000    0.000    0.000    0.000    0.000    0.000 
#
# Total GULP energy -78423.039642 kJ/mol
# GULP energy per Si atom -5601.645689 kJ/mol
# Density = 2.637928 g / cm^3
# Si number density = 26.439460 Si / 1000 Ang^3
#
#
#
# Elastic Constant Matrix: (Units=GPa)
#
#
# Indices 1 2 3 4 5 6 
#
# 1 159.3418 43.8114 15.2337 9.5933 -1.6907 7.8025
# 2 43.8114 186.1888 11.3069 -6.8541 -8.2020 19.3004
# 3 15.2337 11.3069 79.3729 3.3189 5.9095 5.5776
# 4 9.5933 -6.8541 3.3189 45.8370 -2.5009 -2.8918
# 5 -1.6907 -8.2020 5.9095 -2.5009 39.5249 9.8085
# 6 7.8025 19.3004 5.5776 -2.8918 9.8085 40.3416
#
#
#
# Elastic Compliance Matrix: (Units=1/GPa)
#
#
# Indices 1 2 3 4 5 6 
#
# 1 0.006932 -0.001559 -0.001009 -0.001640 0.000173 -0.000615
# 2 -0.001559 0.006227 -0.000586 0.001226 0.002142 -0.003030
# 3 -0.001009 -0.000586 0.013129 -0.000993 -0.001959 -0.000935
# 4 -0.001640 0.001226 -0.000993 0.022567 0.001481 0.001126
# 5 0.000173 0.002142 -0.001959 0.001481 0.027997 -0.007489
# 6 -0.000615 -0.003030 -0.000935 0.001126 -0.007489 0.028387
#
#
# Mechanical properties :
#
#
# Convention : Reuss Voigt Hill
#
# Bulk Modulus (GPa) = 50.05102 62.84527 56.44815
# Shear Modulus (GPa) = 42.29891 48.77746 45.53819
#
# Velocity S-wave (km/s) = 4.00414 4.29986 4.15463
# Velocity P-wave (km/s) = 6.35209 6.96224 6.66415
#
# Compressibility (1/GPa) = 0.01997961
#
# Stress axis : x y z
#
# Youngs Moduli (GPa) = 144.26701 160.59621 76.16763
#
# Poissons Ratio (x) = 0.25033 0.07688
# Poissons Ratio (y) = 0.22488 0.04461
# Poissons Ratio (z) = 0.14562 0.09406
#
# Static dielectric constant tensor:
#      x y z
#    x 2.206520 -0.071520 -0.070130 
#    y -0.071520 2.014590 -0.007110 
#    z -0.070130 -0.007110 2.096600 
# 
# From -- ./inp_files/9276.got.cif
#   From: 2010.05.17/outbox.cif.g08.bks.cpg/sg2_5_cif.got.tgz:9276.got - 2010.06.03 11:33:40.
