data_PCOD9030735
_publ_section_title
;
Structure prediction by ZEFSAII (Michael W. Deem and Ramdas Pophale) SiO2 
 PCOD9030735
Probable space group: P -1
;
_chemical_formula_sum "Si O2"
_cell_formula_units_Z 16
_cell_length_a 11.830159
_cell_length_b 8.702456
_cell_length_c 14.853560
_cell_angle_alpha 145.876900
_cell_angle_beta 55.547341
_cell_angle_gamma 125.455065
_cell_volume 686.419823
_symmetry_space_group_name_H-M "P -1"
_symmetry_group_IT_number 2
_symmetry_cell_setting 'triclinic'
loop_
_space_group_symop_operation_xyz
x,y,z
-x,-y,-z
loop_
_atom_site_type_symbol
_atom_site_label
_atom_site_fract_x
_atom_site_fract_y
_atom_site_fract_z
Si Si1 0.597297 0.778301 0.325799
Si Si2 0.349182 0.275205 0.197653
Si Si3 0.645725 0.543207 0.503762
Si Si4 0.774375 0.375109 0.097041
Si Si5 0.077505 0.427175 0.066193
Si Si6 0.915665 0.507212 0.632253
Si Si7 0.190993 0.904883 0.768365
Si Si8 0.852969 0.074136 0.587923
O O1 0.482338 0.501632 0.203806
O O2 0.681904 0.604842 0.269545
O O3 0.500000 0.000000 0.500000
O O4 0.719992 0.962574 0.296711
O O5 0.353932 0.373758 0.349325
O O6 0.204819 0.331586 0.251017
O O7 0.327390 0.939711 0.025937
O O8 0.500000 0.500000 0.500000
O O9 0.702534 0.265601 0.322845
O O10 0.740199 0.807916 0.540237
O O11 0.907132 0.371982 0.102078
O O12 0.852842 0.480192 0.017963
O O13 0.143805 0.678332 0.223814
O O14 0.134155 0.168076 0.953898
O O15 0.845959 0.201214 0.554377
O O16 0.000000 0.500000 0.500000
O O17 0.044988 0.666792 0.712326
O O18 0.000000 0.000000 0.500000
#
# Coordination Sequence:
#
# PCOD9030735 Si02
#       8
#     2   2   2   2   2   2   2   2
#     4  11  23  39  67 106 144 186 237 285 349 430
#     4  12  23  45  71 105 145 189 247 290 358 433
#     4  12  27  46  70 103 151 191 234 297 363 430
#     4  10  22  42  73 106 147 189 239 298 355 423
#     4  10  23  43  74 107 142 186 242 302 357 418
#     4  12  24  43  76 104 141 184 244 301 357 426
#     4  11  23  47  69 104 143 186 237 299 356 418
#     4  12  26  46  72 107 142 187 243 298 361 427
#
# _framework density 23.309352000000001
#
# number of rings (size 3 to 8) (size 9 to 14) (size 15 to 20)
#    0.000    0.750    6.250    0.375    1.750    3.500 
#    0.000    1.875    0.000    0.000    0.000    0.000 
#    0.000    0.000    0.000    0.000    0.000    0.000 
#
# Total GULP energy -89320.204232 kJ/mol
# GULP energy per Si atom -5582.512765 kJ/mol
# Density = 2.325630 g / cm^3
# Si number density = 23.309352 Si / 1000 Ang^3
#
#
#
# Elastic Constant Matrix: (Units=GPa)
#
#
# Indices 1 2 3 4 5 6 
#
# 1 131.0643 30.9998 54.7327 15.1576 -39.5995 14.4693
# 2 30.9998 120.2699 29.9040 23.1059 -5.0415 6.3573
# 3 54.7327 29.9040 134.1650 38.0766 -47.1110 -9.6835
# 4 15.1576 23.1059 38.0766 45.4917 -6.4951 2.4065
# 5 -39.5995 -5.0415 -47.1110 -6.4951 32.9468 2.5047
# 6 14.4693 6.3573 -9.6835 2.4065 2.5047 38.8964
#
#
#
# Elastic Compliance Matrix: (Units=1/GPa)
#
#
# Indices 1 2 3 4 5 6 
#
# 1 0.014102 -0.002608 0.001486 -0.001643 0.018773 -0.005557
# 2 -0.002608 0.009933 -0.002188 -0.003066 -0.005297 -0.000667
# 3 0.001486 -0.002188 0.022098 -0.013819 0.030003 0.004229
# 4 -0.001643 -0.003066 -0.013819 0.033649 -0.015311 -0.003424
# 5 0.018773 -0.005297 0.030003 -0.015311 0.092266 -0.003642
# 6 -0.005557 -0.000667 0.004229 -0.003424 -0.003642 0.029385
#
#
# Mechanical properties :
#
#
# Convention : Reuss Voigt Hill
#
# Bulk Modulus (GPa) = 25.30862 68.53025 46.91943
# Shear Modulus (GPa) = 22.60162 41.45784 32.02973
#
# Velocity S-wave (km/s) = 3.11728 4.22191 3.71093
# Velocity P-wave (km/s) = 4.88240 7.29590 6.20758
#
# Compressibility (1/GPa) = 0.03951223
#
# Stress axis : x y z
#
# Youngs Moduli (GPa) = 70.91270 100.67360 45.25362
#
# Poissons Ratio (x) = 0.26254 -0.06724
# Poissons Ratio (y) = 0.18493 0.09903
# Poissons Ratio (z) = -0.10537 0.22031
#
# Static dielectric constant tensor:
#      x y z
#    x 1.888420 -0.057110 0.012120 
#    y -0.057110 1.888370 -0.006220 
#    z 0.012120 -0.006220 1.935270 
# 
# From -- ./inp_files/205038.got.cif
#   From: 2010.05.17/outbox.cif.g08.bks.cpg/sg2_103_cif.got.tgz:205038.got - 2010.06.03 11:33:40.
