data_PCOD9030174
_publ_section_title
;
Structure prediction by ZEFSAII (Michael W. Deem and Ramdas Pophale) SiO2 
 PCOD9030174
Probable space group: P -1
;
_chemical_formula_sum "Si O2"
_cell_formula_units_Z 15
_cell_length_a 10.371605
_cell_length_b 9.342956
_cell_length_c 19.739692
_cell_angle_alpha 134.514630
_cell_angle_beta 48.341866
_cell_angle_gamma 151.075120
_cell_volume 652.432091
_symmetry_space_group_name_H-M "P -1"
_symmetry_group_IT_number 2
_symmetry_cell_setting 'triclinic'
loop_
_space_group_symop_operation_xyz
x,y,z
-x,-y,-z
loop_
_atom_site_type_symbol
_atom_site_label
_atom_site_fract_x
_atom_site_fract_y
_atom_site_fract_z
Si Si1 0.481395 0.750772 0.901563
Si Si2 0.025003 0.195227 0.784415
Si Si3 0.058615 0.617831 0.836004
Si Si4 0.737244 0.250834 0.338657
Si Si5 0.591341 0.756828 0.404729
Si Si6 0.500000 0.500000 0.500000
Si Si7 0.501346 0.705591 0.027936
Si Si8 0.756434 0.324340 0.601932
O O1 0.190762 0.438562 0.869800
O O2 0.528105 0.678289 0.930897
O O3 0.714292 0.904455 0.817749
O O4 0.500000 0.000000 0.000000
O O5 0.063364 0.387827 0.774821
O O6 0.184853 0.143575 0.687914
O O7 0.122351 0.700289 0.762361
O O8 0.775484 0.436406 0.902999
O O9 0.272534 0.937073 0.909337
O O10 0.647901 0.405045 0.412065
O O11 0.951822 0.414865 0.378976
O O12 0.469787 0.886931 0.329899
O O13 0.524013 0.557794 0.427284
O O14 0.337638 0.594230 0.392651
O O15 0.713098 0.070842 0.496734
O O16 0.500000 0.500000 0.000000
#
# Coordination Sequence:
#
# PCOD9030174 Si02
#       8
#     2   2   2   2   2   1   2   2
#     4  12  24  44  70  97 138 176 228 288 355 398
#     4  12  24  42  73 103 132 180 238 287 329 421
#     4  12  23  45  70 102 139 173 237 284 338 408
#     4  11  24  44  70 103 138 190 221 287 334 411
#     4  10  24  45  69 106 135 189 225 287 337 410
#     4  10  22  42  70 100 136 176 232 264 344 398
#     4  12  27  45  69 100 137 180 222 288 354 414
#     4  10  25  45  68  98 154 177 227 277 351 401
#
# _framework density 22.9909
#
# number of rings (size 3 to 8) (size 9 to 14) (size 15 to 20)
#    0.000    0.800    4.000    2.400    0.000   13.333 
#    2.400    0.000    0.000    0.000    0.000    0.000 
#    0.000    0.000    0.000    0.000    0.000    0.000 
#
# Total GULP energy -83704.018950 kJ/mol
# GULP energy per Si atom -5580.267930 kJ/mol
# Density = 2.293857 g / cm^3
# Si number density = 22.990900 Si / 1000 Ang^3
#
#
#
# Elastic Constant Matrix: (Units=GPa)
#
#
# Indices 1 2 3 4 5 6 
#
# 1 151.7464 21.7912 4.1087 -7.7088 -5.3809 -21.2737
# 2 21.7912 94.3967 3.3683 -22.5019 -4.6445 11.0229
# 3 4.1087 3.3683 61.6398 -18.1015 1.7392 -5.2180
# 4 -7.7088 -22.5019 -18.1015 25.4402 -6.1905 5.2315
# 5 -5.3809 -4.6445 1.7392 -6.1905 35.2909 -8.1343
# 6 -21.2737 11.0229 -5.2180 5.2315 -8.1343 38.3372
#
#
#
# Elastic Compliance Matrix: (Units=1/GPa)
#
#
# Indices 1 2 3 4 5 6 
#
# 1 0.007763 -0.002464 -0.000140 -0.000563 0.002037 0.005506
# 2 -0.002464 0.016656 0.004197 0.019314 0.003262 -0.007529
# 3 -0.000140 0.004197 0.021735 0.019919 0.002853 -0.000439
# 4 -0.000563 0.019314 0.019919 0.075606 0.012229 -0.010877
# 5 0.002037 0.003262 0.002853 0.012229 0.032415 0.005789
# 6 0.005506 -0.007529 -0.000439 -0.010877 0.005789 0.033958
#
#
# Mechanical properties :
#
#
# Convention : Reuss Voigt Hill
#
# Bulk Modulus (GPa) = 20.26739 40.70212 30.48476
# Shear Modulus (GPa) = 24.82691 38.38131 31.60411
#
# Velocity S-wave (km/s) = 3.28968 4.09028 3.71163
# Velocity P-wave (km/s) = 4.82327 6.32844 5.62641
#
# Compressibility (1/GPa) = 0.04934035
#
# Stress axis : x y z
#
# Youngs Moduli (GPa) = 128.81390 60.03729 46.00813
#
# Poissons Ratio (x) = 0.14794 0.00642
# Poissons Ratio (y) = 0.31742 -0.19307
# Poissons Ratio (z) = 0.01798 -0.25195
#
# Static dielectric constant tensor:
#      x y z
#    x 1.852790 -0.033810 0.030780 
#    y -0.033810 1.825180 -0.008910 
#    z 0.030780 -0.008910 1.887510 
# 
# From -- ./inp_files/533795.got.cif
#   From: 2010.05.17/outbox.cif.g08.bks.cpg/sg2_267_cif.got.tgz:533795.got - 2010.06.03 11:33:40.
