data_PCOD9030181
_publ_section_title
;
Structure prediction by ZEFSAII (Michael W. Deem and Ramdas Pophale) SiO2 
 PCOD9030181
Probable space group: P -1
;
_chemical_formula_sum "Si O2"
_cell_formula_units_Z 16
_cell_length_a 11.036005
_cell_length_b 8.911722
_cell_length_c 13.973952
_cell_angle_alpha 126.420267
_cell_angle_beta 50.957503
_cell_angle_gamma 136.525059
_cell_volume 710.022119
_symmetry_space_group_name_H-M "P -1"
_symmetry_group_IT_number 2
_symmetry_cell_setting 'triclinic'
loop_
_space_group_symop_operation_xyz
x,y,z
-x,-y,-z
loop_
_atom_site_type_symbol
_atom_site_label
_atom_site_fract_x
_atom_site_fract_y
_atom_site_fract_z
Si Si1 0.363685 0.224370 0.898499
Si Si2 0.309987 0.777675 0.739954
Si Si3 0.449791 0.150224 0.521996
Si Si4 0.719025 0.432364 0.920901
Si Si5 0.973118 0.281787 0.665432
Si Si6 0.365263 0.445536 0.280406
Si Si7 0.975892 0.064738 0.381410
Si Si8 0.599750 0.236007 0.093506
O O1 0.496802 0.278013 0.944620
O O2 0.515592 0.383706 0.800830
O O3 0.267080 0.967760 0.818790
O O4 0.235251 0.317912 0.019541
O O5 0.499025 0.856519 0.616312
O O6 0.326854 0.761017 0.837956
O O7 0.156868 0.532044 0.683839
O O8 0.584045 0.398232 0.593074
O O9 0.500000 0.000000 0.500000
O O10 0.232469 0.063463 0.607921
O O11 0.810318 0.326136 0.776827
O O12 0.753105 0.411082 0.007208
O O13 0.968667 0.181412 0.526685
O O14 0.974714 0.113541 0.678007
O O15 0.450709 0.301102 0.202479
O O16 0.141993 0.267335 0.311984
O O17 0.500000 0.000000 0.000000
#
# Coordination Sequence:
#
# PCOD9030181 Si02
#       8
#     2   2   2   2   2   2   2   2
#     4  10  22  42  70 100 137 184 232 281 346 426
#     4  12  24  43  70 105 140 183 235 293 353 410
#     4  12  26  45  70 105 148 182 227 293 356 422
#     4  10  22  44  65  98 137 186 237 275 348 411
#     4  11  25  43  70 103 140 183 234 299 342 413
#     4  11  24  45  71 104 140 187 231 285 354 416
#     4  11  26  44  69 106 140 183 240 284 351 421
#     4  11  23  40  71  97 137 190 232 283 343 417
#
# _framework density 22.534509
#
# number of rings (size 3 to 8) (size 9 to 14) (size 15 to 20)
#    0.000    1.000    3.750    2.250    3.500    3.500 
#    0.000    2.500    0.000    0.000    0.000    0.000 
#    0.000    0.000    0.000    0.000    0.000    0.000 
#
# Total GULP energy -89426.828198 kJ/mol
# GULP energy per Si atom -5589.176762 kJ/mol
# Density = 2.248322 g / cm^3
# Si number density = 22.534509 Si / 1000 Ang^3
#
#
#
# Elastic Constant Matrix: (Units=GPa)
#
#
# Indices 1 2 3 4 5 6 
#
# 1 64.9150 39.3630 23.6097 0.5896 -10.9263 -17.7328
# 2 39.3630 107.4654 38.7371 20.9700 -11.3978 -4.9473
# 3 23.6097 38.7371 108.6609 31.5977 -16.9065 -21.0573
# 4 0.5896 20.9700 31.5977 32.7772 -8.0289 0.2081
# 5 -10.9263 -11.3978 -16.9065 -8.0289 37.3624 3.3680
# 6 -17.7328 -4.9473 -21.0573 0.2081 3.3680 30.4956
#
#
#
# Elastic Compliance Matrix: (Units=1/GPa)
#
#
# Indices 1 2 3 4 5 6 
#
# 1 0.025531 -0.009332 -0.001605 0.008107 0.004584 0.011662
# 2 -0.009332 0.014625 -0.001921 -0.007393 -0.000338 -0.004292
# 3 -0.001605 -0.001921 0.016773 -0.014355 0.002534 0.010155
# 4 0.008107 -0.007393 -0.014355 0.050220 0.005070 -0.007300
# 5 0.004584 -0.000338 0.002534 0.005070 0.030149 0.000996
# 6 0.011662 -0.004292 0.010155 -0.007300 0.000996 0.045829
#
#
# Mechanical properties :
#
#
# Convention : Reuss Voigt Hill
#
# Bulk Modulus (GPa) = 32.03683 53.82897 42.93290
# Shear Modulus (GPa) = 22.80547 32.08247 27.44397
#
# Velocity S-wave (km/s) = 3.18468 3.77729 3.49358
# Velocity P-wave (km/s) = 5.26978 6.55463 5.94701
#
# Compressibility (1/GPa) = 0.03121408
#
# Stress axis : x y z
#
# Youngs Moduli (GPa) = 39.16836 68.37639 59.61931
#
# Poissons Ratio (x) = 0.63809 0.09567
# Poissons Ratio (y) = 0.36552 0.11452
# Poissons Ratio (z) = 0.06285 0.13134
#
# Static dielectric constant tensor:
#      x y z
#    x 1.820580 -0.017430 0.012300 
#    y -0.017430 1.887000 -0.043550 
#    z 0.012300 -0.043550 1.876760 
# 
# From -- ./inp_files/516236.got.cif
#   From: 2010.05.17/outbox.cif.g08.bks.cpg/sg2_259_cif.got.tgz:516236.got - 2010.06.03 11:33:40.
