data_PCOD9030341
_publ_section_title
;
Structure prediction by ZEFSAII (Michael W. Deem and Ramdas Pophale) SiO2 
 PCOD9030341
Probable space group: P -1
;
_chemical_formula_sum "Si O2"
_cell_formula_units_Z 15
_cell_length_a 6.912017
_cell_length_b 14.836587
_cell_length_c 11.601257
_cell_angle_alpha 37.257751
_cell_angle_beta 114.010199
_cell_angle_gamma 114.239912
_cell_volume 649.799592
_symmetry_space_group_name_H-M "P -1"
_symmetry_group_IT_number 2
_symmetry_cell_setting 'triclinic'
loop_
_space_group_symop_operation_xyz
x,y,z
-x,-y,-z
loop_
_atom_site_type_symbol
_atom_site_label
_atom_site_fract_x
_atom_site_fract_y
_atom_site_fract_z
Si Si1 0.935112 0.639500 0.412680
Si Si2 0.547234 0.015814 0.361964
Si Si3 0.500000 0.500000 0.000000
Si Si4 0.698302 0.102446 0.792763
Si Si5 0.167412 0.221157 0.300673
Si Si6 0.208546 0.729782 0.971465
Si Si7 0.968522 0.405033 0.251848
Si Si8 0.540993 0.785324 0.191453
O O1 0.686708 0.659397 0.327821
O O2 0.000000 0.500000 0.500000
O O3 0.076072 0.793102 0.245676
O O4 0.995479 0.626236 0.574152
O O5 0.359717 0.939157 0.310664
O O6 0.746042 0.926398 0.486336
O O7 0.500000 0.000000 0.500000
O O8 0.615786 0.185682 0.160298
O O9 0.368463 0.346669 0.188655
O O10 0.732225 0.443276 0.138529
O O11 0.522382 0.195749 0.710762
O O12 0.666179 0.946434 0.014353
O O13 0.010670 0.203160 0.169492
O O14 0.025560 0.277895 0.309847
O O15 0.320732 0.755465 0.095973
O O16 0.139364 0.554045 0.110901
#
# Coordination Sequence:
#
# PCOD9030341 Si02
#       8
#     2   2   1   2   2   2   2   2
#     4  12  26  42  69 105 135 179 231 282 343 414
#     4  11  25  43  69 103 136 179 228 287 343 409
#     4  10  22  42  70  94 134 174 224 272 346 408
#     4  10  23  47  70  97 134 182 230 280 349 399
#     4  11  24  42  69  99 137 180 225 284 342 413
#     4  10  23  44  65 100 134 176 225 281 344 399
#     4  11  25  43  69  99 139 184 226 284 347 409
#     4  10  23  47  71  95 137 180 230 287 335 406
#
# _framework density 23.084040999999999
#
# number of rings (size 3 to 8) (size 9 to 14) (size 15 to 20)
#    0.000    1.333    0.000    4.800    5.600    5.333 
#   19.200    0.000    0.000    0.000    0.000    0.000 
#    0.000    0.000    0.000    0.000    0.000    0.000 
#
# Total GULP energy -83673.440273 kJ/mol
# GULP energy per Si atom -5578.229352 kJ/mol
# Density = 2.303150 g / cm^3
# Si number density = 23.084041 Si / 1000 Ang^3
#
#
#
# Elastic Constant Matrix: (Units=GPa)
#
#
# Indices 1 2 3 4 5 6 
#
# 1 99.8495 56.6151 32.5316 -0.5759 -1.4878 2.1641
# 2 56.6151 97.8683 18.4409 8.9148 -5.2588 3.1089
# 3 32.5316 18.4409 49.1952 5.1964 2.3634 -7.0339
# 4 -0.5759 8.9148 5.1964 28.0185 -8.7490 -6.5593
# 5 -1.4878 -5.2588 2.3634 -8.7490 33.5402 -1.0264
# 6 2.1641 3.1089 -7.0339 -6.5593 -1.0264 34.7162
#
#
#
# Elastic Compliance Matrix: (Units=1/GPa)
#
#
# Indices 1 2 3 4 5 6 
#
# 1 0.018425 -0.009229 -0.009517 0.005220 0.001365 -0.001224
# 2 -0.009229 0.016087 0.000378 -0.005633 0.000561 -0.001836
# 3 -0.009517 0.000378 0.027953 -0.005430 -0.003593 0.005091
# 4 0.005220 -0.005633 -0.005430 0.043978 0.011439 0.007726
# 5 0.001365 0.000561 -0.003593 0.011439 0.033270 0.002282
# 6 -0.001224 -0.001836 0.005091 0.007726 0.002282 0.031604
#
#
# Mechanical properties :
#
#
# Convention : Reuss Voigt Hill
#
# Bulk Modulus (GPa) = 38.86498 51.34312 45.10405
# Shear Modulus (GPa) = 23.08083 28.54333 25.81208
#
# Velocity S-wave (km/s) = 3.16549 3.52020 3.34755
# Velocity P-wave (km/s) = 5.49848 6.22997 5.87562
#
# Compressibility (1/GPa) = 0.02573011
#
# Stress axis : x y z
#
# Youngs Moduli (GPa) = 54.27261 62.16238 35.77463
#
# Poissons Ratio (x) = 0.57369 0.34046
# Poissons Ratio (y) = 0.50088 -0.01353
# Poissons Ratio (z) = 0.51650 -0.02351
#
# Static dielectric constant tensor:
#      x y z
#    x 1.865020 -0.003690 -0.025390 
#    y -0.003690 1.889720 -0.013960 
#    z -0.025390 -0.013960 1.874730 
# 
# From -- ./inp_files/367417.got.cif
#   From: 2010.05.17/outbox.cif.g08.bks.cpg/sg2_184_cif.got.tgz:367417.got - 2010.06.03 11:33:40.
