data_PCOD9030579
_publ_section_title
;
Structure prediction by ZEFSAII (Michael W. Deem and Ramdas Pophale) SiO2 
 PCOD9030579
Probable space group: P -1
;
_chemical_formula_sum "Si O2"
_cell_formula_units_Z 15
_cell_length_a 10.437913
_cell_length_b 8.664587
_cell_length_c 8.901608
_cell_angle_alpha 49.037690
_cell_angle_beta 85.537661
_cell_angle_gamma 78.391020
_cell_volume 593.904333
_symmetry_space_group_name_H-M "P -1"
_symmetry_group_IT_number 2
_symmetry_cell_setting 'triclinic'
loop_
_space_group_symop_operation_xyz
x,y,z
-x,-y,-z
loop_
_atom_site_type_symbol
_atom_site_label
_atom_site_fract_x
_atom_site_fract_y
_atom_site_fract_z
Si Si1 0.778196 0.537588 0.378037
Si Si2 0.357652 0.300866 0.199574
Si Si3 0.365960 0.006749 0.915576
Si Si4 0.794188 0.371619 0.810644
Si Si5 0.397908 0.566754 0.768465
Si Si6 0.005265 0.863296 0.432577
Si Si7 0.292124 0.995277 0.609887
Si Si8 0.000000 0.000000 0.000000
O O1 0.747366 0.783529 0.178670
O O2 0.775645 0.502065 0.577288
O O3 0.650769 0.461129 0.373328
O O4 0.904843 0.370057 0.413462
O O5 0.231340 0.468877 0.152023
O O6 0.465816 0.365954 0.259154
O O7 0.335535 0.080089 0.394997
O O8 0.397676 0.356620 0.995889
O O9 0.386928 0.015777 0.727471
O O10 0.500000 0.000000 0.000000
O O11 0.298279 0.804743 0.070570
O O12 0.937911 0.236492 0.893446
O O13 0.296664 0.753164 0.738142
O O14 0.850199 0.881957 0.410980
O O15 0.000000 0.000000 0.500000
O O16 0.045688 0.951224 0.212872
#
# Coordination Sequence:
#
# PCOD9030579 Si02
#       8
#     2   2   2   2   2   2   2   1
#     4  11  26  43  72 102 136 186 239 286 356 425
#     4  11  24  41  69  97 135 191 226 283 361 418
#     4  12  26  42  68 104 140 181 238 286 350 431
#     4  11  23  44  69  97 140 184 229 292 350 418
#     4  11  24  44  65 100 144 179 231 293 353 423
#     4  11  23  47  75 105 145 189 243 301 360 429
#     4  12  24  46  71 101 140 187 235 293 357 428
#     4  10  22  42  72 100 138 188 234 288 366 410
#
# _framework density 25.256595000000001
#
# number of rings (size 3 to 8) (size 9 to 14) (size 15 to 20)
#    0.000    0.800    5.333    1.200    3.733    3.733 
#    0.000    0.667    0.000    0.000    0.000    0.000 
#    0.000    0.000    0.000    0.000    0.000    0.000 
#
# Total GULP energy -83558.603465 kJ/mol
# GULP energy per Si atom -5570.573564 kJ/mol
# Density = 2.519911 g / cm^3
# Si number density = 25.256595 Si / 1000 Ang^3
#
#
#
# Elastic Constant Matrix: (Units=GPa)
#
#
# Indices 1 2 3 4 5 6 
#
# 1 43.9688 15.7878 35.6338 -7.2660 16.2795 -11.7865
# 2 15.7878 97.6533 36.2353 -13.7373 12.9699 -5.4598
# 3 35.6338 36.2353 117.9519 -32.3289 14.5147 -0.5932
# 4 -7.2660 -13.7373 -32.3289 33.1846 -4.7474 10.4623
# 5 16.2795 12.9699 14.5147 -4.7474 37.3731 1.8080
# 6 -11.7865 -5.4598 -0.5932 10.4623 1.8080 39.0065
#
#
#
# Elastic Compliance Matrix: (Units=1/GPa)
#
#
# Indices 1 2 3 4 5 6 
#
# 1 0.042200 -0.000395 -0.013918 -0.011802 -0.015130 0.016351
# 2 -0.000395 0.011989 -0.002865 0.001277 -0.002776 0.001301
# 3 -0.013918 -0.002865 0.017587 0.016049 0.002690 -0.008769
# 4 -0.011802 0.001277 0.016049 0.049800 0.005601 -0.016760
# 5 -0.015130 -0.002776 0.002690 0.005601 0.034366 -0.008015
# 6 0.016351 0.001301 -0.008769 -0.016760 -0.008015 0.035493
#
#
# Mechanical properties :
#
#
# Convention : Reuss Voigt Hill
#
# Bulk Modulus (GPa) = 26.72486 48.32087 37.52286
# Shear Modulus (GPa) = 20.98524 33.37398 27.17961
#
# Velocity S-wave (km/s) = 2.88563 3.63905 3.28401
# Velocity P-wave (km/s) = 4.65905 6.06880 5.41004
#
# Compressibility (1/GPa) = 0.03741834
#
# Stress axis : x y z
#
# Youngs Moduli (GPa) = 23.69694 83.41291 56.86108
#
# Poissons Ratio (x) = 0.03291 0.79141
# Poissons Ratio (y) = 0.00935 0.16293
# Poissons Ratio (z) = 0.32982 0.23901
#
# Static dielectric constant tensor:
#      x y z
#    x 2.135180 -0.054040 0.016170 
#    y -0.054040 2.028690 -0.012250 
#    z 0.016170 -0.012250 1.984620 
# 
# From -- ./inp_files/178373.got.cif
#   From: 2010.05.17/outbox.cif.g08.bks.cpg/sg2_90_cif.got.tgz:178373.got - 2010.06.03 11:33:40.
