data_PCOD9030012
_publ_section_title
;
Structure prediction by ZEFSAII (Michael W. Deem and Ramdas Pophale) SiO2 
 PCOD9030012
Probable space group: P -1
;
_chemical_formula_sum "Si O2"
_cell_formula_units_Z 14
_cell_length_a 5.497111
_cell_length_b 12.266779
_cell_length_c 12.929507
_cell_angle_alpha 44.666981
_cell_angle_beta 101.954949
_cell_angle_gamma 111.129437
_cell_volume 570.084806
_symmetry_space_group_name_H-M "P -1"
_symmetry_group_IT_number 2
_symmetry_cell_setting 'triclinic'
loop_
_space_group_symop_operation_xyz
x,y,z
-x,-y,-z
loop_
_atom_site_type_symbol
_atom_site_label
_atom_site_fract_x
_atom_site_fract_y
_atom_site_fract_z
Si Si1 0.687374 0.192161 0.791787
Si Si2 0.446814 0.168903 0.002481
Si Si3 0.304419 0.550732 0.025255
Si Si4 0.368845 0.257747 0.549493
Si Si5 0.732621 0.033113 0.416925
Si Si6 0.800383 0.569120 0.282933
Si Si7 0.981089 0.640646 0.697408
O O1 0.652892 0.175532 0.923801
O O2 0.435065 0.224255 0.694894
O O3 0.937102 0.345120 0.687327
O O4 0.706370 0.020556 0.867907
O O5 0.580848 0.262472 0.053452
O O6 0.281794 0.278289 0.868218
O O7 0.276941 0.447381 0.199958
O O8 0.500000 0.500000 0.000000
O O9 0.000000 0.500000 0.000000
O O10 0.589079 0.425067 0.422078
O O11 0.102823 0.283520 0.465413
O O12 0.372924 0.094026 0.599026
O O13 0.834778 0.228491 0.297564
O O14 0.500000 0.000000 0.500000
O O15 0.000000 0.000000 0.500000
O O16 0.884215 0.486415 0.245837
#
# Coordination Sequence:
#
# PCOD9030012 Si02
#       7
#     2   2   2   2   2   2   2
#     4  11  26  46  71 104 150 199 253 302 380 449
#     4  11  26  49  70 104 151 193 254 316 367 448
#     4  12  27  47  79 110 145 200 254 309 381 456
#     4  11  24  43  73 109 146 195 250 306 383 450
#     4  10  22  42  69 106 150 193 236 308 379 440
#     4  12  21  45  74 102 148 194 252 308 376 440
#     4  11  24  45  74 108 153 189 251 322 376 447
#
# _framework density 24.557749000000001
#
# number of rings (size 3 to 8) (size 9 to 14) (size 15 to 20)
#    0.000    0.857    4.286    1.714    2.000    3.429 
#    0.000    0.000    0.000    0.000    0.000    0.000 
#    0.000    0.000    0.000    0.000    0.000    0.000 
#
# Total GULP energy -78235.788656 kJ/mol
# GULP energy per Si atom -5588.270618 kJ/mol
# Density = 2.450185 g / cm^3
# Si number density = 24.557749 Si / 1000 Ang^3
#
#
#
# Elastic Constant Matrix: (Units=GPa)
#
#
# Indices 1 2 3 4 5 6 
#
# 1 96.6042 50.6320 19.0960 0.9183 4.7248 -8.6822
# 2 50.6320 181.7362 46.2152 -21.5359 12.4296 -2.8734
# 3 19.0960 46.2152 75.6139 -7.0517 9.6628 1.3552
# 4 0.9183 -21.5359 -7.0517 48.2065 12.1193 5.3201
# 5 4.7248 12.4296 9.6628 12.1193 32.6941 1.2875
# 6 -8.6822 -2.8734 1.3552 5.3201 1.2875 40.8093
#
#
#
# Elastic Compliance Matrix: (Units=1/GPa)
#
#
# Indices 1 2 3 4 5 6 
#
# 1 0.012699 -0.003467 -0.001465 -0.002499 0.000732 0.002809
# 2 -0.003467 0.007956 -0.003223 0.003963 -0.003021 -0.000492
# 3 -0.001465 -0.003223 0.016316 0.002150 -0.004134 -0.001230
# 4 -0.002499 0.003963 0.002150 0.026094 -0.011321 -0.003369
# 5 0.000732 -0.003021 -0.004134 -0.011321 0.037032 0.000388
# 6 0.002809 -0.000492 -0.001230 -0.003369 0.000388 0.025535
#
#
# Mechanical properties :
#
#
# Convention : Reuss Voigt Hill
#
# Bulk Modulus (GPa) = 48.40032 65.09341 56.74686
# Shear Modulus (GPa) = 33.59561 40.20941 36.90251
#
# Velocity S-wave (km/s) = 3.70269 4.05080 3.88065
# Velocity P-wave (km/s) = 6.16697 6.96006 6.57548
#
# Compressibility (1/GPa) = 0.02066102
#
# Stress axis : x y z
#
# Youngs Moduli (GPa) = 78.74837 125.68422 61.29094
#
# Poissons Ratio (x) = 0.43577 0.08978
# Poissons Ratio (y) = 0.27303 0.19754
# Poissons Ratio (z) = 0.11535 0.40507
#
# Static dielectric constant tensor:
#      x y z
#    x 1.968050 0.045930 0.026030 
#    y 0.045930 1.980130 -0.012910 
#    z 0.026030 -0.012910 2.053540 
# 
# From -- ./inp_files/363728.got.cif
#   From: 2010.05.17/outbox.cif.g08.bks.cpg/sg2_182_cif.got.tgz:363728.got - 2010.06.03 11:33:40.
