data_PCOD9030809
_publ_section_title
;
Structure prediction by ZEFSAII (Michael W. Deem and Ramdas Pophale) SiO2 
 PCOD9030809
Probable space group: P -1
;
_chemical_formula_sum "Si O2"
_cell_formula_units_Z 12
_cell_length_a 25.858377
_cell_length_b 9.444046
_cell_length_c 15.864057
_cell_angle_alpha 29.586333
_cell_angle_beta 15.117750
_cell_angle_gamma 29.074258
_cell_volume 480.652272
_symmetry_space_group_name_H-M "P -1"
_symmetry_group_IT_number 2
_symmetry_cell_setting 'triclinic'
loop_
_space_group_symop_operation_xyz
x,y,z
-x,-y,-z
loop_
_atom_site_type_symbol
_atom_site_label
_atom_site_fract_x
_atom_site_fract_y
_atom_site_fract_z
Si Si1 0.541133 0.081249 0.132296
Si Si2 0.884557 0.878663 0.139821
Si Si3 0.522103 0.281129 0.871380
Si Si4 0.729283 0.766672 0.260532
Si Si5 0.162973 0.514074 0.023493
Si Si6 0.814400 0.220205 0.777711
O O1 0.300284 0.170065 0.485489
O O2 0.619682 0.724753 0.201572
O O3 0.588633 0.172408 0.917426
O O4 0.657486 0.216204 0.950629
O O5 0.839059 0.784318 0.167414
O O6 0.089135 0.697255 0.959312
O O7 0.863562 0.230777 0.996386
O O8 0.678565 0.450641 0.497895
O O9 0.304623 0.528669 0.098977
O O10 0.500000 0.000000 0.000000
O O11 0.500000 0.000000 0.500000
O O12 0.850696 0.897727 0.930913
O O13 0.012703 0.306244 0.388364
#
# Coordination Sequence:
#
# PCOD9030809 Si02
#       6
#     2   2   2   2   2   2
#     4  12  23  45  76  96 143 193 232 282 357 419
#     4  11  23  47  69 103 150 180 236 293 346 417
#     4  11  24  42  72 105 137 183 239 285 351 414
#     4  10  22  42  74  97 140 193 226 286 361 405
#     4  11  26  41  72 111 135 189 239 287 346 422
#     4  11  23  47  70 102 146 182 235 290 348 418
#
# _framework density 24.966075
#
# number of rings (size 3 to 8) (size 9 to 14) (size 15 to 20)
#    0.000    1.000    5.000    2.500    4.667    2.000 
#    0.000    1.667    0.000    0.000    0.000    0.000 
#    0.000    0.000    0.000    0.000    0.000    0.000 
#
# Total GULP energy -67285.062884 kJ/mol
# GULP energy per Si atom -5607.088574 kJ/mol
# Density = 2.490925 g / cm^3
# Si number density = 24.966075 Si / 1000 Ang^3
#
#
#
# Elastic Constant Matrix: (Units=GPa)
#
#
# Indices 1 2 3 4 5 6 
#
# 1 121.9941 42.4510 40.3549 -30.4536 7.2045 11.9457
# 2 42.4510 130.3916 14.8822 -26.3310 -5.3009 11.3003
# 3 40.3549 14.8822 84.3060 -32.9041 3.7870 11.3268
# 4 -30.4536 -26.3310 -32.9041 50.2414 8.8892 -13.6416
# 5 7.2045 -5.3009 3.7870 8.8892 26.3164 -7.9519
# 6 11.9457 11.3003 11.3268 -13.6416 -7.9519 44.4523
#
#
#
# Elastic Compliance Matrix: (Units=1/GPa)
#
#
# Indices 1 2 3 4 5 6 
#
# 1 0.011610 -0.002682 -0.003050 0.004184 -0.005082 -0.001286
# 2 -0.002682 0.009236 0.001084 0.003571 0.001045 -0.000620
# 3 -0.003050 0.001084 0.017911 0.011014 -0.005749 -0.001668
# 4 0.004184 0.003571 0.011014 0.034731 -0.012669 0.003553
# 5 -0.005082 0.001045 -0.005749 -0.012669 0.046839 0.007056
# 6 -0.001286 -0.000620 -0.001668 0.003553 0.007056 0.025777
#
#
# Mechanical properties :
#
#
# Convention : Reuss Voigt Hill
#
# Bulk Modulus (GPa) = 33.94323 59.11866 46.53094
# Shear Modulus (GPa) = 30.26254 40.13558 35.19906
#
# Velocity S-wave (km/s) = 3.48537 4.01384 3.75890
# Velocity P-wave (km/s) = 5.46098 6.72401 6.12514
#
# Compressibility (1/GPa) = 0.02946096
#
# Stress axis : x y z
#
# Youngs Moduli (GPa) = 86.13496 108.27125 55.83150
#
# Poissons Ratio (x) = 0.29036 0.17027
# Poissons Ratio (y) = 0.23100 -0.06050
# Poissons Ratio (z) = 0.26268 -0.11732
#
# Static dielectric constant tensor:
#      x y z
#    x 1.928060 0.013850 0.012450 
#    y 0.013850 2.063150 0.019220 
#    z 0.012450 0.019220 1.951710 
# 
# From -- ./inp_files/153561.got.cif
#   From: 2010.05.17/outbox.cif.g08.bks.cpg/sg2_77_cif.got.tgz:153561.got - 2010.06.03 11:33:40.
