data_PCOD9030924
_publ_section_title
;
Structure prediction by ZEFSAII (Michael W. Deem and Ramdas Pophale) SiO2 
 PCOD9030924
Probable space group: P -1
;
_chemical_formula_sum "Si O2"
_cell_formula_units_Z 13
_cell_length_a 10.249613
_cell_length_b 11.494090
_cell_length_c 13.050172
_cell_angle_alpha 63.761294
_cell_angle_beta 135.069255
_cell_angle_gamma 81.282059
_cell_volume 662.121824
_symmetry_space_group_name_H-M "P -1"
_symmetry_group_IT_number 2
_symmetry_cell_setting 'triclinic'
loop_
_space_group_symop_operation_xyz
x,y,z
-x,-y,-z
loop_
_atom_site_type_symbol
_atom_site_label
_atom_site_fract_x
_atom_site_fract_y
_atom_site_fract_z
Si Si1 0.755223 0.885985 0.467297
Si Si2 0.243615 0.195583 0.726932
Si Si3 0.675779 0.541637 0.368789
Si Si4 0.658663 0.419653 0.012079
Si Si5 0.316654 0.342880 0.367291
Si Si6 0.500000 0.500000 0.500000
Si Si7 0.704545 0.695188 0.865666
O O1 0.812956 0.848916 0.393409
O O2 0.683134 0.778795 0.509175
O O3 0.032077 0.784278 0.717685
O O4 0.507229 0.107395 0.269465
O O5 0.305198 0.313057 0.686970
O O6 0.979065 0.331881 0.598330
O O7 0.500000 0.000000 0.000000
O O8 0.568681 0.550052 0.415048
O O9 0.488958 0.586266 0.154917
O O10 0.500000 0.500000 0.000000
O O11 0.670497 0.562661 0.927323
O O12 0.522246 0.351344 0.503300
O O13 0.341043 0.272373 0.294074
O O14 0.017977 0.565826 0.117002
#
# Coordination Sequence:
#
# PCOD9030924 Si02
#       7
#     2   2   2   2   2   1   2
#     4  11  23  41  66  94 124 172 219 267 323 391
#     4  11  26  43  67  97 131 176 218 266 333 393
#     4  11  25  47  66  95 137 173 218 271 326 391
#     4  11  23  41  64  93 127 165 215 269 321 377
#     4  10  22  43  62  92 129 170 212 263 331 382
#     4  12  22  44  70  92 132 176 214 268 326 388
#     4  10  23  40  64  91 129 168 210 269 323 388
#
# _framework density 19.633849000000001
#
# number of rings (size 3 to 8) (size 9 to 14) (size 15 to 20)
#    0.000    1.231    4.615    0.462    4.308    1.846 
#    0.000    1.538    0.000    0.000    0.000    0.000 
#    0.000    0.000    0.000    0.000    0.000    0.000 
#
# Total GULP energy -72399.569562 kJ/mol
# GULP energy per Si atom -5569.197659 kJ/mol
# Density = 1.958916 g / cm^3
# Si number density = 19.633849 Si / 1000 Ang^3
#
#
#
# Elastic Constant Matrix: (Units=GPa)
#
#
# Indices 1 2 3 4 5 6 
#
# 1 68.1650 0.1246 11.5215 7.6397 -6.1745 -25.4356
# 2 0.1246 69.0077 38.8604 -10.4438 3.4995 -14.6004
# 3 11.5215 38.8604 84.0348 -7.7468 -2.7367 -9.8727
# 4 7.6397 -10.4438 -7.7468 22.8084 -12.5301 13.6399
# 5 -6.1745 3.4995 -2.7367 -12.5301 15.5241 18.0636
# 6 -25.4356 -14.6004 -9.8727 13.6399 18.0636 12.8271
#
#
#
# Elastic Compliance Matrix: (Units=1/GPa)
#
#
# Indices 1 2 3 4 5 6 
#
# 1 0.013754 -0.000183 -0.001185 0.007060 0.016747 -0.004938
# 2 -0.000183 0.020075 -0.008389 0.010522 0.005040 -0.002256
# 3 -0.001185 -0.008389 0.016263 -0.001258 -0.001558 0.004150
# 4 0.007060 0.010522 -0.001258 0.019476 -0.017120 0.028407
# 5 0.016747 0.005040 -0.001558 -0.017120 0.014495 0.035539
# 6 -0.004938 -0.002256 0.004150 0.028407 0.035539 -0.011460
#
#
# Mechanical properties :
#
#
# Convention : Reuss Voigt Hill
#
# Bulk Modulus (GPa) = 32.70412 35.80228 34.25320
# Shear Modulus (GPa) = 48.87076 21.61199 35.24138
#
# Velocity S-wave (km/s) = 4.99451 3.32136 4.24126
# Velocity P-wave (km/s) = 7.06777 5.74309 6.43958
#
# Compressibility (1/GPa) = 0.03057719
#
# Stress axis : x y z
#
# Youngs Moduli (GPa) = 72.70617 49.81233 61.49085
#
# Poissons Ratio (x) = 0.00912 0.07287
# Poissons Ratio (y) = 0.01331 0.51586
# Poissons Ratio (z) = 0.08615 0.41789
#
# Static dielectric constant tensor:
#      x y z
#    x 1.696510 0.000960 0.005090 
#    y 0.000960 1.665980 0.040910 
#    z 0.005090 0.040910 1.705960 
# 
# From -- ./inp_files/62844.got.cif
#   From: 2010.05.17/outbox.cif.g08.bks.cpg/sg2_32_cif.got.tgz:62844.got - 2010.06.03 11:33:40.
