data_PCOD9030340
_publ_section_title
;
Structure prediction by ZEFSAII (Michael W. Deem and Ramdas Pophale) SiO2 
 PCOD9030340
Probable space group: P -1
;
_chemical_formula_sum "Si O2"
_cell_formula_units_Z 14
_cell_length_a 13.851064
_cell_length_b 9.884656
_cell_length_c 8.259099
_cell_angle_alpha 78.800895
_cell_angle_beta 66.506101
_cell_angle_gamma 132.677414
_cell_volume 552.670943
_symmetry_space_group_name_H-M "P -1"
_symmetry_group_IT_number 2
_symmetry_cell_setting 'triclinic'
loop_
_space_group_symop_operation_xyz
x,y,z
-x,-y,-z
loop_
_atom_site_type_symbol
_atom_site_label
_atom_site_fract_x
_atom_site_fract_y
_atom_site_fract_z
Si Si1 0.056959 0.131420 0.189061
Si Si2 0.971128 0.321644 0.146918
Si Si3 0.603095 0.620354 0.231234
Si Si4 0.478246 0.899074 0.263569
Si Si5 0.178219 0.636174 0.253366
Si Si6 0.484938 0.182033 0.396048
Si Si7 0.327406 0.384923 0.248368
O O1 0.051026 0.261615 0.050462
O O2 0.184897 0.289290 0.231528
O O3 0.167375 0.129429 0.018208
O O4 0.838460 0.864622 0.463696
O O5 0.071738 0.440581 0.225994
O O6 0.743318 0.058700 0.371471
O O7 0.000000 0.500000 0.000000
O O8 0.500000 0.500000 0.500000
O O9 0.554765 0.410252 0.254167
O O10 0.482198 0.608641 0.225651
O O11 0.312722 0.710913 0.281233
O O12 0.435641 0.780590 0.491089
O O13 0.509822 0.094541 0.260036
O O14 0.682588 0.100629 0.990529
O O15 0.000000 0.500000 0.500000
O O16 0.500000 0.500000 0.000000
#
# Coordination Sequence:
#
# PCOD9030340 Si02
#       7
#     2   2   2   2   2   2   2
#     4  10  22  42  70  94 131 179 220 284 341 399
#     4  12  23  41  69 103 141 180 226 273 350 424
#     4  11  24  41  67 100 133 174 233 287 337 401
#     4  10  23  40  64  93 135 181 222 273 349 401
#     4  11  22  38  59  94 131 170 225 276 321 413
#     4  11  22  43  66  94 140 182 225 279 341 417
#     4   9  20  43  67  92 125 170 233 274 334 399
#
# _framework density 25.331529
#
# number of rings (size 3 to 8) (size 9 to 14) (size 15 to 20)
#    0.000    1.429    4.286    0.857    2.000    1.714 
#    0.000    8.571    0.000    0.000    0.000    0.000 
#    0.000    0.000    0.000    0.000    0.000    0.000 
#
# Total GULP energy -77940.901068 kJ/mol
# GULP energy per Si atom -5567.207219 kJ/mol
# Density = 2.527387 g / cm^3
# Si number density = 25.331529 Si / 1000 Ang^3
#
#
#
# Elastic Constant Matrix: (Units=GPa)
#
#
# Indices 1 2 3 4 5 6 
#
# 1 119.2221 35.3389 60.8974 -4.5217 -5.8795 9.1851
# 2 35.3389 70.2705 4.1410 9.3489 13.0750 24.7694
# 3 60.8974 4.1410 148.7186 -1.7101 -17.4300 1.0835
# 4 -4.5217 9.3489 -1.7101 32.0124 8.7846 9.4418
# 5 -5.8795 13.0750 -17.4300 8.7846 44.8969 -2.4061
# 6 9.1851 24.7694 1.0835 9.4418 -2.4061 35.5799
#
#
#
# Elastic Compliance Matrix: (Units=1/GPa)
#
#
# Indices 1 2 3 4 5 6 
#
# 1 0.013264 -0.007477 -0.005029 0.003033 0.001434 0.001226
# 2 -0.007477 0.025235 0.001482 -0.001375 -0.008335 -0.015881
# 3 -0.005029 0.001482 0.009044 -0.001596 0.002765 0.000602
# 4 0.003033 -0.001375 -0.001596 0.037059 -0.007616 -0.010126
# 5 0.001434 -0.008335 0.002765 -0.007616 0.027948 0.009259
# 6 0.001226 -0.015881 0.000602 -0.010126 0.009259 0.042140
#
#
# Mechanical properties :
#
#
# Convention : Reuss Voigt Hill
#
# Bulk Modulus (GPa) = 39.22333 59.88506 49.55420
# Shear Modulus (GPa) = 26.99248 38.35345 32.67296
#
# Velocity S-wave (km/s) = 3.26785 3.89531 3.59529
# Velocity P-wave (km/s) = 5.45491 6.62745 6.06956
#
# Compressibility (1/GPa) = 0.02549503
#
# Stress axis : x y z
#
# Youngs Moduli (GPa) = 75.39196 39.62720 110.57619
#
# Poissons Ratio (x) = 0.29628 0.55610
# Poissons Ratio (y) = 0.56368 -0.16386
# Poissons Ratio (z) = 0.37916 -0.05872
#
# Static dielectric constant tensor:
#      x y z
#    x 2.088320 0.001100 0.005450 
#    y 0.001100 2.183970 0.010830 
#    z 0.005450 0.010830 2.085230 
# 
# From -- ./inp_files/306972.got.cif
#   From: 2010.05.17/outbox.cif.g08.bks.cpg/sg2_154_cif.got.tgz:306972.got - 2010.06.03 11:33:40.
