data_PCOD9030485
_publ_section_title
;
Structure prediction by ZEFSAII (Michael W. Deem and Ramdas Pophale) SiO2 
 PCOD9030485
Probable space group: P -1
;
_chemical_formula_sum "Si O2"
_cell_formula_units_Z 16
_cell_length_a 11.465257
_cell_length_b 5.602585
_cell_length_c 15.795156
_cell_angle_alpha 125.461545
_cell_angle_beta 133.833619
_cell_angle_gamma 58.896118
_cell_volume 584.637767
_symmetry_space_group_name_H-M "P -1"
_symmetry_group_IT_number 2
_symmetry_cell_setting 'triclinic'
loop_
_space_group_symop_operation_xyz
x,y,z
-x,-y,-z
loop_
_atom_site_type_symbol
_atom_site_label
_atom_site_fract_x
_atom_site_fract_y
_atom_site_fract_z
Si Si1 0.097027 0.427566 0.289337
Si Si2 0.372162 0.706504 0.414842
Si Si3 0.529245 0.209816 0.893790
Si Si4 0.191268 0.113949 0.771021
Si Si5 0.168395 0.189899 0.958594
Si Si6 0.820952 0.293707 0.448425
Si Si7 0.786351 0.245735 0.826303
Si Si8 0.360555 0.163512 0.630942
O O1 0.190366 0.662289 0.340237
O O2 0.119967 0.474643 0.410314
O O3 0.903606 0.539775 0.199969
O O4 0.189730 0.114022 0.232791
O O5 0.500000 0.500000 0.500000
O O6 0.355683 0.648697 0.294544
O O7 0.397765 0.023693 0.527328
O O8 0.377663 0.064955 0.822933
O O9 0.494505 0.227178 0.779037
O O10 0.500000 0.500000 0.000000
O O11 0.707868 0.006215 0.954425
O O12 0.195097 0.013113 0.847861
O O13 0.083699 0.969380 0.618800
O O14 0.974638 0.247554 0.890097
O O15 0.225246 0.510095 0.055223
O O16 0.744359 0.515155 0.378991
O O17 0.718910 0.092508 0.413087
#
# Coordination Sequence:
#
# PCOD9030485 Si02
#       8
#     2   2   2   2   2   2   2   2
#     4  11  23  44  68 105 136 188 234 294 372 427
#     4  11  23  45  67  98 138 180 242 297 357 428
#     4  11  23  43  67 105 143 188 240 296 359 429
#     4  11  23  43  69 104 140 187 240 296 358 433
#     4  11  24  44  68 101 146 188 240 293 358 430
#     4  10  22  42  71 104 142 180 235 299 363 428
#     4  11  24  46  69  99 143 186 237 298 353 439
#     4  10  22  43  68 103 139 180 235 295 361 420
#
# _framework density 27.367373000000001
#
# number of rings (size 3 to 8) (size 9 to 14) (size 15 to 20)
#    0.000    1.250    2.500    3.000    0.000    3.000 
#    9.000    4.375    0.000    0.000    0.000    0.000 
#    0.000    0.000    0.000    0.000    0.000    0.000 
#
# Total GULP energy -89233.474871 kJ/mol
# GULP energy per Si atom -5577.092179 kJ/mol
# Density = 2.730508 g / cm^3
# Si number density = 27.367373 Si / 1000 Ang^3
#
#
#
# Elastic Constant Matrix: (Units=GPa)
#
#
# Indices 1 2 3 4 5 6 
#
# 1 51.8566 -2.1264 36.6986 5.3064 1.0445 0.9049
# 2 -2.1264 102.7057 29.9013 -9.6715 0.7231 -13.3026
# 3 36.6986 29.9013 174.0895 4.6850 -23.0936 1.9747
# 4 5.3064 -9.6715 4.6850 65.8554 -6.8160 -2.6224
# 5 1.0445 0.7231 -23.0936 -6.8160 60.4680 5.0483
# 6 0.9049 -13.3026 1.9747 -2.6224 5.0483 29.1140
#
#
#
# Elastic Compliance Matrix: (Units=1/GPa)
#
#
# Indices 1 2 3 4 5 6 
#
# 1 0.023590 0.002162 -0.005696 -0.001433 -0.002854 0.001007
# 2 0.002162 0.011511 -0.002747 0.001787 -0.001507 0.005801
# 3 -0.005696 -0.002747 0.007886 -0.000252 0.003299 -0.002208
# 4 -0.001433 0.001787 -0.000252 0.015819 0.001520 0.002039
# 5 -0.002854 -0.001507 0.003299 0.001520 0.018359 -0.003870
# 6 0.001007 0.005801 -0.002208 0.002039 -0.003870 0.037971
#
#
# Mechanical properties :
#
#
# Convention : Reuss Voigt Hill
#
# Bulk Modulus (GPa) = 32.86579 50.84430 41.85504
# Shear Modulus (GPa) = 36.27395 48.69937 42.48666
#
# Velocity S-wave (km/s) = 3.64462 4.22295 3.94440
# Velocity P-wave (km/s) = 5.45400 6.51126 6.00594
#
# Compressibility (1/GPa) = 0.03042678
#
# Stress axis : x y z
#
# Youngs Moduli (GPa) = 42.39081 86.87186 126.80622
#
# Poissons Ratio (x) = -0.18783 0.72225
# Poissons Ratio (y) = -0.09166 0.34830
# Poissons Ratio (z) = 0.24144 0.23861
#
# Static dielectric constant tensor:
#      x y z
#    x 2.317120 -0.003190 -0.037410 
#    y -0.003190 2.211490 0.043250 
#    z -0.037410 0.043250 2.220540 
# 
# From -- ./inp_files/571815.got.cif
#   From: 2010.05.17/outbox.cif.g08.bks.cpg/sg2_286_cif.got.tgz:571815.got - 2010.06.03 11:33:40.
