data_PCOD9030884
_publ_section_title
;
Structure prediction by ZEFSAII (Michael W. Deem and Ramdas Pophale) SiO2 
 PCOD9030884
Probable space group: P -1
;
_chemical_formula_sum "Si O2"
_cell_formula_units_Z 12
_cell_length_a 5.132225
_cell_length_b 21.814813
_cell_length_c 5.510674
_cell_angle_alpha 107.944947
_cell_angle_beta 95.970563
_cell_angle_gamma 52.569187
_cell_volume 463.253979
_symmetry_space_group_name_H-M "P -1"
_symmetry_group_IT_number 2
_symmetry_cell_setting 'triclinic'
loop_
_space_group_symop_operation_xyz
x,y,z
-x,-y,-z
loop_
_atom_site_type_symbol
_atom_site_label
_atom_site_fract_x
_atom_site_fract_y
_atom_site_fract_z
Si Si1 0.048254 0.198401 0.149572
Si Si2 0.008676 0.605395 0.218405
Si Si3 0.189486 0.053329 0.711727
Si Si4 0.705763 0.531882 0.321898
Si Si5 0.000932 0.246324 0.701941
Si Si6 0.362945 0.886857 0.604590
O O1 0.139686 0.110927 0.994512
O O2 0.870258 0.254989 0.969201
O O3 0.850930 0.243367 0.430564
O O4 0.418709 0.170303 0.217775
O O5 0.324535 0.571051 0.388909
O O6 0.725480 0.598067 0.264611
O O7 0.907554 0.692341 0.245708
O O8 0.167346 0.544109 0.932132
O O9 0.905170 0.112853 0.563791
O O10 0.500000 0.000000 0.500000
O O11 0.187606 0.981872 0.740310
O O12 0.000000 0.500000 0.500000
O O13 0.345707 0.154874 0.620410
#
# Coordination Sequence:
#
# PCOD9030884 Si02
#       6
#     2   2   2   2   2   2
#     4  10  22  43  60  91 130 169 221 268 341 393
#     4  10  23  43  66 104 136 173 229 275 336 412
#     4  11  19  41  63  87 125 171 221 276 330 394
#     4  10  22  43  73 100 134 179 223 272 340 408
#     4  10  23  44  61  96 133 170 218 278 335 399
#     4   9  23  38  61  93 122 167 222 274 331 393
#
# _framework density 25.903714999999998
#
# number of rings (size 3 to 8) (size 9 to 14) (size 15 to 20)
#    1.000    1.000    1.667    1.000    2.333    2.000 
#    9.000    0.000    0.000    0.000    0.000    0.000 
#    0.000    0.000    0.000    0.000    0.000    0.000 
#
# Total GULP energy -66861.640962 kJ/mol
# GULP energy per Si atom -5571.803413 kJ/mol
# Density = 2.584476 g / cm^3
# Si number density = 25.903715 Si / 1000 Ang^3
#
#
#
# Elastic Constant Matrix: (Units=GPa)
#
#
# Indices 1 2 3 4 5 6 
#
# 1 72.0306 4.3287 28.3120 17.7350 18.6409 1.2477
# 2 4.3287 106.6546 52.6508 21.1597 7.8096 24.4395
# 3 28.3120 52.6508 166.1254 -9.9705 14.3117 5.6748
# 4 17.7350 21.1597 -9.9705 37.5348 3.5152 3.5320
# 5 18.6409 7.8096 14.3117 3.5152 38.7748 -1.7559
# 6 1.2477 24.4395 5.6748 3.5320 -1.7559 40.3021
#
#
#
# Elastic Compliance Matrix: (Units=1/GPa)
#
#
# Indices 1 2 3 4 5 6 
#
# 1 0.021232 0.005736 -0.005465 -0.013711 -0.008217 -0.002523
# 2 0.005736 0.017247 -0.006679 -0.013113 -0.002971 -0.008676
# 3 -0.005465 -0.006679 0.009539 0.008706 -0.000242 0.002102
# 4 -0.013711 -0.013113 0.008706 0.042271 0.002348 0.003548
# 5 -0.008217 -0.002971 -0.000242 0.002348 0.030360 0.003207
# 6 -0.002523 -0.008676 0.002102 0.003548 0.003207 0.029685
#
#
# Mechanical properties :
#
#
# Convention : Reuss Voigt Hill
#
# Bulk Modulus (GPa) = 28.40643 57.26596 42.83619
# Shear Modulus (GPa) = 28.59019 40.62361 34.60690
#
# Velocity S-wave (km/s) = 3.32582 3.96442 3.65907
# Velocity P-wave (km/s) = 5.07327 6.56587 5.86723
#
# Compressibility (1/GPa) = 0.03520330
#
# Stress axis : x y z
#
# Youngs Moduli (GPa) = 47.09792 57.98021 104.83035
#
# Poissons Ratio (x) = -0.33258 0.57293
# Poissons Ratio (y) = -0.27016 0.70011
# Poissons Ratio (z) = 0.25741 0.38722
#
# Static dielectric constant tensor:
#      x y z
#    x 2.122790 0.064180 -0.036490 
#    y 0.064180 2.078700 -0.112010 
#    z -0.036490 -0.112010 2.131160 
# 
# From -- ./inp_files/13614.got.cif
#   From: 2010.05.17/outbox.cif.g08.bks.cpg/sg2_7_cif.got.tgz:13614.got - 2010.06.03 11:33:40.
