data_PCOD9030698
_publ_section_title
;
Structure prediction by ZEFSAII (Michael W. Deem and Ramdas Pophale) SiO2 
 PCOD9030698
Probable space group: P -1
;
_chemical_formula_sum "Si O2"
_cell_formula_units_Z 14
_cell_length_a 9.139474
_cell_length_b 14.874708
_cell_length_c 4.970835
_cell_angle_alpha 92.616701
_cell_angle_beta 82.232503
_cell_angle_gamma 49.028560
_cell_volume 497.340107
_symmetry_space_group_name_H-M "P -1"
_symmetry_group_IT_number 2
_symmetry_cell_setting 'triclinic'
loop_
_space_group_symop_operation_xyz
x,y,z
-x,-y,-z
loop_
_atom_site_type_symbol
_atom_site_label
_atom_site_fract_x
_atom_site_fract_y
_atom_site_fract_z
Si Si1 0.478047 0.164214 0.902930
Si Si2 0.717185 0.185075 0.170201
Si Si3 0.323138 0.046050 0.788458
Si Si4 0.288904 0.342554 0.550958
Si Si5 0.040758 0.141585 0.382427
Si Si6 0.930167 0.383524 0.416636
Si Si7 0.640436 0.421921 0.193197
O O1 0.679344 0.140386 0.908138
O O2 0.510694 0.087016 0.146516
O O3 0.418644 0.104624 0.715095
O O4 0.315961 0.304249 0.856107
O O5 0.516864 0.247589 0.393459
O O6 0.702877 0.294818 0.116921
O O7 0.907143 0.113046 0.306438
O O8 0.187398 0.064062 0.583692
O O9 0.170257 0.117428 0.087377
O O10 0.204844 0.472514 0.483718
O O11 0.144783 0.329923 0.441688
O O12 0.918155 0.283909 0.508086
O O13 0.840754 0.400239 0.143686
O O14 0.500000 0.500000 0.500000
O O15 0.500000 0.500000 0.000000
#
# Coordination Sequence:
#
# PCOD9030698 Si02
#       7
#     2   2   2   2   2   2   2
#     4  11  26  45  75 103 144 191 244 303 354 427
#     4  11  26  41  73 105 149 182 244 297 359 427
#     4  11  27  50  75 100 146 191 248 295 360 428
#     4  11  22  45  66 111 137 190 233 296 356 427
#     4  11  26  48  72 108 140 195 234 298 365 426
#     4  10  22  42  72  98 149 181 236 285 355 433
#     4  11  23  44  66  99 142 190 230 279 353 424
#
# _framework density 28.149753
#
# number of rings (size 3 to 8) (size 9 to 14) (size 15 to 20)
#    0.000    1.143    2.857    1.714    4.000    5.714 
#    5.143    2.857    0.000    0.000    0.000    0.000 
#    0.000    0.000    0.000    0.000    0.000    0.000 
#
# Total GULP energy -78010.467249 kJ/mol
# GULP energy per Si atom -5572.176232 kJ/mol
# Density = 2.808568 g / cm^3
# Si number density = 28.149753 Si / 1000 Ang^3
#
#
#
# Elastic Constant Matrix: (Units=GPa)
#
#
# Indices 1 2 3 4 5 6 
#
# 1 263.5056 59.4085 60.7033 -7.3010 77.0333 -14.9349
# 2 59.4085 143.2134 48.8546 -17.4307 11.7330 -17.5217
# 3 60.7033 48.8546 150.6671 -29.9355 29.1708 -28.3079
# 4 -7.3010 -17.4307 -29.9355 41.1963 -12.4720 20.8887
# 5 77.0333 11.7330 29.1708 -12.4720 57.6863 -8.1152
# 6 -14.9349 -17.5217 -28.3079 20.8887 -8.1152 63.0500
#
#
#
# Elastic Compliance Matrix: (Units=1/GPa)
#
#
# Indices 1 2 3 4 5 6 
#
# 1 0.007183 -0.002245 -0.000939 -0.003495 -0.009330 0.000613
# 2 -0.002245 0.008691 -0.001849 0.002480 0.002785 0.000590
# 3 -0.000939 -0.001849 0.009140 0.004268 -0.001828 0.001718
# 4 -0.003495 0.002480 0.004268 0.034702 0.008289 -0.008652
# 5 -0.009330 0.002785 -0.001828 0.008289 0.031816 -0.000908
# 6 0.000613 0.000590 0.001718 -0.008652 -0.000908 0.019691
#
#
# Mechanical properties :
#
#
# Convention : Reuss Voigt Hill
#
# Bulk Modulus (GPa) = 66.90360 99.47986 83.19173
# Shear Modulus (GPa) = 39.59753 58.28116 48.93935
#
# Velocity S-wave (km/s) = 3.75463 4.55510 4.17410
# Velocity P-wave (km/s) = 6.52802 7.94238 7.26968
#
# Compressibility (1/GPa) = 0.01494688
#
# Stress axis : x y z
#
# Youngs Moduli (GPa) = 139.22043 115.06684 109.41468
#
# Poissons Ratio (x) = 0.25837 0.10270
# Poissons Ratio (y) = 0.31260 0.20231
# Poissons Ratio (z) = 0.13068 0.21276
#
# Static dielectric constant tensor:
#      x y z
#    x 2.278930 0.055520 -0.021340 
#    y 0.055520 1.990870 0.025990 
#    z -0.021340 0.025990 2.494100 
# 
# From -- ./inp_files/38699.got.cif
#   From: 2010.05.17/outbox.cif.g08.bks.cpg/sg2_20_cif.got.tgz:38699.got - 2010.06.03 11:33:40.
