data_PCOD9030097
_publ_section_title
;
Structure prediction by ZEFSAII (Michael W. Deem and Ramdas Pophale) SiO2 
 PCOD9030097
Probable space group: P -1
;
_chemical_formula_sum "Si O2"
_cell_formula_units_Z 14
_cell_length_a 8.668954
_cell_length_b 10.067904
_cell_length_c 21.745678
_cell_angle_alpha 34.321794
_cell_angle_beta 34.932285
_cell_angle_gamma 49.846643
_cell_volume 609.698127
_symmetry_space_group_name_H-M "P -1"
_symmetry_group_IT_number 2
_symmetry_cell_setting 'triclinic'
loop_
_space_group_symop_operation_xyz
x,y,z
-x,-y,-z
loop_
_atom_site_type_symbol
_atom_site_label
_atom_site_fract_x
_atom_site_fract_y
_atom_site_fract_z
Si Si1 0.166000 0.108101 0.804814
Si Si2 0.429171 0.058241 0.613079
Si Si3 0.296769 0.625187 0.975675
Si Si4 0.279739 0.251112 0.880749
Si Si5 0.508634 0.449989 0.192975
Si Si6 0.128229 0.617974 0.590007
Si Si7 0.721260 0.477662 0.563204
O O1 0.193995 0.065365 0.738875
O O2 0.215632 0.388451 0.685729
O O3 0.352394 0.913456 0.845023
O O4 0.870528 0.013179 0.963255
O O5 0.708838 0.154741 0.519465
O O6 0.378711 0.259565 0.504598
O O7 0.435619 0.787746 0.697285
O O8 0.328503 0.539449 0.928058
O O9 0.500000 0.500000 0.000000
O O10 0.977680 0.599071 0.106313
O O11 0.408301 0.332941 0.872612
O O12 0.507047 0.299875 0.737298
O O13 0.193871 0.411167 0.292890
O O14 0.218221 0.598059 0.497367
O O15 0.000000 0.500000 0.500000
#
# Coordination Sequence:
#
# PCOD9030097 Si02
#       7
#     2   2   2   2   2   2   2
#     4   8  20  40  66  89 129 166 216 260 324 376
#     4  10  23  42  65  89 137 174 218 262 318 395
#     4   9  21  41  65  98 130 164 216 267 327 380
#     4  10  22  42  69  96 135 160 220 271 325 385
#     4  11  22  42  68  94 131 178 213 261 335 388
#     4  11  22  43  68  93 133 176 219 261 325 388
#     4  11  22  43  64  99 131 166 219 271 321 385
#
# _framework density 22.962184000000001
#
# number of rings (size 3 to 8) (size 9 to 14) (size 15 to 20)
#    0.857    1.143    1.429    2.571    2.000    1.143 
#    0.000    9.286    0.000    0.000    0.000    0.000 
#    0.000    0.000    0.000    0.000    0.000    0.000 
#
# Total GULP energy -78175.941580 kJ/mol
# GULP energy per Si atom -5583.995827 kJ/mol
# Density = 2.290992 g / cm^3
# Si number density = 22.962184 Si / 1000 Ang^3
#
#
#
# Elastic Constant Matrix: (Units=GPa)
#
#
# Indices 1 2 3 4 5 6 
#
# 1 93.2631 10.0853 23.2970 1.8015 -1.3981 0.5681
# 2 10.0853 31.9081 16.6564 8.8004 0.0689 2.7500
# 3 23.2970 16.6564 118.0527 16.3151 2.0790 5.1816
# 4 1.8015 8.8004 16.3151 45.9317 -10.0854 -2.4255
# 5 -1.3981 0.0689 2.0790 -10.0854 21.7995 6.9151
# 6 0.5681 2.7500 5.1816 -2.4255 6.9151 32.6917
#
#
#
# Elastic Compliance Matrix: (Units=1/GPa)
#
#
# Indices 1 2 3 4 5 6 
#
# 1 0.011550 -0.002911 -0.002061 0.001160 0.001434 0.000153
# 2 -0.002911 0.035995 -0.003518 -0.006104 -0.002013 -0.002447
# 3 -0.002061 -0.003518 0.009917 -0.003323 -0.002286 -0.001003
# 4 0.001160 -0.006104 -0.003323 0.026892 0.012751 0.000318
# 5 0.001434 -0.002013 -0.002286 0.012751 0.055341 -0.010253
# 6 0.000153 -0.002447 -0.001003 0.000318 -0.010253 0.033143
#
#
# Mechanical properties :
#
#
# Convention : Reuss Voigt Hill
#
# Bulk Modulus (GPa) = 24.70163 38.14460 31.42312
# Shear Modulus (GPa) = 24.59261 32.96359 28.77810
#
# Velocity S-wave (km/s) = 3.27617 3.79299 3.54401
# Velocity P-wave (km/s) = 5.00919 5.98584 5.51916
#
# Compressibility (1/GPa) = 0.04048315
#
# Stress axis : x y z
#
# Youngs Moduli (GPa) = 86.57915 27.78153 100.83363
#
# Poissons Ratio (x) = 0.08087 0.20781
# Poissons Ratio (y) = 0.25204 0.35471
# Poissons Ratio (z) = 0.17843 0.09773
#
# Static dielectric constant tensor:
#      x y z
#    x 1.886970 -0.000270 -0.006770 
#    y -0.000270 1.878040 0.008640 
#    z -0.006770 0.008640 1.863580 
# 
# From -- ./inp_files/607155.got.cif
#   From: 2010.05.17/outbox.cif.g08.bks.cpg/sg2_304_cif.got.tgz:607155.got - 2010.06.03 11:33:40.
