data_PCOD9030715
_publ_section_title
;
Structure prediction by ZEFSAII (Michael W. Deem and Ramdas Pophale) SiO2 
 PCOD9030715
Probable space group: P -1
;
_chemical_formula_sum "Si O2"
_cell_formula_units_Z 13
_cell_length_a 8.802799
_cell_length_b 11.667700
_cell_length_c 8.890051
_cell_angle_alpha 48.487541
_cell_angle_beta 105.020951
_cell_angle_gamma 75.512850
_cell_volume 536.333305
_symmetry_space_group_name_H-M "P -1"
_symmetry_group_IT_number 2
_symmetry_cell_setting 'triclinic'
loop_
_space_group_symop_operation_xyz
x,y,z
-x,-y,-z
loop_
_atom_site_type_symbol
_atom_site_label
_atom_site_fract_x
_atom_site_fract_y
_atom_site_fract_z
Si Si1 0.598929 0.507293 0.296043
Si Si2 0.975915 0.087669 0.750037
Si Si3 0.613171 0.641409 0.514085
Si Si4 0.362724 0.224963 0.111179
Si Si5 0.681016 0.958615 0.991336
Si Si6 0.777803 0.811277 0.584201
Si Si7 0.000000 0.000000 0.500000
O O1 0.789693 0.299318 0.509688
O O2 0.621679 0.585163 0.391887
O O3 0.416354 0.496494 0.277412
O O4 0.586925 0.631575 0.048178
O O5 0.978758 0.984005 0.692319
O O6 0.169027 0.078393 0.813880
O O7 0.000000 0.000000 0.000000
O O8 0.768954 0.675672 0.580678
O O9 0.407845 0.849185 0.291867
O O10 0.247086 0.208385 0.960774
O O11 0.244268 0.265597 0.195982
O O12 0.572048 0.021676 0.344299
O O13 0.500000 0.000000 0.000000
O O14 0.939431 0.850886 0.583641
#
# Coordination Sequence:
#
# PCOD9030715 Si02
#       7
#     2   2   2   2   2   2   1
#     4  11  24  42  72 113 139 182 249 295 360 430
#     4  12  26  47  73 102 147 189 242 299 357 426
#     4  10  22  43  72 110 138 187 238 296 362 432
#     4  10  22  42  73 102 137 187 241 287 361 432
#     4  11  20  42  71  97 139 194 234 286 358 434
#     4  10  24  46  71  99 145 187 233 298 359 434
#     4  12  28  46  72 108 136 200 244 288 362 438
#
# _framework density 24.238658000000001
#
# number of rings (size 3 to 8) (size 9 to 14) (size 15 to 20)
#    0.000    1.231    3.077    2.769    4.308    1.231 
#    2.769    0.769    0.000    0.000    0.000    0.000 
#    0.000    0.000    0.000    0.000    0.000    0.000 
#
# Total GULP energy -72400.261847 kJ/mol
# GULP energy per Si atom -5569.250911 kJ/mol
# Density = 2.418349 g / cm^3
# Si number density = 24.238658 Si / 1000 Ang^3
#
#
#
# Elastic Constant Matrix: (Units=GPa)
#
#
# Indices 1 2 3 4 5 6 
#
# 1 120.3653 60.1322 29.4597 3.9727 -40.3555 25.4668
# 2 60.1322 86.7421 32.0511 17.3904 -16.8722 30.8297
# 3 29.4597 32.0511 74.9685 12.5132 -34.2857 4.1658
# 4 3.9727 17.3904 12.5132 22.8744 -8.3417 -1.3168
# 5 -40.3555 -16.8722 -34.2857 -8.3417 47.2724 0.1824
# 6 25.4668 30.8297 4.1658 -1.3168 0.1824 37.8407
#
#
#
# Elastic Compliance Matrix: (Units=1/GPa)
#
#
# Indices 1 2 3 4 5 6 
#
# 1 0.019706 -0.012792 0.003933 0.010146 0.016911 -0.003002
# 2 -0.012792 0.032392 -0.008387 -0.022219 -0.009294 -0.017587
# 3 0.003933 -0.008387 0.023220 -0.000694 0.017076 0.001524
# 4 0.010146 -0.022219 -0.000694 0.064201 0.011504 0.013529
# 5 0.016911 -0.009294 0.017076 0.011504 0.046710 -0.005514
# 6 -0.003002 -0.017587 0.001524 0.013529 -0.005514 0.043105
#
#
# Mechanical properties :
#
#
# Convention : Reuss Voigt Hill
#
# Bulk Modulus (GPa) = 24.49360 58.37353 41.43357
# Shear Modulus (GPa) = 18.02220 32.29303 25.15762
#
# Velocity S-wave (km/s) = 2.72974 3.65402 3.22516
# Velocity P-wave (km/s) = 4.47911 6.47592 5.56776
#
# Compressibility (1/GPa) = 0.04082699
#
# Stress axis : x y z
#
# Youngs Moduli (GPa) = 50.74515 30.87142 43.06647
#
# Poissons Ratio (x) = 0.39490 -0.16936
# Poissons Ratio (y) = 0.64912 0.36119
# Poissons Ratio (z) = -0.19956 0.25891
#
# Static dielectric constant tensor:
#      x y z
#    x 2.073170 0.017910 -0.055290 
#    y 0.017910 1.907040 0.000440 
#    z -0.055290 0.000440 1.990660 
# 
# From -- ./inp_files/174398.got.cif
#   From: 2010.05.17/outbox.cif.g08.bks.cpg/sg2_88_cif.got.tgz:174398.got - 2010.06.03 11:33:40.
