data_PCOD9030609
_publ_section_title
;
Structure prediction by ZEFSAII (Michael W. Deem and Ramdas Pophale) SiO2 
 PCOD9030609
Probable space group: P -1
;
_chemical_formula_sum "Si O2"
_cell_formula_units_Z 16
_cell_length_a 5.464393
_cell_length_b 17.378200
_cell_length_c 14.469022
_cell_angle_alpha 140.986609
_cell_angle_beta 74.100738
_cell_angle_gamma 124.293918
_cell_volume 678.184298
_symmetry_space_group_name_H-M "P -1"
_symmetry_group_IT_number 2
_symmetry_cell_setting 'triclinic'
loop_
_space_group_symop_operation_xyz
x,y,z
-x,-y,-z
loop_
_atom_site_type_symbol
_atom_site_label
_atom_site_fract_x
_atom_site_fract_y
_atom_site_fract_z
Si Si1 0.161327 0.872023 0.126501
Si Si2 0.011844 0.198724 0.137058
Si Si3 0.793595 0.844302 0.615921
Si Si4 0.216613 0.834639 0.408853
Si Si5 0.999153 0.532880 0.217193
Si Si6 0.243851 0.018535 0.897285
Si Si7 0.627097 0.492353 0.682273
Si Si8 0.856506 0.637050 0.082843
O O1 0.895168 0.750857 0.106585
O O2 0.278854 0.038362 0.296458
O O3 0.471326 0.877842 0.104652
O O4 0.073284 0.837599 0.996010
O O5 0.189195 0.375072 0.287704
O O6 0.739605 0.092833 0.138838
O O7 0.223871 0.136353 0.069258
O O8 0.514118 0.672317 0.494453
O O9 0.023106 0.854779 0.524130
O O10 0.964218 0.906986 0.754399
O O11 0.256732 0.711085 0.336237
O O12 0.005147 0.736790 0.251696
O O13 0.500000 0.000000 0.500000
O O14 0.139497 0.486307 0.240355
O O15 0.670832 0.508368 0.252910
O O16 0.968188 0.434747 0.041194
O O17 0.500000 0.500000 0.000000
#
# Coordination Sequence:
#
# PCOD9030609 Si02
#       8
#     2   2   2   2   2   2   2   2
#     4  11  23  42  70  96 140 179 233 291 359 413
#     4  10  22  42  72 103 131 179 237 292 351 425
#     4  10  25  42  63  97 141 182 225 290 354 427
#     4  11  26  43  68  97 139 191 241 296 356 429
#     4  11  25  47  69 102 146 183 243 292 357 413
#     4  10  22  44  70 100 137 178 235 289 360 423
#     4  11  24  45  73 103 142 188 227 295 356 426
#     4  12  25  43  70 103 140 191 244 299 350 430
#
# _framework density 23.592409
#
# number of rings (size 3 to 8) (size 9 to 14) (size 15 to 20)
#    0.000    1.250    1.250    3.750    7.000    2.000 
#    0.000    0.625    0.000    0.000    0.000    0.000 
#    0.000    0.000    0.000    0.000    0.000    0.000 
#
# Total GULP energy -89357.439991 kJ/mol
# GULP energy per Si atom -5584.839999 kJ/mol
# Density = 2.353871 g / cm^3
# Si number density = 23.592409 Si / 1000 Ang^3
#
#
#
# Elastic Constant Matrix: (Units=GPa)
#
#
# Indices 1 2 3 4 5 6 
#
# 1 64.5961 25.1368 11.5831 4.6956 1.4621 -1.4158
# 2 25.1368 153.0453 34.5812 44.4624 0.5123 -4.9950
# 3 11.5831 34.5812 99.6316 19.8700 -0.4690 12.9740
# 4 4.6956 44.4624 19.8700 51.1730 -6.4656 -2.3231
# 5 1.4621 0.5123 -0.4690 -6.4656 37.5460 0.7139
# 6 -1.4158 -4.9950 12.9740 -2.3231 0.7139 19.2987
#
#
#
# Elastic Compliance Matrix: (Units=1/GPa)
#
#
# Indices 1 2 3 4 5 6 
#
# 1 0.016776 -0.002793 -0.001505 0.001498 -0.000409 0.001715
# 2 -0.002793 0.009689 -0.001912 -0.007471 -0.001386 0.002740
# 3 -0.001505 -0.001912 0.012866 -0.003662 -0.000201 -0.009688
# 4 0.001498 -0.007471 -0.003662 0.028093 0.004763 0.003844
# 5 -0.000409 -0.001386 -0.000201 0.004763 0.027500 -0.000698
# 6 0.001715 0.002740 -0.009688 0.003844 -0.000698 0.059654
#
#
# Mechanical properties :
#
#
# Convention : Reuss Voigt Hill
#
# Bulk Modulus (GPa) = 37.15842 51.09722 44.12782
# Shear Modulus (GPa) = 28.41428 38.00167 33.20797
#
# Velocity S-wave (km/s) = 3.47419 4.01778 3.75583
# Velocity P-wave (km/s) = 5.64603 6.57486 6.12807
#
# Compressibility (1/GPa) = 0.02691180
#
# Stress axis : x y z
#
# Youngs Moduli (GPa) = 59.61072 103.20801 77.72137
#
# Poissons Ratio (x) = 0.28827 0.11696
# Poissons Ratio (y) = 0.16650 0.14858
# Poissons Ratio (z) = 0.08970 0.19730
#
# Static dielectric constant tensor:
#      x y z
#    x 2.034030 -0.019800 -0.008790 
#    y -0.019800 1.932110 0.003050 
#    z -0.008790 0.003050 1.879050 
# 
# From -- ./inp_files/134990.got.cif
#   From: 2010.05.17/outbox.cif.g08.bks.cpg/sg2_68_cif.got.tgz:134990.got - 2010.06.03 11:33:40.
