data_PCOD9030696
_publ_section_title
;
Structure prediction by ZEFSAII (Michael W. Deem and Ramdas Pophale) SiO2 
 PCOD9030696
Probable space group: P -1
;
_chemical_formula_sum "Si O2"
_cell_formula_units_Z 14
_cell_length_a 12.847947
_cell_length_b 5.385011
_cell_length_c 14.849873
_cell_angle_alpha 64.219878
_cell_angle_beta 129.796651
_cell_angle_gamma 133.797830
_cell_volume 569.702800
_symmetry_space_group_name_H-M "P -1"
_symmetry_group_IT_number 2
_symmetry_cell_setting 'triclinic'
loop_
_space_group_symop_operation_xyz
x,y,z
-x,-y,-z
loop_
_atom_site_type_symbol
_atom_site_label
_atom_site_fract_x
_atom_site_fract_y
_atom_site_fract_z
Si Si1 0.367993 0.612878 0.021872
Si Si2 0.166107 0.523186 0.104522
Si Si3 0.416226 0.997370 0.543956
Si Si4 0.207778 0.552730 0.765605
Si Si5 0.020313 0.905431 0.627213
Si Si6 0.755413 0.702080 0.651852
Si Si7 0.499771 0.213792 0.220304
O O1 0.243143 0.429591 0.896410
O O2 0.252493 0.540852 0.055705
O O3 0.484814 0.495283 0.127067
O O4 0.500000 0.000000 0.000000
O O5 0.150338 0.252880 0.209764
O O6 0.305427 0.888537 0.171284
O O7 0.000000 0.500000 0.000000
O O8 0.561250 0.367350 0.612001
O O9 0.258631 0.998882 0.435313
O O10 0.500000 0.000000 0.500000
O O11 0.403740 0.715931 0.644215
O O12 0.117309 0.244647 0.691415
O O13 0.391315 0.839594 0.778469
O O14 0.113749 0.725234 0.703240
O O15 0.000000 0.000000 0.500000
O O16 0.845812 0.659758 0.625549
#
# Coordination Sequence:
#
# PCOD9030696 Si02
#       7
#     2   2   2   2   2   2   2
#     4  12  25  46  74 105 148 195 254 314 374 455
#     4  11  25  45  71 106 153 192 250 311 381 447
#     4  10  22  42  72  98 141 192 250 310 376 448
#     4  12  27  45  76 105 149 199 251 313 380 453
#     4  12  28  48  75 109 151 198 254 317 384 451
#     4  10  24  44  69 107 146 193 252 311 376 451
#     4  11  25  43  72 106 141 196 254 304 377 454
#
# _framework density 24.574214999999999
#
# number of rings (size 3 to 8) (size 9 to 14) (size 15 to 20)
#    0.000    0.857    1.429    4.286    8.000    0.571 
#    0.000    0.000    0.000    0.000    0.000    0.000 
#    0.000    0.000    0.000    0.000    0.000    0.000 
#
# Total GULP energy -78322.324145 kJ/mol
# GULP energy per Si atom -5594.451725 kJ/mol
# Density = 2.451828 g / cm^3
# Si number density = 24.574215 Si / 1000 Ang^3
#
#
#
# Elastic Constant Matrix: (Units=GPa)
#
#
# Indices 1 2 3 4 5 6 
#
# 1 188.2081 16.0891 106.2386 -13.8656 18.5722 1.0952
# 2 16.0891 74.8161 45.2224 6.3762 13.7798 -2.6994
# 3 106.2386 45.2224 256.9580 -34.0821 2.1518 -9.0157
# 4 -13.8656 6.3762 -34.0821 38.4491 -4.6262 2.8773
# 5 18.5722 13.7798 2.1518 -4.6262 65.1524 -3.1901
# 6 1.0952 -2.6994 -9.0157 2.8773 -3.1901 42.9137
#
#
#
# Elastic Compliance Matrix: (Units=1/GPa)
#
#
# Indices 1 2 3 4 5 6 
#
# 1 0.007250 0.000821 -0.003234 -0.000585 -0.002221 -0.000939
# 2 0.000821 0.017088 -0.004201 -0.006788 -0.004176 0.000316
# 3 -0.003234 -0.004201 0.006739 0.005674 0.002040 0.001005
# 4 -0.000585 -0.006788 0.005674 0.032478 0.003666 -0.001125
# 5 -0.002221 -0.004176 0.002040 0.003666 0.017119 0.001249
# 6 -0.000939 0.000316 0.001005 -0.001125 0.001249 0.023726
#
#
# Mechanical properties :
#
#
# Convention : Reuss Voigt Hill
#
# Bulk Modulus (GPa) = 56.02692 95.00913 75.51802
# Shear Modulus (GPa) = 40.46054 52.79851 46.62952
#
# Velocity S-wave (km/s) = 4.06207 4.64026 4.36075
# Velocity P-wave (km/s) = 6.69694 8.21312 7.49348
#
# Compressibility (1/GPa) = 0.01784856
#
# Stress axis : x y z
#
# Youngs Moduli (GPa) = 137.92938 58.52135 148.39387
#
# Poissons Ratio (x) = -0.04803 0.47989
# Poissons Ratio (y) = -0.11319 0.62338
# Poissons Ratio (z) = 0.44605 0.24584
#
# Static dielectric constant tensor:
#      x y z
#    x 1.883700 0.017710 -0.020540 
#    y 0.017710 2.158420 -0.001850 
#    z -0.020540 -0.001850 2.030530 
# 
# From -- ./inp_files/510777.got.cif
#   From: 2010.05.17/outbox.cif.g08.bks.cpg/sg2_256_cif.got.tgz:510777.got - 2010.06.03 11:33:40.
