data_PCOD9030307
_publ_section_title
;
Structure prediction by ZEFSAII (Michael W. Deem and Ramdas Pophale) SiO2 
 PCOD9030307
Probable space group: P -1
;
_chemical_formula_sum "Si O2"
_cell_formula_units_Z 13
_cell_length_a 4.824121
_cell_length_b 7.467680
_cell_length_c 19.363561
_cell_angle_alpha 65.267475
_cell_angle_beta 80.543049
_cell_angle_gamma 120.265008
_cell_volume 480.591270
_symmetry_space_group_name_H-M "P -1"
_symmetry_group_IT_number 2
_symmetry_cell_setting 'triclinic'
loop_
_space_group_symop_operation_xyz
x,y,z
-x,-y,-z
loop_
_atom_site_type_symbol
_atom_site_label
_atom_site_fract_x
_atom_site_fract_y
_atom_site_fract_z
Si Si1 0.922830 0.428880 0.282917
Si Si2 0.000000 0.000000 0.000000
Si Si3 0.745125 0.448432 0.131681
Si Si4 0.714601 0.262059 0.656437
Si Si5 0.859091 0.748393 0.907809
Si Si6 0.490285 0.761255 0.541563
Si Si7 0.975485 0.982220 0.362151
O O1 0.562601 0.316363 0.363234
O O2 0.869891 0.478654 0.200417
O O3 0.243617 0.679966 0.273117
O O4 0.629715 0.791004 0.355265
O O5 0.045434 0.260277 0.948614
O O6 0.992378 0.022742 0.082682
O O7 0.007217 0.233569 0.316587
O O8 0.876716 0.314222 0.107500
O O9 0.180584 0.154381 0.534192
O O10 0.095228 0.516571 0.569957
O O11 0.722569 0.035622 0.673679
O O12 0.681884 0.725993 0.844234
O O13 0.500000 0.500000 0.000000
O O14 0.500000 0.000000 0.500000
#
# Coordination Sequence:
#
# PCOD9030307 Si02
#       7
#     2   1   2   2   2   2   2
#     4   9  24  41  59  94 129 160 210 257 310 363
#     4  10  22  42  70  88 122 158 202 240 314 362
#     4  11  24  42  62  98 127 161 200 258 303 377
#     4  10  23  38  64  87 124 166 220 249 314 359
#     4  10  23  42  68  94 123 156 205 248 307 372
#     4   8  18  41  59  90 122 167 209 263 302 359
#     4  11  21  41  61  88 121 173 210 266 300 361
#
# _framework density 27.050013
#
# number of rings (size 3 to 8) (size 9 to 14) (size 15 to 20)
#    0.923    1.231    0.000    2.769    0.000   11.692 
#    0.000    3.077    0.000    0.000    0.000    0.000 
#    0.000    0.000    0.000    0.000    0.000    0.000 
#
# Total GULP energy -72510.257279 kJ/mol
# GULP energy per Si atom -5577.712098 kJ/mol
# Density = 2.698845 g / cm^3
# Si number density = 27.050013 Si / 1000 Ang^3
#
#
#
# Elastic Constant Matrix: (Units=GPa)
#
#
# Indices 1 2 3 4 5 6 
#
# 1 133.2019 40.1091 22.7162 5.0508 16.9633 -6.5149
# 2 40.1091 152.8856 33.4653 39.6486 14.9722 -35.2029
# 3 22.7162 33.4653 103.4988 29.7780 19.2758 0.4643
# 4 5.0508 39.6486 29.7780 56.7663 5.4114 7.5410
# 5 16.9633 14.9722 19.2758 5.4114 43.4663 6.1212
# 6 -6.5149 -35.2029 0.4643 7.5410 6.1212 30.4489
#
#
#
# Elastic Compliance Matrix: (Units=1/GPa)
#
#
# Indices 1 2 3 4 5 6 
#
# 1 0.008626 -0.002640 -0.001273 0.002106 -0.001970 -0.001313
# 2 -0.002640 0.017118 0.000331 -0.014470 -0.006610 0.024133
# 3 -0.001273 0.000331 0.012608 -0.006613 -0.004738 0.002508
# 4 0.002106 -0.014470 -0.006613 0.033819 0.006527 -0.025866
# 5 -0.001970 -0.006610 -0.004738 0.006527 0.029529 -0.015544
# 6 -0.001313 0.024133 0.002508 -0.025866 -0.015544 0.069954
#
#
# Mechanical properties :
#
#
# Convention : Reuss Voigt Hill
#
# Bulk Modulus (GPa) = 32.06385 64.68527 48.37456
# Shear Modulus (GPa) = 26.42490 45.68936 36.05713
#
# Velocity S-wave (km/s) = 3.12892 4.11429 3.65496
# Velocity P-wave (km/s) = 4.99327 6.82165 5.97778
#
# Compressibility (1/GPa) = 0.03118777
#
# Stress axis : x y z
#
# Youngs Moduli (GPa) = 115.92539 58.41855 79.31261
#
# Poissons Ratio (x) = 0.15423 0.10096
# Poissons Ratio (y) = 0.30605 -0.02622
# Poissons Ratio (z) = 0.14756 -0.01932
#
# Static dielectric constant tensor:
#      x y z
#    x 2.018950 0.113000 -0.002440 
#    y 0.113000 2.199850 0.039550 
#    z -0.002440 0.039550 2.261880 
# 
# From -- ./inp_files/547000.got.cif
#   From: 2010.05.17/outbox.cif.g08.bks.cpg/sg2_274_cif.got.tgz:547000.got - 2010.06.03 11:33:40.
