data_PCOD9030339
_publ_section_title
;
Structure prediction by ZEFSAII (Michael W. Deem and Ramdas Pophale) SiO2 
 PCOD9030339
Probable space group: P -1
;
_chemical_formula_sum "Si O2"
_cell_formula_units_Z 16
_cell_length_a 20.179377
_cell_length_b 12.108342
_cell_length_c 17.115761
_cell_angle_alpha 44.523570
_cell_angle_beta 160.436204
_cell_angle_gamma 145.889020
_cell_volume 733.337665
_symmetry_space_group_name_H-M "P -1"
_symmetry_group_IT_number 2
_symmetry_cell_setting 'triclinic'
loop_
_space_group_symop_operation_xyz
x,y,z
-x,-y,-z
loop_
_atom_site_type_symbol
_atom_site_label
_atom_site_fract_x
_atom_site_fract_y
_atom_site_fract_z
Si Si1 0.339111 0.521732 0.536046
Si Si2 0.366961 0.642011 0.096132
Si Si3 0.794027 0.627673 0.795279
Si Si4 0.107287 0.827532 0.893533
Si Si5 0.783925 0.918361 0.736390
Si Si6 0.274411 0.836716 0.564462
Si Si7 0.093583 0.922944 0.468498
Si Si8 0.116572 0.467457 0.477491
O O1 0.502953 0.445259 0.753462
O O2 0.500183 0.722686 0.556522
O O3 0.312157 0.572234 0.567705
O O4 0.052703 0.329250 0.278115
O O5 0.226245 0.502083 0.089421
O O6 0.609247 0.882714 0.268549
O O7 0.160183 0.611071 0.823715
O O8 0.500000 0.500000 0.500000
O O9 0.861609 0.835458 0.797820
O O10 0.985327 0.686511 0.907606
O O11 0.032594 0.973217 0.738932
O O12 0.420233 0.977315 0.166194
O O13 0.781756 0.089296 0.612268
O O14 0.000000 0.000000 0.000000
O O15 0.110519 0.824632 0.459508
O O16 0.214060 0.627758 0.576147
O O17 0.932674 0.736354 0.446657
#
# Coordination Sequence:
#
# PCOD9030339 Si02
#       8
#     2   2   2   2   2   2   2   2
#     4  10  24  42  63 100 128 167 212 267 325 374
#     4  10  22  42  70  94 126 170 213 270 322 373
#     4  11  18  41  68  97 128 165 211 267 326 374
#     4  11  24  41  70  98 125 168 218 268 317 382
#     4  11  23  41  67  93 138 167 203 269 328 382
#     4  12  26  41  66  99 126 176 216 258 320 384
#     4  11  24  47  67  90 129 175 219 264 313 373
#     4  12  27  42  63  96 135 171 216 261 315 390
#
# _framework density 21.818054
#
# number of rings (size 3 to 8) (size 9 to 14) (size 15 to 20)
#    0.000    1.000    5.000    3.000    3.500    5.500 
#    0.000    0.000    0.000    0.000    0.000    0.000 
#    0.000    0.000    0.000    0.000    0.000    0.000 
#
# Total GULP energy -89533.296289 kJ/mol
# GULP energy per Si atom -5595.831018 kJ/mol
# Density = 2.176840 g / cm^3
# Si number density = 21.818054 Si / 1000 Ang^3
#
#
#
# Elastic Constant Matrix: (Units=GPa)
#
#
# Indices 1 2 3 4 5 6 
#
# 1 47.2517 -6.4344 -0.4749 -5.7737 10.5683 -11.2125
# 2 -6.4344 60.9158 -5.1023 4.8274 5.0226 -1.8224
# 3 -0.4749 -5.1023 77.2124 -6.4255 -9.3574 2.3328
# 4 -5.7737 4.8274 -6.4255 11.3836 -7.8401 1.2993
# 5 10.5683 5.0226 -9.3574 -7.8401 22.0152 0.4542
# 6 -11.2125 -1.8224 2.3328 1.2993 0.4542 34.1234
#
#
#
# Elastic Compliance Matrix: (Units=1/GPa)
#
#
# Indices 1 2 3 4 5 6 
#
# 1 0.027346 0.004326 -0.001723 -0.000516 -0.015228 0.009557
# 2 0.004326 0.019201 -0.001752 -0.016335 -0.013089 0.003363
# 3 -0.001723 -0.001752 0.016451 0.020099 0.015434 -0.002755
# 4 -0.000516 -0.016335 0.020099 0.153235 0.067276 -0.009146
# 5 -0.015228 -0.013089 0.015434 0.067276 0.086454 -0.010470
# 6 0.009557 0.003363 -0.002755 -0.009146 -0.010470 0.033301
#
#
# Mechanical properties :
#
#
# Convention : Reuss Voigt Hill
#
# Bulk Modulus (GPa) = 15.45578 17.92852 16.69215
# Shear Modulus (GPa) = 14.05083 26.66386 20.35735
#
# Velocity S-wave (km/s) = 2.54047 3.49965 3.05790
# Velocity P-wave (km/s) = 3.96291 4.95633 4.48719
#
# Compressibility (1/GPa) = 0.06470073
#
# Stress axis : x y z
#
# Youngs Moduli (GPa) = 36.56899 52.08151 60.78582
#
# Poissons Ratio (x) = -0.22533 0.10473
# Poissons Ratio (y) = -0.15821 0.10648
# Poissons Ratio (z) = 0.06301 0.09124
#
# Static dielectric constant tensor:
#      x y z
#    x 1.776690 -0.003060 0.023280 
#    y -0.003060 1.780350 0.008540 
#    z 0.023280 0.008540 1.764050 
# 
# From -- ./inp_files/258018.got.cif
#   From: 2010.05.17/outbox.cif.g08.bks.cpg/sg2_130_cif.got.tgz:258018.got - 2010.06.03 11:33:40.
