data_PCOD9030492
_publ_section_title
;
Structure prediction by ZEFSAII (Michael W. Deem and Ramdas Pophale) SiO2 
 PCOD9030492
Probable space group: P -1
;
_chemical_formula_sum "Si O2"
_cell_formula_units_Z 16
_cell_length_a 14.037226
_cell_length_b 10.333965
_cell_length_c 9.317999
_cell_angle_alpha 104.022725
_cell_angle_beta 28.598327
_cell_angle_gamma 106.360807
_cell_volume 620.763186
_symmetry_space_group_name_H-M "P -1"
_symmetry_group_IT_number 2
_symmetry_cell_setting 'triclinic'
loop_
_space_group_symop_operation_xyz
x,y,z
-x,-y,-z
loop_
_atom_site_type_symbol
_atom_site_label
_atom_site_fract_x
_atom_site_fract_y
_atom_site_fract_z
Si Si1 0.718096 0.538000 0.298288
Si Si2 0.692732 0.988886 0.446937
Si Si3 0.560580 0.742511 0.745530
Si Si4 0.252679 0.019170 0.950613
Si Si5 0.513585 0.356531 0.876536
Si Si6 0.081453 0.722002 0.720285
Si Si7 0.164595 0.716194 0.058565
Si Si8 0.904600 0.740875 0.668663
O O1 0.500000 0.500000 0.500000
O O2 0.666536 0.613132 0.531049
O O3 0.877940 0.652443 0.042219
O O4 0.820814 0.404216 0.102443
O O5 0.686229 0.878422 0.550500
O O6 0.719083 0.930321 0.236960
O O7 0.471729 0.035250 0.739979
O O8 0.143593 0.880640 0.709481
O O9 0.518960 0.744490 0.969900
O O10 0.354118 0.726738 0.921100
O O11 0.105053 0.100907 0.254525
O O12 0.179462 0.859626 0.000214
O O13 0.721051 0.343317 0.523037
O O14 0.500000 0.500000 0.000000
O O15 0.323588 0.323784 0.015743
O O16 0.047856 0.697667 0.588409
O O17 0.972964 0.699802 0.411958
#
# Coordination Sequence:
#
# PCOD9030492 Si02
#       8
#     2   2   2   2   2   2   2   2
#     4  10  24  44  74 104 141 200 242 301 373 435
#     4  10  23  45  73 107 148 197 242 311 357 438
#     4  10  23  47  71 104 149 194 246 304 367 429
#     4  10  22  43  72 109 148 189 253 297 364 437
#     4  12  28  46  73 110 149 195 247 303 364 446
#     4  12  26  48  76 108 149 195 248 301 377 432
#     4  10  22  42  71 105 150 191 242 306 364 435
#     4  12  25  43  74 107 145 195 243 305 363 440
#
# _framework density 25.774725
#
# number of rings (size 3 to 8) (size 9 to 14) (size 15 to 20)
#    0.000    1.250    2.500    1.875    3.500    8.500 
#    0.000    1.875    0.000    0.000    0.000    0.000 
#    0.000    0.000    0.000    0.000    0.000    0.000 
#
# Total GULP energy -89681.028127 kJ/mol
# GULP energy per Si atom -5605.064258 kJ/mol
# Density = 2.571606 g / cm^3
# Si number density = 25.774725 Si / 1000 Ang^3
#
#
#
# Elastic Constant Matrix: (Units=GPa)
#
#
# Indices 1 2 3 4 5 6 
#
# 1 93.9550 21.0059 36.9687 -14.9332 9.4569 6.1485
# 2 21.0059 113.5916 38.1997 -6.3034 -8.0168 10.3141
# 3 36.9687 38.1997 146.6956 1.7195 -0.3377 0.9142
# 4 -14.9332 -6.3034 1.7195 47.9145 5.0247 -1.1741
# 5 9.4569 -8.0168 -0.3377 5.0247 46.1876 -3.0482
# 6 6.1485 10.3141 0.9142 -1.1741 -3.0482 30.0883
#
#
#
# Elastic Compliance Matrix: (Units=1/GPa)
#
#
# Indices 1 2 3 4 5 6 
#
# 1 0.013360 -0.001220 -0.003094 0.004434 -0.003611 -0.002411
# 2 -0.001220 0.010257 -0.002350 0.000799 0.001729 -0.002989
# 3 -0.003094 -0.002350 0.008221 -0.001596 0.000537 0.001180
# 4 0.004434 0.000799 -0.001596 0.022746 -0.003293 -0.000577
# 5 -0.003611 0.001729 0.000537 -0.003293 0.023208 0.002352
# 6 -0.002411 -0.002989 0.001180 -0.000577 0.002352 0.034933
#
#
# Mechanical properties :
#
#
# Convention : Reuss Voigt Hill
#
# Bulk Modulus (GPa) = 54.02779 60.73231 57.38005
# Shear Modulus (GPa) = 37.81488 42.04262 39.92875
#
# Velocity S-wave (km/s) = 3.83447 4.04314 3.94019
# Velocity P-wave (km/s) = 6.37270 6.73868 6.55824
#
# Compressibility (1/GPa) = 0.01850899
#
# Stress axis : x y z
#
# Youngs Moduli (GPa) = 74.85243 97.49256 121.63579
#
# Poissons Ratio (x) = 0.11893 0.37639
# Poissons Ratio (y) = 0.09131 0.28588
# Poissons Ratio (z) = 0.23162 0.22914
#
# Static dielectric constant tensor:
#      x y z
#    x 2.006230 0.005520 -0.022400 
#    y 0.005520 2.059840 -0.007980 
#    z -0.022400 -0.007980 2.035060 
# 
# From -- ./inp_files/446387.got.cif
#   From: 2010.05.17/outbox.cif.g08.bks.cpg/sg2_224_cif.got.tgz:446387.got - 2010.06.03 11:33:40.
