data_PCOD9030172
_publ_section_title
;
Structure prediction by ZEFSAII (Michael W. Deem and Ramdas Pophale) SiO2 
 PCOD9030172
Probable space group: P -1
;
_chemical_formula_sum "Si O2"
_cell_formula_units_Z 14
_cell_length_a 8.233861
_cell_length_b 14.790041
_cell_length_c 12.232966
_cell_angle_alpha 29.201968
_cell_angle_beta 131.583318
_cell_angle_gamma 126.976559
_cell_volume 542.653511
_symmetry_space_group_name_H-M "P -1"
_symmetry_group_IT_number 2
_symmetry_cell_setting 'triclinic'
loop_
_space_group_symop_operation_xyz
x,y,z
-x,-y,-z
loop_
_atom_site_type_symbol
_atom_site_label
_atom_site_fract_x
_atom_site_fract_y
_atom_site_fract_z
Si Si1 0.354628 0.163163 0.634350
Si Si2 0.735341 0.419875 0.270086
Si Si3 0.933223 0.703065 0.298276
Si Si4 0.537200 0.259302 0.836421
Si Si5 0.731744 0.825170 0.886518
Si Si6 0.608604 0.874387 0.562027
Si Si7 0.926515 0.532058 0.810105
O O1 0.516949 0.265815 0.687598
O O2 0.368259 0.196646 0.475143
O O3 0.129884 0.255663 0.459479
O O4 0.386825 0.947097 0.890464
O O5 0.536989 0.293101 0.271646
O O6 0.870102 0.273292 0.553317
O O7 0.885340 0.502783 0.153497
O O8 0.674017 0.603617 0.112603
O O9 0.702009 0.712913 0.247860
O O10 0.000000 0.500000 0.500000
O O11 0.923843 0.842462 0.044256
O O12 0.716422 0.401648 0.819338
O O13 0.792290 0.892907 0.718381
O O14 0.525969 0.942919 0.698549
O O15 0.000000 0.500000 0.000000
#
# Coordination Sequence:
#
# PCOD9030172 Si02
#       7
#     2   2   2   2   2   2   2
#     4  11  25  45  73 102 137 192 227 281 356 402
#     4  11  25  42  63 104 132 178 231 278 343 408
#     4  10  22  42  70 100 133 180 227 284 343 397
#     4  11  25  48  71  99 147 180 236 285 339 424
#     4  10  23  42  66  98 136 177 225 289 346 387
#     4  11  24  41  71  98 135 177 231 286 343 409
#     4  12  28  44  72 103 141 187 227 285 354 411
#
# _framework density 25.799149
#
# number of rings (size 3 to 8) (size 9 to 14) (size 15 to 20)
#    0.000    1.143    2.857    1.714    6.000    3.429 
#    0.000    0.000    0.000    0.000    0.000    0.000 
#    0.000    0.000    0.000    0.000    0.000    0.000 
#
# Total GULP energy -78183.816622 kJ/mol
# GULP energy per Si atom -5584.558330 kJ/mol
# Density = 2.574043 g / cm^3
# Si number density = 25.799149 Si / 1000 Ang^3
#
#
#
# Elastic Constant Matrix: (Units=GPa)
#
#
# Indices 1 2 3 4 5 6 
#
# 1 60.7277 38.0920 29.5226 -0.4270 18.6900 -15.3359
# 2 38.0920 124.3317 61.9597 19.7671 -7.8632 -17.6204
# 3 29.5226 61.9597 202.2369 25.5937 19.2983 -12.9788
# 4 -0.4270 19.7671 25.5937 72.5801 -28.4101 -12.2018
# 5 18.6900 -7.8632 19.2983 -28.4101 39.2038 2.5912
# 6 -15.3359 -17.6204 -12.9788 -12.2018 2.5912 40.4516
#
#
#
# Elastic Compliance Matrix: (Units=1/GPa)
#
#
# Indices 1 2 3 4 5 6 
#
# 1 0.029951 -0.009463 0.001606 -0.004695 -0.020877 0.007669
# 2 -0.009463 0.013365 -0.003894 0.001912 0.010436 0.000893
# 3 0.001606 -0.003894 0.007382 -0.004899 -0.008754 0.000364
# 4 -0.004695 0.001912 -0.004899 0.024300 0.022420 0.003375
# 5 -0.020877 0.010436 -0.008754 0.022420 0.058318 -0.003151
# 6 0.007669 0.000893 0.000364 0.003375 -0.003151 0.029354
#
#
# Mechanical properties :
#
#
# Convention : Reuss Voigt Hill
#
# Bulk Modulus (GPa) = 36.77129 71.82721 54.29925
# Shear Modulus (GPa) = 25.60954 47.62855 36.61905
#
# Velocity S-wave (km/s) = 3.15405 4.30132 3.77157
# Velocity P-wave (km/s) = 5.24861 7.25051 6.32921
#
# Compressibility (1/GPa) = 0.02719513
#
# Stress axis : x y z
#
# Youngs Moduli (GPa) = 33.38753 74.82044 135.46564
#
# Poissons Ratio (x) = 0.70805 -0.21749
# Poissons Ratio (y) = 0.31596 0.52748
# Poissons Ratio (z) = -0.05360 0.29134
#
# Static dielectric constant tensor:
#      x y z
#    x 2.026080 -0.083760 -0.025310 
#    y -0.083760 2.120790 0.092320 
#    z -0.025310 0.092320 2.043780 
# 
# From -- ./inp_files/398313.got.cif
#   From: 2010.05.17/outbox.cif.g08.bks.cpg/sg2_200_cif.got.tgz:398313.got - 2010.06.03 11:33:40.
