data_PCOD9030595
_publ_section_title
;
Structure prediction by ZEFSAII (Michael W. Deem and Ramdas Pophale) SiO2 
 PCOD9030595
Probable space group: P -1
;
_chemical_formula_sum "Si O2"
_cell_formula_units_Z 14
_cell_length_a 23.279432
_cell_length_b 23.184528
_cell_length_c 12.423373
_cell_angle_alpha 22.345492
_cell_angle_beta 21.546047
_cell_angle_gamma 12.667068
_cell_volume 527.193302
_symmetry_space_group_name_H-M "P -1"
_symmetry_group_IT_number 2
_symmetry_cell_setting 'triclinic'
loop_
_space_group_symop_operation_xyz
x,y,z
-x,-y,-z
loop_
_atom_site_type_symbol
_atom_site_label
_atom_site_fract_x
_atom_site_fract_y
_atom_site_fract_z
Si Si1 0.927812 0.356611 0.945550
Si Si2 0.819369 0.000679 0.425103
Si Si3 0.632530 0.145756 0.818122
Si Si4 0.799312 0.551214 0.196402
Si Si5 0.537957 0.318571 0.169946
Si Si6 0.827600 0.675441 0.252881
Si Si7 0.289570 0.649040 0.841774
O O1 0.094997 0.368485 0.679299
O O2 0.609244 0.636509 0.050307
O O3 0.918446 0.299920 0.940393
O O4 0.074557 0.108643 0.190834
O O5 0.521888 0.175416 0.685349
O O6 0.776267 0.042839 0.299855
O O7 0.843170 0.144941 0.188893
O O8 0.080020 0.702498 0.530663
O O9 0.624299 0.292877 0.496450
O O10 0.622375 0.984227 0.062418
O O11 0.000000 0.500000 0.000000
O O12 0.900709 0.493899 0.996710
O O13 0.297044 0.381135 0.474588
O O14 0.500000 0.500000 0.000000
O O15 0.534938 0.368648 0.963183
#
# Coordination Sequence:
#
# PCOD9030595 Si02
#       7
#     2   2   2   2   2   2   2
#     4  10  23  41  74 100 130 173 227 279 323 390
#     4  11  24  43  65 102 133 176 222 272 330 393
#     4  10  22  42  72 102 129 170 228 278 325 388
#     4  12  23  40  75  99 130 173 230 278 324 386
#     4  10  24  46  66  97 141 179 216 275 339 402
#     4  10  23  41  72  99 133 170 230 274 330 392
#     4  11  22  43  69  98 143 175 219 269 345 392
#
# _framework density 26.555726
#
# number of rings (size 3 to 8) (size 9 to 14) (size 15 to 20)
#    0.857    0.571    2.857    2.143    0.000    1.714 
#    0.000   10.000    0.000    0.000    0.000    0.000 
#    0.000    0.000    0.000    0.000    0.000    0.000 
#
# Total GULP energy -78137.438609 kJ/mol
# GULP energy per Si atom -5581.245615 kJ/mol
# Density = 2.649528 g / cm^3
# Si number density = 26.555726 Si / 1000 Ang^3
#
#
#
# Elastic Constant Matrix: (Units=GPa)
#
#
# Indices 1 2 3 4 5 6 
#
# 1 170.3482 1.4156 50.5280 0.5843 -30.5650 -34.2525
# 2 1.4156 101.3897 33.5674 7.8782 2.4208 -4.4132
# 3 50.5280 33.5674 137.9679 -0.5047 -24.3411 -12.4181
# 4 0.5843 7.8782 -0.5047 29.4103 -7.8473 1.9033
# 5 -30.5650 2.4208 -24.3411 -7.8473 37.9025 -4.6239
# 6 -34.2525 -4.4132 -12.4181 1.9033 -4.6239 28.0705
#
#
#
# Elastic Compliance Matrix: (Units=1/GPa)
#
#
# Indices 1 2 3 4 5 6 
#
# 1 0.010905 0.000455 -0.000994 0.001424 0.010193 0.014521
# 2 0.000455 0.011442 -0.003520 -0.004077 -0.003406 0.000512
# 3 -0.000994 -0.003520 0.010014 0.002731 0.006860 0.003608
# 4 0.001424 -0.004077 0.002731 0.038005 0.011224 0.001578
# 5 0.010193 -0.003406 0.006860 0.011224 0.044167 0.021452
# 6 0.014521 0.000512 0.003608 0.001578 0.021452 0.058447
#
#
# Mechanical properties :
#
#
# Convention : Reuss Voigt Hill
#
# Bulk Modulus (GPa) = 41.25005 64.52533 52.88769
# Shear Modulus (GPa) = 26.42982 40.68962 33.55972
#
# Velocity S-wave (km/s) = 3.15819 3.91862 3.55878
# Velocity P-wave (km/s) = 5.37271 6.69515 6.07005
#
# Compressibility (1/GPa) = 0.02424240
#
# Stress axis : x y z
#
# Youngs Moduli (GPa) = 91.69917 87.39398 99.86448
#
# Poissons Ratio (x) = -0.03975 0.09926
# Poissons Ratio (y) = -0.04171 0.35155
# Poissons Ratio (z) = 0.09114 0.30765
#
# Static dielectric constant tensor:
#      x y z
#    x 2.145520 -0.012030 0.049660 
#    y -0.012030 2.109020 -0.062720 
#    z 0.049660 -0.062720 2.280660 
# 
# From -- ./inp_files/544561.got.cif
#   From: 2010.05.17/outbox.cif.g08.bks.cpg/sg2_273_cif.got.tgz:544561.got - 2010.06.03 11:33:40.
