data_PCOD9030061
_publ_section_title
;
Structure prediction by ZEFSAII (Michael W. Deem and Ramdas Pophale) SiO2 
 PCOD9030061
Probable space group: P -1
;
_chemical_formula_sum "Si O2"
_cell_formula_units_Z 9
_cell_length_a 16.027499
_cell_length_b 5.480880
_cell_length_c 5.266625
_cell_angle_alpha 82.316039
_cell_angle_beta 110.056076
_cell_angle_gamma 59.640437
_cell_volume 347.048499
_symmetry_space_group_name_H-M "P -1"
_symmetry_group_IT_number 2
_symmetry_cell_setting 'triclinic'
loop_
_space_group_symop_operation_xyz
x,y,z
-x,-y,-z
loop_
_atom_site_type_symbol
_atom_site_label
_atom_site_fract_x
_atom_site_fract_y
_atom_site_fract_z
Si Si1 0.576151 0.859496 0.852731
Si Si2 0.373225 0.701219 0.252766
Si Si3 0.180348 0.776889 0.304350
Si Si4 0.896682 0.343064 0.280807
Si Si5 0.000000 0.500000 0.000000
O O1 0.631390 0.501039 0.939394
O O2 0.500000 0.000000 0.500000
O O3 0.651608 0.979787 0.902001
O O4 0.500000 0.000000 0.000000
O O5 0.500000 0.500000 0.500000
O O6 0.294059 0.734007 0.386567
O O7 0.173735 0.583071 0.546206
O O8 0.084923 0.133903 0.191751
O O9 0.156327 0.674809 0.031095
O O10 0.934643 0.547532 0.198367
O O11 0.000000 0.000000 0.500000
#
# Coordination Sequence:
#
# PCOD9030061 Si02
#       5
#     2   2   2   2   1
#     4  10  22  42  69  94 138 185 233 284 341 414
#     4  10  24  46  69 107 144 189 235 292 353 427
#     4  11  25  41  69 101 139 181 235 290 353 424
#     4  10  23  43  66  99 135 178 234 293 351 423
#     4  10  22  44  68  96 134 180 230 288 360 408
#
# _framework density 25.932974999999999
#
# number of rings (size 3 to 8) (size 9 to 14) (size 15 to 20)
#    0.000    1.778    0.000    3.333    3.111   15.111 
#    0.000    0.000    0.000    0.000    0.000    0.000 
#    0.000    0.000    0.000    0.000    0.000    0.000 
#
# Total GULP energy -50100.938000 kJ/mol
# GULP energy per Si atom -5566.770889 kJ/mol
# Density = 2.587395 g / cm^3
# Si number density = 25.932975 Si / 1000 Ang^3
#
#
#
# Elastic Constant Matrix: (Units=GPa)
#
#
# Indices 1 2 3 4 5 6 
#
# 1 195.1209 44.8282 95.0931 9.2456 -72.8979 5.1220
# 2 44.8282 132.1600 34.7680 7.2589 -17.9522 16.4022
# 3 95.0931 34.7680 176.5885 8.2032 -52.7040 0.7456
# 4 9.2456 7.2589 8.2032 40.7893 -1.8117 -12.2294
# 5 -72.8979 -17.9522 -52.7040 -1.8117 63.6358 -4.7264
# 6 5.1220 16.4022 0.7456 -12.2294 -4.7264 44.8782
#
#
#
# Elastic Compliance Matrix: (Units=1/GPa)
#
#
# Indices 1 2 3 4 5 6 
#
# 1 0.010091 -0.001512 -0.002351 -0.001108 0.009162 0.000103
# 2 -0.001512 0.008849 -0.000908 -0.002164 -0.000322 -0.003670
# 3 -0.002351 -0.000908 0.008319 -0.000586 0.003978 0.000721
# 4 -0.001108 -0.002164 -0.000586 0.027742 -0.000952 0.008387
# 5 0.009162 -0.000322 0.003978 -0.000952 0.029525 0.001856
# 6 0.000103 -0.003670 0.000721 0.008387 0.001856 0.026081
#
#
# Mechanical properties :
#
#
# Convention : Reuss Voigt Hill
#
# Bulk Modulus (GPa) = 56.44179 94.80533 75.62356
# Shear Modulus (GPa) = 39.66566 51.80600 45.73583
#
# Velocity S-wave (km/s) = 3.91518 4.47440 4.20410
# Velocity P-wave (km/s) = 6.50000 7.95807 7.26570
#
# Compressibility (1/GPa) = 0.01771737
#
# Stress axis : x y z
#
# Youngs Moduli (GPa) = 99.10010 113.00807 120.20875
#
# Poissons Ratio (x) = 0.17084 0.28258
# Poissons Ratio (y) = 0.14981 0.10917
# Poissons Ratio (z) = 0.23296 0.10263
#
# Static dielectric constant tensor:
#      x y z
#    x 2.178350 0.019120 0.065970 
#    y 0.019120 2.009920 0.104610 
#    z 0.065970 0.104610 1.921020 
# 
# From -- ./inp_files/2315.got.cif
#   From: 2010.05.17/outbox.cif.g08.bks.cpg/sg2_2_cif.got.tgz:2315.got - 2010.06.03 11:33:40.
