data_PCOD9030153
_publ_section_title
;
Structure prediction by ZEFSAII (Michael W. Deem and Ramdas Pophale) SiO2 
 PCOD9030153
Probable space group: P -1
;
_chemical_formula_sum "Si O2"
_cell_formula_units_Z 14
_cell_length_a 9.515352
_cell_length_b 11.805923
_cell_length_c 17.038898
_cell_angle_alpha 150.880105
_cell_angle_beta 47.872421
_cell_angle_gamma 142.571104
_cell_volume 564.423703
_symmetry_space_group_name_H-M "P -1"
_symmetry_group_IT_number 2
_symmetry_cell_setting 'triclinic'
loop_
_space_group_symop_operation_xyz
x,y,z
-x,-y,-z
loop_
_atom_site_type_symbol
_atom_site_label
_atom_site_fract_x
_atom_site_fract_y
_atom_site_fract_z
Si Si1 0.679856 0.094649 0.830179
Si Si2 0.438291 0.171825 0.572188
Si Si3 0.002389 0.976279 0.714014
Si Si4 0.646206 0.719487 0.908749
Si Si5 0.851032 0.913951 0.101354
Si Si6 0.792562 0.400841 0.358801
Si Si7 0.882389 0.171029 0.639297
O O1 0.828651 0.065787 0.821175
O O2 0.467331 0.781767 0.689590
O O3 0.841247 0.251989 0.788884
O O4 0.557919 0.239772 0.994593
O O5 0.621856 0.497914 0.721005
O O6 0.500000 0.000000 0.500000
O O7 0.374205 0.043150 0.432188
O O8 0.198678 0.113936 0.657263
O O9 0.858157 0.639367 0.544218
O O10 0.145582 0.091503 0.810141
O O11 0.895756 0.002124 0.966179
O O12 0.671487 0.663342 0.957142
O O13 0.831219 0.172432 0.241751
O O14 0.964866 0.577641 0.328099
O O15 0.000000 0.000000 0.500000
#
# Coordination Sequence:
#
# PCOD9030153 Si02
#       7
#     2   2   2   2   2   2   2
#     4  11  24  44  69 103 136 181 220 279 346 395
#     4  11  25  43  67 102 132 178 226 278 340 402
#     4  11  23  41  67 103 132 174 231 273 339 402
#     4  10  24  45  64  96 136 178 227 273 345 399
#     4  10  23  44  65  96 136 177 228 280 331 404
#     4  10  22  42  69  99 137 176 225 281 333 397
#     4  11  23  44  69 104 136 172 230 277 332 414
#
# _framework density 24.804061000000001
#
# number of rings (size 3 to 8) (size 9 to 14) (size 15 to 20)
#    0.000    1.429    2.857    2.571    6.000    1.714 
#    7.714    0.000    0.000    0.000    0.000    0.000 
#    0.000    0.000    0.000    0.000    0.000    0.000 
#
# Total GULP energy -78334.161615 kJ/mol
# GULP energy per Si atom -5595.297258 kJ/mol
# Density = 2.474761 g / cm^3
# Si number density = 24.804061 Si / 1000 Ang^3
#
#
#
# Elastic Constant Matrix: (Units=GPa)
#
#
# Indices 1 2 3 4 5 6 
#
# 1 135.5785 19.1356 36.7996 12.6339 -8.4791 1.7521
# 2 19.1356 61.8113 14.4467 -3.9713 4.2098 1.7145
# 3 36.7996 14.4467 75.9693 4.7607 -5.8676 -6.7494
# 4 12.6339 -3.9713 4.7607 27.5845 16.9019 7.0414
# 5 -8.4791 4.2098 -5.8676 16.9019 41.1130 -13.8456
# 6 1.7521 1.7145 -6.7494 7.0414 -13.8456 36.5437
#
#
#
# Elastic Compliance Matrix: (Units=1/GPa)
#
#
# Indices 1 2 3 4 5 6 
#
# 1 0.010034 -0.003893 -0.002441 -0.010754 0.008008 0.004357
# 2 -0.003893 0.020953 -0.005194 0.017075 -0.014223 -0.010435
# 3 -0.002441 -0.005194 0.017815 -0.011933 0.010867 0.010068
# 4 -0.010754 0.017075 -0.011933 0.091574 -0.057424 -0.041891
# 5 0.008008 -0.014223 0.010867 -0.057424 0.065436 0.038147
# 6 0.004357 -0.010435 0.010068 -0.041891 0.038147 0.052030
#
#
# Mechanical properties :
#
#
# Convention : Reuss Voigt Hill
#
# Bulk Modulus (GPa) = 38.84155 46.01366 42.42760
# Shear Modulus (GPa) = 17.27233 34.58006 25.92619
#
# Velocity S-wave (km/s) = 2.64171 3.73785 3.23652
# Velocity P-wave (km/s) = 4.99982 6.10081 5.57755
#
# Compressibility (1/GPa) = 0.02574562
#
# Stress axis : x y z
#
# Youngs Moduli (GPa) = 99.65672 47.72661 56.13278
#
# Poissons Ratio (x) = 0.18581 0.13701
# Poissons Ratio (y) = 0.38798 0.29156
# Poissons Ratio (z) = 0.24324 0.24790
#
# Static dielectric constant tensor:
#      x y z
#    x 1.979830 -0.008070 0.088620 
#    y -0.008070 2.029630 0.019660 
#    z 0.088620 0.019660 2.058270 
# 
# From -- ./inp_files/244376.got.cif
#   From: 2010.05.17/outbox.cif.g08.bks.cpg/sg2_123_cif.got.tgz:244376.got - 2010.06.03 11:33:40.
