data_PCOD9030162
_publ_section_title
;
Structure prediction by ZEFSAII (Michael W. Deem and Ramdas Pophale) SiO2 
 PCOD9030162
Probable space group: P -1
;
_chemical_formula_sum "Si O2"
_cell_formula_units_Z 16
_cell_length_a 18.166129
_cell_length_b 9.667856
_cell_length_c 8.969527
_cell_angle_alpha 133.945688
_cell_angle_beta 129.621381
_cell_angle_gamma 46.353085
_cell_volume 781.708856
_symmetry_space_group_name_H-M "P -1"
_symmetry_group_IT_number 2
_symmetry_cell_setting 'triclinic'
loop_
_space_group_symop_operation_xyz
x,y,z
-x,-y,-z
loop_
_atom_site_type_symbol
_atom_site_label
_atom_site_fract_x
_atom_site_fract_y
_atom_site_fract_z
Si Si1 0.702941 0.518273 0.496014
Si Si2 0.793154 0.480370 0.050951
Si Si3 0.762251 0.051792 0.330464
Si Si4 0.365559 0.175309 0.097197
Si Si5 0.150551 0.396075 0.472795
Si Si6 0.053484 0.415028 0.846400
Si Si7 0.752373 0.078365 0.696913
Si Si8 0.483768 0.846206 0.486395
O O1 0.757010 0.272288 0.429147
O O2 0.706551 0.676907 0.748906
O O3 0.757488 0.565476 0.461541
O O4 0.574868 0.608693 0.384793
O O5 0.679188 0.662984 0.979548
O O6 0.783099 0.267337 0.915491
O O7 0.836064 0.559291 0.305717
O O8 0.880468 0.455140 0.020032
O O9 0.757853 0.058987 0.509494
O O10 0.863298 0.836819 0.244002
O O11 0.661270 0.019596 0.116634
O O12 0.481151 0.110382 0.269810
O O13 0.039506 0.542124 0.360885
O O14 0.171485 0.150246 0.305063
O O15 0.000000 0.500000 0.000000
O O16 0.633882 0.130825 0.638862
O O17 0.500000 0.000000 0.500000
#
# Coordination Sequence:
#
# PCOD9030162 Si02
#       8
#     2   2   2   2   2   2   2   2
#     4  10  23  43  68  99 142 176 229 280 332 411
#     4  11  24  43  67 104 133 175 235 280 340 407
#     4  11  23  43  71  99 133 184 231 277 346 412
#     4   9  20  42  65  94 140 173 227 277 327 402
#     4  12  24  44  69 100 142 178 224 290 337 401
#     4  11  26  47  73  98 139 181 227 287 348 405
#     4  12  23  43  70  99 143 178 225 287 338 397
#     4  10  22  42  69  99 143 184 223 280 341 397
#
# _framework density 20.467980000000001
#
# number of rings (size 3 to 8) (size 9 to 14) (size 15 to 20)
#    0.750    0.500    5.000    1.875    0.000    6.500 
#    2.250    1.250    0.000    0.000    0.000    0.000 
#    0.000    0.000    0.000    0.000    0.000    0.000 
#
# Total GULP energy -89263.074710 kJ/mol
# GULP energy per Si atom -5578.942169 kJ/mol
# Density = 2.042139 g / cm^3
# Si number density = 20.467980 Si / 1000 Ang^3
#
#
#
# Elastic Constant Matrix: (Units=GPa)
#
#
# Indices 1 2 3 4 5 6 
#
# 1 74.0929 29.8287 2.0929 4.0363 -11.0856 6.2008
# 2 29.8287 92.8683 19.1306 4.7455 -1.2815 7.8558
# 3 2.0929 19.1306 37.3153 -0.2030 13.1408 0.8725
# 4 4.0363 4.7455 -0.2030 24.9073 2.1290 9.6156
# 5 -11.0856 -1.2815 13.1408 2.1290 18.3525 -0.1091
# 6 6.2008 7.8558 0.8725 9.6156 -0.1091 33.5715
#
#
#
# Elastic Compliance Matrix: (Units=1/GPa)
#
#
# Indices 1 2 3 4 5 6 
#
# 1 0.017608 -0.004585 -0.003151 -0.002599 0.012866 -0.001311
# 2 -0.004585 0.014337 -0.008702 -0.001779 0.004658 -0.001757
# 3 -0.003151 -0.008702 0.043569 0.005542 -0.034352 -0.000213
# 4 -0.002599 -0.001779 0.005542 0.046808 -0.011168 -0.012691
# 5 0.012866 0.004658 -0.034352 -0.011168 0.088483 0.000913
# 6 -0.001311 -0.001757 -0.000213 -0.012691 0.000913 0.034084
#
#
# Mechanical properties :
#
#
# Convention : Reuss Voigt Hill
#
# Bulk Modulus (GPa) = 23.45370 34.04232 28.74801
# Shear Modulus (GPa) = 17.12458 25.58121 21.35290
#
# Velocity S-wave (km/s) = 2.89563 3.53911 3.23342
# Velocity P-wave (km/s) = 4.76059 5.77655 5.29300
#
# Compressibility (1/GPa) = 0.04263719
#
# Stress axis : x y z
#
# Youngs Moduli (GPa) = 56.79330 69.74900 22.95205
#
# Poissons Ratio (x) = 0.31981 0.07232
# Poissons Ratio (y) = 0.26040 0.19973
# Poissons Ratio (z) = 0.17896 0.60697
#
# Static dielectric constant tensor:
#      x y z
#    x 1.727190 -0.024960 -0.011340 
#    y -0.024960 1.745280 -0.028170 
#    z -0.011340 -0.028170 1.725330 
# 
# From -- ./inp_files/329639.got.cif
#   From: 2010.05.17/outbox.cif.g08.bks.cpg/sg2_165_cif.got.tgz:329639.got - 2010.06.03 11:33:40.
