data_PCOD9030823
_publ_section_title
;
Structure prediction by ZEFSAII (Michael W. Deem and Ramdas Pophale) SiO2 
 PCOD9030823
Probable space group: P -1
;
_chemical_formula_sum "Si O2"
_cell_formula_units_Z 15
_cell_length_a 21.127143
_cell_length_b 17.803981
_cell_length_c 8.423840
_cell_angle_alpha 50.759473
_cell_angle_beta 43.595938
_cell_angle_gamma 19.039425
_cell_volume 693.453732
_symmetry_space_group_name_H-M "P -1"
_symmetry_group_IT_number 2
_symmetry_cell_setting 'triclinic'
loop_
_space_group_symop_operation_xyz
x,y,z
-x,-y,-z
loop_
_atom_site_type_symbol
_atom_site_label
_atom_site_fract_x
_atom_site_fract_y
_atom_site_fract_z
Si Si1 0.000000 0.500000 0.500000
Si Si2 0.307663 0.520498 0.008559
Si Si3 0.119251 0.723573 0.436525
Si Si4 0.737775 0.968329 0.942126
Si Si5 0.526652 0.265330 0.506774
Si Si6 0.446570 0.144549 0.008996
Si Si7 0.120100 0.175802 0.762571
Si Si8 0.175248 0.852434 0.735923
O O1 0.134556 0.267857 0.535727
O O2 0.199730 0.369723 0.225843
O O3 0.232438 0.602173 0.220282
O O4 0.107491 0.658268 0.097555
O O5 0.538225 0.239588 0.956172
O O6 0.315893 0.618750 0.783350
O O7 0.306859 0.529661 0.486955
O O8 0.936182 0.816407 0.674316
O O9 0.983545 0.955810 0.373017
O O10 0.621436 0.987652 0.046995
O O11 0.838810 0.853388 0.085562
O O12 0.468731 0.224473 0.765798
O O13 0.672271 0.203583 0.418842
O O14 0.679489 0.082220 0.328049
O O15 0.500000 0.000000 0.000000
O O16 0.000000 0.000000 0.000000
#
# Coordination Sequence:
#
# PCOD9030823 Si02
#       8
#     1   2   2   2   2   2   2   2
#     4  12  26  46  76 102 138 180 238 294 352 412
#     4  11  24  46  73 102 146 186 237 291 346 418
#     4  11  24  43  70 103 144 191 229 285 352 422
#     4  12  26  46  74 104 142 187 234 290 361 413
#     4  12  23  47  74 102 150 186 238 289 353 419
#     4  12  26  48  74 102 139 185 233 296 352 422
#     4  12  24  46  72 106 141 186 233 297 348 418
#     4  10  22  42  75 104 141 195 235 283 353 418
#
# _framework density 21.630859999999998
#
# number of rings (size 3 to 8) (size 9 to 14) (size 15 to 20)
#    0.000    0.533    8.000    0.800    0.000    4.267 
#    2.400    2.667    0.000    0.000    0.000    0.000 
#    0.000    0.000    0.000    0.000    0.000    0.000 
#
# Total GULP energy -83639.535988 kJ/mol
# GULP energy per Si atom -5575.969066 kJ/mol
# Density = 2.158163 g / cm^3
# Si number density = 21.630860 Si / 1000 Ang^3
#
#
#
# Elastic Constant Matrix: (Units=GPa)
#
#
# Indices 1 2 3 4 5 6 
#
# 1 62.7865 20.5012 34.1100 -22.9915 -11.3512 -12.3731
# 2 20.5012 82.1234 22.5522 -4.3369 -29.5283 -19.9762
# 3 34.1100 22.5522 127.9226 -0.5519 -19.8954 -6.0549
# 4 -22.9915 -4.3369 -0.5519 38.9934 14.2498 -0.3872
# 5 -11.3512 -29.5283 -19.8954 14.2498 29.6937 -4.2862
# 6 -12.3731 -19.9762 -6.0549 -0.3872 -4.2862 38.1498
#
#
#
# Elastic Compliance Matrix: (Units=1/GPa)
#
#
# Indices 1 2 3 4 5 6 
#
# 1 0.028268 -0.006422 -0.007609 0.019322 -0.009411 0.003737
# 2 -0.006422 0.031721 0.003436 -0.015183 0.041504 0.019581
# 3 -0.007609 0.003436 0.011259 -0.008479 0.012472 0.002434
# 4 0.019322 -0.015183 -0.008479 0.049009 -0.037892 -0.006789
# 5 -0.009411 0.041504 0.012472 -0.037892 0.102483 0.031789
# 6 0.003737 0.019581 0.002434 -0.006789 0.031789 0.041567
#
#
# Mechanical properties :
#
#
# Convention : Reuss Voigt Hill
#
# Bulk Modulus (GPa) = 19.97638 47.46214 33.71926
# Shear Modulus (GPa) = 16.54641 34.41197 25.47919
#
# Velocity S-wave (km/s) = 2.76876 3.99290 3.43579
# Velocity P-wave (km/s) = 4.41323 6.57626 5.60017
#
# Compressibility (1/GPa) = 0.05005912
#
# Stress axis : x y z
#
# Youngs Moduli (GPa) = 35.37594 31.52498 88.82069
#
# Poissons Ratio (x) = 0.20245 0.67582
# Poissons Ratio (y) = 0.22718 -0.30523
# Poissons Ratio (z) = 0.26917 -0.10834
#
# Static dielectric constant tensor:
#      x y z
#    x 1.781870 0.025150 0.032830 
#    y 0.025150 1.833440 0.003090 
#    z 0.032830 0.003090 1.780330 
# 
# From -- ./inp_files/348332.got.cif
#   From: 2010.05.17/outbox.cif.g08.bks.cpg/sg2_175_cif.got.tgz:348332.got - 2010.06.03 11:33:40.
