data_PCOD9030078
_publ_section_title
;
Structure prediction by ZEFSAII (Michael W. Deem and Ramdas Pophale) SiO2 
 PCOD9030078
Probable space group: P -1
;
_chemical_formula_sum "Si O2"
_cell_formula_units_Z 15
_cell_length_a 5.630395
_cell_length_b 24.413684
_cell_length_c 6.110214
_cell_angle_alpha 120.089344
_cell_angle_beta 87.798762
_cell_angle_gamma 118.270273
_cell_volume 617.820526
_symmetry_space_group_name_H-M "P -1"
_symmetry_group_IT_number 2
_symmetry_cell_setting 'triclinic'
loop_
_space_group_symop_operation_xyz
x,y,z
-x,-y,-z
loop_
_atom_site_type_symbol
_atom_site_label
_atom_site_fract_x
_atom_site_fract_y
_atom_site_fract_z
Si Si1 0.616359 0.278504 0.606758
Si Si2 0.062849 0.320290 0.049975
Si Si3 0.215310 0.943699 0.270086
Si Si4 0.283764 0.452228 0.603405
Si Si5 0.000000 0.000000 0.000000
Si Si6 0.963405 0.818565 0.330727
Si Si7 0.587831 0.415923 0.897451
Si Si8 0.607260 0.143402 0.228999
O O1 0.297300 0.224421 0.584446
O O2 0.673092 0.358511 0.697457
O O3 0.671219 0.226124 0.344918
O O4 0.805210 0.296209 0.850483
O O5 0.069180 0.373745 0.344082
O O6 0.061099 0.245703 0.956322
O O7 0.340687 0.368720 0.988265
O O8 0.987533 0.887920 0.342009
O O9 0.500000 0.000000 0.500000
O O10 0.277880 0.890854 0.015549
O O11 0.125885 0.985694 0.193790
O O12 0.500000 0.500000 0.500000
O O13 0.450624 0.435693 0.745619
O O14 0.199529 0.507211 0.828830
O O15 0.719407 0.916442 0.866371
O O16 0.238388 0.850133 0.533950
#
# Coordination Sequence:
#
# PCOD9030078 Si02
#       8
#     2   2   2   2   1   2   2   2
#     4  10  22  42  69  95 136 177 225 278 340 405
#     4   9  20  37  62  95 130 169 225 273 328 403
#     4  12  27  47  73 100 138 177 226 290 350 413
#     4   9  18  37  63  92 133 176 219 273 331 390
#     4  12  26  44  74 100 128 178 226 276 352 418
#     4  10  23  46  66  96 139 179 221 287 344 407
#     4   9  19  39  63  92 133 176 217 278 334 389
#     4  11  25  45  66 100 134 169 229 284 339 421
#
# _framework density 24.278896
#
# number of rings (size 3 to 8) (size 9 to 14) (size 15 to 20)
#    0.000    1.867    1.333    1.200    1.867    7.467 
#    0.000   16.667    0.000    0.000    0.000    0.000 
#    0.000    0.000    0.000    0.000    0.000    0.000 
#
# Total GULP energy -83636.279611 kJ/mol
# GULP energy per Si atom -5575.751974 kJ/mol
# Density = 2.422364 g / cm^3
# Si number density = 24.278896 Si / 1000 Ang^3
#
#
#
# Elastic Constant Matrix: (Units=GPa)
#
#
# Indices 1 2 3 4 5 6 
#
# 1 43.7583 21.8953 43.7171 11.6764 -2.8228 -8.8870
# 2 21.8953 141.6438 36.1640 8.3138 -5.6705 -17.9750
# 3 43.7171 36.1640 127.1623 21.3867 -4.6466 3.0414
# 4 11.6764 8.3138 21.3867 24.2106 4.3195 5.3597
# 5 -2.8228 -5.6705 -4.6466 4.3195 49.3460 6.7840
# 6 -8.8870 -17.9750 3.0414 5.3597 6.7840 33.6088
#
#
#
# Elastic Compliance Matrix: (Units=1/GPa)
#
#
# Indices 1 2 3 4 5 6 
#
# 1 0.041548 -0.000847 -0.012358 -0.011869 0.000301 0.013484
# 2 -0.000847 0.008386 -0.001877 -0.001895 0.000261 0.004680
# 3 -0.012358 -0.001877 0.013582 -0.004529 0.001450 -0.005071
# 4 -0.011869 -0.001895 -0.004529 0.055061 -0.004548 -0.011605
# 5 0.000301 0.000261 0.001450 -0.004548 0.021327 -0.003492
# 6 0.013484 0.004680 -0.005071 -0.011605 -0.003492 0.038837
#
#
# Mechanical properties :
#
#
# Convention : Reuss Voigt Hill
#
# Bulk Modulus (GPa) = 29.98404 57.34633 43.66519
# Shear Modulus (GPa) = 22.72475 35.48562 29.10519
#
# Velocity S-wave (km/s) = 3.06271 3.82721 3.46610
# Velocity P-wave (km/s) = 4.98834 6.57276 5.83458
#
# Compressibility (1/GPa) = 0.03335108
#
# Stress axis : x y z
#
# Youngs Moduli (GPa) = 24.06835 119.24800 73.62415
#
# Poissons Ratio (x) = 0.10106 0.90986
# Poissons Ratio (y) = 0.02040 0.13820
# Poissons Ratio (z) = 0.29744 0.22385
#
# Static dielectric constant tensor:
#      x y z
#    x 1.967790 0.006020 -0.071890 
#    y 0.006020 1.902470 0.036300 
#    z -0.071890 0.036300 1.919460 
# 
# From -- ./inp_files/13753.got.cif
#   From: 2010.05.17/outbox.cif.g08.bks.cpg/sg2_7_cif.got.tgz:13753.got - 2010.06.03 11:33:40.
