data_PCOD9030232
_publ_section_title
;
Structure prediction by ZEFSAII (Michael W. Deem and Ramdas Pophale) SiO2 
 PCOD9030232
Probable space group: P -1
;
_chemical_formula_sum "Si O2"
_cell_formula_units_Z 16
_cell_length_a 8.659340
_cell_length_b 16.263941
_cell_length_c 10.378570
_cell_angle_alpha 34.774718
_cell_angle_beta 61.445091
_cell_angle_gamma 53.495848
_cell_volume 669.929328
_symmetry_space_group_name_H-M "P -1"
_symmetry_group_IT_number 2
_symmetry_cell_setting 'triclinic'
loop_
_space_group_symop_operation_xyz
x,y,z
-x,-y,-z
loop_
_atom_site_type_symbol
_atom_site_label
_atom_site_fract_x
_atom_site_fract_y
_atom_site_fract_z
Si Si1 0.651056 0.004299 0.038747
Si Si2 0.922532 0.476144 0.700537
Si Si3 0.753187 0.735356 0.808515
Si Si4 0.135644 0.574097 0.718840
Si Si5 0.588578 0.758677 0.560288
Si Si6 0.651586 0.319921 0.686570
Si Si7 0.922661 0.168665 0.014664
Si Si8 0.202951 0.961284 0.533904
O O1 0.656028 0.880205 0.304569
O O2 0.575292 0.183870 0.883155
O O3 0.870150 0.945729 0.975638
O O4 0.500000 0.000000 0.000000
O O5 0.700773 0.591472 0.662622
O O6 0.956082 0.295571 0.929920
O O7 0.000000 0.500000 0.500000
O O8 0.030213 0.530142 0.698046
O O9 0.645672 0.760105 0.684261
O O10 0.980999 0.657517 0.783163
O O11 0.724605 0.897140 0.680118
O O12 0.715699 0.596662 0.073128
O O13 0.219039 0.691530 0.476375
O O14 0.361019 0.818873 0.575977
O O15 0.500000 0.500000 0.500000
O O16 0.786405 0.272087 0.820886
O O17 0.819764 0.081351 0.253602
O O18 0.000000 0.000000 0.500000
#
# Coordination Sequence:
#
# PCOD9030232 Si02
#       8
#     2   2   2   2   2   2   2   2
#     4  12  27  47  75 106 143 195 248 302 369 436
#     4  11  21  44  73 106 141 190 239 300 368 422
#     4  10  22  44  71  96 140 186 237 287 363 435
#     4  10  22  42  70 102 138 187 235 298 355 432
#     4  11  25  44  73 101 139 193 244 290 367 439
#     4  12  28  42  71 111 145 186 250 301 363 431
#     4  12  25  47  75 100 153 189 242 309 361 433
#     4  12  26  44  68 105 144 189 239 303 365 435
#
# _framework density 23.883115
#
# number of rings (size 3 to 8) (size 9 to 14) (size 15 to 20)
#    0.000    0.750    2.500    4.500    7.000    0.500 
#    0.000    0.000    0.000    0.000    0.000    0.000 
#    0.000    0.000    0.000    0.000    0.000    0.000 
#
# Total GULP energy -89584.856945 kJ/mol
# GULP energy per Si atom -5599.053559 kJ/mol
# Density = 2.382876 g / cm^3
# Si number density = 23.883115 Si / 1000 Ang^3
#
#
#
# Elastic Constant Matrix: (Units=GPa)
#
#
# Indices 1 2 3 4 5 6 
#
# 1 58.3393 19.0165 13.1163 -10.6235 14.2729 -3.9179
# 2 19.0165 110.1490 13.9263 -12.8434 17.6732 -23.4277
# 3 13.1163 13.9263 119.4388 3.4439 16.1781 -5.1221
# 4 -10.6235 -12.8434 3.4439 41.9536 -3.2766 0.9501
# 5 14.2729 17.6732 16.1781 -3.2766 28.3827 -0.5427
# 6 -3.9179 -23.4277 -5.1221 0.9501 -0.5427 33.3109
#
#
#
# Elastic Compliance Matrix: (Units=1/GPa)
#
#
# Indices 1 2 3 4 5 6 
#
# 1 0.020737 -0.001371 -0.001047 0.004232 -0.008469 0.001055
# 2 -0.001371 0.012497 -0.000142 0.002790 -0.006528 0.008420
# 3 -0.001047 -0.000142 0.009247 -0.001469 -0.004803 0.001163
# 4 0.004232 0.002790 -0.001469 0.025847 -0.000015 0.001496
# 5 -0.008469 -0.006528 -0.004803 -0.000015 0.046186 -0.005573
# 6 0.001055 0.008420 0.001163 0.001496 -0.005573 0.036111
#
#
# Mechanical properties :
#
#
# Convention : Reuss Voigt Hill
#
# Bulk Modulus (GPa) = 26.76590 42.22726 34.49658
# Shear Modulus (GPa) = 29.72688 36.85398 33.29043
#
# Velocity S-wave (km/s) = 3.53183 3.93249 3.73753
# Velocity P-wave (km/s) = 5.27856 6.19181 5.75333
#
# Compressibility (1/GPa) = 0.03736097
#
# Stress axis : x y z
#
# Youngs Moduli (GPa) = 48.22347 80.02038 108.14521
#
# Poissons Ratio (x) = 0.10971 0.11323
# Poissons Ratio (y) = 0.06612 0.01532
# Poissons Ratio (z) = 0.05049 0.01133
#
# Static dielectric constant tensor:
#      x y z
#    x 1.925160 -0.048120 0.030640 
#    y -0.048120 1.905120 0.047420 
#    z 0.030640 0.047420 1.875020 
# 
# From -- ./inp_files/402653.got.cif
#   From: 2010.05.17/outbox.cif.g08.bks.cpg/sg2_202_cif.got.tgz:402653.got - 2010.06.03 11:33:40.
