data_PCOD9030247
_publ_section_title
;
Structure prediction by ZEFSAII (Michael W. Deem and Ramdas Pophale) SiO2 
 PCOD9030247
Probable space group: P -1
;
_chemical_formula_sum "Si O2"
_cell_formula_units_Z 11
_cell_length_a 11.906616
_cell_length_b 9.109444
_cell_length_c 5.440050
_cell_angle_alpha 115.628761
_cell_angle_beta 126.836534
_cell_angle_gamma 73.861112
_cell_volume 425.636640
_symmetry_space_group_name_H-M "P -1"
_symmetry_group_IT_number 2
_symmetry_cell_setting 'triclinic'
loop_
_space_group_symop_operation_xyz
x,y,z
-x,-y,-z
loop_
_atom_site_type_symbol
_atom_site_label
_atom_site_fract_x
_atom_site_fract_y
_atom_site_fract_z
Si Si1 0.056812 0.322202 0.851853
Si Si2 0.790980 0.461142 0.110501
Si Si3 0.585256 0.961749 0.329872
Si Si4 0.887577 0.122369 0.816209
Si Si5 0.500000 0.500000 0.500000
Si Si6 0.672568 0.661628 0.482513
O O1 0.114927 0.381184 0.708722
O O2 0.944572 0.187081 0.673075
O O3 0.194719 0.267853 0.151719
O O4 0.000000 0.500000 0.000000
O O5 0.721183 0.490494 0.303212
O O6 0.869025 0.289746 0.064972
O O7 0.669207 0.469409 0.753062
O O8 0.620388 0.769234 0.261315
O O9 0.500000 0.000000 0.500000
O O10 0.734962 0.045553 0.561863
O O11 0.500000 0.000000 0.000000
O O12 0.000000 0.000000 0.000000
O O13 0.539301 0.642948 0.464031
#
# Coordination Sequence:
#
# PCOD9030247 Si02
#       6
#     2   2   2   2   1   2
#     4   9  21  43  69 102 153 187 260 313 395 461
#     4  10  23  41  74 107 147 198 264 314 391 469
#     4  12  30  53  78 115 165 210 267 335 408 475
#     4  11  23  49  74 112 157 205 260 327 403 469
#     4  10  22  42  70 102 154 190 262 312 394 452
#     4  11  23  44  75 108 150 206 264 326 388 479
#
# _framework density 25.843643
#
# number of rings (size 3 to 8) (size 9 to 14) (size 15 to 20)
#    0.000    1.455    1.818    1.636    7.636    2.909 
#   13.091    1.818    0.000    0.000    0.000    0.000 
#    0.000    0.000    0.000    0.000    0.000    0.000 
#
# Total GULP energy -61324.453558 kJ/mol
# GULP energy per Si atom -5574.950323 kJ/mol
# Density = 2.578482 g / cm^3
# Si number density = 25.843643 Si / 1000 Ang^3
#
#
#
# Elastic Constant Matrix: (Units=GPa)
#
#
# Indices 1 2 3 4 5 6 
#
# 1 143.0632 65.8113 71.7048 7.2510 33.6402 30.2094
# 2 65.8113 169.0474 58.8405 -18.5429 18.9313 19.6298
# 3 71.7048 58.8405 117.2815 -36.1440 30.1118 8.6822
# 4 7.2510 -18.5429 -36.1440 29.3768 -4.1710 -0.3464
# 5 33.6402 18.9313 30.1118 -4.1710 46.7465 10.6377
# 6 30.2094 19.6298 8.6822 -0.3464 10.6377 56.1148
#
#
#
# Elastic Compliance Matrix: (Units=1/GPa)
#
#
# Indices 1 2 3 4 5 6 
#
# 1 0.025624 -0.004630 -0.024263 -0.039565 -0.002607 -0.008171
# 2 -0.004630 0.008234 0.001075 0.007672 0.000109 -0.000528
# 3 -0.024263 0.001075 0.041353 0.056739 -0.006334 0.007839
# 4 -0.039565 0.007672 0.056739 0.118138 -0.003184 0.011170
# 5 -0.002607 0.000109 -0.006334 -0.003184 0.027685 -0.002923
# 6 -0.008171 -0.000528 0.007839 0.011170 -0.002923 0.021814
#
#
# Mechanical properties :
#
#
# Convention : Reuss Voigt Hill
#
# Bulk Modulus (GPa) = 51.08187 91.34502 71.21344
# Shear Modulus (GPa) = 16.39291 41.98333 29.18812
#
# Velocity S-wave (km/s) = 2.52129 4.03490 3.36432
# Velocity P-wave (km/s) = 5.31832 7.55838 6.53505
#
# Compressibility (1/GPa) = 0.01957642
#
# Stress axis : x y z
#
# Youngs Moduli (GPa) = 39.02572 121.44209 24.18188
#
# Poissons Ratio (x) = 0.56224 0.58672
# Poissons Ratio (y) = 0.18068 -0.02599
# Poissons Ratio (z) = 0.94687 -0.13051
#
# Static dielectric constant tensor:
#      x y z
#    x 2.191280 0.038620 -0.107840 
#    y 0.038620 1.971820 -0.062500 
#    z -0.107840 -0.062500 2.110470 
# 
# From -- ./inp_files/17738.got.cif
#   From: 2010.05.17/outbox.cif.g08.bks.cpg/sg2_9_cif.got.tgz:17738.got - 2010.06.03 11:33:40.
