data_PCOD9030158
_publ_section_title
;
Structure prediction by ZEFSAII (Michael W. Deem and Ramdas Pophale) SiO2 
 PCOD9030158
Probable space group: P -1
;
_chemical_formula_sum "Si O2"
_cell_formula_units_Z 13
_cell_length_a 9.270425
_cell_length_b 15.565707
_cell_length_c 8.924397
_cell_angle_alpha 123.229452
_cell_angle_beta 131.457271
_cell_angle_gamma 35.755154
_cell_volume 563.783695
_symmetry_space_group_name_H-M "P -1"
_symmetry_group_IT_number 2
_symmetry_cell_setting 'triclinic'
loop_
_space_group_symop_operation_xyz
x,y,z
-x,-y,-z
loop_
_atom_site_type_symbol
_atom_site_label
_atom_site_fract_x
_atom_site_fract_y
_atom_site_fract_z
Si Si1 0.402614 0.644981 0.994881
Si Si2 0.259234 0.636471 0.573432
Si Si3 0.097770 0.423100 0.655701
Si Si4 0.582658 0.799865 0.886670
Si Si5 0.110290 0.128370 0.970784
Si Si6 0.832720 0.168445 0.529432
Si Si7 0.000000 0.500000 0.000000
O O1 0.576759 0.673611 0.207195
O O2 0.078851 0.787192 0.935036
O O3 0.500000 0.500000 0.000000
O O4 0.430470 0.621176 0.812567
O O5 0.500000 0.500000 0.500000
O O6 0.087282 0.785540 0.504491
O O7 0.052064 0.629314 0.482165
O O8 0.000000 0.500000 0.500000
O O9 0.008637 0.514732 0.835726
O O10 0.463983 0.756109 0.655625
O O11 0.790559 0.677871 0.036667
O O12 0.318321 0.953264 0.934619
O O13 0.711148 0.839906 0.912014
O O14 0.884520 0.206407 0.755784
O O15 0.000000 0.000000 0.500000
#
# Coordination Sequence:
#
# PCOD9030158 Si02
#       7
#     2   2   2   2   2   2   1
#     4  12  24  41  69 110 146 190 245 305 369 438
#     4  12  25  43  72 106 145 194 251 304 370 446
#     4  12  26  44  70 110 151 189 243 319 368 435
#     4  10  22  43  72 101 140 192 237 303 363 441
#     4  10  23  42  71 102 142 187 243 294 370 437
#     4  10  22  42  69  99 138 191 238 289 363 442
#     4  12  24  44  76 102 140 194 248 290 384 438
#
# _framework density 23.058489000000002
#
# number of rings (size 3 to 8) (size 9 to 14) (size 15 to 20)
#    0.000    0.923    1.538    5.538    2.154    0.000 
#    0.000    6.923    0.000    9.231    0.000    0.000 
#    0.000    0.000    0.000    0.000    0.000    0.000 
#
# Total GULP energy -72388.660792 kJ/mol
# GULP energy per Si atom -5568.358522 kJ/mol
# Density = 2.300601 g / cm^3
# Si number density = 23.058489 Si / 1000 Ang^3
#
#
#
# Elastic Constant Matrix: (Units=GPa)
#
#
# Indices 1 2 3 4 5 6 
#
# 1 114.3103 47.1864 36.9260 0.2302 3.7882 11.8741
# 2 47.1864 111.0010 8.6100 -21.5547 -2.8617 7.7525
# 3 36.9260 8.6100 101.7870 7.6621 -6.1569 5.0324
# 4 0.2302 -21.5547 7.6621 21.1399 6.6127 0.0388
# 5 3.7882 -2.8617 -6.1569 6.6127 58.4685 -1.7152
# 6 11.8741 7.7525 5.0324 0.0388 -1.7152 44.6915
#
#
#
# Elastic Compliance Matrix: (Units=1/GPa)
#
#
# Indices 1 2 3 4 5 6 
#
# 1 0.012591 -0.005805 -0.003714 -0.004376 -0.001053 -0.001957
# 2 -0.005805 0.014487 -0.000252 0.015142 -0.000683 -0.000982
# 3 -0.003714 -0.000252 0.011710 -0.005096 0.002032 -0.000206
# 4 -0.004376 0.015142 -0.005096 0.066864 -0.007110 -0.001221
# 5 -0.001053 -0.000683 0.002032 -0.007110 0.018182 0.000873
# 6 -0.001957 -0.000982 -0.000206 -0.001221 0.000873 0.023124
#
#
# Mechanical properties :
#
#
# Convention : Reuss Voigt Hill
#
# Bulk Modulus (GPa) = 51.95901 56.94925 54.45413
# Shear Modulus (GPa) = 28.91595 40.48501 34.70048
#
# Velocity S-wave (km/s) = 3.54507 4.19472 3.88350
# Velocity P-wave (km/s) = 6.27209 6.94350 6.61632
#
# Compressibility (1/GPa) = 0.01924594
#
# Stress axis : x y z
#
# Youngs Moduli (GPa) = 79.42150 69.02609 85.39781
#
# Poissons Ratio (x) = 0.40067 0.31719
# Poissons Ratio (y) = 0.46101 0.02154
# Poissons Ratio (z) = 0.29499 0.01741
#
# Static dielectric constant tensor:
#      x y z
#    x 2.001340 -0.099930 0.048470 
#    y -0.099930 1.945820 -0.039680 
#    z 0.048470 -0.039680 1.917400 
# 
# From -- ./inp_files/203842.got.cif
#   From: 2010.05.17/outbox.cif.g08.bks.cpg/sg2_102_cif.got.tgz:203842.got - 2010.06.03 11:33:40.
