data_PCOD9030795
_publ_section_title
;
Structure prediction by ZEFSAII (Michael W. Deem and Ramdas Pophale) SiO2 
 PCOD9030795
Probable space group: P -1
;
_chemical_formula_sum "Si O2"
_cell_formula_units_Z 16
_cell_length_a 12.874104
_cell_length_b 17.751074
_cell_length_c 9.420269
_cell_angle_alpha 47.436915
_cell_angle_beta 145.369954
_cell_angle_gamma 149.025018
_cell_volume 626.509807
_symmetry_space_group_name_H-M "P -1"
_symmetry_group_IT_number 2
_symmetry_cell_setting 'triclinic'
loop_
_space_group_symop_operation_xyz
x,y,z
-x,-y,-z
loop_
_atom_site_type_symbol
_atom_site_label
_atom_site_fract_x
_atom_site_fract_y
_atom_site_fract_z
Si Si1 0.334246 0.914383 0.566799
Si Si2 0.495436 0.222286 0.679203
Si Si3 0.869829 0.872210 0.179272
Si Si4 0.464805 0.595651 0.269235
Si Si5 0.191547 0.973927 0.866136
Si Si6 0.040245 0.696849 0.044087
Si Si7 0.062984 0.360220 0.694508
Si Si8 0.431750 0.305920 0.202341
O O1 0.535521 0.967765 0.848801
O O2 0.147268 0.933333 0.374547
O O3 0.130879 0.739940 0.526133
O O4 0.500000 0.000000 0.500000
O O5 0.576920 0.336985 0.743179
O O6 0.736746 0.245676 0.886558
O O7 0.432303 0.251965 0.423040
O O8 0.258934 0.063570 0.686223
O O9 0.709980 0.728400 0.281369
O O10 0.877893 0.979971 0.139466
O O11 0.690913 0.808922 0.917560
O O12 0.500000 0.500000 0.500000
O O13 0.210585 0.475372 0.040585
O O14 0.003373 0.199116 0.157288
O O15 0.113005 0.706831 0.276709
O O16 0.270705 0.534479 0.690897
O O17 0.244487 0.331610 0.956863
#
# Coordination Sequence:
#
# PCOD9030795 Si02
#       8
#     2   2   2   2   2   2   2   2
#     4  11  24  46  75 110 151 199 249 315 377 444
#     4  11  27  45  75 110 153 199 249 312 381 452
#     4  10  25  48  80 107 153 200 254 310 375 454
#     4  11  25  48  74 111 143 197 249 312 380 443
#     4  11  27  51  72 115 155 202 251 305 383 460
#     4  12  24  47  73 108 152 194 252 315 373 450
#     4  10  22  42  74 108 145 190 253 316 367 444
#     4  10  22  46  74 110 142 195 256 308 375 441
#
# _framework density 25.538309000000002
#
# number of rings (size 3 to 8) (size 9 to 14) (size 15 to 20)
#    0.000    1.250    2.500    1.500    7.000    3.000 
#    4.500    3.125    0.000    0.000    0.000    0.000 
#    0.000    0.000    0.000    0.000    0.000    0.000 
#
# Total GULP energy -89798.647236 kJ/mol
# GULP energy per Si atom -5612.415452 kJ/mol
# Density = 2.548018 g / cm^3
# Si number density = 25.538309 Si / 1000 Ang^3
#
#
#
# Elastic Constant Matrix: (Units=GPa)
#
#
# Indices 1 2 3 4 5 6 
#
# 1 167.1826 91.3593 32.9507 -7.1739 8.5697 5.3808
# 2 91.3593 154.5847 42.2217 -5.0109 3.3614 0.4752
# 3 32.9507 42.2217 69.6090 -4.1053 -21.9919 -9.3159
# 4 -7.1739 -5.0109 -4.1053 47.6972 8.4322 -3.8242
# 5 8.5697 3.3614 -21.9919 8.4322 39.3300 2.7139
# 6 5.3808 0.4752 -9.3159 -3.8242 2.7139 43.4768
#
#
#
# Elastic Compliance Matrix: (Units=1/GPa)
#
#
# Indices 1 2 3 4 5 6 
#
# 1 0.009330 -0.004642 -0.002773 0.001156 -0.003339 -0.001388
# 2 -0.004642 0.010730 -0.005266 0.000455 -0.002917 -0.000449
# 3 -0.002773 -0.005266 0.023956 -0.001084 0.014369 0.004542
# 4 0.001156 0.000455 -0.001084 0.022276 -0.005807 0.001941
# 5 -0.003339 -0.002917 0.014369 -0.005807 0.035628 0.000789
# 6 -0.001388 -0.000449 0.004542 0.001941 0.000789 0.024272
#
#
# Mechanical properties :
#
#
# Convention : Reuss Voigt Hill
#
# Bulk Modulus (GPa) = 53.60760 80.49329 67.05044
# Shear Modulus (GPa) = 31.69088 41.09044 36.39066
#
# Velocity S-wave (km/s) = 3.52648 4.01555 3.77894
# Velocity P-wave (km/s) = 6.13336 7.28606 6.73441
#
# Compressibility (1/GPa) = 0.01865407
#
# Stress axis : x y z
#
# Youngs Moduli (GPa) = 107.17562 93.19320 41.74294
#
# Poissons Ratio (x) = 0.43265 0.11577
# Poissons Ratio (y) = 0.49756 0.21980
# Poissons Ratio (z) = 0.29724 0.49072
#
# Static dielectric constant tensor:
#      x y z
#    x 1.984940 -0.023260 0.021480 
#    y -0.023260 1.991780 0.026140 
#    z 0.021480 0.026140 2.017950 
# 
# From -- ./inp_files/284782.got.cif
#   From: 2010.05.17/outbox.cif.g08.bks.cpg/sg2_143_cif.got.tgz:284782.got - 2010.06.03 11:33:40.
