data_PCOD9030817
_publ_section_title
;
Structure prediction by ZEFSAII (Michael W. Deem and Ramdas Pophale) SiO2 
 PCOD9030817
Probable space group: P -1
;
_chemical_formula_sum "Si O2"
_cell_formula_units_Z 16
_cell_length_a 16.348749
_cell_length_b 21.669952
_cell_length_c 14.105300
_cell_angle_alpha 21.238269
_cell_angle_beta 30.021364
_cell_angle_gamma 21.080536
_cell_volume 650.810977
_symmetry_space_group_name_H-M "P -1"
_symmetry_group_IT_number 2
_symmetry_cell_setting 'triclinic'
loop_
_space_group_symop_operation_xyz
x,y,z
-x,-y,-z
loop_
_atom_site_type_symbol
_atom_site_label
_atom_site_fract_x
_atom_site_fract_y
_atom_site_fract_z
Si Si1 0.849220 0.624799 0.841570
Si Si2 0.198826 0.084352 0.253224
Si Si3 0.573177 0.129555 0.400441
Si Si4 0.965945 0.901202 0.811278
Si Si5 0.853920 0.584851 0.668327
Si Si6 0.358591 0.349287 0.490108
Si Si7 0.736751 0.230882 0.918683
Si Si8 0.427503 0.718443 0.200791
O O1 0.818355 0.644969 0.729402
O O2 0.797511 0.856800 0.589074
O O3 0.652423 0.665340 0.034419
O O4 0.076803 0.350643 0.020601
O O5 0.463337 0.901021 0.276287
O O6 0.082580 0.001853 0.537707
O O7 0.147844 0.076174 0.206272
O O8 0.348345 0.182656 0.521188
O O9 0.487936 0.293465 0.342133
O O10 0.617442 0.197846 0.162514
O O11 0.773232 0.049129 0.871823
O O12 0.142144 0.622022 0.055886
O O13 0.106434 0.462157 0.563689
O O14 0.323730 0.535682 0.324298
O O15 0.661540 0.259757 0.845760
O O16 0.000000 0.000000 0.000000
O O17 0.500000 0.500000 0.500000
#
# Coordination Sequence:
#
# PCOD9030817 Si02
#       8
#     2   2   2   2   2   2   2   2
#     4  11  24  44  75 105 140 193 241 301 356 434
#     4  10  23  45  71 107 146 182 249 298 358 428
#     4  12  26  47  74 104 150 194 242 293 368 444
#     4  10  22  42  75 101 136 193 240 297 360 434
#     4  11  24  45  71 102 146 192 241 298 358 438
#     4  12  27  45  71 106 148 195 241 303 364 429
#     4  12  29  46  73 113 152 187 241 314 367 432
#     4  12  24  44  75 109 140 193 248 294 361 443
#
# _framework density 24.584710999999999
#
# number of rings (size 3 to 8) (size 9 to 14) (size 15 to 20)
#    0.000    0.750    2.500    4.125    7.000    2.500 
#    0.000    3.750    0.000    0.000    0.000    0.000 
#    0.000    0.000    0.000    0.000    0.000    0.000 
#
# Total GULP energy -89643.276998 kJ/mol
# GULP energy per Si atom -5602.704812 kJ/mol
# Density = 2.452876 g / cm^3
# Si number density = 24.584711 Si / 1000 Ang^3
#
#
#
# Elastic Constant Matrix: (Units=GPa)
#
#
# Indices 1 2 3 4 5 6 
#
# 1 88.4711 50.6282 16.8587 1.6319 23.3122 6.5596
# 2 50.6282 152.2106 39.8283 -14.9792 2.6297 20.5500
# 3 16.8587 39.8283 72.0595 -8.4807 14.7855 3.5731
# 4 1.6319 -14.9792 -8.4807 43.0772 4.9368 9.8757
# 5 23.3122 2.6297 14.7855 4.9368 32.4198 -3.3685
# 6 6.5596 20.5500 3.5731 9.8757 -3.3685 50.1860
#
#
#
# Elastic Compliance Matrix: (Units=1/GPa)
#
#
# Indices 1 2 3 4 5 6 
#
# 1 0.018112 -0.006284 0.001908 -0.000816 -0.013329 -0.000664
# 2 -0.006284 0.010637 -0.004896 0.003192 0.005041 -0.003476
# 3 0.001908 -0.004896 0.018626 0.003248 -0.010056 -0.000885
# 4 -0.000816 0.003192 0.003248 0.027345 -0.006068 -0.007220
# 5 -0.013329 0.005041 -0.010056 -0.006068 0.046017 0.004677
# 6 -0.000664 -0.003476 -0.000885 -0.007220 0.004677 0.023234
#
#
# Mechanical properties :
#
#
# Convention : Reuss Voigt Hill
#
# Bulk Modulus (GPa) = 34.68363 58.59684 46.64023
# Shear Modulus (GPa) = 29.04847 38.83165 33.94006
#
# Velocity S-wave (km/s) = 3.44112 3.97861 3.71959
# Velocity P-wave (km/s) = 5.47054 6.70762 6.12042
#
# Compressibility (1/GPa) = 0.02883205
#
# Stress axis : x y z
#
# Youngs Moduli (GPa) = 55.21158 94.00874 53.68716
#
# Poissons Ratio (x) = 0.59075 -0.10241
# Poissons Ratio (y) = 0.34695 0.26283
# Poissons Ratio (z) = -0.10532 0.46023
#
# Static dielectric constant tensor:
#      x y z
#    x 1.835690 0.071600 -0.075780 
#    y 0.071600 1.837330 0.094410 
#    z -0.075780 0.094410 1.950550 
# 
# From -- ./inp_files/539271.got.cif
#   From: 2010.05.17/outbox.cif.g08.bks.cpg/sg2_270_cif.got.tgz:539271.got - 2010.06.03 11:33:40.
