data_PCOD9030673
_publ_section_title
;
Structure prediction by ZEFSAII (Michael W. Deem and Ramdas Pophale) SiO2 
 PCOD9030673
Probable space group: P -1
;
_chemical_formula_sum "Si O2"
_cell_formula_units_Z 11
_cell_length_a 4.915098
_cell_length_b 15.186369
_cell_length_c 9.342830
_cell_angle_alpha 139.702352
_cell_angle_beta 82.733415
_cell_angle_gamma 81.246862
_cell_volume 412.440373
_symmetry_space_group_name_H-M "P -1"
_symmetry_group_IT_number 2
_symmetry_cell_setting 'triclinic'
loop_
_space_group_symop_operation_xyz
x,y,z
-x,-y,-z
loop_
_atom_site_type_symbol
_atom_site_label
_atom_site_fract_x
_atom_site_fract_y
_atom_site_fract_z
Si Si1 0.440266 0.415932 0.180778
Si Si2 0.416161 0.863862 0.027021
Si Si3 0.668329 0.091283 0.225768
Si Si4 0.000000 0.000000 0.500000
Si Si5 0.940335 0.687721 0.118808
Si Si6 0.022803 0.709102 0.458906
O O1 0.207870 0.583148 0.401492
O O2 0.443045 0.312537 0.185078
O O3 0.773008 0.401865 0.108684
O O4 0.338828 0.339136 0.958892
O O5 0.651027 0.942405 0.103237
O O6 0.235466 0.912819 0.951295
O O7 0.212573 0.924988 0.254075
O O8 0.808087 0.179227 0.424575
O O9 0.317129 0.198323 0.366938
O O10 0.114942 0.139788 0.665872
O O11 0.019652 0.641292 0.219750
#
# Coordination Sequence:
#
# PCOD9030673 Si02
#       6
#     2   2   2   1   2   2
#     4  11  25  41  70  98 142 172 238 273 344 396
#     4  10  25  46  69 106 132 187 223 293 326 421
#     4  11  26  44  72  98 145 174 234 270 358 397
#     4  10  22  42  72  96 134 172 234 274 336 386
#     4  11  23  40  67 103 134 179 224 289 330 407
#     4  12  24  45  68 101 139 188 214 289 341 417
#
# _framework density 26.670522999999999
#
# number of rings (size 3 to 8) (size 9 to 14) (size 15 to 20)
#    0.000    1.091    1.818    3.273    2.545    8.727 
#    0.000    0.000    0.000    0.000    0.000    0.000 
#    0.000    0.000    0.000    0.000    0.000    0.000 
#
# Total GULP energy -61459.837296 kJ/mol
# GULP energy per Si atom -5587.257936 kJ/mol
# Density = 2.660982 g / cm^3
# Si number density = 26.670523 Si / 1000 Ang^3
#
#
#
# Elastic Constant Matrix: (Units=GPa)
#
#
# Indices 1 2 3 4 5 6 
#
# 1 79.1602 16.4203 10.7012 -15.9717 16.3010 2.9339
# 2 16.4203 127.9609 -5.2731 7.6268 -4.4480 -0.3395
# 3 10.7012 -5.2731 34.2791 1.7288 9.6222 8.5733
# 4 -15.9717 7.6268 1.7288 47.3609 -0.5120 -8.3450
# 5 16.3010 -4.4480 9.6222 -0.5120 42.5824 -3.3845
# 6 2.9339 -0.3395 8.5733 -8.3450 -3.3845 41.7450
#
#
#
# Elastic Compliance Matrix: (Units=1/GPa)
#
#
# Indices 1 2 3 4 5 6 
#
# 1 0.016117 -0.002797 -0.004398 0.006081 -0.005353 0.000530
# 2 -0.002797 0.008452 0.002029 -0.002456 0.001423 -0.000527
# 3 -0.004398 0.002029 0.035075 -0.004635 -0.006750 -0.008351
# 4 0.006081 -0.002456 -0.004635 0.024667 -0.000814 0.005370
# 5 -0.005353 0.001423 -0.006750 -0.000814 0.027502 0.003841
# 6 0.000530 -0.000527 -0.008351 0.005370 0.003841 0.027013
#
#
# Mechanical properties :
#
#
# Convention : Reuss Voigt Hill
#
# Bulk Modulus (GPa) = 20.27891 31.67744 25.97817
# Shear Modulus (GPa) = 30.19422 40.97447 35.58434
#
# Velocity S-wave (km/s) = 3.36835 3.92384 3.65666
# Velocity P-wave (km/s) = 4.76945 5.69490 5.25260
#
# Compressibility (1/GPa) = 0.04931233
#
# Stress axis : x y z
#
# Youngs Moduli (GPa) = 62.04659 118.31774 28.51074
#
# Poissons Ratio (x) = 0.33088 0.12539
# Poissons Ratio (y) = 0.17352 -0.05785
# Poissons Ratio (z) = 0.27289 -0.24009
#
# Static dielectric constant tensor:
#      x y z
#    x 2.223570 -0.115070 -0.166170 
#    y -0.115070 2.149600 0.065790 
#    z -0.166170 0.065790 2.157240 
# 
# From -- ./inp_files/21676.got.cif
#   From: 2010.05.17/outbox.cif.g08.bks.cpg/sg2_11_cif.got.tgz:21676.got - 2010.06.03 11:33:40.
