data_PCOD9030529
_publ_section_title
;
Structure prediction by ZEFSAII (Michael W. Deem and Ramdas Pophale) SiO2 
 PCOD9030529
Probable space group: P -1
;
_chemical_formula_sum "Si O2"
_cell_formula_units_Z 16
_cell_length_a 8.955796
_cell_length_b 12.057002
_cell_length_c 15.542292
_cell_angle_alpha 49.915856
_cell_angle_beta 69.172665
_cell_angle_gamma 36.476198
_cell_volume 713.145366
_symmetry_space_group_name_H-M "P -1"
_symmetry_group_IT_number 2
_symmetry_cell_setting 'triclinic'
loop_
_space_group_symop_operation_xyz
x,y,z
-x,-y,-z
loop_
_atom_site_type_symbol
_atom_site_label
_atom_site_fract_x
_atom_site_fract_y
_atom_site_fract_z
Si Si1 0.987484 0.636644 0.122617
Si Si2 0.920887 0.005306 0.884435
Si Si3 0.531177 0.267576 0.667343
Si Si4 0.257097 0.371025 0.958437
Si Si5 0.600527 0.193887 0.192739
Si Si6 0.478776 0.514481 0.792922
Si Si7 0.737562 0.270701 0.452043
Si Si8 0.297993 0.122584 0.778016
O O1 0.285489 0.390540 0.149500
O O2 0.781491 0.672459 0.105924
O O3 0.962223 0.656488 0.220734
O O4 0.914992 0.847069 0.997411
O O5 0.755524 0.123404 0.768559
O O6 0.769742 0.223905 0.871953
O O7 0.228123 0.828381 0.894701
O O8 0.635131 0.259701 0.561335
O O9 0.272129 0.553004 0.606036
O O10 0.455722 0.157336 0.721328
O O11 0.288443 0.519934 0.861538
O O12 0.000000 0.500000 0.000000
O O13 0.514606 0.118145 0.080703
O O14 0.589994 0.297875 0.228548
O O15 0.741951 0.935951 0.273243
O O16 0.442534 0.594462 0.663343
O O17 0.000000 0.000000 0.500000
#
# Coordination Sequence:
#
# PCOD9030529 Si02
#       8
#     2   2   2   2   2   2   2   2
#     4  12  23  39  61  94 133 173 214 253 320 380
#     4  11  22  41  63  90 132 172 211 264 314 380
#     4  10  23  43  70  97 122 163 219 270 321 371
#     4  12  23  40  65  96 131 172 212 263 320 378
#     4  12  27  38  60  94 139 177 211 251 313 395
#     4  11  25  43  65  95 130 173 216 260 321 382
#     4  10  22  42  71  97 120 160 219 277 318 367
#     4  12  25  41  63  95 136 170 208 265 318 382
#
# _framework density 22.435817
#
# number of rings (size 3 to 8) (size 9 to 14) (size 15 to 20)
#    0.000    0.750    3.750    4.500    3.500    2.000 
#    0.000    0.625    0.000   17.250    0.000    0.000 
#    0.000    0.000    0.000    0.000    0.000    0.000 
#
# Total GULP energy -89344.767739 kJ/mol
# GULP energy per Si atom -5584.047984 kJ/mol
# Density = 2.238475 g / cm^3
# Si number density = 22.435817 Si / 1000 Ang^3
#
#
#
# Elastic Constant Matrix: (Units=GPa)
#
#
# Indices 1 2 3 4 5 6 
#
# 1 122.8217 25.7653 20.5310 12.0026 -18.3138 35.8999
# 2 25.7653 147.0785 10.2019 13.8212 0.2235 20.0596
# 3 20.5310 10.2019 62.2704 12.5828 -14.4387 11.4423
# 4 12.0026 13.8212 12.5828 29.9645 1.3821 1.6825
# 5 -18.3138 0.2235 -14.4387 1.3821 13.8386 -2.8266
# 6 35.8999 20.0596 11.4423 1.6825 -2.8266 54.9035
#
#
#
# Elastic Compliance Matrix: (Units=1/GPa)
#
#
# Indices 1 2 3 4 5 6 
#
# 1 0.014024 -0.000932 0.003379 -0.007119 0.021129 -0.008227
# 2 -0.000932 0.007533 -0.000464 -0.002699 -0.001991 -0.002066
# 3 0.003379 -0.000464 0.026104 -0.013269 0.031930 -0.005429
# 4 -0.007119 -0.002699 -0.013269 0.043941 -0.026446 0.005698
# 5 0.021129 -0.001991 0.031930 -0.026446 0.133751 -0.012047
# 6 -0.008227 -0.002066 -0.005429 0.005698 -0.012047 0.024685
#
#
# Mechanical properties :
#
#
# Convention : Reuss Voigt Hill
#
# Bulk Modulus (GPa) = 19.37007 49.46298 34.41653
# Shear Modulus (GPa) = 18.99115 38.11950 28.55533
#
# Velocity S-wave (km/s) = 2.91256 4.12642 3.57144
# Velocity P-wave (km/s) = 4.46800 6.69309 5.69036
#
# Compressibility (1/GPa) = 0.05162603
#
# Stress axis : x y z
#
# Youngs Moduli (GPa) = 71.30804 132.75042 38.30876
#
# Poissons Ratio (x) = 0.12373 -0.12943
# Poissons Ratio (y) = 0.06646 0.01776
# Poissons Ratio (z) = -0.24092 0.06154
#
# Static dielectric constant tensor:
#      x y z
#    x 1.873850 0.012500 0.032620 
#    y 0.012500 1.900590 0.012490 
#    z 0.032620 0.012490 1.694910 
# 
# From -- ./inp_files/500018.got.cif
#   From: 2010.05.17/outbox.cif.g08.bks.cpg/sg2_251_cif.got.tgz:500018.got - 2010.06.03 11:33:40.
