data_PCOD9030224
_publ_section_title
;
Structure prediction by ZEFSAII (Michael W. Deem and Ramdas Pophale) SiO2 
 PCOD9030224
Probable space group: P -1
;
_chemical_formula_sum "Si O2"
_cell_formula_units_Z 14
_cell_length_a 7.906797
_cell_length_b 16.265231
_cell_length_c 22.445177
_cell_angle_alpha 158.302249
_cell_angle_beta 134.784079
_cell_angle_gamma 35.945575
_cell_volume 611.094472
_symmetry_space_group_name_H-M "P -1"
_symmetry_group_IT_number 2
_symmetry_cell_setting 'triclinic'
loop_
_space_group_symop_operation_xyz
x,y,z
-x,-y,-z
loop_
_atom_site_type_symbol
_atom_site_label
_atom_site_fract_x
_atom_site_fract_y
_atom_site_fract_z
Si Si1 0.590523 0.924587 0.707462
Si Si2 0.649649 0.004035 0.639250
Si Si3 0.744636 0.742673 0.848427
Si Si4 0.247144 0.456294 0.404221
Si Si5 0.042759 0.651729 0.166717
Si Si6 0.591264 0.436029 0.092263
Si Si7 0.019869 0.239941 0.645535
O O1 0.661938 0.904592 0.642438
O O2 0.774288 0.664790 0.620665
O O3 0.247323 0.037153 0.704585
O O4 0.611251 0.169067 0.898505
O O5 0.941280 0.748602 0.509810
O O6 0.593533 0.300619 0.821106
O O7 0.340755 0.086612 0.592462
O O8 0.672646 0.764924 0.776101
O O9 0.073902 0.664190 0.884339
O O10 0.773463 0.475287 0.700393
O O11 0.500000 0.000000 0.000000
O O12 0.500000 0.500000 0.500000
O O13 0.371822 0.564353 0.181353
O O14 0.001603 0.601772 0.191718
O O15 0.000000 0.500000 0.000000
O O16 0.000000 0.000000 0.500000
#
# Coordination Sequence:
#
# PCOD9030224 Si02
#       7
#     2   2   2   2   2   2   2
#     4  10  22  42  70 102 134 175 215 273 338 396
#     4  10  23  42  67 102 131 170 225 272 335 389
#     4  11  29  46  63  97 137 179 223 274 336 388
#     4  12  28  44  67  98 141 177 218 277 336 399
#     4   9  20  39  68  99 128 168 222 262 326 392
#     4  10  22  42  72  95 133 172 227 272 323 392
#     4  10  24  42  71  95 132 172 220 279 327 390
#
# _framework density 22.909714999999998
#
# number of rings (size 3 to 8) (size 9 to 14) (size 15 to 20)
#    0.000    1.714    0.000    1.714   14.000    4.000 
#    0.000    0.000    0.000    0.000    0.000    0.000 
#    0.000    0.000    0.000    0.000    0.000    0.000 
#
# Total GULP energy -78112.037939 kJ/mol
# GULP energy per Si atom -5579.431281 kJ/mol
# Density = 2.285757 g / cm^3
# Si number density = 22.909715 Si / 1000 Ang^3
#
#
#
# Elastic Constant Matrix: (Units=GPa)
#
#
# Indices 1 2 3 4 5 6 
#
# 1 88.5550 29.0201 31.2674 12.1018 -12.2752 -15.1442
# 2 29.0201 71.8330 30.2155 15.6966 -11.4714 -5.7860
# 3 31.2674 30.2155 87.1602 14.7185 -3.0275 -15.7387
# 4 12.1018 15.6966 14.7185 33.4957 7.4488 -5.5228
# 5 -12.2752 -11.4714 -3.0275 7.4488 45.2094 9.0810
# 6 -15.1442 -5.7860 -15.7387 -5.5228 9.0810 48.2119
#
#
#
# Elastic Compliance Matrix: (Units=1/GPa)
#
#
# Indices 1 2 3 4 5 6 
#
# 1 0.014659 -0.003399 -0.003122 -0.002582 0.002864 0.002342
# 2 -0.003399 0.019498 -0.004461 -0.007482 0.005371 -0.002052
# 3 -0.003122 -0.004461 0.015145 -0.002614 -0.001209 0.003356
# 4 -0.002582 -0.007482 -0.002614 0.038228 -0.009809 0.003664
# 5 0.002864 0.005371 -0.001209 -0.009809 0.026804 -0.005023
# 6 0.002342 -0.002052 0.003356 0.003664 -0.005023 0.023693
#
#
# Mechanical properties :
#
#
# Convention : Reuss Voigt Hill
#
# Bulk Modulus (GPa) = 36.57753 47.61713 42.09733
# Shear Modulus (GPa) = 29.56801 35.85308 32.71054
#
# Velocity S-wave (km/s) = 3.59643 3.96027 3.78273
# Velocity P-wave (km/s) = 5.76597 6.46076 6.12323
#
# Compressibility (1/GPa) = 0.02733919
#
# Stress axis : x y z
#
# Youngs Moduli (GPa) = 68.21778 51.28794 66.02838
#
# Poissons Ratio (x) = 0.17431 0.20614
# Poissons Ratio (y) = 0.23185 0.29453
# Poissons Ratio (z) = 0.21297 0.22878
#
# Static dielectric constant tensor:
#      x y z
#    x 1.908040 -0.003240 0.014670 
#    y -0.003240 1.887510 -0.031570 
#    z 0.014670 -0.031570 1.885640 
# 
# From -- ./inp_files/608472.got.cif
#   From: 2010.05.17/outbox.cif.g08.bks.cpg/sg2_305_cif.got.tgz:608472.got - 2010.06.03 11:33:40.
