data_PCOD9030066
_publ_section_title
;
Structure prediction by ZEFSAII (Michael W. Deem and Ramdas Pophale) SiO2 
 PCOD9030066
Probable space group: P -1
;
_chemical_formula_sum "Si O2"
_cell_formula_units_Z 14
_cell_length_a 7.970946
_cell_length_b 8.870157
_cell_length_c 13.123904
_cell_angle_alpha 105.284131
_cell_angle_beta 71.510951
_cell_angle_gamma 129.572702
_cell_volume 675.917052
_symmetry_space_group_name_H-M "P -1"
_symmetry_group_IT_number 2
_symmetry_cell_setting 'triclinic'
loop_
_space_group_symop_operation_xyz
x,y,z
-x,-y,-z
loop_
_atom_site_type_symbol
_atom_site_label
_atom_site_fract_x
_atom_site_fract_y
_atom_site_fract_z
Si Si1 0.511083 0.297121 0.809514
Si Si2 0.505709 0.823916 0.430375
Si Si3 0.991103 0.685867 0.806750
Si Si4 0.942306 0.867438 0.389777
Si Si5 0.980206 0.935042 0.178847
Si Si6 0.133135 0.517972 0.579037
Si Si7 0.690927 0.036532 0.041675
O O1 0.580475 0.245932 0.681180
O O2 0.728510 0.509953 0.838940
O O3 0.275182 0.259722 0.826738
O O4 0.437463 0.137571 0.881974
O O5 0.739322 0.863653 0.387609
O O6 0.379828 0.661164 0.513170
O O7 0.500000 0.000000 0.500000
O O8 0.085600 0.617276 0.693101
O O9 0.147960 0.761512 0.889472
O O10 0.019057 0.876298 0.792816
O O11 0.076795 0.930460 0.268728
O O12 0.910299 0.676667 0.404142
O O13 0.000000 0.000000 0.500000
O O14 0.138149 0.966385 0.062696
O O15 0.000000 0.500000 0.500000
O O16 0.500000 0.000000 0.000000
#
# Coordination Sequence:
#
# PCOD9030066 Si02
#       7
#     2   2   2   2   2   2   2
#     4  10  22  42  69  95 129 180 229 270 342 400
#     4  11  22  41  68  96 137 177 224 281 343 400
#     4  11  23  44  72  96 134 182 228 278 344 404
#     4  11  25  41  66  98 138 176 221 280 342 404
#     4  10  24  46  67  95 137 176 230 280 342 408
#     4  12  23  41  66 101 136 175 227 272 338 412
#     4  11  26  44  66 101 137 172 225 286 345 407
#
# _framework density 20.712599999999998
#
# number of rings (size 3 to 8) (size 9 to 14) (size 15 to 20)
#    0.000    1.143    1.429    6.429    2.000    4.000 
#    5.143    0.000    0.000    0.000    0.000    0.000 
#    0.000    0.000    0.000    0.000    0.000    0.000 
#
# Total GULP energy -78053.026025 kJ/mol
# GULP energy per Si atom -5575.216145 kJ/mol
# Density = 2.066546 g / cm^3
# Si number density = 20.712600 Si / 1000 Ang^3
#
#
#
# Elastic Constant Matrix: (Units=GPa)
#
#
# Indices 1 2 3 4 5 6 
#
# 1 76.9427 40.3932 53.3561 8.0640 16.3928 0.7164
# 2 40.3932 108.1896 72.1685 2.2220 9.5575 9.9803
# 3 53.3561 72.1685 162.4134 3.5868 8.4456 -9.4947
# 4 8.0640 2.2220 3.5868 33.0780 2.4719 -4.1426
# 5 16.3928 9.5575 8.4456 2.4719 44.1289 1.0986
# 6 0.7164 9.9803 -9.4947 -4.1426 1.0986 38.8993
#
#
#
# Elastic Compliance Matrix: (Units=1/GPa)
#
#
# Indices 1 2 3 4 5 6 
#
# 1 0.019590 -0.003713 -0.004466 -0.003732 -0.005391 -0.000744
# 2 -0.003713 0.014961 -0.005694 -0.000080 -0.000638 -0.005150
# 3 -0.004466 -0.005694 0.010338 0.000810 0.000766 0.004131
# 4 -0.003732 -0.000080 0.000810 0.031564 -0.000611 0.003666
# 5 -0.005391 -0.000638 0.000766 -0.000611 0.024697 -0.000313
# 6 -0.000744 -0.005150 0.004131 0.003666 -0.000313 0.028450
#
#
# Mechanical properties :
#
#
# Convention : Reuss Voigt Hill
#
# Bulk Modulus (GPa) = 58.33759 75.48682 66.91221
# Shear Modulus (GPa) = 30.66333 35.32977 32.99655
#
# Velocity S-wave (km/s) = 3.85180 4.13451 3.99565
# Velocity P-wave (km/s) = 6.92879 7.70170 7.32545
#
# Compressibility (1/GPa) = 0.01714161
#
# Stress axis : x y z
#
# Youngs Moduli (GPa) = 51.04692 66.84128 96.72640
#
# Poissons Ratio (x) = 0.24819 0.43202
# Poissons Ratio (y) = 0.18955 0.55077
# Poissons Ratio (z) = 0.22800 0.38060
#
# Static dielectric constant tensor:
#      x y z
#    x 1.753190 0.097220 0.035140 
#    y 0.097220 1.778890 -0.043310 
#    z 0.035140 -0.043310 1.967000 
# 
# From -- ./inp_files/225707.got.cif
#   From: 2010.05.17/outbox.cif.g08.bks.cpg/sg2_113_cif.got.tgz:225707.got - 2010.06.03 11:33:40.
