data_PCOD9030933
_publ_section_title
;
Structure prediction by ZEFSAII (Michael W. Deem and Ramdas Pophale) SiO2 
 PCOD9030933
Probable space group: P -1
;
_chemical_formula_sum "Si O2"
_cell_formula_units_Z 16
_cell_length_a 16.873016
_cell_length_b 8.977705
_cell_length_c 11.696736
_cell_angle_alpha 142.694209
_cell_angle_beta 139.291437
_cell_angle_gamma 40.000293
_cell_volume 637.988301
_symmetry_space_group_name_H-M "P -1"
_symmetry_group_IT_number 2
_symmetry_cell_setting 'triclinic'
loop_
_space_group_symop_operation_xyz
x,y,z
-x,-y,-z
loop_
_atom_site_type_symbol
_atom_site_label
_atom_site_fract_x
_atom_site_fract_y
_atom_site_fract_z
Si Si1 0.883862 0.451836 0.777759
Si Si2 0.195461 0.642416 0.712626
Si Si3 0.055125 0.351248 0.275456
Si Si4 0.248044 0.841912 0.662647
Si Si5 0.802595 0.262217 0.971526
Si Si6 0.462346 0.527671 0.308959
Si Si7 0.634461 0.837844 0.882122
Si Si8 0.453451 0.082102 0.633053
O O1 0.886913 0.574691 0.731211
O O2 0.861438 0.177482 0.556664
O O3 0.757352 0.618440 0.817160
O O4 0.000000 0.500000 0.000000
O O5 0.079690 0.538760 0.509648
O O6 0.190044 0.834283 0.719729
O O7 0.183688 0.781410 0.904930
O O8 0.332691 0.372993 0.685521
O O9 0.903010 0.393060 0.122680
O O10 0.139514 0.035660 0.201160
O O11 0.385220 0.578381 0.628733
O O12 0.310226 0.058105 0.884529
O O13 0.648848 0.444894 0.890300
O O14 0.450884 0.318229 0.258496
O O15 0.415074 0.838659 0.481002
O O16 0.560104 0.058255 0.835721
O O17 0.500000 0.000000 0.500000
#
# Coordination Sequence:
#
# PCOD9030933 Si02
#       8
#     2   2   2   2   2   2   2   2
#     4  11  24  45  69  93 132 177 225 275 336 402
#     4  11  22  40  68  99 128 176 227 272 333 397
#     4  10  22  43  62  96 132 171 227 280 324 394
#     4  11  25  42  70  98 135 174 226 275 336 404
#     4  11  23  39  67  94 134 174 219 278 335 391
#     4  12  24  44  65 103 139 174 223 275 338 400
#     4  12  26  44  68  98 140 178 218 278 337 399
#     4  12  23  42  71  99 136 182 222 277 335 397
#
# _framework density 25.078828999999999
#
# number of rings (size 3 to 8) (size 9 to 14) (size 15 to 20)
#    0.000    0.750    3.750    4.125    1.750    1.500 
#    0.000    1.250    0.000    0.000    0.000    0.000 
#    0.000    0.000    0.000    0.000    0.000    0.000 
#
# Total GULP energy -89395.986005 kJ/mol
# GULP energy per Si atom -5587.249125 kJ/mol
# Density = 2.502175 g / cm^3
# Si number density = 25.078829 Si / 1000 Ang^3
#
#
#
# Elastic Constant Matrix: (Units=GPa)
#
#
# Indices 1 2 3 4 5 6 
#
# 1 73.5533 1.1725 6.2188 -10.6444 16.8129 -9.1296
# 2 1.1725 45.6102 29.3113 -8.2135 0.4529 2.7711
# 3 6.2188 29.3113 139.9110 -21.4388 23.8223 -2.8437
# 4 -10.6444 -8.2135 -21.4388 30.4800 6.5326 -1.8239
# 5 16.8129 0.4529 23.8223 6.5326 26.3351 7.5633
# 6 -9.1296 2.7711 -2.8437 -1.8239 7.5633 25.6042
#
#
#
# Elastic Compliance Matrix: (Units=1/GPa)
#
#
# Indices 1 2 3 4 5 6 
#
# 1 0.032126 -0.005146 0.013496 0.031680 -0.049189 0.030298
# 2 -0.005146 0.027539 -0.009061 -0.004648 0.015219 -0.010649
# 3 0.013496 -0.009061 0.019234 0.025233 -0.038148 0.020995
# 4 0.031680 -0.004648 0.025233 0.078905 -0.074687 0.042285
# 5 -0.049189 0.015219 -0.038148 -0.074687 0.142492 -0.070835
# 6 0.030298 -0.010649 0.020995 0.042285 -0.070835 0.077280
#
#
# Mechanical properties :
#
#
# Convention : Reuss Voigt Hill
#
# Bulk Modulus (GPa) = 12.90720 36.94220 24.92470
# Shear Modulus (GPa) = 12.35108 31.30863 21.82986
#
# Velocity S-wave (km/s) = 2.22162 3.53712 2.95354
# Velocity P-wave (km/s) = 3.42617 5.60749 4.64664
#
# Compressibility (1/GPa) = 0.07747617
#
# Stress axis : x y z
#
# Youngs Moduli (GPa) = 31.12791 36.31234 51.99061
#
# Poissons Ratio (x) = 0.18687 -0.70165
# Poissons Ratio (y) = 0.16019 0.47107
# Poissons Ratio (z) = -0.42009 0.32901
#
# Static dielectric constant tensor:
#      x y z
#    x 1.928080 0.022630 0.014910 
#    y 0.022630 2.001200 -0.024890 
#    z 0.014910 -0.024890 2.092740 
# 
# From -- ./inp_files/398582.got.cif
#   From: 2010.05.17/outbox.cif.g08.bks.cpg/sg2_200_cif.got.tgz:398582.got - 2010.06.03 11:33:40.
