data_PCOD9030706
_publ_section_title
;
Structure prediction by ZEFSAII (Michael W. Deem and Ramdas Pophale) SiO2 
 PCOD9030706
Probable space group: P -1
;
_chemical_formula_sum "Si O2"
_cell_formula_units_Z 12
_cell_length_a 11.615478
_cell_length_b 8.293421
_cell_length_c 10.423898
_cell_angle_alpha 57.017647
_cell_angle_beta 129.272457
_cell_angle_gamma 139.882921
_cell_volume 497.220818
_symmetry_space_group_name_H-M "P -1"
_symmetry_group_IT_number 2
_symmetry_cell_setting 'triclinic'
loop_
_space_group_symop_operation_xyz
x,y,z
-x,-y,-z
loop_
_atom_site_type_symbol
_atom_site_label
_atom_site_fract_x
_atom_site_fract_y
_atom_site_fract_z
Si Si1 0.441007 0.353597 0.707273
Si Si2 0.970130 0.269960 0.748296
Si Si3 0.192369 0.145267 0.388620
Si Si4 0.411243 0.965536 0.310721
Si Si5 0.590738 0.382072 0.056957
Si Si6 0.162299 0.433992 0.417070
O O1 0.320047 0.162380 0.587151
O O2 0.643775 0.617830 0.687366
O O3 0.298570 0.417223 0.611050
O O4 0.483872 0.260548 0.899195
O O5 0.782513 0.065811 0.793444
O O6 0.950966 0.487156 0.630156
O O7 0.179472 0.400994 0.895061
O O8 0.929506 0.112086 0.661763
O O9 0.067552 0.204742 0.349862
O O10 0.315034 0.682393 0.329045
O O11 0.500000 0.000000 0.500000
O O12 0.552466 0.180625 0.217937
O O13 0.500000 0.500000 0.000000
#
# Coordination Sequence:
#
# PCOD9030706 Si02
#       6
#     2   2   2   2   2   2
#     4   9  20  40  71 101 142 177 237 287 348 411
#     4  10  23  42  80  98 135 190 236 279 354 419
#     4   9  18  40  76  99 138 187 234 279 354 417
#     4  10  22  42  72  99 140 187 230 283 350 419
#     4  12  25  42  71 111 138 182 235 295 351 410
#     4   8  19  40  73  99 132 191 233 274 343 432
#
# _framework density 24.134146000000001
#
# number of rings (size 3 to 8) (size 9 to 14) (size 15 to 20)
#    2.000    0.333    0.000    3.000    0.000    3.333 
#    0.000    2.500   11.000    2.000    0.000    0.000 
#    0.000    0.000    0.000    0.000    0.000    0.000 
#
# Total GULP energy -66933.370615 kJ/mol
# GULP energy per Si atom -5577.780885 kJ/mol
# Density = 2.407922 g / cm^3
# Si number density = 24.134146 Si / 1000 Ang^3
#
#
#
# Elastic Constant Matrix: (Units=GPa)
#
#
# Indices 1 2 3 4 5 6 
#
# 1 108.8114 39.1669 11.8500 10.1139 13.9222 -12.2094
# 2 39.1669 43.9601 4.3018 11.6166 -1.0510 -36.3717
# 3 11.8500 4.3018 101.4962 9.6262 3.2867 -13.1607
# 4 10.1139 11.6166 9.6262 33.4275 4.7343 -7.7701
# 5 13.9222 -1.0510 3.2867 4.7343 26.9093 0.9657
# 6 -12.2094 -36.3717 -13.1607 -7.7701 0.9657 41.6257
#
#
#
# Elastic Compliance Matrix: (Units=1/GPa)
#
#
# Indices 1 2 3 4 5 6 
#
# 1 0.044909 -0.118276 -0.012493 0.013564 -0.025449 -0.091002
# 2 -0.118276 0.404842 0.040907 -0.052012 0.069653 0.320659
# 3 -0.012493 0.040907 0.014634 -0.007365 0.006307 0.035185
# 4 0.013564 -0.052012 -0.007365 0.039576 -0.013817 -0.036089
# 5 -0.025449 0.069653 0.006307 -0.013817 0.052859 0.051585
# 6 -0.091002 0.320659 0.035185 -0.036089 0.051585 0.280708
#
#
# Mechanical properties :
#
#
# Convention : Reuss Voigt Hill
#
# Bulk Modulus (GPa) = 3.51295 40.54501 22.02898
# Shear Modulus (GPa) = 4.49585 33.65576 19.07581
#
# Velocity S-wave (km/s) = 1.36635 3.73839 2.81447
# Velocity P-wave (km/s) = 1.98695 5.95570 4.43950
#
# Compressibility (1/GPa) = 0.28466079
#
# Stress axis : x y z
#
# Youngs Moduli (GPa) = 22.26736 2.47010 68.33425
#
# Poissons Ratio (x) = 0.29215 0.85367
# Poissons Ratio (y) = 2.63369 -2.79533
# Poissons Ratio (z) = 0.27818 -0.10104
#
# Static dielectric constant tensor:
#      x y z
#    x 2.033780 -0.024920 -0.068480 
#    y -0.024920 1.923410 -0.016990 
#    z -0.068480 -0.016990 1.926610 
# 
# From -- ./inp_files/194139.got.cif
#   From: 2010.05.17/outbox.cif.g08.bks.cpg/sg2_98_cif.got.tgz:194139.got - 2010.06.03 11:33:40.
