data_PCOD9030788
_publ_section_title
;
Structure prediction by ZEFSAII (Michael W. Deem and Ramdas Pophale) SiO2 
 PCOD9030788
Probable space group: P -1
;
_chemical_formula_sum "Si O2"
_cell_formula_units_Z 15
_cell_length_a 7.365651
_cell_length_b 8.911018
_cell_length_c 15.501892
_cell_angle_alpha 143.130336
_cell_angle_beta 67.444623
_cell_angle_gamma 113.681461
_cell_volume 555.474023
_symmetry_space_group_name_H-M "P -1"
_symmetry_group_IT_number 2
_symmetry_cell_setting 'triclinic'
loop_
_space_group_symop_operation_xyz
x,y,z
-x,-y,-z
loop_
_atom_site_type_symbol
_atom_site_label
_atom_site_fract_x
_atom_site_fract_y
_atom_site_fract_z
Si Si1 0.548730 0.136697 0.842761
Si Si2 0.054162 0.434089 0.257734
Si Si3 0.376214 0.175634 0.156068
Si Si4 0.076046 0.088893 0.736841
Si Si5 0.152132 0.332728 0.009661
Si Si6 0.000000 0.500000 0.500000
Si Si7 0.600213 0.745058 0.368275
Si Si8 0.764583 0.046639 0.617671
O O1 0.326131 0.168094 0.924365
O O2 0.554833 0.016742 0.691925
O O3 0.634972 0.949743 0.805980
O O4 0.699254 0.405455 0.926144
O O5 0.174355 0.212066 0.163079
O O6 0.956029 0.485093 0.391119
O O7 0.196785 0.700920 0.330910
O O8 0.007606 0.357066 0.129044
O O9 0.476221 0.470902 0.283005
O O10 0.500000 0.000000 0.000000
O O11 0.036348 0.219287 0.893936
O O12 0.277205 0.259631 0.743339
O O13 0.923097 0.074336 0.678283
O O14 0.092565 0.797550 0.613044
O O15 0.500000 0.000000 0.500000
O O16 0.757477 0.808882 0.447705
#
# Coordination Sequence:
#
# PCOD9030788 Si02
#       8
#     2   2   2   2   2   1   2   2
#     4  10  22  42  74 106 146 187 247 310 372 441
#     4  11  24  46  73 108 151 193 249 316 377 439
#     4  12  23  43  75 115 145 189 257 320 368 448
#     4  12  26  45  71 105 148 205 250 303 382 450
#     4  10  23  45  72 107 150 194 245 304 386 447
#     4  12  26  46  72 102 154 194 258 314 364 458
#     4  12  24  44  76 106 150 201 252 309 383 442
#     4  11  24  45  73 104 152 198 244 303 380 460
#
# _framework density 27.003964
#
# number of rings (size 3 to 8) (size 9 to 14) (size 15 to 20)
#    0.000    0.800    4.000    2.800    1.867    4.267 
#    0.000    2.667    0.000    0.000    0.000    0.000 
#    0.000    0.000    0.000    0.000    0.000    0.000 
#
# Total GULP energy -83550.114533 kJ/mol
# GULP energy per Si atom -5570.007636 kJ/mol
# Density = 2.694250 g / cm^3
# Si number density = 27.003964 Si / 1000 Ang^3
#
#
#
# Elastic Constant Matrix: (Units=GPa)
#
#
# Indices 1 2 3 4 5 6 
#
# 1 65.9219 34.9058 21.6338 -1.7071 11.9404 -22.8390
# 2 34.9058 195.9972 50.1649 -17.7679 1.8100 -36.7680
# 3 21.6338 50.1649 158.4529 -30.0744 17.9324 -1.9319
# 4 -1.7071 -17.7679 -30.0744 60.8484 -8.2323 -4.4183
# 5 11.9404 1.8100 17.9324 -8.2323 33.7764 -9.5477
# 6 -22.8390 -36.7680 -1.9319 -4.4183 -9.5477 29.9235
#
#
#
# Elastic Compliance Matrix: (Units=1/GPa)
#
#
# Indices 1 2 3 4 5 6 
#
# 1 0.021892 -0.000325 -0.002438 0.000173 -0.001991 0.015542
# 2 -0.000325 0.008151 -0.002443 0.002665 0.004894 0.011565
# 3 -0.002438 -0.002443 0.008288 0.002335 -0.004357 -0.005374
# 4 0.000173 0.002665 0.002335 0.019747 0.005715 0.008297
# 5 -0.001991 0.004894 -0.004357 0.005715 0.038671 0.017395
# 6 0.015542 0.011565 -0.005374 0.008297 0.017395 0.065920
#
#
# Mechanical properties :
#
#
# Convention : Reuss Voigt Hill
#
# Bulk Modulus (GPa) = 35.81896 70.42011 53.11953
# Shear Modulus (GPa) = 27.41404 45.82083 36.61744
#
# Velocity S-wave (km/s) = 3.18965 4.12371 3.68639
# Velocity P-wave (km/s) = 5.18250 6.98625 6.15085
#
# Compressibility (1/GPa) = 0.02791818
#
# Stress axis : x y z
#
# Youngs Moduli (GPa) = 45.67967 122.67963 120.65327
#
# Poissons Ratio (x) = 0.03987 0.29418
# Poissons Ratio (y) = 0.01484 0.29478
# Poissons Ratio (z) = 0.11138 0.29974
#
# Static dielectric constant tensor:
#      x y z
#    x 2.315180 0.016350 -0.053450 
#    y 0.016350 2.132580 -0.094700 
#    z -0.053450 -0.094700 2.194260 
# 
# From -- ./inp_files/495823.got.cif
#   From: 2010.05.17/outbox.cif.g08.bks.cpg/sg2_248_cif.got.tgz:495823.got - 2010.06.03 11:33:40.
