data_PCOD9030811
_publ_section_title
;
Structure prediction by ZEFSAII (Michael W. Deem and Ramdas Pophale) SiO2 
 PCOD9030811
Probable space group: P -1
;
_chemical_formula_sum "Si O2"
_cell_formula_units_Z 15
_cell_length_a 18.649281
_cell_length_b 6.247791
_cell_length_c 7.903835
_cell_angle_alpha 118.660803
_cell_angle_beta 61.102759
_cell_angle_gamma 101.006186
_cell_volume 706.473581
_symmetry_space_group_name_H-M "P -1"
_symmetry_group_IT_number 2
_symmetry_cell_setting 'triclinic'
loop_
_space_group_symop_operation_xyz
x,y,z
-x,-y,-z
loop_
_atom_site_type_symbol
_atom_site_label
_atom_site_fract_x
_atom_site_fract_y
_atom_site_fract_z
Si Si1 0.861052 0.138343 0.543385
Si Si2 0.928810 0.599872 0.242034
Si Si3 0.627756 0.109507 0.300611
Si Si4 0.290743 0.065501 0.206884
Si Si5 0.523952 0.674176 0.299041
Si Si6 0.233390 0.609353 0.562716
Si Si7 0.438541 0.829769 0.100688
Si Si8 0.000000 0.500000 0.500000
O O1 0.807541 0.230834 0.479901
O O2 0.922740 0.342776 0.598101
O O3 0.914088 0.890161 0.345098
O O4 0.796139 0.057467 0.726637
O O5 0.841705 0.476454 0.267806
O O6 0.953189 0.540276 0.385136
O O7 0.000000 0.500000 0.000000
O O8 0.547562 0.297316 0.468757
O O9 0.700229 0.238394 0.360371
O O10 0.593046 0.864432 0.328618
O O11 0.661442 0.020394 0.047643
O O12 0.275445 0.356768 0.345836
O O13 0.350065 0.969327 0.254323
O O14 0.475009 0.761470 0.216001
O O15 0.563505 0.415032 0.101455
O O16 0.500000 0.000000 0.000000
#
# Coordination Sequence:
#
# PCOD9030811 Si02
#       8
#     2   2   2   2   2   2   2   1
#     4  10  23  46  66  98 133 172 216 271 329 397
#     4  10  23  45  70 104 132 177 216 271 339 400
#     4  11  23  43  63  95 130 172 222 274 330 397
#     4  11  24  41  66  93 131 177 221 272 341 389
#     4  10  24  41  61  95 129 168 229 278 331 393
#     4  10  24  46  63  96 139 170 220 276 327 401
#     4  11  21  42  66  88 130 176 216 284 334 388
#     4  10  22  42  74  98 136 168 218 270 324 408
#
# _framework density 21.232216999999999
#
# number of rings (size 3 to 8) (size 9 to 14) (size 15 to 20)
#    0.000    1.600    1.333    2.000    5.600    2.667 
#   16.800    0.000    0.000    0.000    0.000    0.000 
#    0.000    0.000    0.000    0.000    0.000    0.000 
#
# Total GULP energy -83570.431961 kJ/mol
# GULP energy per Si atom -5571.362131 kJ/mol
# Density = 2.118389 g / cm^3
# Si number density = 21.232217 Si / 1000 Ang^3
#
#
#
# Elastic Constant Matrix: (Units=GPa)
#
#
# Indices 1 2 3 4 5 6 
#
# 1 124.9176 52.5355 37.7935 7.9427 -5.5357 28.2011
# 2 52.5355 66.1423 45.3122 14.5668 -0.4946 3.1133
# 3 37.7935 45.3122 122.9071 5.0613 -18.0959 -5.6828
# 4 7.9427 14.5668 5.0613 24.6739 1.1532 -6.7378
# 5 -5.5357 -0.4946 -18.0959 1.1532 28.5138 3.5013
# 6 28.2011 3.1133 -5.6828 -6.7378 3.5013 50.1694
#
#
#
# Elastic Compliance Matrix: (Units=1/GPa)
#
#
# Indices 1 2 3 4 5 6 
#
# 1 0.014666 -0.010910 -0.000324 -0.000536 0.003446 -0.007916
# 2 -0.010910 0.032824 -0.009159 -0.013171 -0.007047 0.001781
# 3 -0.000324 -0.009159 0.012675 0.003134 0.007439 0.002088
# 4 -0.000536 -0.013171 0.003134 0.050168 -0.001393 0.008308
# 5 0.003446 -0.007047 0.007439 -0.001393 0.040849 -0.003695
# 6 -0.007916 0.001781 0.002088 0.008308 -0.003695 0.025882
#
#
# Mechanical properties :
#
#
# Convention : Reuss Voigt Hill
#
# Bulk Modulus (GPa) = 51.60483 65.02771 58.31627
# Shear Modulus (GPa) = 22.29067 32.55980 27.42524
#
# Velocity S-wave (km/s) = 3.24366 3.92025 3.59789
# Velocity P-wave (km/s) = 6.19565 7.15434 6.69219
#
# Compressibility (1/GPa) = 0.01937803
#
# Stress axis : x y z
#
# Youngs Moduli (GPa) = 68.18678 30.46590 78.89376
#
# Poissons Ratio (x) = 0.33239 0.02555
# Poissons Ratio (y) = 0.74394 0.72259
# Poissons Ratio (z) = 0.02208 0.27904
#
# Static dielectric constant tensor:
#      x y z
#    x 1.765340 -0.000150 -0.009770 
#    y -0.000150 1.799310 -0.014540 
#    z -0.009770 -0.014540 1.773220 
# 
# From -- ./inp_files/324081.got.cif
#   From: 2010.05.17/outbox.cif.g08.bks.cpg/sg2_163_cif.got.tgz:324081.got - 2010.06.03 11:33:40.
