data_PCOD9030480
_publ_section_title
;
Structure prediction by ZEFSAII (Michael W. Deem and Ramdas Pophale) SiO2 
 PCOD9030480
Probable space group: P -1
;
_chemical_formula_sum "Si O2"
_cell_formula_units_Z 16
_cell_length_a 7.388802
_cell_length_b 22.493188
_cell_length_c 7.388803
_cell_angle_alpha 132.015566
_cell_angle_beta 36.818685
_cell_angle_gamma 132.015584
_cell_volume 521.604583
_symmetry_space_group_name_H-M "P -1"
_symmetry_group_IT_number 2
_symmetry_cell_setting 'triclinic'
loop_
_space_group_symop_operation_xyz
x,y,z
-x,-y,-z
loop_
_atom_site_type_symbol
_atom_site_label
_atom_site_fract_x
_atom_site_fract_y
_atom_site_fract_z
Si Si1 0.137356 0.020429 0.733267
Si Si2 0.807713 0.416598 0.369542
Si Si3 0.630458 0.083402 0.192287
Si Si4 0.622001 0.340732 0.721960
Si Si5 0.824672 0.723595 0.745458
Si Si6 0.278041 0.159268 0.377999
Si Si7 0.254542 0.776405 0.175329
Si Si8 0.733268 0.520429 0.137356
O O1 0.982247 0.931747 0.579414
O O2 0.487396 0.054879 0.447791
O O3 0.000000 0.000000 0.000000
O O4 0.998936 0.094217 0.924737
O O5 0.672551 0.342300 0.468143
O O6 0.552209 0.445121 0.512604
O O7 0.000000 0.500000 0.500000
O O8 0.075262 0.405783 0.001064
O O9 0.531856 0.157699 0.327451
O O10 0.500000 0.000000 0.000000
O O11 0.967333 0.341184 0.524979
O O12 0.325310 0.278347 0.937062
O O13 0.579415 0.431747 0.982246
O O14 0.095794 0.783373 0.515355
O O15 0.484646 0.716628 0.904207
O O16 0.062939 0.221653 0.674689
O O17 0.475023 0.158815 0.032666
O O18 0.000000 0.500000 0.000000
#
# Coordination Sequence:
#
# PCOD9030480 Si02
#       8
#     2   2   2   2   2   2   2   2
#     4  11  21  32  49  80 111 136 163 198 254 325
#     4  10  19  32  50  74 104 138 171 201 246 312
#     4  10  19  32  50  74 104 138 171 201 246 312
#     4  10  17  32  52  73 102 132 161 210 252 293
#     4   9  18  30  49  77  95 120 172 223 254 280
#     4  10  17  32  52  73 102 132 161 210 252 293
#     4   9  18  30  49  77  95 120 172 223 254 280
#     4  11  21  32  49  80 111 136 163 198 254 325
#
# _framework density 30.674574
#
# number of rings (size 3 to 8) (size 9 to 14) (size 15 to 20)
#    0.000    2.000    0.000    8.250    0.000    0.000 
#    0.000    0.000    0.000    0.000    0.000  122.500 
#    0.000    0.000    0.000    0.000    0.000    0.000 
#
# Total GULP energy -89207.363410 kJ/mol
# GULP energy per Si atom -5575.460213 kJ/mol
# Density = 3.060476 g / cm^3
# Si number density = 30.674574 Si / 1000 Ang^3
#
#
#
# Elastic Constant Matrix: (Units=GPa)
#
#
# Indices 1 2 3 4 5 6 
#
# 1 97.1284 58.8539 51.9527 6.9429 -21.9984 -27.9820
# 2 58.8539 156.1208 101.1598 -14.7743 -11.0093 -28.3926
# 3 51.9527 101.1598 263.4001 -17.6527 -31.4033 -17.6678
# 4 6.9429 -14.7743 -17.6527 97.9798 -23.2671 -13.0991
# 5 -21.9984 -11.0093 -31.4033 -23.2671 61.3536 4.5243
# 6 -27.9820 -28.3926 -17.6678 -13.0991 4.5243 49.5459
#
#
#
# Elastic Compliance Matrix: (Units=1/GPa)
#
#
# Indices 1 2 3 4 5 6 
#
# 1 0.015818 -0.004204 -0.000625 -0.000099 0.004125 0.005899
# 2 -0.004204 0.010612 -0.003024 0.001585 -0.000780 0.003119
# 3 -0.000625 -0.003024 0.005447 0.001145 0.002460 -0.000065
# 4 -0.000099 0.001585 0.001145 0.012451 0.005257 0.004073
# 5 0.004125 -0.000780 0.002460 0.005257 0.020724 0.002257
# 6 0.005899 0.003119 -0.000065 0.004073 0.002257 0.026149
#
#
# Mechanical properties :
#
#
# Convention : Reuss Voigt Hill
#
# Bulk Modulus (GPa) = 61.83756 104.50911 83.17333
# Shear Modulus (GPa) = 44.52518 62.08805 53.30661
#
# Velocity S-wave (km/s) = 3.81403 4.50387 4.17323
# Velocity P-wave (km/s) = 6.29276 7.82245 7.09892
#
# Compressibility (1/GPa) = 0.01617140
#
# Stress axis : x y z
#
# Youngs Moduli (GPa) = 63.22004 94.23661 183.59757
#
# Poissons Ratio (x) = 0.39617 0.11466
# Poissons Ratio (y) = 0.26578 0.55516
# Poissons Ratio (z) = 0.03948 0.28495
#
# Static dielectric constant tensor:
#      x y z
#    x 2.634580 0.105610 0.133680 
#    y 0.105610 2.449830 0.042280 
#    z 0.133680 0.042280 2.192740 
# 
# From -- ./inp_files/224936.got.cif
#   From: 2010.05.17/outbox.cif.g08.bks.cpg/sg2_113_cif.got.tgz:224936.got - 2010.06.03 11:33:40.
