data_PCOD9030258
_publ_section_title
;
Structure prediction by ZEFSAII (Michael W. Deem and Ramdas Pophale) SiO2 
 PCOD9030258
Probable space group: P -1
;
_chemical_formula_sum "Si O2"
_cell_formula_units_Z 16
_cell_length_a 23.284173
_cell_length_b 5.076797
_cell_length_c 5.289216
_cell_angle_alpha 89.611767
_cell_angle_beta 91.227873
_cell_angle_gamma 112.519807
_cell_volume 577.423945
_symmetry_space_group_name_H-M "P -1"
_symmetry_group_IT_number 2
_symmetry_cell_setting 'triclinic'
loop_
_space_group_symop_operation_xyz
x,y,z
-x,-y,-z
loop_
_atom_site_type_symbol
_atom_site_label
_atom_site_fract_x
_atom_site_fract_y
_atom_site_fract_z
Si Si1 0.366372 0.375992 0.476222
Si Si2 0.464050 0.181862 0.604520
Si Si3 0.067991 0.465196 0.309461
Si Si4 0.769477 0.996770 0.516774
Si Si5 0.833508 0.752544 0.911308
Si Si6 0.936187 0.202856 0.192915
Si Si7 0.396829 0.317235 0.973080
Si Si8 0.735483 0.213252 0.011270
O O1 0.393504 0.117074 0.492723
O O2 0.293671 0.285895 0.484678
O O3 0.392971 0.518165 0.740348
O O4 0.394196 0.498021 0.212960
O O5 0.500000 0.500000 0.500000
O O6 0.452637 0.219490 0.901620
O O7 0.500000 0.000000 0.500000
O O8 0.126276 0.402175 0.221284
O O9 0.002452 0.194625 0.274667
O O10 0.073693 0.596866 0.589066
O O11 0.122952 0.086513 0.850737
O O12 0.821212 0.934978 0.681444
O O13 0.774345 0.129078 0.237281
O O14 0.750526 0.182828 0.719952
O O15 0.940591 0.328113 0.909136
O O16 0.766145 0.556155 0.023534
O O17 0.333683 0.027794 0.965505
#
# Coordination Sequence:
#
# PCOD9030258 Si02
#       8
#     2   2   2   2   2   2   2   2
#     4   8  18  41  62  92 137 178 226 288 358 422
#     4  10  22  42  70 104 136 188 247 304 357 444
#     4  10  24  46  70 100 143 184 232 301 362 429
#     4  10  23  44  64  99 144 183 233 291 359 431
#     4  12  25  42  76 108 134 192 246 292 364 448
#     4  10  24  46  70 100 143 184 232 301 362 429
#     4   8  18  41  62  92 137 178 226 288 358 422
#     4  10  23  44  64  99 144 183 233 291 359 431
#
# _framework density 27.709275000000002
#
# number of rings (size 3 to 8) (size 9 to 14) (size 15 to 20)
#    0.750    1.500    0.000    1.125    0.000    9.000 
#    9.000    3.750    0.000    2.250    0.000    0.000 
#    0.000    0.000    0.000    0.000    0.000    0.000 
#
# Total GULP energy -89255.471308 kJ/mol
# GULP energy per Si atom -5578.466957 kJ/mol
# Density = 2.764621 g / cm^3
# Si number density = 27.709275 Si / 1000 Ang^3
#
#
#
# Elastic Constant Matrix: (Units=GPa)
#
#
# Indices 1 2 3 4 5 6 
#
# 1 99.8059 30.9048 9.1497 12.3875 5.9984 10.7906
# 2 30.9048 79.5298 34.5800 7.6886 1.7991 7.7670
# 3 9.1497 34.5800 172.1148 23.7879 -4.2306 -0.7586
# 4 12.3875 7.6886 23.7879 35.6715 -9.6125 4.0550
# 5 5.9984 1.7991 -4.2306 -9.6125 27.4721 9.1920
# 6 10.7906 7.7670 -0.7586 4.0550 9.1920 39.4169
#
#
#
# Elastic Compliance Matrix: (Units=1/GPa)
#
#
# Indices 1 2 3 4 5 6 
#
# 1 0.012238 -0.004461 0.000794 -0.004624 -0.003485 -0.001167
# 2 -0.004461 0.015758 -0.002996 0.000477 0.000340 -0.002070
# 3 0.000794 -0.002996 0.007000 -0.004691 -0.000946 0.001211
# 4 -0.004624 0.000477 -0.004691 0.037584 0.015552 -0.006412
# 5 -0.003485 0.000340 -0.000946 0.015552 0.046292 -0.011526
# 6 -0.001167 -0.002070 0.001211 -0.006412 -0.011526 0.029468
#
#
# Mechanical properties :
#
#
# Convention : Reuss Voigt Hill
#
# Bulk Modulus (GPa) = 46.14469 55.63552 50.89011
# Shear Modulus (GPa) = 29.60534 38.96650 34.28592
#
# Velocity S-wave (km/s) = 3.27223 3.75408 3.52141
# Velocity P-wave (km/s) = 5.56470 6.23801 5.91095
#
# Compressibility (1/GPa) = 0.02167096
#
# Stress axis : x y z
#
# Youngs Moduli (GPa) = 81.71594 63.45922 142.85521
#
# Poissons Ratio (x) = 0.28308 -0.11342
# Poissons Ratio (y) = 0.36452 0.42794
# Poissons Ratio (z) = -0.06488 0.19010
#
# Static dielectric constant tensor:
#      x y z
#    x 2.308470 0.085630 -0.008140 
#    y 0.085630 2.336000 0.011840 
#    z -0.008140 0.011840 2.238970 
# 
# From -- ./inp_files/125745.got.cif
#   From: 2010.05.17/outbox.cif.g08.bks.cpg/sg2_63_cif.got.tgz:125745.got - 2010.06.03 11:33:40.
