data_PCOD9030911
_publ_section_title
;
Structure prediction by ZEFSAII (Michael W. Deem and Ramdas Pophale) SiO2 
 PCOD9030911
Probable space group: P -1
;
_chemical_formula_sum "Si O2"
_cell_formula_units_Z 16
_cell_length_a 8.066452
_cell_length_b 9.794692
_cell_length_c 12.811436
_cell_angle_alpha 137.636415
_cell_angle_beta 90.574849
_cell_angle_gamma 82.659938
_cell_volume 671.060295
_symmetry_space_group_name_H-M "P -1"
_symmetry_group_IT_number 2
_symmetry_cell_setting 'triclinic'
loop_
_space_group_symop_operation_xyz
x,y,z
-x,-y,-z
loop_
_atom_site_type_symbol
_atom_site_label
_atom_site_fract_x
_atom_site_fract_y
_atom_site_fract_z
Si Si1 0.993363 0.870033 0.101544
Si Si2 0.637778 0.108375 0.188595
Si Si3 0.546431 0.056452 0.382062
Si Si4 0.484190 0.672270 0.261812
Si Si5 0.748344 0.357704 0.164162
Si Si6 0.262976 0.341306 0.118560
Si Si7 0.967057 0.486877 0.614262
Si Si8 0.933534 0.023912 0.397270
O O1 0.104004 0.318560 0.030248
O O2 0.842458 0.063950 0.187202
O O3 0.040851 0.891147 0.233082
O O4 0.143494 0.840977 0.003910
O O5 0.538688 0.150894 0.320043
O O6 0.616920 0.285688 0.203329
O O7 0.618144 0.880337 0.022617
O O8 0.460898 0.856482 0.283026
O O9 0.491703 0.217871 0.564797
O O10 0.745427 0.976800 0.359896
O O11 0.653693 0.504627 0.157486
O O12 0.339219 0.537933 0.196796
O O13 0.871287 0.473118 0.297059
O O14 0.189480 0.362797 0.247594
O O15 0.000000 0.500000 0.500000
O O16 0.929752 0.261156 0.506064
O O17 0.000000 0.000000 0.500000
#
# Coordination Sequence:
#
# PCOD9030911 Si02
#       8
#     2   2   2   2   2   2   2   2
#     4   8  20  40  63  92 127 163 197 266 316 363
#     4   9  20  40  65  87 126 167 202 257 313 365
#     4  10  22  43  62  86 131 169 203 259 322 364
#     4  11  23  41  63  91 128 169 209 256 312 382
#     4  11  22  39  65  99 125 157 217 260 308 373
#     4   9  21  39  63  90 124 169 205 244 317 381
#     4  11  22  38  66  93 123 167 211 250 312 374
#     4  11  21  40  67  95 121 160 216 264 303 365
#
# _framework density 23.842865
#
# number of rings (size 3 to 8) (size 9 to 14) (size 15 to 20)
#    0.750    1.250    1.250    2.625    1.750    1.500 
#    2.250    6.250    0.000    0.000    0.000    0.000 
#    0.000    0.000    0.000    0.000    0.000    0.000 
#
# Total GULP energy -89373.749971 kJ/mol
# GULP energy per Si atom -5585.859373 kJ/mol
# Density = 2.378860 g / cm^3
# Si number density = 23.842865 Si / 1000 Ang^3
#
#
#
# Elastic Constant Matrix: (Units=GPa)
#
#
# Indices 1 2 3 4 5 6 
#
# 1 38.8208 3.8550 0.0358 -3.2536 13.2342 10.5785
# 2 3.8550 65.9163 18.0731 6.0949 7.1357 17.2324
# 3 0.0358 18.0731 97.4581 -18.3589 5.2318 5.5889
# 4 -3.2536 6.0949 -18.3589 35.7506 7.5110 9.5037
# 5 13.2342 7.1357 5.2318 7.5110 29.5423 3.1607
# 6 10.5785 17.2324 5.5889 9.5037 3.1607 25.8979
#
#
#
# Elastic Compliance Matrix: (Units=1/GPa)
#
#
# Indices 1 2 3 4 5 6 
#
# 1 0.040368 0.003102 0.004945 0.016289 -0.021391 -0.022988
# 2 0.003102 0.019640 -0.002661 -0.000023 -0.004241 -0.013235
# 3 0.004945 -0.002661 0.013472 0.010782 -0.006017 -0.006379
# 4 0.016289 -0.000023 0.010782 0.044992 -0.018151 -0.023260
# 5 -0.021391 -0.004241 -0.006017 -0.018151 0.048685 0.013577
# 6 -0.022988 -0.013235 -0.006379 -0.023260 0.013577 0.065065
#
#
# Mechanical properties :
#
#
# Convention : Reuss Voigt Hill
#
# Bulk Modulus (GPa) = 11.86889 27.34701 19.60795
# Shear Modulus (GPa) = 20.03731 30.25359 25.14545
#
# Velocity S-wave (km/s) = 2.90209 3.56599 3.25103
# Velocity P-wave (km/s) = 4.02719 5.33382 4.72588
#
# Compressibility (1/GPa) = 0.08425390
#
# Stress axis : x y z
#
# Youngs Moduli (GPa) = 24.77179 50.91588 74.22577
#
# Poissons Ratio (x) = -0.15796 -0.36705
# Poissons Ratio (y) = -0.07685 0.19752
# Poissons Ratio (z) = -0.12250 0.13549
#
# Static dielectric constant tensor:
#      x y z
#    x 1.706130 0.182690 -0.098130 
#    y 0.182690 1.731930 0.036180 
#    z -0.098130 0.036180 1.894360 
# 
# From -- ./inp_files/383498.got.cif
#   From: 2010.05.17/outbox.cif.g08.bks.cpg/sg2_192_cif.got.tgz:383498.got - 2010.06.03 11:33:40.
