data_PCOD9030555
_publ_section_title
;
Structure prediction by ZEFSAII (Michael W. Deem and Ramdas Pophale) SiO2 
 PCOD9030555
Probable space group: P -1
;
_chemical_formula_sum "Si O2"
_cell_formula_units_Z 14
_cell_length_a 8.484269
_cell_length_b 11.885891
_cell_length_c 18.782390
_cell_angle_alpha 20.821265
_cell_angle_beta 71.903045
_cell_angle_gamma 70.856365
_cell_volume 635.977145
_symmetry_space_group_name_H-M "P -1"
_symmetry_group_IT_number 2
_symmetry_cell_setting 'triclinic'
loop_
_space_group_symop_operation_xyz
x,y,z
-x,-y,-z
loop_
_atom_site_type_symbol
_atom_site_label
_atom_site_fract_x
_atom_site_fract_y
_atom_site_fract_z
Si Si1 0.350092 0.816518 0.299629
Si Si2 0.522687 0.080106 0.532363
Si Si3 0.876552 0.730516 0.690344
Si Si4 0.203000 0.279240 0.549165
Si Si5 0.979942 0.359081 0.764542
Si Si6 0.027223 0.271149 0.063211
Si Si7 0.359048 0.486904 0.637391
O O1 0.275546 0.494620 0.472265
O O2 0.376587 0.760770 0.413009
O O3 0.523041 0.810109 0.236323
O O4 0.218248 0.116782 0.125252
O O5 0.351557 0.080746 0.600291
O O6 0.573855 0.424130 0.347387
O O7 0.500000 0.000000 0.500000
O O8 0.690162 0.859902 0.663549
O O9 0.862776 0.560029 0.718086
O O10 0.000000 0.000000 0.500000
O O11 0.967719 0.481862 0.879507
O O12 0.100057 0.542939 0.357592
O O13 0.082526 0.024417 0.741022
O O14 0.165405 0.457876 0.684168
O O15 0.000000 0.000000 0.000000
O O16 0.000000 0.500000 0.000000
#
# Coordination Sequence:
#
# PCOD9030555 Si02
#       7
#     2   2   2   2   2   2   2
#     4  10  22  44  70 101 136 175 225 283 334 400
#     4  11  23  44  71  99 135 182 226 287 339 398
#     4  12  25  45  69  95 139 178 224 282 342 403
#     4  11  24  45  71  98 139 179 230 278 336 412
#     4  12  24  42  68 104 137 180 223 272 343 404
#     4  12  25  42  71 101 134 179 229 281 340 403
#     4  10  22  42  71  98 140 177 224 280 336 403
#
# _framework density 22.013369999999998
#
# number of rings (size 3 to 8) (size 9 to 14) (size 15 to 20)
#    0.000    0.857    4.286    3.000    2.000    0.571 
#    5.143    2.143    0.000    0.000    0.000    0.000 
#    0.000    0.000    0.000    0.000    0.000    0.000 
#
# Total GULP energy -78224.225021 kJ/mol
# GULP energy per Si atom -5587.444644 kJ/mol
# Density = 2.196327 g / cm^3
# Si number density = 22.013370 Si / 1000 Ang^3
#
#
#
# Elastic Constant Matrix: (Units=GPa)
#
#
# Indices 1 2 3 4 5 6 
#
# 1 105.9435 37.5730 28.5786 5.7666 29.6985 -18.0458
# 2 37.5730 132.6859 13.5306 -9.0923 10.2593 -6.3654
# 3 28.5786 13.5306 97.9776 5.4973 29.6653 1.2592
# 4 5.7666 -9.0923 5.4973 23.5678 -2.2070 10.0364
# 5 29.6985 10.2593 29.6653 -2.2070 30.0941 -9.0171
# 6 -18.0458 -6.3654 1.2592 10.0364 -9.0171 62.0515
#
#
#
# Elastic Compliance Matrix: (Units=1/GPa)
#
#
# Indices 1 2 3 4 5 6 
#
# 1 0.015680 -0.003801 0.000773 -0.008284 -0.014534 0.003382
# 2 -0.003801 0.008881 -0.000936 0.005054 0.001797 -0.000732
# 3 0.000773 -0.000936 0.015418 -0.004933 -0.016540 -0.001790
# 4 -0.008284 0.005054 -0.004933 0.052326 0.012631 -0.008419
# 5 -0.014534 0.001797 -0.016540 0.012631 0.065311 0.003741
# 6 0.003382 -0.000732 -0.001790 -0.008419 0.003741 0.018966
#
#
# Mechanical properties :
#
#
# Convention : Reuss Voigt Hill
#
# Bulk Modulus (GPa) = 31.20007 55.10791 43.15399
# Shear Modulus (GPa) = 25.61577 40.27100 32.94338
#
# Velocity S-wave (km/s) = 3.41493 4.28177 3.87268
# Velocity P-wave (km/s) = 5.45463 7.03797 6.29627
#
# Compressibility (1/GPa) = 0.03205121
#
# Stress axis : x y z
#
# Youngs Moduli (GPa) = 63.77721 112.60590 64.85946
#
# Poissons Ratio (x) = 0.42796 -0.05016
# Poissons Ratio (y) = 0.24239 0.06072
# Poissons Ratio (z) = -0.04932 0.10543
#
# Static dielectric constant tensor:
#      x y z
#    x 2.868210 -0.142320 -0.042350 
#    y -0.142320 1.901350 -0.007080 
#    z -0.042350 -0.007080 1.766550 
# 
# From -- ./inp_files/174116.got.cif
#   From: 2010.05.17/outbox.cif.g08.bks.cpg/sg2_88_cif.got.tgz:174116.got - 2010.06.03 11:33:40.
