data_PCOD9030096
_publ_section_title
;
Structure prediction by ZEFSAII (Michael W. Deem and Ramdas Pophale) SiO2 
 PCOD9030096
Probable space group: P -1
;
_chemical_formula_sum "Si O2"
_cell_formula_units_Z 14
_cell_length_a 14.699972
_cell_length_b 5.238263
_cell_length_c 7.962914
_cell_angle_alpha 120.303413
_cell_angle_beta 92.144759
_cell_angle_gamma 86.125655
_cell_volume 528.169862
_symmetry_space_group_name_H-M "P -1"
_symmetry_group_IT_number 2
_symmetry_cell_setting 'triclinic'
loop_
_space_group_symop_operation_xyz
x,y,z
-x,-y,-z
loop_
_atom_site_type_symbol
_atom_site_label
_atom_site_fract_x
_atom_site_fract_y
_atom_site_fract_z
Si Si1 0.310726 0.371563 0.979800
Si Si2 0.455724 0.233071 0.209058
Si Si3 0.293518 0.128668 0.367891
Si Si4 0.024046 0.158979 0.831989
Si Si5 0.128278 0.900657 0.436811
Si Si6 0.850732 0.734340 0.861406
Si Si7 0.652715 0.324644 0.266123
O O1 0.335395 0.560283 0.884078
O O2 0.323059 0.021214 0.824596
O O3 0.380647 0.421979 0.155726
O O4 0.206644 0.424969 0.047014
O O5 0.397640 0.079401 0.298467
O O6 0.546187 0.381876 0.322630
O O7 0.500000 0.000000 0.000000
O O8 0.232123 0.108848 0.192219
O O9 0.289247 0.462992 0.547672
O O10 0.234859 0.948853 0.434370
O O11 0.932431 0.017250 0.708674
O O12 0.088603 0.095081 0.652763
O O13 0.084272 0.055325 0.963100
O O14 0.000000 0.500000 0.000000
O O15 0.110124 0.551853 0.335454
#
# Coordination Sequence:
#
# PCOD9030096 Si02
#       7
#     2   2   2   2   2   2   2
#     4  10  23  41  70  98 139 184 233 286 345 403
#     4   9  21  43  63  95 138 183 234 283 343 406
#     4  11  24  39  64 100 132 180 234 286 341 411
#     4   9  20  44  68  96 134 177 223 287 349 418
#     4  10  22  42  69  96 134 175 229 287 343 420
#     4  10  23  39  66  98 138 177 227 284 344 413
#     4  11  23  42  66 100 138 188 234 288 343 403
#
# _framework density 26.506627000000002
#
# number of rings (size 3 to 8) (size 9 to 14) (size 15 to 20)
#    0.000    2.000    0.000    1.714   10.000    0.571 
#    2.571   10.000    0.000    0.000    0.000    0.000 
#    0.000    0.000    0.000    0.000    0.000    0.000 
#
# Total GULP energy -78221.838675 kJ/mol
# GULP energy per Si atom -5587.274191 kJ/mol
# Density = 2.644630 g / cm^3
# Si number density = 26.506627 Si / 1000 Ang^3
#
#
#
# Elastic Constant Matrix: (Units=GPa)
#
#
# Indices 1 2 3 4 5 6 
#
# 1 143.1054 16.8556 42.3120 1.5133 0.7570 25.4186
# 2 16.8556 94.2473 38.3901 19.3721 3.3423 13.4159
# 3 42.3120 38.3901 152.0863 22.0427 4.5105 -1.4332
# 4 1.5133 19.3721 22.0427 34.5759 -0.4496 8.3141
# 5 0.7570 3.3423 4.5105 -0.4496 61.2780 -8.4918
# 6 25.4186 13.4159 -1.4332 8.3141 -8.4918 36.1202
#
#
#
# Elastic Compliance Matrix: (Units=1/GPa)
#
#
# Indices 1 2 3 4 5 6 
#
# 1 0.009227 0.000041 -0.003112 0.003379 -0.000919 -0.007625
# 2 0.000041 0.013322 -0.002693 -0.004738 -0.001155 -0.004265
# 3 -0.003112 -0.002693 0.008912 -0.005182 0.000153 0.004772
# 4 0.003379 -0.004738 -0.005182 0.036997 -0.000439 -0.009442
# 5 -0.000919 -0.001155 0.000153 -0.000439 0.017100 0.005203
# 6 -0.007625 -0.004265 0.004772 -0.009442 0.005203 0.038221
#
#
# Mechanical properties :
#
#
# Convention : Reuss Voigt Hill
#
# Bulk Modulus (GPa) = 50.16816 64.95048 57.55932
# Shear Modulus (GPa) = 35.22318 45.85357 40.53838
#
# Velocity S-wave (km/s) = 3.64929 4.16371 3.91496
# Velocity P-wave (km/s) = 6.06004 6.90449 6.49600
#
# Compressibility (1/GPa) = 0.01993296
#
# Stress axis : x y z
#
# Youngs Moduli (GPa) = 108.38247 75.06315 112.20503
#
# Poissons Ratio (x) = -0.00307 0.34913
# Poissons Ratio (y) = -0.00443 0.30221
# Poissons Ratio (z) = 0.33724 0.20217
#
# Static dielectric constant tensor:
#      x y z
#    x 2.151440 0.026410 0.011650 
#    y 0.026410 2.187220 -0.036410 
#    z 0.011650 -0.036410 2.111600 
# 
# From -- ./inp_files/289334.got.cif
#   From: 2010.05.17/outbox.cif.g08.bks.cpg/sg2_145_cif.got.tgz:289334.got - 2010.06.03 11:33:40.
