data_PCOD9030670
_publ_section_title
;
Structure prediction by ZEFSAII (Michael W. Deem and Ramdas Pophale) SiO2 
 PCOD9030670
Probable space group: P -1
;
_chemical_formula_sum "Si O2"
_cell_formula_units_Z 16
_cell_length_a 9.007164
_cell_length_b 15.545231
_cell_length_c 12.689889
_cell_angle_alpha 152.611633
_cell_angle_beta 81.680840
_cell_angle_gamma 90.773278
_cell_volume 782.544962
_symmetry_space_group_name_H-M "P -1"
_symmetry_group_IT_number 2
_symmetry_cell_setting 'triclinic'
loop_
_space_group_symop_operation_xyz
x,y,z
-x,-y,-z
loop_
_atom_site_type_symbol
_atom_site_label
_atom_site_fract_x
_atom_site_fract_y
_atom_site_fract_z
Si Si1 0.990390 0.130120 0.744802
Si Si2 0.119479 0.729864 0.683587
Si Si3 0.677448 0.990068 0.961706
Si Si4 0.863544 0.543242 0.147865
Si Si5 0.084733 0.135168 0.355242
Si Si6 0.829356 0.716271 0.822562
Si Si7 0.455087 0.298483 0.771802
Si Si8 0.325318 0.100067 0.750873
O O1 0.160638 0.160263 0.774412
O O2 0.963841 0.006312 0.711939
O O3 0.864638 0.332381 0.963528
O O4 0.000000 0.000000 0.500000
O O5 0.172012 0.505175 0.404491
O O6 0.022749 0.830964 0.701409
O O7 0.005972 0.733972 0.801914
O O8 0.253822 0.837400 0.810876
O O9 0.741616 0.960133 0.804954
O O10 0.755058 0.796546 0.807266
O O11 0.500000 0.000000 0.000000
O O12 0.914181 0.668618 0.371054
O O13 0.701774 0.654110 0.231347
O O14 0.000000 0.500000 0.000000
O O15 0.726299 0.839746 0.059221
O O16 0.426806 0.217379 0.802496
O O17 0.587468 0.126102 0.517543
O O18 0.500000 0.500000 0.000000
#
# Coordination Sequence:
#
# PCOD9030670 Si02
#       8
#     2   2   2   2   2   2   2   2
#     4  12  22  39  70  96 130 175 225 271 324 392
#     4  10  22  44  71 102 127 171 232 280 333 399
#     4  11  25  44  65  98 139 173 216 276 344 405
#     4  12  24  44  66  99 134 171 229 275 325 400
#     4  11  24  42  70  97 130 174 221 278 326 388
#     4  10  22  42  72  96 127 172 233 277 329 399
#     4  11  26  43  62  96 142 180 219 272 342 404
#     4  11  23  41  67  96 132 176 223 276 334 398
#
# _framework density 20.446109
#
# number of rings (size 3 to 8) (size 9 to 14) (size 15 to 20)
#    0.000    1.000    2.500    4.500    1.750    4.500 
#    0.000    0.000    0.000    0.000    0.000    0.000 
#    0.000    0.000    0.000    0.000    0.000    0.000 
#
# Total GULP energy -89339.705569 kJ/mol
# GULP energy per Si atom -5583.731598 kJ/mol
# Density = 2.039957 g / cm^3
# Si number density = 20.446109 Si / 1000 Ang^3
#
#
#
# Elastic Constant Matrix: (Units=GPa)
#
#
# Indices 1 2 3 4 5 6 
#
# 1 84.3105 18.8361 34.1398 -5.8943 -5.8413 14.7656
# 2 18.8361 106.2261 57.5997 5.8630 0.3423 21.9905
# 3 34.1398 57.5997 131.9095 -3.3565 -1.0127 19.6218
# 4 -5.8943 5.8630 -3.3565 48.5989 1.8938 -4.4003
# 5 -5.8413 0.3423 -1.0127 1.8938 31.8874 2.9537
# 6 14.7656 21.9905 19.6218 -4.4003 2.9537 29.9524
#
#
#
# Elastic Compliance Matrix: (Units=1/GPa)
#
#
# Indices 1 2 3 4 5 6 
#
# 1 0.014210 0.000084 -0.002874 0.000916 0.002951 -0.005340
# 2 0.000084 0.013780 -0.005014 -0.002683 0.000546 -0.007322
# 3 -0.002874 -0.005014 0.010812 0.000835 -0.000006 -0.001862
# 4 0.000916 -0.002683 0.000835 0.021513 -0.001450 0.004275
# 5 0.002951 0.000546 -0.000006 -0.001450 0.032469 -0.005266
# 6 -0.005340 -0.007322 -0.001862 0.004275 -0.005266 0.043762
#
#
# Mechanical properties :
#
#
# Convention : Reuss Voigt Hill
#
# Bulk Modulus (GPa) = 43.11395 60.39969 51.75682
# Shear Modulus (GPa) = 31.27284 36.21244 33.74264
#
# Velocity S-wave (km/s) = 3.91516 4.21303 4.06682
# Velocity P-wave (km/s) = 6.44751 7.29871 6.88627
#
# Compressibility (1/GPa) = 0.02319435
#
# Stress axis : x y z
#
# Youngs Moduli (GPa) = 70.37460 72.57097 92.48748
#
# Poissons Ratio (x) = -0.00611 0.26581
# Poissons Ratio (y) = -0.00592 0.46371
# Poissons Ratio (z) = 0.20226 0.36385
#
# Static dielectric constant tensor:
#      x y z
#    x 1.764710 0.008110 -0.008140 
#    y 0.008110 1.717580 0.010190 
#    z -0.008140 0.010190 1.741480 
# 
# From -- ./inp_files/399986.got.cif
#   From: 2010.05.17/outbox.cif.g08.bks.cpg/sg2_200_cif.got.tgz:399986.got - 2010.06.03 11:33:40.
