data_PCOD9030758
_publ_section_title
;
Structure prediction by ZEFSAII (Michael W. Deem and Ramdas Pophale) SiO2 
 PCOD9030758
Probable space group: P -1
;
_chemical_formula_sum "Si O2"
_cell_formula_units_Z 16
_cell_length_a 14.777211
_cell_length_b 5.077580
_cell_length_c 11.703145
_cell_angle_alpha 94.733980
_cell_angle_beta 129.593009
_cell_angle_gamma 104.319631
_cell_volume 620.802621
_symmetry_space_group_name_H-M "P -1"
_symmetry_group_IT_number 2
_symmetry_cell_setting 'triclinic'
loop_
_space_group_symop_operation_xyz
x,y,z
-x,-y,-z
loop_
_atom_site_type_symbol
_atom_site_label
_atom_site_fract_x
_atom_site_fract_y
_atom_site_fract_z
Si Si1 0.474805 0.212437 0.898919
Si Si2 0.805030 0.308135 0.830971
Si Si3 0.177257 0.357527 0.368013
Si Si4 0.563920 0.653204 0.440557
Si Si5 0.788115 0.750221 0.369971
Si Si6 0.557946 0.968280 0.746878
Si Si7 0.980790 0.775169 0.129319
Si Si8 0.024869 0.339252 0.625365
O O1 0.333015 0.163587 0.735447
O O2 0.559696 0.166929 0.863391
O O3 0.500000 0.500000 0.000000
O O4 0.500000 0.000000 0.000000
O O5 0.783967 0.411444 0.692500
O O6 0.692812 0.062071 0.796724
O O7 0.923252 0.221723 0.895618
O O8 0.846653 0.588525 0.957004
O O9 0.284232 0.224533 0.433613
O O10 0.209065 0.456331 0.529142
O O11 0.038161 0.106723 0.225906
O O12 0.500000 0.500000 0.500000
O O13 0.524674 0.916478 0.396954
O O14 0.507862 0.374453 0.299904
O O15 0.832700 0.649752 0.284972
O O16 0.911255 0.030735 0.510093
O O17 0.984441 0.605851 0.244781
O O18 0.000000 0.500000 0.500000
#
# Coordination Sequence:
#
# PCOD9030758 Si02
#       8
#     2   2   2   2   2   2   2   2
#     4  12  29  50  73 108 152 199 246 309 378 450
#     4  11  24  41  68  99 147 186 242 298 377 449
#     4  11  22  41  70  96 140 184 236 307 360 436
#     4  12  24  43  72 106 147 181 248 296 367 440
#     4  10  24  43  69 106 136 188 257 300 371 443
#     4  12  27  46  71 111 140 199 238 306 371 447
#     4  10  24  43  63 104 139 188 246 296 379 440
#     4  10  22  42  73  99 137 192 246 314 365 428
#
# _framework density 25.773084999999998
#
# number of rings (size 3 to 8) (size 9 to 14) (size 15 to 20)
#    0.000    1.000    2.500    3.000    5.250    0.000 
#    0.000    1.250    0.000    0.000    0.000    0.000 
#    0.000    0.000    0.000    0.000    0.000    0.000 
#
# Total GULP energy -89274.003123 kJ/mol
# GULP energy per Si atom -5579.625195 kJ/mol
# Density = 2.571442 g / cm^3
# Si number density = 25.773085 Si / 1000 Ang^3
#
#
#
# Elastic Constant Matrix: (Units=GPa)
#
#
# Indices 1 2 3 4 5 6 
#
# 1 134.0207 24.6455 30.2246 8.0595 -22.0260 7.3292
# 2 24.6455 126.2063 46.8728 4.6128 -9.6989 -5.2809
# 3 30.2246 46.8728 87.8785 1.6840 -16.8216 12.8520
# 4 8.0595 4.6128 1.6840 43.9391 0.7958 -5.9280
# 5 -22.0260 -9.6989 -16.8216 0.7958 39.6671 -0.9351
# 6 7.3292 -5.2809 12.8520 -5.9280 -0.9351 40.5734
#
#
#
# Elastic Compliance Matrix: (Units=1/GPa)
#
#
# Indices 1 2 3 4 5 6 
#
# 1 0.008809 -0.000812 -0.001597 -0.001724 0.004018 -0.001350
# 2 -0.000812 0.010350 -0.005770 -0.000270 -0.000284 0.003275
# 3 -0.001597 -0.005770 0.016755 -0.000604 0.004684 -0.005750
# 4 -0.001724 -0.000270 -0.000604 0.023681 -0.001663 0.003889
# 5 0.004018 -0.000284 0.004684 -0.001663 0.029349 -0.001813
# 6 -0.001350 0.003275 -0.005750 0.003889 -0.001813 0.027665
#
#
# Mechanical properties :
#
#
# Convention : Reuss Voigt Hill
#
# Bulk Modulus (GPa) = 51.13138 61.28793 56.20966
# Shear Modulus (GPa) = 35.84625 41.26010 38.55317
#
# Velocity S-wave (km/s) = 3.73344 4.00546 3.87184
# Velocity P-wave (km/s) = 6.20217 6.72481 6.46877
#
# Compressibility (1/GPa) = 0.01955746
#
# Stress axis : x y z
#
# Youngs Moduli (GPa) = 113.52136 96.61922 59.68302
#
# Poissons Ratio (x) = 0.07843 0.09531
# Poissons Ratio (y) = 0.09215 0.34434
# Poissons Ratio (z) = 0.18130 0.55745
#
# Static dielectric constant tensor:
#      x y z
#    x 2.147070 -0.051430 -0.071820 
#    y -0.051430 2.069420 -0.042920 
#    z -0.071820 -0.042920 2.195980 
# 
# From -- ./inp_files/442009.got.cif
#   From: 2010.05.17/outbox.cif.g08.bks.cpg/sg2_222_cif.got.tgz:442009.got - 2010.06.03 11:33:40.
