data_PCOD9030993
_publ_section_title
;
Structure prediction by ZEFSAII (Michael W. Deem and Ramdas Pophale) SiO2 
 PCOD9030993
Probable space group: P -1
;
_chemical_formula_sum "Si O2"
_cell_formula_units_Z 16
_cell_length_a 12.564385
_cell_length_b 6.270432
_cell_length_c 13.174828
_cell_angle_alpha 88.332122
_cell_angle_beta 48.394388
_cell_angle_gamma 107.641015
_cell_volume 699.918822
_symmetry_space_group_name_H-M "P -1"
_symmetry_group_IT_number 2
_symmetry_cell_setting 'triclinic'
loop_
_space_group_symop_operation_xyz
x,y,z
-x,-y,-z
loop_
_atom_site_type_symbol
_atom_site_label
_atom_site_fract_x
_atom_site_fract_y
_atom_site_fract_z
Si Si1 0.699868 0.796013 0.581090
Si Si2 0.114494 0.008113 0.080574
Si Si3 0.259560 0.794306 0.586443
Si Si4 0.528855 0.642537 0.375360
Si Si5 0.025876 0.329551 0.632134
Si Si6 0.160219 0.901984 0.844154
Si Si7 0.307704 0.876229 0.238020
Si Si8 0.433312 0.265903 0.977231
O O1 0.547176 0.554723 0.659935
O O2 0.849267 0.738930 0.504732
O O3 0.732890 0.956581 0.456894
O O4 0.678417 0.954382 0.679768
O O5 0.036236 0.848501 0.230174
O O6 0.136843 0.847060 0.978949
O O7 0.998773 0.109712 0.105052
O O8 0.282097 0.215613 0.004363
O O9 0.421116 0.783892 0.453465
O O10 0.225253 0.764378 0.728703
O O11 0.122348 0.588548 0.613822
O O12 0.500000 0.500000 0.500000
O O13 0.707528 0.826271 0.244540
O O14 0.874543 0.298201 0.663217
O O15 0.423082 0.749773 0.174270
O O16 0.365608 0.045879 0.101189
O O17 0.500000 0.500000 0.000000
#
# Coordination Sequence:
#
# PCOD9030993 Si02
#       8
#     2   2   2   2   2   2   2   2
#     4  11  23  40  65  94 132 163 214 270 314 388
#     4  10  23  42  62  91 129 163 217 259 317 380
#     4  11  23  38  67  92 128 171 209 263 326 378
#     4  11  23  40  62  95 131 166 212 268 319 375
#     4  10  22  43  63  95 131 166 214 269 317 380
#     4  11  22  40  65  93 124 172 210 258 321 383
#     4  10  24  41  64  97 124 171 216 261 325 376
#     4  10  24  43  66  91 130 170 213 267 315 384
#
# _framework density 22.859794000000001
#
# number of rings (size 3 to 8) (size 9 to 14) (size 15 to 20)
#    0.000    1.500    2.500    1.500    5.250    2.000 
#    0.000    0.000    0.000    0.000    0.000    0.000 
#    0.000    0.000    0.000    0.000    0.000    0.000 
#
# Total GULP energy -89532.586470 kJ/mol
# GULP energy per Si atom -5595.786654 kJ/mol
# Density = 2.280776 g / cm^3
# Si number density = 22.859794 Si / 1000 Ang^3
#
#
#
# Elastic Constant Matrix: (Units=GPa)
#
#
# Indices 1 2 3 4 5 6 
#
# 1 116.5615 47.3589 50.5868 -4.1044 -36.8279 31.4915
# 2 47.3589 108.9931 40.4721 18.4237 -32.0450 27.9879
# 3 50.5868 40.4721 88.2974 18.4694 -20.3285 16.6341
# 4 -4.1044 18.4237 18.4694 38.4236 10.6470 13.3880
# 5 -36.8279 -32.0450 -20.3285 10.6470 43.0868 -7.8449
# 6 31.4915 27.9879 16.6341 13.3880 -7.8449 31.7003
#
#
#
# Elastic Compliance Matrix: (Units=1/GPa)
#
#
# Indices 1 2 3 4 5 6 
#
# 1 0.019662 -0.000979 -0.008388 0.010896 0.006274 -0.017315
# 2 -0.000979 0.016698 -0.001367 -0.008448 0.011831 -0.006557
# 3 -0.008388 -0.001367 0.019658 -0.013405 0.005541 0.006257
# 4 0.010896 -0.008448 -0.013405 0.051269 -0.020145 -0.022970
# 5 0.006274 0.011831 0.005541 -0.020145 0.044972 0.000052
# 6 -0.017315 -0.006557 0.006257 -0.022970 0.000052 0.060966
#
#
# Mechanical properties :
#
#
# Convention : Reuss Voigt Hill
#
# Bulk Modulus (GPa) = 28.94389 65.63196 47.28792
# Shear Modulus (GPa) = 20.30783 34.33774 27.32278
#
# Velocity S-wave (km/s) = 2.98378 3.87990 3.46097
# Velocity P-wave (km/s) = 4.95576 6.98888 6.05822
#
# Compressibility (1/GPa) = 0.03454961
#
# Stress axis : x y z
#
# Youngs Moduli (GPa) = 50.86054 59.88794 50.86868
#
# Poissons Ratio (x) = 0.05865 0.42670
# Poissons Ratio (y) = 0.04981 0.06952
# Poissons Ratio (z) = 0.42663 0.08184
#
# Static dielectric constant tensor:
#      x y z
#    x 1.874340 -0.009170 0.033350 
#    y -0.009170 1.811400 0.016290 
#    z 0.033350 0.016290 1.892010 
# 
# From -- ./inp_files/71407.got.cif
#   From: 2010.05.17/outbox.cif.g08.bks.cpg/sg2_36_cif.got.tgz:71407.got - 2010.06.03 11:33:40.
