data_PCOD9030945
_publ_section_title
;
Structure prediction by ZEFSAII (Michael W. Deem and Ramdas Pophale) SiO2 
 PCOD9030945
Probable space group: P -1
;
_chemical_formula_sum "Si O2"
_cell_formula_units_Z 14
_cell_length_a 16.381222
_cell_length_b 20.195834
_cell_length_c 8.552700
_cell_angle_alpha 33.548012
_cell_angle_beta 131.081368
_cell_angle_gamma 156.556767
_cell_volume 542.668594
_symmetry_space_group_name_H-M "P -1"
_symmetry_group_IT_number 2
_symmetry_cell_setting 'triclinic'
loop_
_space_group_symop_operation_xyz
x,y,z
-x,-y,-z
loop_
_atom_site_type_symbol
_atom_site_label
_atom_site_fract_x
_atom_site_fract_y
_atom_site_fract_z
Si Si1 0.747539 0.602713 0.888048
Si Si2 0.165541 0.766183 0.752334
Si Si3 0.179455 0.407585 0.481071
Si Si4 0.571898 0.709513 0.164456
Si Si5 0.950542 0.321942 0.855926
Si Si6 0.525917 0.102355 0.989216
Si Si7 0.957949 0.915028 0.842199
O O1 0.493221 0.338885 0.008268
O O2 0.791794 0.725095 0.858081
O O3 0.933577 0.847177 0.517923
O O4 0.843255 0.568086 0.123215
O O5 0.078169 0.799183 0.489414
O O6 0.099807 0.721723 0.937178
O O7 0.417016 0.945282 0.717441
O O8 0.000000 0.500000 0.000000
O O9 0.375379 0.601473 0.210233
O O10 0.269716 0.597495 0.341488
O O11 0.179948 0.272563 0.812758
O O12 0.500000 0.500000 0.500000
O O13 0.806769 0.934792 0.125462
O O14 0.000000 0.500000 0.500000
O O15 0.711229 0.054768 0.990888
O O16 0.500000 0.000000 0.000000
#
# Coordination Sequence:
#
# PCOD9030945 Si02
#       7
#     2   2   2   2   2   2   2
#     4  10  22  43  62  98 136 166 228 272 315 406
#     4   9  20  39  58  89 124 157 213 264 311 395
#     4  11  21  43  68  91 135 173 214 276 339 383
#     4  10  22  43  64  97 135 168 227 272 315 405
#     4  11  22  38  64  87 127 169 210 269 333 371
#     4   9  21  39  60  94 127 162 222 268 311 408
#     4  10  24  42  68  95 135 176 215 273 333 390
#
# _framework density 25.798435999999999
#
# number of rings (size 3 to 8) (size 9 to 14) (size 15 to 20)
#    0.000    2.000    1.429    0.857    6.000    3.429 
#    2.571   11.429    0.000    0.000    0.000    0.000 
#    0.000    0.000    0.000    0.000    0.000    0.000 
#
# Total GULP energy -77992.390149 kJ/mol
# GULP energy per Si atom -5570.885011 kJ/mol
# Density = 2.573972 g / cm^3
# Si number density = 25.798436 Si / 1000 Ang^3
#
#
#
# Elastic Constant Matrix: (Units=GPa)
#
#
# Indices 1 2 3 4 5 6 
#
# 1 56.4026 22.1496 -1.1148 3.6617 18.5023 -6.9136
# 2 22.1496 190.1151 18.2571 6.6120 10.4145 -4.8906
# 3 -1.1148 18.2571 99.6348 24.2518 15.8633 -4.5611
# 4 3.6617 6.6120 24.2518 42.0501 2.3824 14.8280
# 5 18.5023 10.4145 15.8633 2.3824 25.3516 6.8100
# 6 -6.9136 -4.8906 -4.5611 14.8280 6.8100 29.5570
#
#
#
# Elastic Compliance Matrix: (Units=1/GPa)
#
#
# Indices 1 2 3 4 5 6 
#
# 1 0.036370 -0.001938 0.012729 -0.017929 -0.039623 0.028275
# 2 -0.001938 0.005628 -0.000826 -0.000457 -0.000526 0.000701
# 3 0.012729 -0.000826 0.019754 -0.018307 -0.025200 0.020880
# 4 -0.017929 -0.000457 -0.018307 0.047653 0.030463 -0.038020
# 5 -0.039623 -0.000526 -0.025200 0.030463 0.095030 -0.050422
# 6 0.028275 0.000701 0.020880 -0.038020 -0.050422 0.074476
#
#
# Mechanical properties :
#
#
# Convention : Reuss Voigt Hill
#
# Bulk Modulus (GPa) = 12.24248 47.19292 29.71770
# Shear Modulus (GPa) = 17.46975 39.84910 28.65943
#
# Velocity S-wave (km/s) = 2.60506 3.93444 3.33663
# Velocity P-wave (km/s) = 3.71540 6.24279 5.13696
#
# Compressibility (1/GPa) = 0.08168277
#
# Stress axis : x y z
#
# Youngs Moduli (GPa) = 27.49499 177.68801 50.62153
#
# Poissons Ratio (x) = 0.34441 -0.64437
# Poissons Ratio (y) = 0.05329 0.04180
# Poissons Ratio (z) = -0.34999 0.14674
#
# Static dielectric constant tensor:
#      x y z
#    x 2.001060 0.015760 0.001800 
#    y 0.015760 2.130200 -0.049680 
#    z 0.001800 -0.049680 2.111740 
# 
# From -- ./inp_files/349968.got.cif
#   From: 2010.05.17/outbox.cif.g08.bks.cpg/sg2_175_cif.got.tgz:349968.got - 2010.06.03 11:33:40.
