data_PCOD9030988
_publ_section_title
;
Structure prediction by ZEFSAII (Michael W. Deem and Ramdas Pophale) SiO2 
 PCOD9030988
Probable space group: P -1
;
_chemical_formula_sum "Si O2"
_cell_formula_units_Z 14
_cell_length_a 7.867835
_cell_length_b 12.550113
_cell_length_c 12.250631
_cell_angle_alpha 133.553114
_cell_angle_beta 72.693113
_cell_angle_gamma 131.628989
_cell_volume 625.962800
_symmetry_space_group_name_H-M "P -1"
_symmetry_group_IT_number 2
_symmetry_cell_setting 'triclinic'
loop_
_space_group_symop_operation_xyz
x,y,z
-x,-y,-z
loop_
_atom_site_type_symbol
_atom_site_label
_atom_site_fract_x
_atom_site_fract_y
_atom_site_fract_z
Si Si1 0.783027 0.787336 0.346717
Si Si2 0.924269 0.516467 0.763084
Si Si3 0.399261 0.446127 0.602242
Si Si4 0.786695 0.438610 0.074538
Si Si5 0.077866 0.746519 0.558705
Si Si6 0.132444 0.221971 0.159636
Si Si7 0.520431 0.814297 0.238262
O O1 0.592292 0.689567 0.414242
O O2 0.815241 0.629789 0.216499
O O3 0.697705 0.801053 0.257223
O O4 0.000000 0.000000 0.500000
O O5 0.882867 0.665326 0.854108
O O6 0.713329 0.326154 0.740252
O O7 0.161562 0.615281 0.859037
O O8 0.929206 0.430978 0.587782
O O9 0.500000 0.500000 0.500000
O O10 0.119505 0.311658 0.534375
O O11 0.591182 0.655340 0.774440
O O12 0.554616 0.273866 0.931179
O O13 0.000000 0.500000 0.000000
O O14 0.991897 0.768117 0.704610
O O15 0.337375 0.955336 0.631242
O O16 0.000000 0.000000 0.000000
#
# Coordination Sequence:
#
# PCOD9030988 Si02
#       7
#     2   2   2   2   2   2   2
#     4  12  21  41  72  96 128 175 219 265 326 392
#     4  11  22  45  65  94 135 172 215 272 326 391
#     4  10  22  43  63  94 132 167 218 269 317 394
#     4  10  24  41  61  97 141 165 214 273 328 378
#     4  11  23  42  70  97 131 169 219 270 330 385
#     4  11  26  44  68  96 130 173 223 269 326 390
#     4  11  23  39  69 103 129 171 218 272 324 388
#
# _framework density 22.365546999999999
#
# number of rings (size 3 to 8) (size 9 to 14) (size 15 to 20)
#    0.000    1.143    4.286    1.286    2.000    3.429 
#    0.000    4.286    0.000    0.000    0.000    0.000 
#    0.000    0.000    0.000    0.000    0.000    0.000 
#
# Total GULP energy -78024.933954 kJ/mol
# GULP energy per Si atom -5573.209568 kJ/mol
# Density = 2.231464 g / cm^3
# Si number density = 22.365547 Si / 1000 Ang^3
#
#
#
# Elastic Constant Matrix: (Units=GPa)
#
#
# Indices 1 2 3 4 5 6 
#
# 1 98.3293 18.7247 66.0405 15.1881 24.1340 -16.3204
# 2 18.7247 86.5478 55.8702 8.4089 12.9601 -1.7432
# 3 66.0405 55.8702 189.4571 14.6501 29.3761 -13.0498
# 4 15.1881 8.4089 14.6501 43.6315 7.6875 1.4456
# 5 24.1340 12.9601 29.3761 7.6875 42.3919 1.5299
# 6 -16.3204 -1.7432 -13.0498 1.4456 1.5299 30.1028
#
#
#
# Elastic Compliance Matrix: (Units=1/GPa)
#
#
# Indices 1 2 3 4 5 6 
#
# 1 0.016058 0.000530 -0.004013 -0.003508 -0.006157 0.007479
# 2 0.000530 0.014466 -0.004139 -0.001282 -0.001604 -0.000526
# 3 -0.004013 -0.004139 0.008357 -0.000261 -0.002242 0.001334
# 4 -0.003508 -0.001282 -0.000261 0.024903 -0.001831 -0.003192
# 5 -0.006157 -0.001604 -0.002242 -0.001831 0.029681 -0.005824
# 6 0.007479 -0.000526 0.001334 -0.003192 -0.005824 0.038271
#
#
# Mechanical properties :
#
#
# Convention : Reuss Voigt Hill
#
# Bulk Modulus (GPa) = 42.30567 72.84501 57.57534
# Shear Modulus (GPa) = 32.28715 38.80518 35.54617
#
# Velocity S-wave (km/s) = 3.80361 4.16990 3.99096
# Velocity P-wave (km/s) = 6.18438 7.47161 6.85826
#
# Compressibility (1/GPa) = 0.02363749
#
# Stress axis : x y z
#
# Youngs Moduli (GPa) = 62.27274 69.12875 119.65659
#
# Poissons Ratio (x) = -0.03661 0.48015
# Poissons Ratio (y) = -0.03298 0.49524
# Poissons Ratio (z) = 0.24988 0.28611
#
# Static dielectric constant tensor:
#      x y z
#    x 1.916850 0.036940 0.015060 
#    y 0.036940 1.792670 -0.018740 
#    z 0.015060 -0.018740 1.806000 
# 
# From -- ./inp_files/245454.got.cif
#   From: 2010.05.17/outbox.cif.g08.bks.cpg/sg2_123_cif.got.tgz:245454.got - 2010.06.03 11:33:40.
