data_PCOD9030660
_publ_section_title
;
Structure prediction by ZEFSAII (Michael W. Deem and Ramdas Pophale) SiO2 
 PCOD9030660
Probable space group: P -1
;
_chemical_formula_sum "Si O2"
_cell_formula_units_Z 15
_cell_length_a 9.094171
_cell_length_b 9.735745
_cell_length_c 13.861327
_cell_angle_alpha 137.239170
_cell_angle_beta 52.179508
_cell_angle_gamma 113.913057
_cell_volume 655.897631
_symmetry_space_group_name_H-M "P -1"
_symmetry_group_IT_number 2
_symmetry_cell_setting 'triclinic'
loop_
_space_group_symop_operation_xyz
x,y,z
-x,-y,-z
loop_
_atom_site_type_symbol
_atom_site_label
_atom_site_fract_x
_atom_site_fract_y
_atom_site_fract_z
Si Si1 0.118446 0.815656 0.088526
Si Si2 0.957905 0.359012 0.163383
Si Si3 0.963370 0.800343 0.351087
Si Si4 0.068737 0.243627 0.249045
Si Si5 0.500000 0.000000 0.000000
Si Si6 0.698055 0.530559 0.591524
Si Si7 0.434663 0.828933 0.738334
Si Si8 0.531243 0.841723 0.492051
O O1 0.085441 0.784662 0.197423
O O2 0.022142 0.036440 0.209760
O O3 0.031637 0.668867 0.970458
O O4 0.335117 0.838816 0.993421
O O5 0.991748 0.591581 0.291140
O O6 0.756628 0.278714 0.227085
O O7 0.090894 0.228740 0.117567
O O8 0.750774 0.808858 0.405069
O O9 0.000000 0.000000 0.500000
O O10 0.254421 0.302350 0.261078
O O11 0.895087 0.409076 0.423435
O O12 0.470292 0.991259 0.888872
O O13 0.601732 0.653899 0.605110
O O14 0.561910 0.367896 0.599736
O O15 0.446217 0.905267 0.663864
O O16 0.500000 0.000000 0.500000
#
# Coordination Sequence:
#
# PCOD9030660 Si02
#       8
#     2   2   2   2   1   2   2   2
#     4  11  24  44  68 100 131 177 226 271 344 399
#     4  11  24  43  70  94 139 178 220 278 334 407
#     4  12  27  42  68  99 138 177 224 278 335 400
#     4  11  23  39  69 101 130 169 229 281 322 395
#     4  10  22  42  72  92 128 176 228 270 324 420
#     4  11  22  40  66  99 137 168 227 279 327 397
#     4  11  21  44  68  97 128 183 226 265 343 403
#     4  12  25  41  64  99 140 172 218 283 338 386
#
# _framework density 22.869423999999999
#
# number of rings (size 3 to 8) (size 9 to 14) (size 15 to 20)
#    0.000    0.800    4.000    3.600    5.600    0.000 
#    0.000    0.000    0.000    2.400    0.000    0.000 
#    0.000    0.000    0.000    0.000    0.000    0.000 
#
# Total GULP energy -83662.703517 kJ/mol
# GULP energy per Si atom -5577.513568 kJ/mol
# Density = 2.281737 g / cm^3
# Si number density = 22.869424 Si / 1000 Ang^3
#
#
#
# Elastic Constant Matrix: (Units=GPa)
#
#
# Indices 1 2 3 4 5 6 
#
# 1 111.5656 33.6397 17.5096 -2.2210 24.3078 3.3886
# 2 33.6397 129.3630 29.6484 -10.0823 21.1725 -5.7918
# 3 17.5096 29.6484 62.7613 -5.2624 20.1519 9.2744
# 4 -2.2210 -10.0823 -5.2624 40.4081 10.1456 6.2025
# 5 24.3078 21.1725 20.1519 10.1456 37.0297 10.3551
# 6 3.3886 -5.7918 9.2744 6.2025 10.3551 43.8067
#
#
#
# Elastic Compliance Matrix: (Units=1/GPa)
#
#
# Indices 1 2 3 4 5 6 
#
# 1 0.010969 -0.001560 0.000015 0.001907 -0.006925 0.000309
# 2 -0.001560 0.009890 -0.002960 0.002713 -0.004530 0.002742
# 3 0.000015 -0.002960 0.021659 0.005248 -0.010646 -0.003204
# 4 0.001907 0.002713 0.005248 0.029853 -0.013283 -0.001987
# 5 -0.006925 -0.004530 -0.010646 -0.013283 0.045440 -0.006670
# 6 0.000309 0.002742 -0.003204 -0.001987 -0.006670 0.025702
#
#
# Mechanical properties :
#
#
# Convention : Reuss Voigt Hill
#
# Bulk Modulus (GPa) = 29.84375 51.69838 40.77106
# Shear Modulus (GPa) = 30.54511 39.10838 34.82674
#
# Velocity S-wave (km/s) = 3.65859 4.13979 3.90661
# Velocity P-wave (km/s) = 5.56103 6.74577 6.18185
#
# Compressibility (1/GPa) = 0.03350785
#
# Stress axis : x y z
#
# Youngs Moduli (GPa) = 91.16744 101.11484 46.16913
#
# Poissons Ratio (x) = 0.15771 -0.00067
# Poissons Ratio (y) = 0.14220 0.13666
# Poissons Ratio (z) = -0.00132 0.29929
#
# Static dielectric constant tensor:
#      x y z
#    x 1.806610 -0.007850 0.051260 
#    y -0.007850 1.821840 0.024940 
#    z 0.051260 0.024940 1.981440 
# 
# From -- ./inp_files/178044.got.cif
#   From: 2010.05.17/outbox.cif.g08.bks.cpg/sg2_90_cif.got.tgz:178044.got - 2010.06.03 11:33:40.
