data_PCOD9030721
_publ_section_title
;
Structure prediction by ZEFSAII (Michael W. Deem and Ramdas Pophale) SiO2 
 PCOD9030721
Probable space group: P -1
;
_chemical_formula_sum "Si O2"
_cell_formula_units_Z 16
_cell_length_a 9.350424
_cell_length_b 5.136570
_cell_length_c 21.741402
_cell_angle_alpha 67.451423
_cell_angle_beta 46.287308
_cell_angle_gamma 78.769558
_cell_volume 693.208875
_symmetry_space_group_name_H-M "P -1"
_symmetry_group_IT_number 2
_symmetry_cell_setting 'triclinic'
loop_
_space_group_symop_operation_xyz
x,y,z
-x,-y,-z
loop_
_atom_site_type_symbol
_atom_site_label
_atom_site_fract_x
_atom_site_fract_y
_atom_site_fract_z
Si Si1 0.650049 0.684580 0.858070
Si Si2 0.315494 0.815487 0.024180
Si Si3 0.902666 0.518753 0.149437
Si Si4 0.611137 0.628681 0.116471
Si Si5 0.047094 0.686470 0.531051
Si Si6 0.528758 0.184594 0.538517
Si Si7 0.160461 0.751925 0.270679
Si Si8 0.161806 0.133639 0.741897
O O1 0.705491 0.375664 0.889958
O O2 0.460766 0.658329 0.871934
O O3 0.816327 0.903189 0.758298
O O4 0.547783 0.791535 0.940141
O O5 0.125406 0.661420 0.059344
O O6 0.301692 0.139861 0.980163
O O7 0.760487 0.581301 0.130189
O O8 0.819505 0.665019 0.222068
O O9 0.914776 0.185098 0.185820
O O10 0.393464 0.705759 0.196974
O O11 0.919998 0.483331 0.635502
O O12 0.000000 0.500000 0.500000
O O13 0.261582 0.769003 0.492267
O O14 0.000000 0.000000 0.500000
O O15 0.500000 0.500000 0.500000
O O16 0.359131 0.095532 0.647456
O O17 0.500000 0.000000 0.500000
O O18 0.993163 0.735221 0.269061
#
# Coordination Sequence:
#
# PCOD9030721 Si02
#       8
#     2   2   2   2   2   2   2   2
#     4  10  22  42  73 103 140 197 247 305 355 449
#     4  10  22  43  67 105 142 198 251 292 370 431
#     4  12  28  44  72 107 147 194 242 310 361 432
#     4  11  26  41  72 104 153 189 248 309 369 428
#     4  12  30  48  79 113 152 193 241 314 384 453
#     4  12  26  50  79 109 146 195 246 306 375 452
#     4  11  26  47  73 104 145 191 246 295 369 443
#     4  12  28  48  75 105 145 193 251 295 365 444
#
# _framework density 23.081063
#
# number of rings (size 3 to 8) (size 9 to 14) (size 15 to 20)
#    0.000    0.750    2.500    3.000   10.500    0.500 
#    0.000    0.000    0.000    0.000    0.000    0.000 
#    0.000    0.000    0.000    0.000    0.000    0.000 
#
# Total GULP energy -89140.797518 kJ/mol
# GULP energy per Si atom -5571.299845 kJ/mol
# Density = 2.302853 g / cm^3
# Si number density = 23.081063 Si / 1000 Ang^3
#
#
#
# Elastic Constant Matrix: (Units=GPa)
#
#
# Indices 1 2 3 4 5 6 
#
# 1 217.0704 52.8511 67.5862 -13.2466 13.3621 -3.7539
# 2 52.8511 109.6459 68.2981 -17.4301 24.3057 2.9063
# 3 67.5862 68.2981 157.4962 -26.7390 -8.6920 0.0370
# 4 -13.2466 -17.4301 -26.7390 42.4011 -4.8459 2.7123
# 5 13.3621 24.3057 -8.6920 -4.8459 37.0012 -0.7172
# 6 -3.7539 2.9063 0.0370 2.7123 -0.7172 37.3582
#
#
#
# Elastic Compliance Matrix: (Units=1/GPa)
#
#
# Indices 1 2 3 4 5 6 
#
# 1 0.005627 -0.001043 -0.002109 -0.000254 -0.001863 0.000631
# 2 -0.001043 0.017408 -0.007704 0.000618 -0.012821 -0.001742
# 3 -0.002109 -0.007704 0.011907 0.004726 0.009242 0.000210
# 4 -0.000254 0.000618 0.004726 0.027363 0.004341 -0.001982
# 5 -0.001863 -0.012821 0.009242 0.004341 0.038885 0.001232
# 6 0.000631 -0.001742 0.000210 -0.001982 0.001232 0.027134
#
#
# Mechanical properties :
#
#
# Convention : Reuss Voigt Hill
#
# Bulk Modulus (GPa) = 75.57273 95.74260 85.65767
# Shear Modulus (GPa) = 32.37383 43.05057 37.71220
#
# Velocity S-wave (km/s) = 3.74921 4.32347 4.04654
# Velocity P-wave (km/s) = 7.18022 8.15440 7.68277
#
# Compressibility (1/GPa) = 0.01323229
#
# Stress axis : x y z
#
# Youngs Moduli (GPa) = 177.70087 57.44415 83.98179
#
# Poissons Ratio (x) = 0.05992 0.17709
# Poissons Ratio (y) = 0.18535 0.64697
# Poissons Ratio (z) = 0.37471 0.44253
#
# Static dielectric constant tensor:
#      x y z
#    x 1.743360 0.084620 0.047270 
#    y 0.084620 2.006390 0.075270 
#    z 0.047270 0.075270 1.856100 
# 
# From -- ./inp_files/585532.got.cif
#   From: 2010.05.17/outbox.cif.g08.bks.cpg/sg2_293_cif.got.tgz:585532.got - 2010.06.03 11:33:40.
