data_PCOD9030154
_publ_section_title
;
Structure prediction by ZEFSAII (Michael W. Deem and Ramdas Pophale) SiO2 
 PCOD9030154
Probable space group: P -1
;
_chemical_formula_sum "Si O2"
_cell_formula_units_Z 11
_cell_length_a 20.769321
_cell_length_b 9.514290
_cell_length_c 6.932351
_cell_angle_alpha 120.457152
_cell_angle_beta 135.427555
_cell_angle_gamma 31.042049
_cell_volume 475.069869
_symmetry_space_group_name_H-M "P -1"
_symmetry_group_IT_number 2
_symmetry_cell_setting 'triclinic'
loop_
_space_group_symop_operation_xyz
x,y,z
-x,-y,-z
loop_
_atom_site_type_symbol
_atom_site_label
_atom_site_fract_x
_atom_site_fract_y
_atom_site_fract_z
Si Si1 0.245986 0.550527 0.605596
Si Si2 0.994720 0.682088 0.332489
Si Si3 0.770108 0.955860 0.710852
Si Si4 0.886115 0.026221 0.691149
Si Si5 0.446174 0.237668 0.169716
Si Si6 0.500000 0.000000 0.500000
O O1 0.081331 0.698976 0.407294
O O2 0.223348 0.731651 0.537730
O O3 0.363810 0.251861 0.542802
O O4 0.316836 0.499602 0.928398
O O5 0.109697 0.359456 0.331157
O O6 0.979752 0.756781 0.573560
O O7 0.828414 0.892556 0.012132
O O8 0.796134 0.069736 0.703978
O O9 0.591121 0.151252 0.449428
O O10 0.000000 0.000000 0.000000
O O11 0.396669 0.244329 0.276832
O O12 0.500000 0.000000 0.000000
#
# Coordination Sequence:
#
# PCOD9030154 Si02
#       6
#     2   2   2   2   2   1
#     4  11  24  43  71 101 136 185 233 284 342 415
#     4  11  24  45  72 102 141 180 242 285 344 417
#     4  11  24  45  71 108 136 185 232 292 345 416
#     4  12  27  43  73 105 144 185 227 292 359 404
#     4  10  22  42  69  99 137 176 233 282 335 412
#     4  10  22  42  70  94 132 184 228 270 350 398
#
# _framework density 23.154487
#
# number of rings (size 3 to 8) (size 9 to 14) (size 15 to 20)
#    0.000    1.091    5.455    1.091    2.545    3.636 
#    0.000    1.818    0.000    0.000    0.000    0.000 
#    0.000    0.000    0.000    0.000    0.000    0.000 
#
# Total GULP energy -61264.214126 kJ/mol
# GULP energy per Si atom -5569.474011 kJ/mol
# Density = 2.310179 g / cm^3
# Si number density = 23.154487 Si / 1000 Ang^3
#
#
#
# Elastic Constant Matrix: (Units=GPa)
#
#
# Indices 1 2 3 4 5 6 
#
# 1 93.2453 -2.6018 56.0226 5.4805 -33.6233 14.6754
# 2 -2.6018 41.0948 13.2646 9.2659 -2.7012 6.0971
# 3 56.0226 13.2646 178.0088 -4.9280 -14.2262 1.2850
# 4 5.4805 9.2659 -4.9280 42.5755 1.9673 -19.4302
# 5 -33.6233 -2.7012 -14.2262 1.9673 46.3966 -3.7093
# 6 14.6754 6.0971 1.2850 -19.4302 -3.7093 40.3282
#
#
#
# Elastic Compliance Matrix: (Units=1/GPa)
#
#
# Indices 1 2 3 4 5 6 
#
# 1 0.024288 0.010434 -0.007478 -0.014065 0.015269 -0.015550
# 2 0.010434 0.033506 -0.005556 -0.017014 0.007233 -0.016217
# 3 -0.007478 -0.005556 0.008269 0.005956 -0.002989 0.005893
# 4 -0.014065 -0.017014 0.005956 0.042495 -0.008988 0.027148
# 5 0.015269 0.007233 -0.002989 -0.008988 0.031869 -0.007954
# 6 -0.015550 -0.016217 0.005893 0.027148 -0.007954 0.045068
#
#
# Mechanical properties :
#
#
# Convention : Reuss Voigt Hill
#
# Bulk Modulus (GPa) = 16.43090 49.52442 32.97766
# Shear Modulus (GPa) = 23.69855 42.23763 32.96809
#
# Velocity S-wave (km/s) = 3.20269 4.27566 3.77746
# Velocity P-wave (km/s) = 4.55937 6.76832 5.77053
#
# Compressibility (1/GPa) = 0.06086094
#
# Stress axis : x y z
#
# Youngs Moduli (GPa) = 41.17190 29.84570 120.93707
#
# Poissons Ratio (x) = -0.31140 0.90440
# Poissons Ratio (y) = -0.42957 0.67196
# Poissons Ratio (z) = 0.30790 0.16583
#
# Static dielectric constant tensor:
#      x y z
#    x 1.822350 0.051770 -0.009490 
#    y 0.051770 2.038930 0.010720 
#    z -0.009490 0.010720 1.891020 
# 
# From -- ./inp_files/25623.got.cif
#   From: 2010.05.17/outbox.cif.g08.bks.cpg/sg2_13_cif.got.tgz:25623.got - 2010.06.03 11:33:40.
