data_PCOD9030144
_publ_section_title
;
Structure prediction by ZEFSAII (Michael W. Deem and Ramdas Pophale) SiO2 
 PCOD9030144
Probable space group: P -1
;
_chemical_formula_sum "Si O2"
_cell_formula_units_Z 12
_cell_length_a 9.433437
_cell_length_b 13.599521
_cell_length_c 7.712233
_cell_angle_alpha 92.654905
_cell_angle_beta 66.201353
_cell_angle_gamma 142.783962
_cell_volume 475.122981
_symmetry_space_group_name_H-M "P -1"
_symmetry_group_IT_number 2
_symmetry_cell_setting 'triclinic'
loop_
_space_group_symop_operation_xyz
x,y,z
-x,-y,-z
loop_
_atom_site_type_symbol
_atom_site_label
_atom_site_fract_x
_atom_site_fract_y
_atom_site_fract_z
Si Si1 0.162190 0.890142 0.803653
Si Si2 0.687982 0.628579 0.747587
Si Si3 0.666829 0.816038 0.595358
Si Si4 0.631668 0.721531 0.221286
Si Si5 0.290361 0.708838 0.291897
Si Si6 0.203143 0.704886 0.951725
O O1 0.129841 0.764386 0.891508
O O2 0.017414 0.812723 0.677185
O O3 0.499997 0.107986 0.679387
O O4 0.941601 0.843094 0.018227
O O5 0.563960 0.659678 0.725518
O O6 0.610864 0.495406 0.653077
O O7 0.500000 0.500000 0.000000
O O8 0.649100 0.788913 0.397446
O O9 0.509007 0.827239 0.741544
O O10 0.000000 0.000000 0.500000
O O11 0.501140 0.728546 0.148426
O O12 0.000000 0.500000 0.500000
O O13 0.213023 0.723284 0.155125
O O14 0.000000 0.500000 0.000000
#
# Coordination Sequence:
#
# PCOD9030144 Si02
#       6
#     2   2   2   2   2   2
#     4  11  24  47  73 101 137 183 232 287 345 409
#     4  10  22  42  69  99 132 177 228 281 338 404
#     4  12  25  43  68 101 139 181 226 279 344 414
#     4  11  23  44  72 101 135 182 233 282 341 414
#     4  12  26  44  70 105 139 180 232 289 345 409
#     4  12  25  46  69 101 141 181 226 286 347 410
#
# _framework density 25.256616999999999
#
# number of rings (size 3 to 8) (size 9 to 14) (size 15 to 20)
#    0.000    0.667    0.000    9.500    0.000    2.667 
#    0.000    5.000    0.000    0.000    0.000    0.000 
#    0.000    0.000    0.000    0.000    0.000    0.000 
#
# Total GULP energy -67215.703359 kJ/mol
# GULP energy per Si atom -5601.308613 kJ/mol
# Density = 2.519913 g / cm^3
# Si number density = 25.256617 Si / 1000 Ang^3
#
#
#
# Elastic Constant Matrix: (Units=GPa)
#
#
# Indices 1 2 3 4 5 6 
#
# 1 150.5231 3.2478 26.7436 -9.0144 3.9703 -19.9877
# 2 3.2478 146.5377 24.1598 -23.7909 2.9601 24.1036
# 3 26.7436 24.1598 91.1021 -13.5546 -6.4551 10.3814
# 4 -9.0144 -23.7909 -13.5546 41.1074 5.7262 4.4201
# 5 3.9703 2.9601 -6.4551 5.7262 46.3321 1.0984
# 6 -19.9877 24.1036 10.3814 4.4201 1.0984 50.2704
#
#
#
# Elastic Compliance Matrix: (Units=1/GPa)
#
#
# Indices 1 2 3 4 5 6 
#
# 1 0.007661 -0.000252 -0.002620 0.000432 -0.001146 0.003695
# 2 -0.000252 0.008603 -0.001006 0.005239 -0.001210 -0.004452
# 3 -0.002620 -0.001006 0.013035 0.003277 0.001785 -0.003578
# 4 0.000432 0.005239 0.003277 0.029610 -0.003443 -0.005545
# 5 -0.001146 -0.001210 0.001785 -0.003443 0.022443 -0.000432
# 6 0.003695 -0.004452 -0.003578 -0.005545 -0.000432 0.024732
#
#
# Mechanical properties :
#
#
# Convention : Reuss Voigt Hill
#
# Bulk Modulus (GPa) = 46.42255 55.16280 50.79267
# Shear Modulus (GPa) = 41.31484 49.80944 45.56214
#
# Velocity S-wave (km/s) = 4.04889 4.44569 4.25192
# Velocity P-wave (km/s) = 6.34652 6.94554 6.65278
#
# Compressibility (1/GPa) = 0.02154126
#
# Stress axis : x y z
#
# Youngs Moduli (GPa) = 130.52656 116.23912 76.71946
#
# Poissons Ratio (x) = 0.02932 0.20101
# Poissons Ratio (y) = 0.03293 0.07721
# Poissons Ratio (z) = 0.34199 0.11698
#
# Static dielectric constant tensor:
#      x y z
#    x 1.985160 -0.028490 -0.024270 
#    y -0.028490 2.087730 -0.105910 
#    z -0.024270 -0.105910 1.936510 
# 
# From -- ./inp_files/152382.got.cif
#   From: 2010.05.17/outbox.cif.g08.bks.cpg/sg2_77_cif.got.tgz:152382.got - 2010.06.03 11:33:40.
