data_PCOD9030352
_publ_section_title
;
Structure prediction by ZEFSAII (Michael W. Deem and Ramdas Pophale) SiO2 
 PCOD9030352
Probable space group: P -1
;
_chemical_formula_sum "Si O2"
_cell_formula_units_Z 16
_cell_length_a 5.384517
_cell_length_b 5.140255
_cell_length_c 25.421105
_cell_angle_alpha 81.347306
_cell_angle_beta 115.023816
_cell_angle_gamma 94.090772
_cell_volume 630.274871
_symmetry_space_group_name_H-M "P -1"
_symmetry_group_IT_number 2
_symmetry_cell_setting 'triclinic'
loop_
_space_group_symop_operation_xyz
x,y,z
-x,-y,-z
loop_
_atom_site_type_symbol
_atom_site_label
_atom_site_fract_x
_atom_site_fract_y
_atom_site_fract_z
Si Si1 0.206683 0.060166 0.160011
Si Si2 0.141058 0.390782 0.568946
Si Si3 0.576560 0.222082 0.541906
Si Si4 0.942425 0.692907 0.760512
Si Si5 0.298230 0.145860 0.732571
Si Si6 0.383824 0.684263 0.673062
Si Si7 0.255687 0.331226 0.874388
Si Si8 0.136467 0.497323 0.068942
O O1 0.231437 0.269710 0.202593
O O2 0.439206 0.860655 0.204583
O O3 0.237332 0.207430 0.103670
O O4 0.900856 0.944040 0.139430
O O5 0.394626 0.217034 0.577881
O O6 0.244447 0.632295 0.606178
O O7 0.000000 0.500000 0.500000
O O8 0.899431 0.229204 0.580597
O O9 0.500000 0.500000 0.500000
O O10 0.500000 0.000000 0.500000
O O11 0.706791 0.611646 0.701095
O O12 0.062767 0.973217 0.744510
O O13 0.174523 0.504389 0.810448
O O14 0.357455 0.963166 0.691655
O O15 0.250760 0.445877 0.703090
O O16 0.581172 0.334917 0.910499
O O17 0.091716 0.429402 0.909465
O O18 0.000000 0.500000 0.000000
#
# Coordination Sequence:
#
# PCOD9030352 Si02
#       8
#     2   2   2   2   2   2   2   2
#     4  10  23  39  65  97 129 185 227 286 351 412
#     4  10  24  47  71 101 143 183 232 285 354 427
#     4  10  22  42  70  95 129 180 228 274 333 413
#     4  10  23  40  66  95 137 175 234 291 351 412
#     4  11  24  43  68  99 142 176 241 291 355 414
#     4  11  26  42  67 106 134 185 232 296 353 422
#     4  11  23  41  70  90 133 181 229 285 349 412
#     4  11  25  42  63 100 136 177 230 286 345 418
#
# _framework density 25.385748
#
# number of rings (size 3 to 8) (size 9 to 14) (size 15 to 20)
#    0.000    1.500    2.500    0.750    5.250    5.000 
#    2.250    0.000    0.000    0.000    0.000    0.000 
#    0.000    0.000    0.000    0.000    0.000    0.000 
#
# Total GULP energy -89472.282095 kJ/mol
# GULP energy per Si atom -5592.017631 kJ/mol
# Density = 2.532797 g / cm^3
# Si number density = 25.385748 Si / 1000 Ang^3
#
#
#
# Elastic Constant Matrix: (Units=GPa)
#
#
# Indices 1 2 3 4 5 6 
#
# 1 167.9927 31.1044 42.4829 16.9432 7.8590 14.3356
# 2 31.1044 102.6682 24.4763 16.3927 2.2703 16.5800
# 3 42.4829 24.4763 164.9727 7.5081 15.7581 11.6646
# 4 16.9432 16.3927 7.5081 34.6729 8.6692 0.7629
# 5 7.8590 2.2703 15.7581 8.6692 39.6716 11.9519
# 6 14.3356 16.5800 11.6646 0.7629 11.9519 45.2349
#
#
#
# Elastic Compliance Matrix: (Units=1/GPa)
#
#
# Indices 1 2 3 4 5 6 
#
# 1 0.006885 -0.001114 -0.001414 -0.002564 0.000253 -0.001433
# 2 -0.001114 0.011834 -0.001161 -0.005317 0.002444 -0.004241
# 3 -0.001414 -0.001161 0.006826 0.000358 -0.002362 -0.000269
# 4 -0.002564 -0.005317 0.000358 0.034472 -0.008140 0.004238
# 5 0.000253 0.002444 -0.002362 -0.008140 0.030208 -0.008211
# 6 -0.001433 -0.004241 -0.000269 0.004238 -0.008211 0.026283
#
#
# Mechanical properties :
#
#
# Convention : Reuss Voigt Hill
#
# Bulk Modulus (GPa) = 55.03854 70.19567 62.61710
# Shear Modulus (GPa) = 38.47882 46.42054 42.44968
#
# Velocity S-wave (km/s) = 3.89751 4.28086 4.09367
# Velocity P-wave (km/s) = 6.47935 7.22122 6.86032
#
# Compressibility (1/GPa) = 0.01816909
#
# Stress axis : x y z
#
# Youngs Moduli (GPa) = 145.23393 84.50155 146.49272
#
# Poissons Ratio (x) = 0.09411 0.20715
# Poissons Ratio (y) = 0.16176 0.17001
# Poissons Ratio (z) = 0.20537 0.09807
#
# Static dielectric constant tensor:
#      x y z
#    x 2.175490 -0.067610 -0.036890 
#    y -0.067610 2.038330 0.003110 
#    z -0.036890 0.003110 1.997110 
# 
# From -- ./inp_files/12460.got.cif
#   From: 2010.05.17/outbox.cif.g08.bks.cpg/sg2_7_cif.got.tgz:12460.got - 2010.06.03 11:33:40.
