data_PCOD9030249
_publ_section_title
;
Structure prediction by ZEFSAII (Michael W. Deem and Ramdas Pophale) SiO2 
 PCOD9030249
Probable space group: P -1
;
_chemical_formula_sum "Si O2"
_cell_formula_units_Z 14
_cell_length_a 14.001834
_cell_length_b 9.546236
_cell_length_c 11.520309
_cell_angle_alpha 122.800680
_cell_angle_beta 149.304275
_cell_angle_gamma 53.255830
_cell_volume 628.482241
_symmetry_space_group_name_H-M "P -1"
_symmetry_group_IT_number 2
_symmetry_cell_setting 'triclinic'
loop_
_space_group_symop_operation_xyz
x,y,z
-x,-y,-z
loop_
_atom_site_type_symbol
_atom_site_label
_atom_site_fract_x
_atom_site_fract_y
_atom_site_fract_z
Si Si1 0.286632 0.476709 0.290179
Si Si2 0.760014 0.409374 0.954633
Si Si3 0.682977 0.034999 0.142872
Si Si4 0.134667 0.411224 0.460727
Si Si5 0.072724 0.740515 0.386426
Si Si6 0.542952 0.796612 0.475510
Si Si7 0.580145 0.634382 0.073703
O O1 0.500000 0.500000 0.500000
O O2 0.166223 0.622100 0.320572
O O3 0.335979 0.288400 0.319815
O O4 0.187830 0.515677 0.078474
O O5 0.612966 0.567283 0.945633
O O6 0.953981 0.344416 0.206053
O O7 0.652769 0.263973 0.756012
O O8 0.797518 0.132583 0.390380
O O9 0.577181 0.175908 0.998323
O O10 0.848498 0.862832 0.194652
O O11 0.500000 0.000000 0.000000
O O12 0.087638 0.608553 0.451251
O O13 0.322698 0.303156 0.534142
O O14 0.210290 0.379804 0.656780
O O15 0.500000 0.000000 0.500000
O O16 0.500000 0.500000 0.000000
#
# Coordination Sequence:
#
# PCOD9030249 Si02
#       7
#     2   2   2   2   2   2   2
#     4   9  20  43  71  96 134 183 224 276 337 411
#     4  11  23  43  70  97 131 183 230 272 341 413
#     4  11  23  42  68 104 135 175 229 288 338 402
#     4  11  23  44  70  96 131 182 229 278 342 404
#     4  10  22  42  70 103 133 174 235 281 338 410
#     4  10  22  43  66 101 138 171 218 279 344 405
#     4  12  22  46  71  94 136 183 227 285 345 399
#
# _framework density 22.275888999999999
#
# number of rings (size 3 to 8) (size 9 to 14) (size 15 to 20)
#    0.000    1.429    2.857    3.000    0.000    2.857 
#   12.857    0.000    0.000    0.000    0.000    0.000 
#    0.000    0.000    0.000    0.000    0.000    0.000 
#
# Total GULP energy -78299.898806 kJ/mol
# GULP energy per Si atom -5592.849915 kJ/mol
# Density = 2.222519 g / cm^3
# Si number density = 22.275889 Si / 1000 Ang^3
#
#
#
# Elastic Constant Matrix: (Units=GPa)
#
#
# Indices 1 2 3 4 5 6 
#
# 1 115.7906 59.8653 35.4308 -6.7770 -0.5888 -5.8006
# 2 59.8653 172.8197 62.1749 -26.9146 3.1397 7.8703
# 3 35.4308 62.1749 132.9885 -9.4882 10.5817 -4.0028
# 4 -6.7770 -26.9146 -9.4882 38.5587 2.7826 7.6859
# 5 -0.5888 3.1397 10.5817 2.7826 47.0338 0.4992
# 6 -5.8006 7.8703 -4.0028 7.6859 0.4992 21.7162
#
#
#
# Elastic Compliance Matrix: (Units=1/GPa)
#
#
# Indices 1 2 3 4 5 6 
#
# 1 0.011211 -0.004050 -0.001159 -0.002194 0.000748 0.005008
# 2 -0.004050 0.009762 -0.003201 0.006857 -0.000307 -0.007630
# 3 -0.001159 -0.003201 0.009528 -0.000518 -0.001944 0.002835
# 4 -0.002194 0.006857 -0.000518 0.033339 -0.002183 -0.014916
# 5 0.000748 -0.000307 -0.001944 -0.002183 0.021855 0.000223
# 6 0.005008 -0.007630 0.002835 -0.014916 0.000223 0.055948
#
#
# Mechanical properties :
#
#
# Convention : Reuss Voigt Hill
#
# Bulk Modulus (GPa) = 73.09173 81.83786 77.46480
# Shear Modulus (GPa) = 30.67066 39.07025 34.87045
#
# Velocity S-wave (km/s) = 3.71462 4.19253 3.96079
# Velocity P-wave (km/s) = 7.16109 7.76238 7.46779
#
# Compressibility (1/GPa) = 0.01368144
#
# Stress axis : x y z
#
# Youngs Moduli (GPa) = 89.19796 102.43929 104.95796
#
# Poissons Ratio (x) = 0.41488 0.12161
# Poissons Ratio (y) = 0.36125 0.33595
# Poissons Ratio (z) = 0.10335 0.32789
#
# Static dielectric constant tensor:
#      x y z
#    x 1.863710 0.011740 -0.018840 
#    y 0.011740 1.824900 0.016310 
#    z -0.018840 0.016310 1.921830 
# 
# From -- ./inp_files/242228.got.cif
#   From: 2010.05.17/outbox.cif.g08.bks.cpg/sg2_122_cif.got.tgz:242228.got - 2010.06.03 11:33:40.
