data_PCOD9030116
_publ_section_title
;
Structure prediction by ZEFSAII (Michael W. Deem and Ramdas Pophale) SiO2 
 PCOD9030116
Probable space group: P -1
;
_chemical_formula_sum "Si O2"
_cell_formula_units_Z 13
_cell_length_a 11.765300
_cell_length_b 11.208603
_cell_length_c 12.088174
_cell_angle_alpha 39.410715
_cell_angle_beta 31.586375
_cell_angle_gamma 40.136152
_cell_volume 502.249922
_symmetry_space_group_name_H-M "P -1"
_symmetry_group_IT_number 2
_symmetry_cell_setting 'triclinic'
loop_
_space_group_symop_operation_xyz
x,y,z
-x,-y,-z
loop_
_atom_site_type_symbol
_atom_site_label
_atom_site_fract_x
_atom_site_fract_y
_atom_site_fract_z
Si Si1 0.705036 0.304945 0.498239
Si Si2 0.305879 0.458481 0.336108
Si Si3 0.003761 0.489539 0.255742
Si Si4 0.500000 0.000000 0.000000
Si Si5 0.469825 0.244036 0.118462
Si Si6 0.603071 0.082844 0.460085
Si Si7 0.035791 0.141324 0.134281
O O1 0.500000 0.500000 0.500000
O O2 0.850979 0.361318 0.432752
O O3 0.605053 0.138301 0.740460
O O4 0.869594 0.239604 0.303874
O O5 0.076280 0.455824 0.590105
O O6 0.377376 0.352727 0.234560
O O7 0.498501 0.319154 0.360290
O O8 0.327833 0.675264 0.144352
O O9 0.263375 0.344246 0.133829
O O10 0.957861 0.684061 0.080351
O O11 0.722882 0.963449 0.931997
O O12 0.491547 0.019488 0.289009
O O13 0.876794 0.028177 0.284505
O O14 0.500000 0.000000 0.500000
#
# Coordination Sequence:
#
# PCOD9030116 Si02
#       7
#     2   2   2   1   2   2   2
#     4  12  27  47  72 104 141 193 241 298 360 428
#     4  10  22  43  67 101 139 182 232 293 353 426
#     4  12  24  43  71 100 141 187 234 292 363 422
#     4  12  28  46  74 100 146 190 246 294 358 428
#     4  10  22  42  69  97 138 181 233 293 352 424
#     4  10  22  45  71  99 138 185 235 295 358 421
#     4  12  26  48  71 106 150 188 243 301 355 434
#
# _framework density 25.883526
#
# number of rings (size 3 to 8) (size 9 to 14) (size 15 to 20)
#    0.000    0.923    3.077    3.231    0.000    1.231 
#    2.769    1.538    0.000    0.000    0.000    0.000 
#    0.000    0.000    0.000    0.000    0.000    0.000 
#
# Total GULP energy -72494.580440 kJ/mol
# GULP energy per Si atom -5576.506188 kJ/mol
# Density = 2.582461 g / cm^3
# Si number density = 25.883526 Si / 1000 Ang^3
#
#
#
# Elastic Constant Matrix: (Units=GPa)
#
#
# Indices 1 2 3 4 5 6 
#
# 1 130.5226 43.9188 47.5579 -4.6237 -4.7649 -9.0654
# 2 43.9188 55.8010 50.7676 -5.4030 3.6814 -22.2608
# 3 47.5579 50.7676 193.1802 -34.5359 24.3040 -0.5838
# 4 -4.6237 -5.4030 -34.5359 43.8563 -10.3299 2.9863
# 5 -4.7649 3.6814 24.3040 -10.3299 48.5589 -1.2846
# 6 -9.0654 -22.2608 -0.5838 2.9863 -1.2846 51.3301
#
#
#
# Elastic Compliance Matrix: (Units=1/GPa)
#
#
# Indices 1 2 3 4 5 6 
#
# 1 0.010793 -0.008874 -0.000544 0.000218 0.002000 -0.001911
# 2 -0.008874 0.038391 -0.008579 -0.003982 0.000068 0.015218
# 3 -0.000544 -0.008579 0.008888 0.005508 -0.002788 -0.004106
# 4 0.000218 -0.003982 0.005508 0.027680 0.003372 -0.003152
# 5 0.002000 0.000068 -0.002788 0.003372 0.022917 0.000728
# 6 -0.001911 0.015218 -0.004106 -0.003152 0.000728 0.025899
#
#
# Mechanical properties :
#
#
# Convention : Reuss Voigt Hill
#
# Bulk Modulus (GPa) = 45.29028 73.77694 59.53361
# Shear Modulus (GPa) = 28.10246 44.56637 36.33442
#
# Velocity S-wave (km/s) = 3.29861 4.15396 3.75075
# Velocity P-wave (km/s) = 5.66070 7.18140 6.46591
#
# Compressibility (1/GPa) = 0.02207979
#
# Stress axis : x y z
#
# Youngs Moduli (GPa) = 92.64894 26.04778 112.51239
#
# Poissons Ratio (x) = 0.23114 0.06116
# Poissons Ratio (y) = 0.82214 0.96524
# Poissons Ratio (z) = 0.05036 0.22346
#
# Static dielectric constant tensor:
#      x y z
#    x 2.143060 0.069240 -0.002950 
#    y 0.069240 2.118970 0.050720 
#    z -0.002950 0.050720 1.970440 
# 
# From -- ./inp_files/61243.got.cif
#   From: 2010.05.17/outbox.cif.g08.bks.cpg/sg2_31_cif.got.tgz:61243.got - 2010.06.03 11:33:40.
