data_PCOD9030674
_publ_section_title
;
Structure prediction by ZEFSAII (Michael W. Deem and Ramdas Pophale) SiO2 
 PCOD9030674
Probable space group: P -1
;
_chemical_formula_sum "Si O2"
_cell_formula_units_Z 11
_cell_length_a 16.729510
_cell_length_b 4.885169
_cell_length_c 10.034334
_cell_angle_alpha 103.786387
_cell_angle_beta 30.683974
_cell_angle_gamma 105.532263
_cell_volume 403.147449
_symmetry_space_group_name_H-M "P -1"
_symmetry_group_IT_number 2
_symmetry_cell_setting 'triclinic'
loop_
_space_group_symop_operation_xyz
x,y,z
-x,-y,-z
loop_
_atom_site_type_symbol
_atom_site_label
_atom_site_fract_x
_atom_site_fract_y
_atom_site_fract_z
Si Si1 0.031092 0.407658 0.241532
Si Si2 0.500000 0.500000 0.500000
Si Si3 0.779207 0.936357 0.430951
Si Si4 0.227899 0.657913 0.738199
Si Si5 0.782669 0.705797 0.787043
Si Si6 0.428240 0.822731 0.908966
O O1 0.908013 0.134309 0.351033
O O2 0.934608 0.631225 0.480820
O O3 0.164652 0.307918 0.135559
O O4 0.113765 0.556275 0.011259
O O5 0.400776 0.666812 0.551795
O O6 0.461175 0.718810 0.700245
O O7 0.800870 0.057373 0.262209
O O8 0.792416 0.602476 0.369009
O O9 0.598837 0.965177 0.730651
O O10 0.640310 0.454318 0.943118
O O11 0.712578 0.985718 0.878299
#
# Coordination Sequence:
#
# PCOD9030674 Si02
#       6
#     2   1   2   2   2   2
#     4  11  26  47  67 103 143 183 220 287 332 420
#     4  10  22  42  72  96 136 166 232 280 328 396
#     4  11  26  42  72 102 138 173 233 282 349 378
#     4  11  24  42  71 103 132 181 222 290 335 402
#     4  11  27  45  72  97 141 186 229 265 348 406
#     4  11  24  46  69 106 128 186 228 282 334 409
#
# _framework density 27.285301
#
# number of rings (size 3 to 8) (size 9 to 14) (size 15 to 20)
#    0.000    1.091    1.818    3.273    2.545   10.909 
#    0.000    0.000    0.000    0.000    0.000    0.000 
#    0.000    0.000    0.000    0.000    0.000    0.000 
#
# Total GULP energy -61563.557047 kJ/mol
# GULP energy per Si atom -5596.687004 kJ/mol
# Density = 2.722320 g / cm^3
# Si number density = 27.285301 Si / 1000 Ang^3
#
#
#
# Elastic Constant Matrix: (Units=GPa)
#
#
# Indices 1 2 3 4 5 6 
#
# 1 106.4911 9.5016 18.7610 -6.5949 -22.3183 3.3894
# 2 9.5016 86.9121 32.5383 -0.2167 -7.2648 -10.3756
# 3 18.7610 32.5383 97.2977 -7.4664 -10.2498 0.0123
# 4 -6.5949 -0.2167 -7.4664 46.1047 0.4711 -6.3596
# 5 -22.3183 -7.2648 -10.2498 0.4711 34.0226 -2.2254
# 6 3.3894 -10.3756 0.0123 -6.3596 -2.2254 40.0140
#
#
#
# Elastic Compliance Matrix: (Units=1/GPa)
#
#
# Indices 1 2 3 4 5 6 
#
# 1 0.011159 -0.000223 -0.001259 0.001263 0.006848 -0.000421
# 2 -0.000223 0.013752 -0.004391 -0.000192 0.001708 0.003651
# 3 -0.001259 -0.004391 0.012316 0.001683 0.001881 -0.000664
# 4 0.001263 -0.000192 0.001683 0.022613 0.001211 0.003504
# 5 0.006848 0.001708 0.001881 0.001211 0.034930 0.001997
# 6 -0.000421 0.003651 -0.000664 0.003504 0.001997 0.026642
#
#
# Mechanical properties :
#
#
# Convention : Reuss Voigt Hill
#
# Bulk Modulus (GPa) = 39.24459 45.81140 42.52799
# Shear Modulus (GPa) = 35.29762 39.35492 37.32627
#
# Velocity S-wave (km/s) = 3.60064 3.80195 3.70266
# Velocity P-wave (km/s) = 5.63031 6.00827 5.82236
#
# Compressibility (1/GPa) = 0.02548122
#
# Stress axis : x y z
#
# Youngs Moduli (GPa) = 89.61376 72.71427 81.19333
#
# Poissons Ratio (x) = 0.01625 0.10218
# Poissons Ratio (y) = 0.02003 0.35654
# Poissons Ratio (z) = 0.11278 0.31931
#
# Static dielectric constant tensor:
#      x y z
#    x 2.813470 0.448460 -0.253300 
#    y 0.448460 2.238690 -0.159110 
#    z -0.253300 -0.159110 2.282090 
# 
# From -- ./inp_files/79148.got.cif
#   From: 2010.05.17/outbox.cif.g08.bks.cpg/sg2_40_cif.got.tgz:79148.got - 2010.06.03 11:33:40.
