data_PCOD9030455
_publ_section_title
;
Structure prediction by ZEFSAII (Michael W. Deem and Ramdas Pophale) SiO2 
 PCOD9030455
Probable space group: P -1
;
_chemical_formula_sum "Si O2"
_cell_formula_units_Z 14
_cell_length_a 16.011840
_cell_length_b 13.393485
_cell_length_c 21.367245
_cell_angle_alpha 151.842810
_cell_angle_beta 162.185288
_cell_angle_gamma 26.059585
_cell_volume 603.874059
_symmetry_space_group_name_H-M "P -1"
_symmetry_group_IT_number 2
_symmetry_cell_setting 'triclinic'
loop_
_space_group_symop_operation_xyz
x,y,z
-x,-y,-z
loop_
_atom_site_type_symbol
_atom_site_label
_atom_site_fract_x
_atom_site_fract_y
_atom_site_fract_z
Si Si1 0.438563 0.522224 0.814920
Si Si2 0.233468 0.423849 0.287347
Si Si3 0.970018 0.108079 0.349464
Si Si4 0.047250 0.236242 0.160122
Si Si5 0.022380 0.418601 0.382343
Si Si6 0.862805 0.749605 0.006846
Si Si7 0.830898 0.947549 0.292641
O O1 0.360902 0.716356 0.813647
O O2 0.204393 0.641138 0.769951
O O3 0.323190 0.349257 0.600051
O O4 0.747601 0.402559 0.002648
O O5 0.500000 0.500000 0.500000
O O6 0.162015 0.285596 0.103855
O O7 0.290474 0.268270 0.304922
O O8 0.953910 0.671146 0.229875
O O9 0.114659 0.296302 0.559084
O O10 0.948971 0.014849 0.350556
O O11 0.053500 0.894721 0.243456
O O12 0.068432 0.322145 0.292456
O O13 0.000000 0.000000 0.000000
O O14 0.520967 0.892390 0.864675
O O15 0.000000 0.500000 0.000000
O O16 0.000000 0.000000 0.500000
#
# Coordination Sequence:
#
# PCOD9030455 Si02
#       7
#     2   2   2   2   2   2   2
#     4   9  22  45  72 104 140 195 254 296 383 453
#     4  12  28  49  69 113 152 193 256 314 377 453
#     4  10  22  42  71 100 145 196 239 313 374 442
#     4  12  27  46  74 108 150 197 250 317 373 448
#     4   9  22  45  71 104 141 193 255 298 380 445
#     4  12  26  43  71 106 148 194 253 304 383 457
#     4  12  24  45  72 103 151 199 244 313 379 456
#
# _framework density 23.183643
#
# number of rings (size 3 to 8) (size 9 to 14) (size 15 to 20)
#    0.857    0.286    2.857    2.571    4.000    1.714 
#    2.571    0.000    0.000    0.000    0.000    0.000 
#    0.000    0.000    0.000    0.000    0.000    0.000 
#
# Total GULP energy -78108.003352 kJ/mol
# GULP energy per Si atom -5579.143097 kJ/mol
# Density = 2.313088 g / cm^3
# Si number density = 23.183643 Si / 1000 Ang^3
#
#
#
# Elastic Constant Matrix: (Units=GPa)
#
#
# Indices 1 2 3 4 5 6 
#
# 1 160.8912 60.5363 64.2386 30.9076 -35.2125 36.8394
# 2 60.5363 30.3549 4.6517 3.3263 6.4144 -20.1187
# 3 64.2386 4.6517 67.3674 5.2004 -6.8543 -7.9203
# 4 30.9076 3.3263 5.2004 43.3498 -3.0154 -9.1805
# 5 -35.2125 6.4144 -6.8543 -3.0154 33.1891 4.8046
# 6 36.8394 -20.1187 -7.9203 -9.1805 4.8046 22.0539
#
#
#
# Elastic Compliance Matrix: (Units=1/GPa)
#
#
# Indices 1 2 3 4 5 6 
#
# 1 -0.000565 0.008305 0.000693 0.001602 -0.003389 0.010174
# 2 0.008305 0.006063 -0.008892 -0.008322 0.007454 -0.016623
# 3 0.000693 -0.008892 0.014879 -0.002504 0.006215 -0.006322
# 4 0.001602 -0.008322 -0.002504 0.022618 0.005265 -0.002898
# 5 -0.003389 0.007454 0.006215 0.005265 0.025207 0.011393
# 6 0.010174 -0.016623 -0.006322 -0.002898 0.011393 0.007225
#
#
# Mechanical properties :
#
#
# Convention : Reuss Voigt Hill
#
# Bulk Modulus (GPa) = 48.56624 57.49628 53.03126
# Shear Modulus (GPa) = 60.91887 28.33102 44.62494
#
# Velocity S-wave (km/s) = 5.13164 3.49954 4.39207
# Velocity P-wave (km/s) = 7.49037 6.41742 6.97455
#
# Compressibility (1/GPa) = 0.02059044
#
# Stress axis : x y z
#
# Youngs Moduli (GPa) = -1769.22105 164.93500 67.20796
#
# Poissons Ratio (x) = -1.36978 -0.04659
# Poissons Ratio (y) = 14.69338 0.59758
# Poissons Ratio (z) = 1.22654 1.46652
#
# Static dielectric constant tensor:
#      x y z
#    x 1.871380 -0.032190 0.094040 
#    y -0.032190 1.885590 0.025670 
#    z 0.094040 0.025670 2.035330 
# 
# From -- ./inp_files/598048.got.cif
#   From: 2010.05.17/outbox.cif.g08.bks.cpg/sg2_300_cif.got.tgz:598048.got - 2010.06.03 11:33:40.
