data_PCOD9030801
_publ_section_title
;
Structure prediction by ZEFSAII (Michael W. Deem and Ramdas Pophale) SiO2 
 PCOD9030801
Probable space group: P -1
;
_chemical_formula_sum "Si O2"
_cell_formula_units_Z 12
_cell_length_a 14.899897
_cell_length_b 9.234563
_cell_length_c 15.885024
_cell_angle_alpha 158.298011
_cell_angle_beta 148.072960
_cell_angle_gamma 41.046575
_cell_volume 420.757718
_symmetry_space_group_name_H-M "P -1"
_symmetry_group_IT_number 2
_symmetry_cell_setting 'triclinic'
loop_
_space_group_symop_operation_xyz
x,y,z
-x,-y,-z
loop_
_atom_site_type_symbol
_atom_site_label
_atom_site_fract_x
_atom_site_fract_y
_atom_site_fract_z
Si Si1 0.041744 0.599744 0.702645
Si Si2 0.569982 0.150701 0.228741
Si Si3 0.102645 0.503215 0.169464
Si Si4 0.500000 0.000000 0.500000
Si Si5 0.500000 0.500000 0.500000
Si Si6 0.700855 0.447740 0.251571
Si Si7 0.837303 0.607389 0.137290
O O1 0.188928 0.420250 0.671463
O O2 0.084211 0.583219 0.823964
O O3 0.848801 0.406519 0.415594
O O4 0.065894 0.051360 0.932241
O O5 0.737145 0.965716 0.269834
O O6 0.574352 0.596143 0.502335
O O7 0.426699 0.982929 0.098370
O O8 0.500000 0.000000 0.000000
O O9 0.308416 0.619632 0.391686
O O10 0.989556 0.742429 0.266550
O O11 0.000000 0.500000 0.000000
O O12 0.429915 0.305757 0.678247
O O13 0.692413 0.273432 0.801023
#
# Coordination Sequence:
#
# PCOD9030801 Si02
#       7
#     2   2   2   1   1   2   2
#     4  11  24  47  73 107 146 195 251 312 374 461
#     4  11  26  49  72 114 150 204 253 317 385 463
#     4  12  27  49  76 113 153 203 251 316 391 459
#     4  10  22  42  74 110 142 192 242 322 372 442
#     4  12  28  50  78 106 158 204 258 310 398 458
#     4  10  23  45  72 103 151 188 252 311 377 450
#     4  11  26  46  75 110 146 196 257 310 384 454
#
# _framework density 28.519974999999999
#
# number of rings (size 3 to 8) (size 9 to 14) (size 15 to 20)
#    0.000    1.000    3.333    1.500    2.333    8.667 
#    6.000    0.000    0.000    0.000    0.000    0.000 
#    0.000    0.000    0.000    0.000    0.000    0.000 
#
# Total GULP energy -66873.429230 kJ/mol
# GULP energy per Si atom -5572.785769 kJ/mol
# Density = 2.845506 g / cm^3
# Si number density = 28.519975 Si / 1000 Ang^3
#
#
#
# Elastic Constant Matrix: (Units=GPa)
#
#
# Indices 1 2 3 4 5 6 
#
# 1 204.0416 81.3718 37.6088 -29.3292 -14.4923 -48.3490
# 2 81.3718 155.2642 42.2919 -26.4283 -4.6272 -22.6073
# 3 37.6088 42.2919 159.9390 -45.9084 35.2894 -5.8788
# 4 -29.3292 -26.4283 -45.9084 64.1241 -7.6800 -8.3387
# 5 -14.4923 -4.6272 35.2894 -7.6800 65.6157 -3.9681
# 6 -48.3490 -22.6073 -5.8788 -8.3387 -3.9681 64.5386
#
#
#
# Elastic Compliance Matrix: (Units=1/GPa)
#
#
# Indices 1 2 3 4 5 6 
#
# 1 0.008037 -0.002589 -0.000675 0.003177 0.002668 0.005627
# 2 -0.002589 0.008678 -0.001389 0.001689 0.001061 0.001257
# 3 -0.000675 -0.001389 0.009322 0.005271 -0.004628 0.000253
# 4 0.003177 0.001689 0.005271 0.022472 0.001004 0.006417
# 5 0.002668 0.001061 -0.004628 0.001004 0.018706 0.003229
# 6 0.005627 0.001257 0.000253 0.006417 0.003229 0.021202
#
#
# Mechanical properties :
#
#
# Convention : Reuss Voigt Hill
#
# Bulk Modulus (GPa) = 59.76921 93.53220 76.65071
# Shear Modulus (GPa) = 48.40232 62.72052 55.56142
#
# Velocity S-wave (km/s) = 4.12410 4.69463 4.41858
# Velocity P-wave (km/s) = 6.60909 7.89003 7.27780
#
# Compressibility (1/GPa) = 0.01673102
#
# Stress axis : x y z
#
# Youngs Moduli (GPa) = 124.41744 115.23656 107.27269
#
# Poissons Ratio (x) = 0.29831 0.07245
# Poissons Ratio (y) = 0.32207 0.14902
# Poissons Ratio (z) = 0.08402 0.16008
#
# Static dielectric constant tensor:
#      x y z
#    x 2.497330 0.106330 -0.550980 
#    y 0.106330 1.932030 -0.184280 
#    z -0.550980 -0.184280 2.869200 
# 
# From -- ./inp_files/151770.got.cif
#   From: 2010.05.17/outbox.cif.g08.bks.cpg/sg2_76_cif.got.tgz:151770.got - 2010.06.03 11:33:40.
