data_PCOD9030312
_publ_section_title
;
Structure prediction by ZEFSAII (Michael W. Deem and Ramdas Pophale) SiO2 
 PCOD9030312
Probable space group: P -1
;
_chemical_formula_sum "Si O2"
_cell_formula_units_Z 16
_cell_length_a 15.260768
_cell_length_b 8.458694
_cell_length_c 15.129374
_cell_angle_alpha 68.985609
_cell_angle_beta 26.304130
_cell_angle_gamma 84.491110
_cell_volume 677.325755
_symmetry_space_group_name_H-M "P -1"
_symmetry_group_IT_number 2
_symmetry_cell_setting 'triclinic'
loop_
_space_group_symop_operation_xyz
x,y,z
-x,-y,-z
loop_
_atom_site_type_symbol
_atom_site_label
_atom_site_fract_x
_atom_site_fract_y
_atom_site_fract_z
Si Si1 0.554975 0.384893 0.343156
Si Si2 0.757087 0.701323 0.719741
Si Si3 0.582968 0.859642 0.993215
Si Si4 0.937204 0.433472 0.441583
Si Si5 0.017002 0.360782 0.192881
Si Si6 0.855987 0.606021 0.191656
Si Si7 0.163364 0.976991 0.714358
Si Si8 0.957749 0.136299 0.737988
O O1 0.730070 0.447390 0.256030
O O2 0.348456 0.405179 0.563851
O O3 0.421668 0.158058 0.473092
O O4 0.710654 0.550296 0.094535
O O5 0.830141 0.800192 0.537140
O O6 0.943237 0.636687 0.582558
O O7 0.500000 0.500000 0.000000
O O8 0.742805 0.837437 0.781284
O O9 0.334925 0.652555 0.276476
O O10 0.500000 0.000000 0.000000
O O11 0.729170 0.957884 0.930472
O O12 0.066213 0.673274 0.266775
O O13 0.956815 0.335588 0.353756
O O14 0.989204 0.537753 0.146404
O O15 0.850761 0.163284 0.324929
O O16 0.021401 0.823785 0.953441
O O17 0.021782 0.071692 0.783400
#
# Coordination Sequence:
#
# PCOD9030312 Si02
#       8
#     2   2   2   2   2   2   2   2
#     4  10  22  42  70  90 136 174 219 277 345 389
#     4  12  25  46  75  98 142 182 226 285 343 404
#     4  12  26  46  73  99 139 182 230 283 339 407
#     4  12  27  47  68 104 139 182 232 281 344 404
#     4  11  26  43  67 101 136 174 229 279 337 409
#     4  10  23  45  68  97 135 176 225 278 340 408
#     4  11  24  41  69 103 132 177 230 275 341 408
#     4  12  26  45  71 103 138 183 232 280 343 405
#
# _framework density 23.622312000000001
#
# number of rings (size 3 to 8) (size 9 to 14) (size 15 to 20)
#    0.000    0.750    2.500    4.875    3.500    9.000 
#    0.000    0.000    0.000    0.000    0.000    0.000 
#    0.000    0.000    0.000    0.000    0.000    0.000 
#
# Total GULP energy -89593.556646 kJ/mol
# GULP energy per Si atom -5599.597290 kJ/mol
# Density = 2.356855 g / cm^3
# Si number density = 23.622312 Si / 1000 Ang^3
#
#
#
# Elastic Constant Matrix: (Units=GPa)
#
#
# Indices 1 2 3 4 5 6 
#
# 1 68.8747 17.5809 24.5185 -15.3222 -3.1142 -9.7347
# 2 17.5809 91.9136 17.6096 -12.9053 0.1320 7.2488
# 3 24.5185 17.6096 103.9814 -10.8747 -17.4541 15.9684
# 4 -15.3222 -12.9053 -10.8747 42.2173 13.3252 1.7121
# 5 -3.1142 0.1320 -17.4541 13.3252 29.5267 -6.1015
# 6 -9.7347 7.2488 15.9684 1.7121 -6.1015 48.1552
#
#
#
# Elastic Compliance Matrix: (Units=1/GPa)
#
#
# Indices 1 2 3 4 5 6 
#
# 1 0.018553 -0.002338 -0.004564 0.005279 -0.002045 0.005169
# 2 -0.002338 0.012294 -0.001317 0.003695 -0.003249 -0.002430
# 3 -0.004564 -0.001317 0.012542 -0.000688 0.006413 -0.004046
# 4 0.005279 0.003695 -0.000688 0.031188 -0.014395 -0.002193
# 5 -0.002045 -0.003249 0.006413 -0.014395 0.044809 0.004139
# 6 0.005169 -0.002430 -0.004046 -0.002193 0.004139 0.024121
#
#
# Mechanical properties :
#
#
# Convention : Reuss Voigt Hill
#
# Bulk Modulus (GPa) = 37.10199 42.68751 39.89475
# Shear Modulus (GPa) = 29.59843 37.65054 33.62448
#
# Velocity S-wave (km/s) = 3.54359 3.99664 3.77692
# Velocity P-wave (km/s) = 5.69940 6.27755 5.99545
#
# Compressibility (1/GPa) = 0.02695273
#
# Stress axis : x y z
#
# Youngs Moduli (GPa) = 53.89932 81.33865 79.73139
#
# Poissons Ratio (x) = 0.19016 0.36388
# Poissons Ratio (y) = 0.12601 0.10498
# Poissons Ratio (z) = 0.24598 0.10710
#
# Static dielectric constant tensor:
#      x y z
#    x 1.862220 0.009490 -0.005920 
#    y 0.009490 1.942780 -0.006270 
#    z -0.005920 -0.006270 1.895460 
# 
# From -- ./inp_files/529531.got.cif
#   From: 2010.05.17/outbox.cif.g08.bks.cpg/sg2_265_cif.got.tgz:529531.got - 2010.06.03 11:33:40.
