data_PCOD9030257
_publ_section_title
;
Structure prediction by ZEFSAII (Michael W. Deem and Ramdas Pophale) SiO2 
 PCOD9030257
Probable space group: P -1
;
_chemical_formula_sum "Si O2"
_cell_formula_units_Z 13
_cell_length_a 20.940553
_cell_length_b 9.013683
_cell_length_c 12.656947
_cell_angle_alpha 41.825146
_cell_angle_beta 26.624482
_cell_angle_gamma 31.837679
_cell_volume 563.734948
_symmetry_space_group_name_H-M "P -1"
_symmetry_group_IT_number 2
_symmetry_cell_setting 'triclinic'
loop_
_space_group_symop_operation_xyz
x,y,z
-x,-y,-z
loop_
_atom_site_type_symbol
_atom_site_label
_atom_site_fract_x
_atom_site_fract_y
_atom_site_fract_z
Si Si1 0.000000 0.000000 0.500000
Si Si2 0.635021 0.053534 0.997805
Si Si3 0.032431 0.205590 0.120503
Si Si4 0.769344 0.463831 0.055201
Si Si5 0.459456 0.801962 0.713331
Si Si6 0.143183 0.976947 0.681726
Si Si7 0.541075 0.268560 0.795195
O O1 0.808310 0.046578 0.741197
O O2 0.967309 0.173385 0.345901
O O3 0.534809 0.169049 0.972891
O O4 0.708001 0.732096 0.072973
O O5 0.510770 0.230368 0.187513
O O6 0.947185 0.136757 0.190956
O O7 0.000000 0.500000 0.000000
O O8 0.247143 0.960688 0.929266
O O9 0.754803 0.245552 0.255485
O O10 0.639348 0.590115 0.079661
O O11 0.978402 0.280708 0.808459
O O12 0.563134 0.510393 0.654260
O O13 0.500000 0.000000 0.500000
O O14 0.284738 0.969844 0.403241
#
# Coordination Sequence:
#
# PCOD9030257 Si02
#       7
#     1   2   2   2   2   2   2
#     4  10  22  42  70 104 136 178 238 294 348 420
#     4  11  24  44  71 101 143 181 231 299 356 424
#     4  11  21  42  70 100 139 183 234 294 354 419
#     4  11  25  45  67 101 139 187 239 279 360 428
#     4  11  24  42  68 104 136 180 236 288 356 424
#     4  11  23  44  70  97 139 185 234 292 344 423
#     4  12  23  45  69 101 142 179 232 295 352 422
#
# _framework density 23.060482
#
# number of rings (size 3 to 8) (size 9 to 14) (size 15 to 20)
#    0.000    0.923    3.077    5.077    0.000    0.615 
#    0.000    1.538    0.000    0.000    0.000    0.000 
#    0.000    0.000    0.000    0.000    0.000    0.000 
#
# Total GULP energy -72528.301907 kJ/mol
# GULP energy per Si atom -5579.100147 kJ/mol
# Density = 2.300800 g / cm^3
# Si number density = 23.060482 Si / 1000 Ang^3
#
#
#
# Elastic Constant Matrix: (Units=GPa)
#
#
# Indices 1 2 3 4 5 6 
#
# 1 94.2974 11.3839 22.3024 -4.3205 9.8752 -29.5105
# 2 11.3839 42.4842 -4.9787 0.7357 -3.2583 9.5570
# 3 22.3024 -4.9787 87.0344 -8.6524 11.4177 -0.0383
# 4 -4.3205 0.7357 -8.6524 35.7556 -3.4550 0.9629
# 5 9.8752 -3.2583 11.4177 -3.4550 29.3506 -4.4976
# 6 -29.5105 9.5570 -0.0383 0.9629 -4.4976 38.1856
#
#
#
# Elastic Compliance Matrix: (Units=1/GPa)
#
#
# Indices 1 2 3 4 5 6 
#
# 1 0.018176 -0.009254 -0.004763 0.000535 -0.002772 0.016018
# 2 -0.009254 0.029883 0.003691 -0.000186 0.002783 -0.014294
# 3 -0.004763 0.003691 0.013658 0.002424 -0.003797 -0.005099
# 4 0.000535 -0.000186 0.002424 0.028840 0.002251 0.000000
# 5 -0.002772 0.002783 -0.003797 0.002251 0.037283 0.001492
# 6 0.016018 -0.014294 -0.005099 0.000000 0.001492 0.042315
#
#
# Mechanical properties :
#
#
# Convention : Reuss Voigt Hill
#
# Bulk Modulus (GPa) = 24.35177 31.24790 27.79984
# Shear Modulus (GPa) = 24.45040 33.66559 29.05800
#
# Velocity S-wave (km/s) = 3.25972 3.82499 3.55361
# Velocity P-wave (km/s) = 4.97499 5.75215 5.37763
#
# Compressibility (1/GPa) = 0.04106478
#
# Stress axis : x y z
#
# Youngs Moduli (GPa) = 55.01729 33.46440 73.21614
#
# Poissons Ratio (x) = 0.30967 0.34873
# Poissons Ratio (y) = 0.50912 -0.27022
# Poissons Ratio (z) = 0.26205 -0.12351
#
# Static dielectric constant tensor:
#      x y z
#    x 1.904980 0.006090 0.010880 
#    y 0.006090 1.861080 -0.002960 
#    z 0.010880 -0.002960 1.811760 
# 
# From -- ./inp_files/187563.got.cif
#   From: 2010.05.17/outbox.cif.g08.bks.cpg/sg2_94_cif.got.tgz:187563.got - 2010.06.03 11:33:40.
