data_PCOD9030935
_publ_section_title
;
Structure prediction by ZEFSAII (Michael W. Deem and Ramdas Pophale) SiO2 
 PCOD9030935
Probable space group: P -1
;
_chemical_formula_sum "Si O2"
_cell_formula_units_Z 14
_cell_length_a 12.774006
_cell_length_b 8.451801
_cell_length_c 16.879799
_cell_angle_alpha 126.230273
_cell_angle_beta 155.212971
_cell_angle_gamma 68.104141
_cell_volume 539.331337
_symmetry_space_group_name_H-M "P -1"
_symmetry_group_IT_number 2
_symmetry_cell_setting 'triclinic'
loop_
_space_group_symop_operation_xyz
x,y,z
-x,-y,-z
loop_
_atom_site_type_symbol
_atom_site_label
_atom_site_fract_x
_atom_site_fract_y
_atom_site_fract_z
Si Si1 0.321795 0.955191 0.653255
Si Si2 0.770112 0.491609 0.945035
Si Si3 0.220579 0.470186 0.477515
Si Si4 0.168559 0.838739 0.227346
Si Si5 0.908313 0.084585 0.037697
Si Si6 0.313368 0.796068 0.869613
Si Si7 0.397834 0.393324 0.810033
O O1 0.190920 0.120454 0.587467
O O2 0.189451 0.696670 0.514001
O O3 0.507422 0.104668 0.898047
O O4 0.571918 0.995242 0.775612
O O5 0.529057 0.506532 0.728063
O O6 0.860340 0.326845 0.913770
O O7 0.649142 0.435243 0.933263
O O8 0.059794 0.723381 0.203408
O O9 0.112027 0.340099 0.280618
O O10 0.005774 0.298456 0.344901
O O11 0.500000 0.000000 0.500000
O O12 0.977600 0.954017 0.114831
O O13 0.000000 0.000000 0.000000
O O14 0.303624 0.569308 0.765485
O O15 0.500000 0.000000 0.000000
O O16 0.500000 0.500000 0.000000
#
# Coordination Sequence:
#
# PCOD9030935 Si02
#       7
#     2   2   2   2   2   2   2
#     4  10  22  43  62  96 141 180 236 287 352 427
#     4  11  23  42  72 102 139 184 246 296 352 436
#     4  11  23  42  70 104 136 190 241 293 359 427
#     4  11  23  43  70 105 139 187 242 299 362 425
#     4  11  23  42  67 101 145 184 234 296 365 425
#     4  10  23  41  69  99 136 184 236 294 355 422
#     4  10  23  44  68 101 143 189 233 303 360 421
#
# _framework density 25.958068999999998
#
# number of rings (size 3 to 8) (size 9 to 14) (size 15 to 20)
#    0.000    1.429    2.857    1.714    2.000    3.429 
#    0.000   15.714    0.000    0.000    0.000    0.000 
#    0.000    0.000    0.000    0.000    0.000    0.000 
#
# Total GULP energy -78080.652339 kJ/mol
# GULP energy per Si atom -5577.189453 kJ/mol
# Density = 2.589899 g / cm^3
# Si number density = 25.958069 Si / 1000 Ang^3
#
#
#
# Elastic Constant Matrix: (Units=GPa)
#
#
# Indices 1 2 3 4 5 6 
#
# 1 133.0200 21.1285 30.6670 23.0309 5.0229 -10.2637
# 2 21.1285 159.0215 45.2704 36.4977 6.0274 -24.2700
# 3 30.6670 45.2704 110.5426 16.9046 9.1372 1.7450
# 4 23.0309 36.4977 16.9046 41.2822 0.3047 1.8558
# 5 5.0229 6.0274 9.1372 0.3047 50.1394 8.3166
# 6 -10.2637 -24.2700 1.7450 1.8558 8.3166 36.4822
#
#
#
# Elastic Compliance Matrix: (Units=1/GPa)
#
#
# Indices 1 2 3 4 5 6 
#
# 1 0.009151 0.001391 -0.002206 -0.005611 -0.001344 0.004198
# 2 0.001391 0.010489 -0.003248 -0.009085 -0.002160 0.008479
# 3 -0.002206 -0.003248 0.011161 -0.000323 -0.000908 -0.003092
# 4 -0.005611 -0.009085 -0.000323 0.035952 0.003180 -0.010161
# 5 -0.001344 -0.002160 -0.000908 0.003180 0.021623 -0.006863
# 6 0.004198 0.008479 -0.003092 -0.010161 -0.006863 0.036462
#
#
# Mechanical properties :
#
#
# Convention : Reuss Voigt Hill
#
# Bulk Modulus (GPa) = 44.09503 66.30177 55.19840
# Shear Modulus (GPa) = 35.58162 45.94864 40.76513
#
# Velocity S-wave (km/s) = 3.70636 4.21183 3.96715
# Velocity P-wave (km/s) = 5.94475 7.01784 6.50346
#
# Compressibility (1/GPa) = 0.02267829
#
# Stress axis : x y z
#
# Youngs Moduli (GPa) = 109.27381 95.33491 89.59402
#
# Poissons Ratio (x) = -0.13266 0.19762
# Poissons Ratio (y) = -0.15205 0.29097
# Poissons Ratio (z) = 0.24102 0.30962
#
# Static dielectric constant tensor:
#      x y z
#    x 2.139780 0.056270 0.059270 
#    y 0.056270 2.335640 0.003060 
#    z 0.059270 0.003060 2.063220 
# 
# From -- ./inp_files/106502.got.cif
#   From: 2010.05.17/outbox.cif.g08.bks.cpg/sg2_54_cif.got.tgz:106502.got - 2010.06.03 11:33:40.
