data_PCOD9030448
_publ_section_title
;
Structure prediction by ZEFSAII (Michael W. Deem and Ramdas Pophale) SiO2 
 PCOD9030448
Probable space group: P -1
;
_chemical_formula_sum "Si O2"
_cell_formula_units_Z 16
_cell_length_a 19.853846
_cell_length_b 7.700593
_cell_length_c 18.018015
_cell_angle_alpha 136.040368
_cell_angle_beta 21.275859
_cell_angle_gamma 126.241382
_cell_volume 658.311756
_symmetry_space_group_name_H-M "P -1"
_symmetry_group_IT_number 2
_symmetry_cell_setting 'triclinic'
loop_
_space_group_symop_operation_xyz
x,y,z
-x,-y,-z
loop_
_atom_site_type_symbol
_atom_site_label
_atom_site_fract_x
_atom_site_fract_y
_atom_site_fract_z
Si Si1 0.747937 0.926818 0.155231
Si Si2 0.195250 0.795244 0.206185
Si Si3 0.445834 0.250015 0.948462
Si Si4 0.005008 0.657509 0.234940
Si Si5 0.592087 0.789324 0.772669
Si Si6 0.119590 0.286579 0.194697
Si Si7 0.341641 0.806766 0.528258
Si Si8 0.815684 0.044892 0.415431
O O1 0.531155 0.902545 0.364655
O O2 0.740502 0.154371 0.291703
O O3 0.890412 0.656846 0.963925
O O4 0.807470 0.944086 0.013620
O O5 0.163086 0.781191 0.146382
O O6 0.180471 0.520903 0.167025
O O7 0.390825 0.855008 0.051638
O O8 0.000000 0.000000 0.500000
O O9 0.586393 0.144278 0.701331
O O10 0.510699 0.018149 0.868130
O O11 0.500000 0.500000 0.000000
O O12 0.226136 0.278485 0.160214
O O13 0.826405 0.725572 0.499129
O O14 0.924001 0.800098 0.283697
O O15 0.590477 0.495871 0.659372
O O16 0.898729 0.284815 0.427500
O O17 0.188188 0.971512 0.674796
#
# Coordination Sequence:
#
# PCOD9030448 Si02
#       8
#     2   2   2   2   2   2   2   2
#     4  10  22  42  71 100 137 178 220 277 347 399
#     4  11  24  40  64  96 132 174 226 275 337 392
#     4  11  26  44  64  97 139 178 224 279 340 391
#     4  10  23  43  63  98 133 174 221 278 323 404
#     4  11  23  43  68  93 134 175 226 279 324 407
#     4  11  23  42  67  98 135 174 229 276 333 404
#     4  11  21  44  71  99 136 178 222 281 340 403
#     4  11  24  42  68  96 138 173 227 279 328 402
#
# _framework density 24.304594999999999
#
# number of rings (size 3 to 8) (size 9 to 14) (size 15 to 20)
#    0.000    1.250    3.750    2.250    5.250    3.500 
#    0.000    1.875    0.000    0.000    0.000    0.000 
#    0.000    0.000    0.000    0.000    0.000    0.000 
#
# Total GULP energy -89165.760521 kJ/mol
# GULP energy per Si atom -5572.860033 kJ/mol
# Density = 2.424928 g / cm^3
# Si number density = 24.304595 Si / 1000 Ang^3
#
#
#
# Elastic Constant Matrix: (Units=GPa)
#
#
# Indices 1 2 3 4 5 6 
#
# 1 47.9319 -73.6814 -16.5646 -53.1045 -78.0748 -75.7116
# 2 -73.6814 -66.6489 -58.2315 -120.8107 -111.4918 -144.4826
# 3 -16.5646 -58.2315 44.9139 -66.7244 -65.1029 -57.3546
# 4 -53.1045 -120.8107 -66.7244 -23.3374 -57.9655 -110.4434
# 5 -78.0748 -111.4918 -65.1029 -57.9655 -12.5982 -96.5583
# 6 -75.7116 -144.4826 -57.3546 -110.4434 -96.5583 -119.6372
#
#
#
# Elastic Compliance Matrix: (Units=1/GPa)
#
#
# Indices 1 2 3 4 5 6 
#
# 1 0.013127 -0.001501 -0.002995 -0.005112 0.005104 -0.004459
# 2 -0.001501 0.009863 -0.001588 -0.001100 -0.001095 -0.008301
# 3 -0.002995 -0.001588 0.016076 0.002632 0.002720 -0.008519
# 4 -0.005112 -0.001100 0.002632 0.018056 -0.009099 -0.006023
# 5 0.005104 -0.001095 0.002720 -0.009099 0.021842 -0.012440
# 6 -0.004459 -0.008301 -0.008519 -0.006023 -0.012440 0.024172
#
#
# Mechanical properties :
#
#
# Convention : Reuss Voigt Hill
#
# Bulk Modulus (GPa) = 37.17759 -30.08423 3.54668
# Shear Modulus (GPa) = 40.23517 -19.46960 10.38278
#
# Velocity S-wave (km/s) = 4.07314 -2.83338 2.06911
# Velocity P-wave (km/s) = 6.11967 4.80718 2.67782
#
# Compressibility (1/GPa) = 0.02689793
#
# Stress axis : x y z
#
# Youngs Moduli (GPa) = 76.17868 101.39007 62.20547
#
# Poissons Ratio (x) = 0.15220 0.18631
# Poissons Ratio (y) = 0.11435 0.09876
# Poissons Ratio (z) = 0.22816 0.16097
#
# Static dielectric constant tensor:
#      x y z
#    x 2.091070 0.039400 0.038240 
#    y 0.039400 1.996520 -0.076240 
#    z 0.038240 -0.076240 2.077080 
# 
# From -- ./inp_files/601212.got.cif
#   From: 2010.05.17/outbox.cif.g08.bks.cpg/sg2_301_cif.got.tgz:601212.got - 2010.06.03 11:33:40.
