data_PCOD9030005
_publ_section_title
;
Structure prediction by ZEFSAII (Michael W. Deem and Ramdas Pophale) SiO2 
 PCOD9030005
Probable space group: P -1
;
_chemical_formula_sum "Si O2"
_cell_formula_units_Z 12
_cell_length_a 9.679159
_cell_length_b 6.005657
_cell_length_c 9.651406
_cell_angle_alpha 59.878678
_cell_angle_beta 93.484045
_cell_angle_gamma 111.789626
_cell_volume 445.066932
_symmetry_space_group_name_H-M "P -1"
_symmetry_group_IT_number 2
_symmetry_cell_setting 'triclinic'
loop_
_space_group_symop_operation_xyz
x,y,z
-x,-y,-z
loop_
_atom_site_type_symbol
_atom_site_label
_atom_site_fract_x
_atom_site_fract_y
_atom_site_fract_z
Si Si1 0.922462 0.577999 0.844653
Si Si2 0.612069 0.414811 0.943860
Si Si3 0.414724 0.427449 0.672102
Si Si4 0.534384 0.040210 0.305951
Si Si5 0.896968 0.824088 0.368488
Si Si6 0.808344 0.258665 0.687022
O O1 0.780981 0.638901 0.870106
O O2 0.838824 0.298035 0.838761
O O3 0.044766 0.848779 0.690833
O O4 0.000000 0.500000 0.000000
O O5 0.531248 0.369436 0.803513
O O6 0.500000 0.500000 0.000000
O O7 0.618429 0.178908 0.124035
O O8 0.436800 0.248178 0.590901
O O9 0.232479 0.250277 0.732186
O O10 0.419255 0.728541 0.641277
O O11 0.355827 0.947812 0.302593
O O12 0.818122 0.570501 0.549102
O O13 0.048750 0.783854 0.351373
#
# Coordination Sequence:
#
# PCOD9030005 Si02
#       6
#     2   2   2   2   2   2
#     4  12  26  46  75 106 143 193 247 306 371 441
#     4  10  22  42  69 105 146 186 241 310 366 433
#     4  11  24  43  74 103 146 189 247 304 363 442
#     4  11  24  46  71 109 144 194 242 310 373 434
#     4  11  27  47  71 106 148 198 243 303 371 450
#     4  11  27  48  71 103 152 195 245 302 373 446
#
# _framework density 26.962235
#
# number of rings (size 3 to 8) (size 9 to 14) (size 15 to 20)
#    0.000    1.000    1.667    4.000    9.333    2.000 
#    0.000    0.000    0.000    0.000    0.000    0.000 
#    0.000    0.000    0.000    0.000    0.000    0.000 
#
# Total GULP energy -66933.506638 kJ/mol
# GULP energy per Si atom -5577.792220 kJ/mol
# Density = 2.690087 g / cm^3
# Si number density = 26.962235 Si / 1000 Ang^3
#
#
#
# Elastic Constant Matrix: (Units=GPa)
#
#
# Indices 1 2 3 4 5 6 
#
# 1 138.4659 67.6850 -26.8463 6.2623 6.8026 21.3142
# 2 67.6850 200.3598 -13.5674 -8.1847 14.1312 5.8996
# 3 -26.8463 -13.5674 146.9214 -5.6366 -31.5894 5.8871
# 4 6.2623 -8.1847 -5.6366 47.7059 6.4661 -0.5204
# 5 6.8026 14.1312 -31.5894 6.4661 55.0055 -10.7688
# 6 21.3142 5.8996 5.8871 -0.5204 -10.7688 62.9192
#
#
#
# Elastic Compliance Matrix: (Units=1/GPa)
#
#
# Indices 1 2 3 4 5 6 
#
# 1 0.009594 -0.003119 0.001545 -0.001658 0.000090 -0.003100
# 2 -0.003119 0.006192 -0.000268 0.001647 -0.001502 0.000258
# 3 0.001545 -0.000268 0.008029 0.000101 0.004380 -0.000499
# 4 -0.001658 0.001647 0.000101 0.021842 -0.002705 0.000116
# 5 0.000090 -0.001502 0.004380 -0.002705 0.022064 0.003455
# 6 -0.003100 0.000258 -0.000499 0.000116 0.003455 0.017558
#
#
# Mechanical properties :
#
#
# Convention : Reuss Voigt Hill
#
# Bulk Modulus (GPa) = 49.67529 60.03221 54.85375
# Shear Modulus (GPa) = 52.26004 63.69116 57.97560
#
# Velocity S-wave (km/s) = 4.40735 4.86556 4.64211
# Velocity P-wave (km/s) = 6.66061 7.34020 7.00864
#
# Compressibility (1/GPa) = 0.02013073
#
# Stress axis : x y z
#
# Youngs Moduli (GPa) = 104.23070 161.49331 124.54227
#
# Poissons Ratio (x) = 0.50373 -0.19242
# Poissons Ratio (y) = 0.32512 0.03341
# Poissons Ratio (z) = -0.16104 0.04333
#
# Static dielectric constant tensor:
#      x y z
#    x 2.265610 -0.074260 -0.093730 
#    y -0.074260 2.248830 -0.019140 
#    z -0.093730 -0.019140 2.438780 
# 
# From -- ./inp_files/58347.got.cif
#   From: 2010.05.17/outbox.cif.g08.bks.cpg/sg2_30_cif.got.tgz:58347.got - 2010.06.03 11:33:40.
