data_PCOD9030052
_publ_section_title
;
Structure prediction by ZEFSAII (Michael W. Deem and Ramdas Pophale) SiO2 
 PCOD9030052
Probable space group: P -1
;
_chemical_formula_sum "Si O2"
_cell_formula_units_Z 13
_cell_length_a 15.747843
_cell_length_b 17.004952
_cell_length_c 11.180365
_cell_angle_alpha 25.280819
_cell_angle_beta 26.546555
_cell_angle_gamma 27.330720
_cell_volume 519.540313
_symmetry_space_group_name_H-M "P -1"
_symmetry_group_IT_number 2
_symmetry_cell_setting 'triclinic'
loop_
_space_group_symop_operation_xyz
x,y,z
-x,-y,-z
loop_
_atom_site_type_symbol
_atom_site_label
_atom_site_fract_x
_atom_site_fract_y
_atom_site_fract_z
Si Si1 0.472197 0.209778 0.802762
Si Si2 0.756010 0.863362 0.607720
Si Si3 0.259843 0.661778 0.602089
Si Si4 0.152594 0.274542 0.586182
Si Si5 0.129792 0.871928 0.237628
Si Si6 0.000000 0.500000 0.000000
Si Si7 0.566846 0.282386 0.154094
O O1 0.428707 0.165852 0.055580
O O2 0.253346 0.388101 0.791888
O O3 0.684436 0.245163 0.476442
O O4 0.500000 0.000000 0.000000
O O5 0.815940 0.754047 0.556391
O O6 0.946184 0.792217 0.562339
O O7 0.699384 0.097728 0.328745
O O8 0.500000 0.500000 0.500000
O O9 0.197215 0.826452 0.349993
O O10 0.088615 0.574056 0.914178
O O11 0.370592 0.237882 0.423695
O O12 0.000000 0.500000 0.500000
O O13 0.079217 0.103318 0.955460
O O14 0.297932 0.748774 0.094035
O O15 0.500000 0.500000 0.000000
#
# Coordination Sequence:
#
# PCOD9030052 Si02
#       7
#     2   2   2   2   2   1   2
#     4  11  24  44  69  98 135 182 237 284 349 410
#     4  11  22  42  65  96 137 172 221 285 341 412
#     4  10  22  42  69  94 132 178 233 283 348 405
#     4  11  22  40  64 103 133 177 222 273 346 414
#     4  11  21  41  66  95 134 176 217 284 342 410
#     4  10  22  46  64  96 130 178 232 294 334 406
#     4  11  22  37  64  97 134 172 219 268 345 419
#
# _framework density 25.022120000000001
#
# number of rings (size 3 to 8) (size 9 to 14) (size 15 to 20)
#    0.000    1.231    1.538    7.385    0.000    3.077 
#    5.538    3.077    0.000    0.000    0.000    0.000 
#    0.000    0.000    0.000    0.000    0.000    0.000 
#
# Total GULP energy -72454.565339 kJ/mol
# GULP energy per Si atom -5573.428103 kJ/mol
# Density = 2.496517 g / cm^3
# Si number density = 25.022120 Si / 1000 Ang^3
#
#
#
# Elastic Constant Matrix: (Units=GPa)
#
#
# Indices 1 2 3 4 5 6 
#
# 1 112.0384 27.2640 52.8023 0.1853 -52.4970 -24.6391
# 2 27.2640 110.5972 31.8847 -29.9762 -11.7691 8.9231
# 3 52.8023 31.8847 153.1178 -2.0703 -49.3357 1.8031
# 4 0.1853 -29.9762 -2.0703 38.9542 -5.6091 -16.4970
# 5 -52.4970 -11.7691 -49.3357 -5.6091 74.8805 10.0639
# 6 -24.6391 8.9231 1.8031 -16.4970 10.0639 30.0651
#
#
#
# Elastic Compliance Matrix: (Units=1/GPa)
#
#
# Indices 1 2 3 4 5 6 
#
# 1 0.018968 -0.002434 -0.003259 0.006325 0.008967 0.016932
# 2 -0.002434 0.012747 -0.001697 0.009544 -0.000049 -0.000423
# 3 -0.003259 -0.001697 0.009388 -0.002525 0.004186 -0.005517
# 4 0.006325 0.009544 -0.002525 0.044189 0.004174 0.025352
# 5 0.008967 -0.000049 0.004186 0.004174 0.022450 0.001887
# 6 0.016932 -0.000423 -0.005517 0.025352 0.001887 0.060873
#
#
# Mechanical properties :
#
#
# Convention : Reuss Voigt Hill
#
# Bulk Modulus (GPa) = 37.98944 66.62837 52.30891
# Shear Modulus (GPa) = 26.01870 46.36679 36.19275
#
# Velocity S-wave (km/s) = 3.22813 4.30936 3.80732
# Velocity P-wave (km/s) = 5.39535 7.17261 6.34650
#
# Compressibility (1/GPa) = 0.02632311
#
# Stress axis : x y z
#
# Youngs Moduli (GPa) = 52.71914 78.45133 106.52199
#
# Poissons Ratio (x) = 0.19095 0.34717
# Poissons Ratio (y) = 0.12831 0.18075
# Poissons Ratio (z) = 0.17182 0.13312
#
# Static dielectric constant tensor:
#      x y z
#    x 1.941490 0.192640 -0.223860 
#    y 0.192640 2.043610 0.036830 
#    z -0.223860 0.036830 1.971920 
# 
# From -- ./inp_files/454281.got.cif
#   From: 2010.05.17/outbox.cif.g08.bks.cpg/sg2_228_cif.got.tgz:454281.got - 2010.06.03 11:33:40.
