data_PCOD9030628
_publ_section_title
;
Structure prediction by ZEFSAII (Michael W. Deem and Ramdas Pophale) SiO2 
 PCOD9030628
Probable space group: P -1
;
_chemical_formula_sum "Si O2"
_cell_formula_units_Z 12
_cell_length_a 5.218606
_cell_length_b 10.150370
_cell_length_c 9.708995
_cell_angle_alpha 65.430339
_cell_angle_beta 99.667742
_cell_angle_gamma 83.231754
_cell_volume 450.868372
_symmetry_space_group_name_H-M "P -1"
_symmetry_group_IT_number 2
_symmetry_cell_setting 'triclinic'
loop_
_space_group_symop_operation_xyz
x,y,z
-x,-y,-z
loop_
_atom_site_type_symbol
_atom_site_label
_atom_site_fract_x
_atom_site_fract_y
_atom_site_fract_z
Si Si1 0.867649 0.672684 0.912324
Si Si2 0.691919 0.433547 0.357188
Si Si3 0.302372 0.143257 0.756954
Si Si4 0.136309 0.599791 0.298046
Si Si5 0.354165 0.809445 0.976736
Si Si6 0.422778 0.175667 0.438793
O O1 0.081427 0.495703 0.719832
O O2 0.590252 0.708053 0.955120
O O3 0.795447 0.753080 0.723981
O O4 0.000000 0.500000 0.000000
O O5 0.402469 0.539099 0.261018
O O6 0.760693 0.440885 0.520471
O O7 0.916507 0.248221 0.030906
O O8 0.656082 0.267624 0.396313
O O9 0.336910 0.200230 0.580782
O O10 0.036470 0.236329 0.761803
O O11 0.302511 0.970824 0.830354
O O12 0.538278 0.164935 0.871639
O O13 0.500000 0.000000 0.500000
#
# Coordination Sequence:
#
# PCOD9030628 Si02
#       6
#     2   2   2   2   2   2
#     4  12  30  56  80 116 166 213 255 329 408 476
#     4  10  23  42  66 114 145 196 244 328 378 449
#     4  11  26  49  84 116 156 209 271 330 386 477
#     4  10  22  42  72 105 155 186 256 318 384 443
#     4  11  29  53  80 115 161 214 261 323 406 473
#     4  12  27  50  83 117 161 207 270 328 396 475
#
# _framework density 26.615307999999999
#
# number of rings (size 3 to 8) (size 9 to 14) (size 15 to 20)
#    0.000    1.000    1.667    3.500    7.000    8.667 
#    0.000    0.000    0.000    0.000    0.000    0.000 
#    0.000    0.000    0.000    0.000    0.000    0.000 
#
# Total GULP energy -67309.756168 kJ/mol
# GULP energy per Si atom -5609.146347 kJ/mol
# Density = 2.655473 g / cm^3
# Si number density = 26.615308 Si / 1000 Ang^3
#
#
#
# Elastic Constant Matrix: (Units=GPa)
#
#
# Indices 1 2 3 4 5 6 
#
# 1 179.0197 68.2487 29.7331 5.7928 9.8501 -14.2173
# 2 68.2487 212.0062 32.6302 -21.3923 -8.0160 5.4811
# 3 29.7331 32.6302 207.9884 -2.9116 4.5450 -19.2914
# 4 5.7928 -21.3923 -2.9116 41.6596 -7.0726 1.2084
# 5 9.8501 -8.0160 4.5450 -7.0726 35.5966 3.5363
# 6 -14.2173 5.4811 -19.2914 1.2084 3.5363 44.4166
#
#
#
# Elastic Compliance Matrix: (Units=1/GPa)
#
#
# Indices 1 2 3 4 5 6 
#
# 1 0.007230 -0.002808 -0.000292 -0.003147 -0.003509 0.002899
# 2 -0.002808 0.006371 -0.000839 0.004252 0.003405 -0.002436
# 3 -0.000292 -0.000839 0.005220 -0.000275 -0.001065 0.002370
# 4 -0.003147 0.004252 -0.000275 0.028006 0.007729 -0.003029
# 5 -0.003509 0.003405 -0.001065 0.007729 0.031975 -0.004762
# 6 0.002899 -0.002436 0.002370 -0.003029 -0.004762 0.025234
#
#
# Mechanical properties :
#
#
# Convention : Reuss Voigt Hill
#
# Bulk Modulus (GPa) = 91.36938 95.58202 93.47570
# Shear Modulus (GPa) = 43.26745 55.56138 49.41442
#
# Velocity S-wave (km/s) = 4.03632 4.57395 4.31352
# Velocity P-wave (km/s) = 7.49177 7.99282 7.74635
#
# Compressibility (1/GPa) = 0.01094459
#
# Stress axis : x y z
#
# Youngs Moduli (GPa) = 138.31266 156.97037 191.55320
#
# Poissons Ratio (x) = 0.44074 0.05585
# Poissons Ratio (y) = 0.38836 0.16070
# Poissons Ratio (z) = 0.04032 0.13168
#
# Static dielectric constant tensor:
#      x y z
#    x 2.114970 0.023250 -0.097880 
#    y 0.023250 2.063850 -0.018370 
#    z -0.097880 -0.018370 2.185180 
# 
# From -- ./inp_files/180541.got.cif
#   From: 2010.05.17/outbox.cif.g08.bks.cpg/sg2_91_cif.got.tgz:180541.got - 2010.06.03 11:33:40.
