data_PCOD9030859
_publ_section_title
;
Structure prediction by ZEFSAII (Michael W. Deem and Ramdas Pophale) SiO2 
 PCOD9030859
Probable space group: P -1
;
_chemical_formula_sum "Si O2"
_cell_formula_units_Z 14
_cell_length_a 9.265660
_cell_length_b 7.782273
_cell_length_c 9.708948
_cell_angle_alpha 81.131469
_cell_angle_beta 72.328211
_cell_angle_gamma 66.329050
_cell_volume 610.514951
_symmetry_space_group_name_H-M "P -1"
_symmetry_group_IT_number 2
_symmetry_cell_setting 'triclinic'
loop_
_space_group_symop_operation_xyz
x,y,z
-x,-y,-z
loop_
_atom_site_type_symbol
_atom_site_label
_atom_site_fract_x
_atom_site_fract_y
_atom_site_fract_z
Si Si1 0.563269 0.581649 0.599755
Si Si2 0.741649 0.853386 0.489992
Si Si3 0.779684 0.183655 0.289411
Si Si4 0.593998 0.983750 0.804131
Si Si5 0.886454 0.265218 0.554087
Si Si6 0.565536 0.276943 0.986413
Si Si7 0.120034 0.993836 0.163716
O O1 0.500000 0.500000 0.500000
O O2 0.634257 0.732498 0.503896
O O3 0.394772 0.666408 0.723469
O O4 0.727256 0.434081 0.637970
O O5 0.649242 0.974523 0.633111
O O6 0.931870 0.730907 0.489211
O O7 0.746957 0.994367 0.352810
O O8 0.835005 0.244014 0.414250
O O9 0.940074 0.124053 0.157068
O O10 0.496448 0.850619 0.878602
O O11 0.762847 0.894033 0.853976
O O12 0.522821 0.195069 0.861419
O O13 0.900149 0.093129 0.671159
O O14 0.500000 0.500000 0.000000
O O15 0.763231 0.181711 0.936424
#
# Coordination Sequence:
#
# PCOD9030859 Si02
#       7
#     2   2   2   2   2   2   2
#     4  10  23  31  45  77 115 144 171 213 263 315
#     4  11  18  33  55  75 106 142 179 208 261 325
#     4  10  17  34  51  75 111 141 163 214 270 326
#     4   9  18  31  54  81 102 140 176 221 272 310
#     4  10  17  32  52  81 105 133 175 219 257 318
#     4   9  18  32  50  84 106 127 177 241 262 300
#     4   9  16  32  54  77 101 136 176 213 266 313
#
# _framework density 22.931462
#
# number of rings (size 3 to 8) (size 9 to 14) (size 15 to 20)
#    0.857    1.429    2.857    1.714    2.000    0.000 
#    0.000    0.000    0.000    0.857    0.000    3.000 
#    0.000    0.000    0.000    0.000    0.000    0.000 
#
# Total GULP energy -77947.846978 kJ/mol
# GULP energy per Si atom -5567.703356 kJ/mol
# Density = 2.287927 g / cm^3
# Si number density = 22.931462 Si / 1000 Ang^3
#
#
#
# Elastic Constant Matrix: (Units=GPa)
#
#
# Indices 1 2 3 4 5 6 
#
# 1 148.6788 68.3697 52.3633 22.9192 -19.7915 -9.4955
# 2 68.3697 105.5593 27.3815 30.8346 -11.7635 -10.9471
# 3 52.3633 27.3815 59.1326 16.9161 -18.5937 -7.1658
# 4 22.9192 30.8346 16.9161 31.1349 -10.7995 -8.9051
# 5 -19.7915 -11.7635 -18.5937 -10.7995 44.1773 13.0731
# 6 -9.4955 -10.9471 -7.1658 -8.9051 13.0731 55.5764
#
#
#
# Elastic Compliance Matrix: (Units=1/GPa)
#
#
# Indices 1 2 3 4 5 6 
#
# 1 0.012385 -0.006350 -0.008331 0.001969 0.000861 -0.000096
# 2 -0.006350 0.017029 0.001176 -0.013068 -0.001190 0.000607
# 3 -0.008331 0.001176 0.028076 -0.008138 0.006530 -0.000412
# 4 0.001969 -0.013068 -0.008138 0.050924 0.005357 0.003613
# 5 0.000861 -0.001190 0.006530 0.005357 0.028252 -0.005033
# 6 -0.000096 0.000607 -0.000412 0.003613 -0.005033 0.019806
#
#
# Mechanical properties :
#
#
# Convention : Reuss Voigt Hill
#
# Bulk Modulus (GPa) = 32.80997 67.73330 50.27163
# Shear Modulus (GPa) = 25.82094 37.19479 31.50787
#
# Velocity S-wave (km/s) = 3.35924 4.03177 3.71077
# Velocity P-wave (km/s) = 5.42078 7.16066 6.35059
#
# Compressibility (1/GPa) = 0.03047854
#
# Stress axis : x y z
#
# Youngs Moduli (GPa) = 80.74352 58.72422 35.61802
#
# Poissons Ratio (x) = 0.37289 0.29674
# Poissons Ratio (y) = 0.51270 -0.04187
# Poissons Ratio (z) = 0.67268 -0.06903
#
# Static dielectric constant tensor:
#      x y z
#    x 1.909970 -0.029380 -0.001780 
#    y -0.029380 1.919420 0.072950 
#    z -0.001780 0.072950 1.962050 
# 
# From -- ./inp_files/379070.got.cif
#   From: 2010.05.17/outbox.cif.g08.bks.cpg/sg2_190_cif.got.tgz:379070.got - 2010.06.03 11:33:40.
