data_PCOD9030542
_publ_section_title
;
Structure prediction by ZEFSAII (Michael W. Deem and Ramdas Pophale) SiO2 
 PCOD9030542
Probable space group: P -1
;
_chemical_formula_sum "Si O2"
_cell_formula_units_Z 14
_cell_length_a 23.914995
_cell_length_b 8.835603
_cell_length_c 16.183646
_cell_angle_alpha 30.350475
_cell_angle_beta 18.887869
_cell_angle_gamma 33.088191
_cell_volume 554.571074
_symmetry_space_group_name_H-M "P -1"
_symmetry_group_IT_number 2
_symmetry_cell_setting 'triclinic'
loop_
_space_group_symop_operation_xyz
x,y,z
-x,-y,-z
loop_
_atom_site_type_symbol
_atom_site_label
_atom_site_fract_x
_atom_site_fract_y
_atom_site_fract_z
Si Si1 0.621793 0.258009 0.190485
Si Si2 0.150385 0.838101 0.524189
Si Si3 0.830887 0.555467 0.027482
Si Si4 0.891519 0.508682 0.781227
Si Si5 0.439833 0.444670 0.202129
Si Si6 0.215018 0.102831 0.582125
Si Si7 0.638005 0.338918 0.533456
O O1 0.811790 0.238657 0.972728
O O2 0.600499 0.331967 0.089529
O O3 0.528006 0.550413 0.233042
O O4 0.500000 0.000000 0.500000
O O5 0.313455 0.710655 0.297871
O O6 0.201850 0.700360 0.607095
O O7 0.980263 0.727271 0.774515
O O8 0.121119 0.199494 0.396235
O O9 0.798715 0.616234 0.947683
O O10 0.668188 0.581886 0.305533
O O11 0.882741 0.191262 0.130391
O O12 0.085295 0.382492 0.599168
O O13 0.314306 0.184414 0.486356
O O14 0.500000 0.500000 0.000000
O O15 0.354292 0.975544 0.377066
#
# Coordination Sequence:
#
# PCOD9030542 Si02
#       7
#     2   2   2   2   2   2   2
#     4  11  27  46  69 102 140 176 230 285 339 400
#     4  11  24  42  69 104 139 176 225 289 339 396
#     4  10  22  42  71  97 138 180 228 271 346 401
#     4  12  25  41  72 106 139 171 235 290 330 396
#     4  11  26  46  70  96 142 186 224 272 357 406
#     4  10  24  45  75  95 135 188 231 267 343 412
#     4   9  25  43  70  94 141 183 222 269 351 405
#
# _framework density 25.244734000000001
#
# number of rings (size 3 to 8) (size 9 to 14) (size 15 to 20)
#    0.857    0.571    1.429    2.143    8.000    3.429 
#    0.000    0.000    0.000    0.000    0.000    0.000 
#    0.000    0.000    0.000    0.000    0.000    0.000 
#
# Total GULP energy -78294.834112 kJ/mol
# GULP energy per Si atom -5592.488151 kJ/mol
# Density = 2.518728 g / cm^3
# Si number density = 25.244734 Si / 1000 Ang^3
#
#
#
# Elastic Constant Matrix: (Units=GPa)
#
#
# Indices 1 2 3 4 5 6 
#
# 1 123.4282 6.1690 19.4032 5.8599 -9.7529 4.4081
# 2 6.1690 68.1411 -0.3693 -4.2587 -0.5777 12.3554
# 3 19.4032 -0.3693 64.3495 -11.2152 4.4874 4.0759
# 4 5.8599 -4.2587 -11.2152 29.3260 13.2413 0.9542
# 5 -9.7529 -0.5777 4.4874 13.2413 46.1439 -5.6852
# 6 4.4081 12.3554 4.0759 0.9542 -5.6852 26.9438
#
#
#
# Elastic Compliance Matrix: (Units=1/GPa)
#
#
# Indices 1 2 3 4 5 6 
#
# 1 0.009366 -0.001312 -0.004113 -0.005476 0.004025 0.000735
# 2 -0.001312 0.016633 0.002091 0.004996 -0.002751 -0.008487
# 3 -0.004113 0.002091 0.019660 0.011878 -0.006794 -0.005114
# 4 -0.005476 0.004996 0.011878 0.048517 -0.017225 -0.008545
# 5 0.004025 -0.002751 -0.006794 -0.017225 0.029124 0.008386
# 6 0.000735 -0.008487 -0.005114 -0.008545 0.008386 0.043731
#
#
# Mechanical properties :
#
#
# Convention : Reuss Voigt Hill
#
# Bulk Modulus (GPa) = 25.64647 34.03608 29.84128
# Shear Modulus (GPa) = 26.78132 35.86380 31.32256
#
# Velocity S-wave (km/s) = 3.26063 3.77323 3.52626
# Velocity P-wave (km/s) = 4.93526 5.70042 5.33158
#
# Compressibility (1/GPa) = 0.03899173
#
# Stress axis : x y z
#
# Youngs Moduli (GPa) = 106.77096 60.12082 50.86397
#
# Poissons Ratio (x) = 0.07885 0.20922
# Poissons Ratio (y) = 0.14004 -0.10636
# Poissons Ratio (z) = 0.43918 -0.12571
#
# Static dielectric constant tensor:
#      x y z
#    x 1.937820 0.044750 0.009070 
#    y 0.044750 1.988140 -0.015310 
#    z 0.009070 -0.015310 2.161320 
# 
# From -- ./inp_files/542482.got.cif
#   From: 2010.05.17/outbox.cif.g08.bks.cpg/sg2_272_cif.got.tgz:542482.got - 2010.06.03 11:33:40.
