data_PCOD9030349
_publ_section_title
;
Structure prediction by ZEFSAII (Michael W. Deem and Ramdas Pophale) SiO2 
 PCOD9030349
Probable space group: P -1
;
_chemical_formula_sum "Si O2"
_cell_formula_units_Z 14
_cell_length_a 9.238708
_cell_length_b 9.956456
_cell_length_c 15.219756
_cell_angle_alpha 102.366373
_cell_angle_beta 140.001956
_cell_angle_gamma 104.323238
_cell_volume 663.922118
_symmetry_space_group_name_H-M "P -1"
_symmetry_group_IT_number 2
_symmetry_cell_setting 'triclinic'
loop_
_space_group_symop_operation_xyz
x,y,z
-x,-y,-z
loop_
_atom_site_type_symbol
_atom_site_label
_atom_site_fract_x
_atom_site_fract_y
_atom_site_fract_z
Si Si1 0.128570 0.309383 0.714786
Si Si2 0.667882 0.328989 0.554104
Si Si3 0.913993 0.067323 0.741028
Si Si4 0.233953 0.693798 0.590817
Si Si5 0.175922 0.993229 0.001733
Si Si6 0.780664 0.557503 0.981133
Si Si7 0.885300 0.589317 0.839815
O O1 0.474512 0.458170 0.876681
O O2 0.937381 0.247397 0.527593
O O3 0.996966 0.391663 0.714254
O O4 0.038200 0.148088 0.713151
O O5 0.613781 0.325708 0.424305
O O6 0.425685 0.120207 0.443141
O O7 0.680324 0.458199 0.645379
O O8 0.090064 0.024140 0.872918
O O9 0.974738 0.231093 0.847521
O O10 0.480592 0.843871 0.793257
O O11 0.000000 0.500000 0.500000
O O12 0.080523 0.797418 0.933372
O O13 0.283873 0.447847 0.153041
O O14 0.000000 0.000000 0.000000
O O15 0.905188 0.455903 0.042946
#
# Coordination Sequence:
#
# PCOD9030349 Si02
#       7
#     2   2   2   2   2   2   2
#     4  10  23  40  73  95 129 177 224 260 331 397
#     4  10  23  41  70  96 134 167 226 271 323 384
#     4  12  22  42  74  95 128 185 223 258 329 409
#     4  10  22  42  70  95 129 177 219 268 325 399
#     4  12  23  43  68  94 133 179 218 260 338 399
#     4  11  22  42  70  96 135 174 222 268 331 394
#     4  11  25  39  67 103 135 165 221 286 323 381
#
# _framework density 21.086811999999998
#
# number of rings (size 3 to 8) (size 9 to 14) (size 15 to 20)
#    0.857    0.286    4.286    1.714    0.000    1.714 
#    0.000    5.714    0.000    0.000    0.000    0.000 
#    0.000    0.000    0.000    0.000    0.000    0.000 
#
# Total GULP energy -78147.489961 kJ/mol
# GULP energy per Si atom -5581.963569 kJ/mol
# Density = 2.103882 g / cm^3
# Si number density = 21.086812 Si / 1000 Ang^3
#
#
#
# Elastic Constant Matrix: (Units=GPa)
#
#
# Indices 1 2 3 4 5 6 
#
# 1 100.9243 52.5525 43.1924 16.7293 -9.2573 29.4256
# 2 52.5525 154.3621 52.3632 5.0961 -4.6776 28.0504
# 3 43.1924 52.3632 111.8030 -7.3307 -10.2399 15.8843
# 4 16.7293 5.0961 -7.3307 39.0184 11.6087 -5.6257
# 5 -9.2573 -4.6776 -10.2399 11.6087 29.2632 -5.3523
# 6 29.4256 28.0504 15.8843 -5.6257 -5.3523 26.8128
#
#
#
# Elastic Compliance Matrix: (Units=1/GPa)
#
#
# Indices 1 2 3 4 5 6 
#
# 1 0.022657 -0.001031 -0.005459 -0.016027 0.007344 -0.022449
# 2 -0.001031 0.009266 -0.003089 -0.002295 -0.000347 -0.007283
# 3 -0.005459 -0.003089 0.012467 0.005358 0.000579 0.003077
# 4 -0.016027 -0.002295 0.005358 0.041811 -0.016055 0.022384
# 5 0.007344 -0.000347 0.000579 -0.016055 0.042476 -0.002929
# 6 -0.022449 -0.007283 0.003077 0.022384 -0.002929 0.071841
#
#
# Mechanical properties :
#
#
# Convention : Reuss Voigt Hill
#
# Bulk Modulus (GPa) = 39.63113 73.70062 56.66588
# Shear Modulus (GPa) = 21.92145 33.61763 27.76954
#
# Velocity S-wave (km/s) = 3.22775 3.99714 3.63287
# Velocity P-wave (km/s) = 5.72069 7.50531 6.67293
#
# Compressibility (1/GPa) = 0.02523269
#
# Stress axis : x y z
#
# Youngs Moduli (GPa) = 44.13626 107.92380 80.20992
#
# Poissons Ratio (x) = 0.11123 0.43787
# Poissons Ratio (y) = 0.04549 0.24777
# Poissons Ratio (z) = 0.24094 0.33338
#
# Static dielectric constant tensor:
#      x y z
#    x 1.765230 -0.030390 -0.021460 
#    y -0.030390 1.726510 -0.020750 
#    z -0.021460 -0.020750 1.867580 
# 
# From -- ./inp_files/231145.got.cif
#   From: 2010.05.17/outbox.cif.g08.bks.cpg/sg2_116_cif.got.tgz:231145.got - 2010.06.03 11:33:40.
