data_PCOD9030003
_publ_section_title
;
Structure prediction by ZEFSAII (Michael W. Deem and Ramdas Pophale) SiO2 
 PCOD9030003
Probable space group: P -1
;
_chemical_formula_sum "Si O2"
_cell_formula_units_Z 15
_cell_length_a 18.701385
_cell_length_b 11.322408
_cell_length_c 7.835515
_cell_angle_alpha 109.695158
_cell_angle_beta 122.849989
_cell_angle_gamma 26.259913
_cell_volume 564.648194
_symmetry_space_group_name_H-M "P -1"
_symmetry_group_IT_number 2
_symmetry_cell_setting 'triclinic'
loop_
_space_group_symop_operation_xyz
x,y,z
-x,-y,-z
loop_
_atom_site_type_symbol
_atom_site_label
_atom_site_fract_x
_atom_site_fract_y
_atom_site_fract_z
Si Si1 0.560430 0.250885 0.278131
Si Si2 0.571201 0.653065 0.477787
Si Si3 0.095934 0.969296 0.483356
Si Si4 0.948809 0.841924 0.767176
Si Si5 0.822400 0.908629 0.977542
Si Si6 0.500000 0.500000 0.000000
Si Si7 0.173103 0.465434 0.412887
Si Si8 0.299411 0.199595 0.788795
O O1 0.435823 0.367550 0.339037
O O2 0.450302 0.474414 0.099084
O O3 0.741097 0.088292 0.518918
O O4 0.670558 0.983492 0.211657
O O5 0.350160 0.946206 0.257247
O O6 0.687743 0.623171 0.555884
O O7 0.676280 0.390237 0.393545
O O8 0.971782 0.257015 0.522327
O O9 0.015211 0.072774 0.233948
O O10 0.000000 0.000000 0.500000
O O11 0.114602 0.515763 0.787732
O O12 0.905214 0.889908 0.929961
O O13 0.705058 0.151934 0.075341
O O14 0.019256 0.593066 0.162901
O O15 0.283297 0.233716 0.579802
O O16 0.500000 0.000000 0.000000
#
# Coordination Sequence:
#
# PCOD9030003 Si02
#       8
#     2   2   2   2   2   1   2   2
#     4  11  25  45  69 102 136 183 228 287 337 412
#     4  10  22  42  69 105 143 178 224 283 347 406
#     4   9  18  39  68  99 143 181 220 282 341 406
#     4  10  22  45  68  98 139 180 229 282 340 407
#     4  11  23  41  71 103 139 182 222 282 343 408
#     4  12  24  42  74 106 138 180 234 276 350 410
#     4  10  23  44  68 101 138 180 231 281 334 418
#     4  11  26  48  70  96 138 184 228 285 347 401
#
# _framework density 26.565213
#
# number of rings (size 3 to 8) (size 9 to 14) (size 15 to 20)
#    0.000    1.600    0.000    4.400    3.733    2.667 
#    7.200    5.333    0.000    0.000    0.000    0.000 
#    0.000    0.000    0.000    0.000    0.000    0.000 
#
# Total GULP energy -83622.513330 kJ/mol
# GULP energy per Si atom -5574.834222 kJ/mol
# Density = 2.650475 g / cm^3
# Si number density = 26.565213 Si / 1000 Ang^3
#
#
#
# Elastic Constant Matrix: (Units=GPa)
#
#
# Indices 1 2 3 4 5 6 
#
# 1 113.6482 59.1465 50.0465 -14.9640 -14.8040 -15.8817
# 2 59.1465 108.2098 22.4853 -15.2319 -11.6824 -7.6866
# 3 50.0465 22.4853 131.0088 -32.6344 -17.0412 3.7477
# 4 -14.9640 -15.2319 -32.6344 31.4592 4.3210 -7.4292
# 5 -14.8040 -11.6824 -17.0412 4.3210 29.1447 3.2710
# 6 -15.8817 -7.6866 3.7477 -7.4292 3.2710 52.1119
#
#
#
# Elastic Compliance Matrix: (Units=1/GPa)
#
#
# Indices 1 2 3 4 5 6 
#
# 1 0.015108 -0.006877 -0.004497 -0.000178 0.001891 0.003769
# 2 -0.006877 0.013588 0.001812 0.004962 0.002239 0.000345
# 3 -0.004497 0.001812 0.012268 0.010732 0.004104 -0.000713
# 4 -0.000178 0.004962 0.010732 0.046710 0.000515 0.006533
# 5 0.001891 0.002239 0.004104 0.000515 0.038689 -0.001743
# 6 0.003769 0.000345 -0.000713 0.006533 -0.001743 0.021481
#
#
# Mechanical properties :
#
#
# Convention : Reuss Voigt Hill
#
# Bulk Modulus (GPa) = 45.78690 68.46927 57.12809
# Shear Modulus (GPa) = 28.69494 37.28905 32.99199
#
# Velocity S-wave (km/s) = 3.29016 3.75064 3.52792
# Velocity P-wave (km/s) = 5.63086 6.67730 6.17628
#
# Compressibility (1/GPa) = 0.02184031
#
# Stress axis : x y z
#
# Youngs Moduli (GPa) = 66.19017 73.59387 81.51532
#
# Poissons Ratio (x) = 0.50607 0.36660
# Poissons Ratio (y) = 0.45516 -0.14772
# Poissons Ratio (z) = 0.29768 -0.13336
#
# Static dielectric constant tensor:
#      x y z
#    x 2.245080 -0.083840 -0.248140 
#    y -0.083840 2.070530 -0.186280 
#    z -0.248140 -0.186280 1.395740 
# 
# From -- ./inp_files/332079.got.cif
#   From: 2010.05.17/outbox.cif.g08.bks.cpg/sg2_167_cif.got.tgz:332079.got - 2010.06.03 11:33:40.
