data_PCOD9030590
_publ_section_title
;
Structure prediction by ZEFSAII (Michael W. Deem and Ramdas Pophale) SiO2 
 PCOD9030590
Probable space group: P -1
;
_chemical_formula_sum "Si O2"
_cell_formula_units_Z 11
_cell_length_a 5.100180
_cell_length_b 10.276672
_cell_length_c 17.158560
_cell_angle_alpha 40.123312
_cell_angle_beta 71.180893
_cell_angle_gamma 95.819565
_cell_volume 450.504531
_symmetry_space_group_name_H-M "P -1"
_symmetry_group_IT_number 2
_symmetry_cell_setting 'triclinic'
loop_
_space_group_symop_operation_xyz
x,y,z
-x,-y,-z
loop_
_atom_site_type_symbol
_atom_site_label
_atom_site_fract_x
_atom_site_fract_y
_atom_site_fract_z
Si Si1 0.098282 0.492385 0.214682
Si Si2 0.311605 0.282316 0.826187
Si Si3 0.413801 0.206140 0.679184
Si Si4 0.710782 0.298032 0.065217
Si Si5 0.043918 0.862015 0.386449
Si Si6 0.000000 0.000000 0.500000
O O1 0.376073 0.654353 0.179576
O O2 0.811310 0.544222 0.219304
O O3 0.958849 0.210720 0.369218
O O4 0.278997 0.589795 0.069534
O O5 0.419615 0.322346 0.707129
O O6 0.000000 0.000000 0.000000
O O7 0.238225 0.729648 0.420715
O O8 0.207054 0.223546 0.622545
O O9 0.232607 0.918466 0.851107
O O10 0.345569 0.149099 0.208293
O O11 0.000000 0.500000 0.000000
O O12 0.929115 0.864773 0.482410
#
# Coordination Sequence:
#
# PCOD9030590 Si02
#       6
#     2   2   2   2   2   1
#     4  12  28  43  75 108 147 191 234 302 358 434
#     4  12  23  46  75 110 141 183 247 304 358 414
#     4  10  22  42  72 101 138 174 244 298 355 411
#     4  10  23  42  71 106 136 186 240 300 352 406
#     4  10  24  44  71  98 144 188 233 303 343 433
#     4  12  30  50  68 106 158 190 246 278 378 436
#
# _framework density 24.417069999999999
#
# number of rings (size 3 to 8) (size 9 to 14) (size 15 to 20)
#    1.091    0.000    1.818    3.818    2.545    4.364 
#    0.000    5.455    0.000    0.000    0.000    0.000 
#    0.000    0.000    0.000    0.000    0.000    0.000 
#
# Total GULP energy -61353.996441 kJ/mol
# GULP energy per Si atom -5577.636040 kJ/mol
# Density = 2.436150 g / cm^3
# Si number density = 24.417070 Si / 1000 Ang^3
#
#
#
# Elastic Constant Matrix: (Units=GPa)
#
#
# Indices 1 2 3 4 5 6 
#
# 1 98.2727 8.9747 6.4090 21.7764 2.1167 14.6870
# 2 8.9747 108.5555 15.4406 23.0816 -5.0286 19.5284
# 3 6.4090 15.4406 121.4202 3.4905 15.2554 -1.2128
# 4 21.7764 23.0816 3.4905 40.5368 2.6821 23.2882
# 5 2.1167 -5.0286 15.2554 2.6821 35.2136 -2.7224
# 6 14.6870 19.5284 -1.2128 23.2882 -2.7224 47.7515
#
#
#
# Elastic Compliance Matrix: (Units=1/GPa)
#
#
# Indices 1 2 3 4 5 6 
#
# 1 0.011622 0.000548 -0.000519 -0.006002 -0.000007 -0.000885
# 2 0.000548 0.011023 -0.001607 -0.005517 0.002512 -0.001884
# 3 -0.000519 -0.001607 0.008975 0.000308 -0.004059 0.000663
# 4 -0.006002 -0.005517 0.000308 0.040466 -0.004872 -0.015903
# 5 -0.000007 0.002512 -0.004059 -0.004872 0.031120 0.003022
# 6 -0.000885 -0.001884 0.000663 -0.015903 0.003022 0.029929
#
#
# Mechanical properties :
#
#
# Convention : Reuss Voigt Hill
#
# Bulk Modulus (GPa) = 35.12942 43.32189 39.22565
# Shear Modulus (GPa) = 34.29836 44.52863 39.41350
#
# Velocity S-wave (km/s) = 3.75198 4.27508 4.02204
# Velocity P-wave (km/s) = 5.76093 6.49225 6.13749
#
# Compressibility (1/GPa) = 0.02846617
#
# Stress axis : x y z
#
# Youngs Moduli (GPa) = 86.04444 90.71704 111.41773
#
# Poissons Ratio (x) = -0.04971 0.05778
# Poissons Ratio (y) = -0.04715 0.17899
# Poissons Ratio (z) = 0.04462 0.14574
#
# Static dielectric constant tensor:
#      x y z
#    x 1.915720 -0.012250 -0.077110 
#    y -0.012250 1.845590 -0.020400 
#    z -0.077110 -0.020400 1.957790 
# 
# From -- ./inp_files/287795.got.cif
#   From: 2010.05.17/outbox.cif.g08.bks.cpg/sg2_144_cif.got.tgz:287795.got - 2010.06.03 11:33:40.
