data_PCOD9030895
_publ_section_title
;
Structure prediction by ZEFSAII (Michael W. Deem and Ramdas Pophale) SiO2 
 PCOD9030895
Probable space group: P -1
;
_chemical_formula_sum "Si O2"
_cell_formula_units_Z 16
_cell_length_a 13.691386
_cell_length_b 14.101060
_cell_length_c 9.198561
_cell_angle_alpha 83.244390
_cell_angle_beta 129.773962
_cell_angle_gamma 53.628427
_cell_volume 654.770177
_symmetry_space_group_name_H-M "P -1"
_symmetry_group_IT_number 2
_symmetry_cell_setting 'triclinic'
loop_
_space_group_symop_operation_xyz
x,y,z
-x,-y,-z
loop_
_atom_site_type_symbol
_atom_site_label
_atom_site_fract_x
_atom_site_fract_y
_atom_site_fract_z
Si Si1 0.558740 0.569771 0.938983
Si Si2 0.061744 0.724136 0.083788
Si Si3 0.736084 0.561626 0.847891
Si Si4 0.762973 0.192050 0.838728
Si Si5 0.727562 0.147566 0.138916
Si Si6 0.206048 0.632037 0.559160
Si Si7 0.386863 0.991196 0.995271
Si Si8 0.479115 0.114409 0.537328
O O1 0.669481 0.581471 0.947713
O O2 0.518452 0.627080 0.065799
O O3 0.319862 0.667706 0.630390
O O4 0.777100 0.354790 0.239716
O O5 0.029639 0.655207 0.956804
O O6 0.203344 0.716248 0.133573
O O7 0.216819 0.594199 0.401662
O O8 0.780245 0.951537 0.824620
O O9 0.496472 0.668422 0.516622
O O10 0.716141 0.684306 0.764968
O O11 0.762758 0.145613 0.005151
O O12 0.000000 0.000000 0.000000
O O13 0.640386 0.095915 0.087911
O O14 0.000000 0.000000 0.500000
O O15 0.904514 0.792199 0.264770
O O16 0.500000 0.000000 0.000000
O O17 0.557458 0.865155 0.327819
O O18 0.500000 0.000000 0.500000
#
# Coordination Sequence:
#
# PCOD9030895 Si02
#       8
#     2   2   2   2   2   2   2   2
#     4  11  24  38  66 103 143 168 226 285 349 411
#     4  11  24  42  71  99 140 178 223 287 348 407
#     4  12  24  42  70 102 134 177 229 280 353 405
#     4  12  21  40  67 102 138 176 223 280 347 414
#     4  12  24  39  67 103 137 179 226 288 347 409
#     4  10  22  43  61 104 139 175 222 283 342 416
#     4  11  25  46  70  95 135 187 230 281 351 412
#     4  11  27  48  70  96 134 181 241 288 333 416
#
# _framework density 24.436053000000001
#
# number of rings (size 3 to 8) (size 9 to 14) (size 15 to 20)
#    0.000    0.750    5.000    2.625    5.250    1.500 
#    0.000    0.625    0.000    0.000    0.000    0.000 
#    0.000    0.000    0.000    0.000    0.000    0.000 
#
# Total GULP energy -89185.953629 kJ/mol
# GULP energy per Si atom -5574.122102 kJ/mol
# Density = 2.438044 g / cm^3
# Si number density = 24.436053 Si / 1000 Ang^3
#
#
#
# Elastic Constant Matrix: (Units=GPa)
#
#
# Indices 1 2 3 4 5 6 
#
# 1 188.8395 59.7966 20.6872 -0.2447 -18.8505 10.4196
# 2 59.7966 120.2999 10.1544 -9.0146 -7.5273 9.8962
# 3 20.6872 10.1544 57.0616 1.3414 -2.1677 -6.2630
# 4 -0.2447 -9.0146 1.3414 37.4453 -2.4509 0.9796
# 5 -18.8505 -7.5273 -2.1677 -2.4509 35.2785 3.1004
# 6 10.4196 9.8962 -6.2630 0.9796 3.1004 52.3034
#
#
#
# Elastic Compliance Matrix: (Units=1/GPa)
#
#
# Indices 1 2 3 4 5 6 
#
# 1 0.006809 -0.002964 -0.001951 -0.000374 0.002966 -0.001198
# 2 -0.002964 0.010241 -0.000947 0.002577 0.000859 -0.001560
# 3 -0.001951 -0.000947 0.018722 -0.001013 -0.000416 0.002853
# 4 -0.000374 0.002577 -0.001013 0.027542 0.002306 -0.001187
# 5 0.002966 0.000859 -0.000416 0.002306 0.030482 -0.002653
# 6 -0.001198 -0.001560 0.002853 -0.001187 -0.002653 0.020174
#
#
# Mechanical properties :
#
#
# Convention : Reuss Voigt Hill
#
# Bulk Modulus (GPa) = 41.58360 60.83083 51.20721
# Shear Modulus (GPa) = 37.39417 43.37630 40.38524
#
# Velocity S-wave (km/s) = 3.91613 4.21776 4.06974
# Velocity P-wave (km/s) = 6.12392 6.97619 6.56390
#
# Compressibility (1/GPa) = 0.02404794
#
# Stress axis : x y z
#
# Youngs Moduli (GPa) = 146.85463 97.64747 53.41281
#
# Poissons Ratio (x) = 0.28942 0.10423
# Poissons Ratio (y) = 0.43526 0.05058
# Poissons Ratio (z) = 0.28656 0.09248
#
# Static dielectric constant tensor:
#      x y z
#    x 1.985800 -0.047880 0.020660 
#    y -0.047880 2.089560 -0.053950 
#    z 0.020660 -0.053950 2.045390 
# 
# From -- ./inp_files/272668.got.cif
#   From: 2010.05.17/outbox.cif.g08.bks.cpg/sg2_137_cif.got.tgz:272668.got - 2010.06.03 11:33:40.
