data_PCOD9030298
_publ_section_title
;
Structure prediction by ZEFSAII (Michael W. Deem and Ramdas Pophale) SiO2 
 PCOD9030298
Probable space group: P -1
;
_chemical_formula_sum "Si O2"
_cell_formula_units_Z 16
_cell_length_a 12.205925
_cell_length_b 16.138801
_cell_length_c 8.996947
_cell_angle_alpha 43.093741
_cell_angle_beta 136.815792
_cell_angle_gamma 141.524178
_cell_volume 699.750877
_symmetry_space_group_name_H-M "P -1"
_symmetry_group_IT_number 2
_symmetry_cell_setting 'triclinic'
loop_
_space_group_symop_operation_xyz
x,y,z
-x,-y,-z
loop_
_atom_site_type_symbol
_atom_site_label
_atom_site_fract_x
_atom_site_fract_y
_atom_site_fract_z
Si Si1 0.198478 0.017737 0.715663
Si Si2 0.258393 0.677985 0.991831
Si Si3 0.149284 0.085018 0.904036
Si Si4 0.537172 0.145689 0.278769
Si Si5 0.002858 0.235452 0.348631
Si Si6 0.554021 0.321776 0.549651
Si Si7 0.674505 0.540834 0.828192
Si Si8 0.221015 0.584998 0.649291
O O1 0.180240 0.007344 0.892126
O O2 0.373409 0.168025 0.627268
O O3 0.175158 0.888636 0.760536
O O4 0.000000 0.000000 0.500000
O O5 0.278471 0.659485 0.207441
O O6 0.331448 0.584411 0.109363
O O7 0.403506 0.834260 0.860673
O O8 0.056199 0.656502 0.791024
O O9 0.079638 0.178880 0.628272
O O10 0.354148 0.159040 0.089114
O O11 0.000000 0.000000 0.000000
O O12 0.718025 0.278824 0.363354
O O13 0.500000 0.000000 0.500000
O O14 0.164053 0.317678 0.278676
O O15 0.504346 0.443136 0.368776
O O16 0.630166 0.342931 0.431743
O O17 0.735322 0.520081 0.077940
O O18 0.000000 0.500000 0.500000
#
# Coordination Sequence:
#
# PCOD9030298 Si02
#       8
#     2   2   2   2   2   2   2   2
#     4  10  22  42  70 109 141 180 241 296 368 431
#     4  11  24  42  68 102 139 190 238 293 361 428
#     4  11  23  42  70 106 145 188 237 299 370 435
#     4  11  25  46  68 106 146 186 248 303 362 438
#     4  11  23  43  71 106 148 184 238 296 370 434
#     4  12  23  46  75 102 145 187 245 299 361 436
#     4  11  23  46  69 100 142 188 242 292 359 446
#     4  11  28  48  70 108 146 196 245 299 371 439
#
# _framework density 22.865279999999998
#
# number of rings (size 3 to 8) (size 9 to 14) (size 15 to 20)
#    0.000    1.000    3.750    2.625    5.250    4.500 
#    0.000    6.250    0.000    0.000    0.000    0.000 
#    0.000    0.000    0.000    0.000    0.000    0.000 
#
# Total GULP energy -89213.972808 kJ/mol
# GULP energy per Si atom -5575.873301 kJ/mol
# Density = 2.281324 g / cm^3
# Si number density = 22.865280 Si / 1000 Ang^3
#
#
#
# Elastic Constant Matrix: (Units=GPa)
#
#
# Indices 1 2 3 4 5 6 
#
# 1 120.7790 20.7708 45.5159 -5.9421 -14.2927 15.7835
# 2 20.7708 88.9400 42.9641 -0.2850 -3.9562 10.5463
# 3 45.5159 42.9641 171.5232 -10.0717 -12.3515 2.3798
# 4 -5.9421 -0.2850 -10.0717 34.9847 9.0642 1.2530
# 5 -14.2927 -3.9562 -12.3515 9.0642 53.4307 -11.7536
# 6 15.7835 10.5463 2.3798 1.2530 -11.7536 30.9852
#
#
#
# Elastic Compliance Matrix: (Units=1/GPa)
#
#
# Indices 1 2 3 4 5 6 
#
# 1 0.009990 -0.000659 -0.002301 0.000932 0.000975 -0.004356
# 2 -0.000659 0.013419 -0.003216 -0.000579 -0.000763 -0.004251
# 3 -0.002301 -0.003216 0.007375 0.001355 0.001073 0.002052
# 4 0.000932 -0.000579 0.001355 0.030686 -0.005502 -0.003710
# 5 0.000975 -0.000763 0.001073 -0.005502 0.021908 0.008213
# 6 -0.004356 -0.004251 0.002052 -0.003710 0.008213 0.039047
#
#
# Mechanical properties :
#
#
# Convention : Reuss Voigt Hill
#
# Bulk Modulus (GPa) = 54.25206 66.63822 60.44514
# Shear Modulus (GPa) = 35.48057 42.01288 38.74672
#
# Velocity S-wave (km/s) = 3.94346 4.29115 4.12098
# Velocity P-wave (km/s) = 6.67180 7.33206 7.00971
#
# Compressibility (1/GPa) = 0.01843248
#
# Stress axis : x y z
#
# Youngs Moduli (GPa) = 100.09606 74.51866 135.60024
#
# Poissons Ratio (x) = 0.04910 0.31196
# Poissons Ratio (y) = 0.06595 0.43616
# Poissons Ratio (z) = 0.23028 0.23969
#
# Static dielectric constant tensor:
#      x y z
#    x 1.909060 -0.073070 0.006350 
#    y -0.073070 1.996950 -0.005290 
#    z 0.006350 -0.005290 1.857120 
# 
# From -- ./inp_files/278893.got.cif
#   From: 2010.05.17/outbox.cif.g08.bks.cpg/sg2_140_cif.got.tgz:278893.got - 2010.06.03 11:33:40.
