data_PCOD9030125
_publ_section_title
;
Structure prediction by ZEFSAII (Michael W. Deem and Ramdas Pophale) SiO2 
 PCOD9030125
Probable space group: P -1
;
_chemical_formula_sum "Si O2"
_cell_formula_units_Z 14
_cell_length_a 22.115723
_cell_length_b 5.013941
_cell_length_c 8.148576
_cell_angle_alpha 88.763443
_cell_angle_beta 127.451480
_cell_angle_gamma 116.712084
_cell_volume 599.021809
_symmetry_space_group_name_H-M "P -1"
_symmetry_group_IT_number 2
_symmetry_cell_setting 'triclinic'
loop_
_space_group_symop_operation_xyz
x,y,z
-x,-y,-z
loop_
_atom_site_type_symbol
_atom_site_label
_atom_site_fract_x
_atom_site_fract_y
_atom_site_fract_z
Si Si1 0.608239 0.771362 0.163354
Si Si2 0.333234 0.601732 0.555939
Si Si3 0.589525 0.498845 0.624732
Si Si4 0.668001 0.132966 0.911663
Si Si5 0.174768 0.379221 0.037279
Si Si6 0.999900 0.642926 0.171976
Si Si7 0.005618 0.154825 0.333337
O O1 0.366156 0.951898 0.666065
O O2 0.500000 0.500000 0.000000
O O3 0.665025 0.609648 0.292403
O O4 0.663478 0.870027 0.783529
O O5 0.403191 0.601036 0.543736
O O6 0.361166 0.044616 0.961638
O O7 0.500000 0.500000 0.500000
O O8 0.757244 0.545956 0.701695
O O9 0.602410 0.258952 0.759111
O O10 0.766705 0.446598 0.030833
O O11 0.104002 0.476190 0.959482
O O12 0.100381 0.008867 0.888819
O O13 0.045336 0.523455 0.376176
O O14 0.046509 0.022184 0.271420
O O15 0.000000 0.500000 0.000000
O O16 0.000000 0.000000 0.500000
#
# Coordination Sequence:
#
# PCOD9030125 Si02
#       7
#     2   2   2   2   2   2   2
#     4  12  26  44  64  97 133 172 222 281 330 382
#     4  11  24  44  67  94 130 174 218 274 333 375
#     4  11  23  41  68  94 121 174 224 263 325 404
#     4  11  24  42  63  93 134 169 218 275 330 376
#     4   9  25  41  71  92 139 167 226 260 324 398
#     4  10  22  42  69  98 134 168 217 264 322 395
#     4  10  22  42  69  98 133 168 214 264 326 391
#
# _framework density 23.371438000000001
#
# number of rings (size 3 to 8) (size 9 to 14) (size 15 to 20)
#    0.857    0.571    0.000    5.143    6.000    3.429 
#    2.571    0.000    0.000    0.000    0.000    0.000 
#    0.000    0.000    0.000    0.000    0.000    0.000 
#
# Total GULP energy -78107.547548 kJ/mol
# GULP energy per Si atom -5579.110539 kJ/mol
# Density = 2.331824 g / cm^3
# Si number density = 23.371438 Si / 1000 Ang^3
#
#
#
# Elastic Constant Matrix: (Units=GPa)
#
#
# Indices 1 2 3 4 5 6 
#
# 1 87.3726 15.3859 9.8801 -10.8364 3.1293 -7.8253
# 2 15.3859 101.1940 22.9557 -28.2364 14.4626 -27.6937
# 3 9.8801 22.9557 74.2612 -23.0115 4.6075 -12.1301
# 4 -10.8364 -28.2364 -23.0115 49.2716 -8.7494 -3.3794
# 5 3.1293 14.4626 4.6075 -8.7494 27.7129 -9.1640
# 6 -7.8253 -27.6937 -12.1301 -3.3794 -9.1640 38.4885
#
#
#
# Elastic Compliance Matrix: (Units=1/GPa)
#
#
# Indices 1 2 3 4 5 6 
#
# 1 0.012067 -0.000514 -0.000342 0.002447 0.000499 0.002310
# 2 -0.000514 0.016175 0.000184 0.009848 -0.001287 0.012150
# 3 -0.000342 0.000184 0.017186 0.008900 0.002133 0.006769
# 4 0.002447 0.009848 0.008900 0.033229 0.008679 0.015372
# 5 0.000499 -0.001287 0.002133 0.008679 0.042644 0.010763
# 6 0.002310 0.012150 0.006769 0.015372 0.010763 0.041239
#
#
# Mechanical properties :
#
#
# Convention : Reuss Voigt Hill
#
# Bulk Modulus (GPa) = 22.68366 39.91904 31.30135
# Shear Modulus (GPa) = 27.99892 37.40166 32.70029
#
# Velocity S-wave (km/s) = 3.46496 4.00473 3.74459
# Velocity P-wave (km/s) = 5.07294 6.20493 5.66727
#
# Compressibility (1/GPa) = 0.04408459
#
# Stress axis : x y z
#
# Youngs Moduli (GPa) = 82.87198 61.82298 58.18841
#
# Poissons Ratio (x) = 0.03175 0.01991
# Poissons Ratio (y) = 0.04256 -0.01072
# Poissons Ratio (z) = 0.02836 -0.01139
#
# Static dielectric constant tensor:
#      x y z
#    x 1.865000 0.018150 -0.027940 
#    y 0.018150 2.017370 0.026460 
#    z -0.027940 0.026460 1.966550 
# 
# From -- ./inp_files/339735.got.cif
#   From: 2010.05.17/outbox.cif.g08.bks.cpg/sg2_170_cif.got.tgz:339735.got - 2010.06.03 11:33:40.
