data_PCOD9030437
_publ_section_title
;
Structure prediction by ZEFSAII (Michael W. Deem and Ramdas Pophale) SiO2 
 PCOD9030437
Probable space group: P -1
;
_chemical_formula_sum "Si O2"
_cell_formula_units_Z 16
_cell_length_a 11.780897
_cell_length_b 5.711161
_cell_length_c 21.514219
_cell_angle_alpha 59.399786
_cell_angle_beta 142.542410
_cell_angle_gamma 126.926720
_cell_volume 702.218400
_symmetry_space_group_name_H-M "P -1"
_symmetry_group_IT_number 2
_symmetry_cell_setting 'triclinic'
loop_
_space_group_symop_operation_xyz
x,y,z
-x,-y,-z
loop_
_atom_site_type_symbol
_atom_site_label
_atom_site_fract_x
_atom_site_fract_y
_atom_site_fract_z
Si Si1 0.149924 0.538269 0.764258
Si Si2 0.492380 0.162276 0.038900
Si Si3 0.564884 0.923116 0.365965
Si Si4 0.965516 0.944074 0.566747
Si Si5 0.868427 0.150781 0.986487
Si Si6 0.634015 0.405359 0.783598
Si Si7 0.687705 0.557462 0.275660
Si Si8 0.868529 0.059255 0.800455
O O1 0.311235 0.797794 0.839409
O O2 0.272374 0.427964 0.782142
O O3 0.011854 0.664537 0.646950
O O4 0.016412 0.288553 0.786540
O O5 0.284453 0.964697 0.007294
O O6 0.500000 0.500000 0.000000
O O7 0.500000 0.000000 0.000000
O O8 0.736350 0.905632 0.487934
O O9 0.529372 0.682486 0.329422
O O10 0.339752 0.885060 0.293977
O O11 0.660517 0.236645 0.331961
O O12 0.000000 0.000000 0.500000
O O13 0.124585 0.211769 0.637669
O O14 0.720120 0.150324 0.865554
O O15 0.000000 0.500000 0.000000
O O16 0.005714 0.957781 0.080053
O O17 0.521811 0.424099 0.795680
O O18 0.797860 0.719612 0.794563
#
# Coordination Sequence:
#
# PCOD9030437 Si02
#       8
#     2   2   2   2   2   2   2   2
#     4  12  27  45  70 107 143 190 237 304 375 438
#     4  12  28  50  78 113 154 198 252 313 380 455
#     4  11  23  43  68  99 137 182 241 302 358 444
#     4  12  24  42  71 105 134 184 246 301 371 432
#     4  10  22  45  69 106 140 197 239 303 368 447
#     4  10  22  42  70  99 138 183 244 297 365 437
#     4  11  22  42  73 100 138 176 245 301 364 435
#     4  10  25  44  63 101 143 186 235 298 373 447
#
# _framework density 22.784934
#
# number of rings (size 3 to 8) (size 9 to 14) (size 15 to 20)
#    0.000    1.000    3.750    1.875    3.500    4.000 
#    2.250    1.250    0.000    0.000    0.000    0.000 
#    0.000    0.000    0.000    0.000    0.000    0.000 
#
# Total GULP energy -89340.947942 kJ/mol
# GULP energy per Si atom -5583.809246 kJ/mol
# Density = 2.273307 g / cm^3
# Si number density = 22.784934 Si / 1000 Ang^3
#
#
#
# Elastic Constant Matrix: (Units=GPa)
#
#
# Indices 1 2 3 4 5 6 
#
# 1 141.4160 62.2094 46.6811 1.8734 16.0132 16.7281
# 2 62.2094 107.8690 36.6264 -0.3044 -3.3347 24.0562
# 3 46.6811 36.6264 138.3840 -8.6956 14.3551 4.2119
# 4 1.8734 -0.3044 -8.6956 40.9822 -8.8399 0.9288
# 5 16.0132 -3.3347 14.3551 -8.8399 37.1863 7.6098
# 6 16.7281 24.0562 4.2119 0.9288 7.6098 37.2438
#
#
#
# Elastic Compliance Matrix: (Units=1/GPa)
#
#
# Indices 1 2 3 4 5 6 
#
# 1 0.010773 -0.005842 -0.001698 -0.001984 -0.005020 0.000202
# 2 -0.005842 0.015663 -0.002544 0.001561 0.007051 -0.008685
# 3 -0.001698 -0.002544 0.008801 0.001232 -0.003010 0.001994
# 4 -0.001984 0.001561 0.001232 0.026390 0.007284 -0.002403
# 5 -0.005020 0.007051 -0.003010 0.007284 0.034458 -0.009181
# 6 0.000202 -0.008685 0.001994 -0.002403 -0.009181 0.034079
#
#
# Mechanical properties :
#
#
# Convention : Reuss Voigt Hill
#
# Bulk Modulus (GPa) = 66.36023 75.41143 70.88583
# Shear Modulus (GPa) = 32.18471 39.22592 35.70531
#
# Velocity S-wave (km/s) = 3.76246 4.15369 3.96290
# Velocity P-wave (km/s) = 6.93272 7.49487 7.21927
#
# Compressibility (1/GPa) = 0.01506927
#
# Stress axis : x y z
#
# Youngs Moduli (GPa) = 92.82867 63.84661 113.62207
#
# Poissons Ratio (x) = 0.37300 0.19289
# Poissons Ratio (y) = 0.54232 0.28902
# Poissons Ratio (z) = 0.15759 0.16240
#
# Static dielectric constant tensor:
#      x y z
#    x 1.893120 -0.056980 0.055640 
#    y -0.056980 1.844590 -0.025270 
#    z 0.055640 -0.025270 1.949030 
# 
# From -- ./inp_files/592700.got.cif
#   From: 2010.05.17/outbox.cif.g08.bks.cpg/sg2_297_cif.got.tgz:592700.got - 2010.06.03 11:33:40.
