data_PCOD9030429
_publ_section_title
;
Structure prediction by ZEFSAII (Michael W. Deem and Ramdas Pophale) SiO2 
 PCOD9030429
Probable space group: P -1
;
_chemical_formula_sum "Si O2"
_cell_formula_units_Z 16
_cell_length_a 8.279239
_cell_length_b 8.106758
_cell_length_c 12.881528
_cell_angle_alpha 72.903882
_cell_angle_beta 103.278472
_cell_angle_gamma 125.922679
_cell_volume 667.376961
_symmetry_space_group_name_H-M "P -1"
_symmetry_group_IT_number 2
_symmetry_cell_setting 'triclinic'
loop_
_space_group_symop_operation_xyz
x,y,z
-x,-y,-z
loop_
_atom_site_type_symbol
_atom_site_label
_atom_site_fract_x
_atom_site_fract_y
_atom_site_fract_z
Si Si1 0.322098 0.588604 0.888394
Si Si2 0.240527 0.936924 0.772419
Si Si3 0.923633 0.187191 0.840907
Si Si4 0.378429 0.109465 0.977071
Si Si5 0.513864 0.616217 0.698747
Si Si6 0.643352 0.328815 0.704224
Si Si7 0.080079 0.999777 0.350088
Si Si8 0.155264 0.435768 0.519541
O O1 0.453470 0.662233 0.998600
O O2 0.468064 0.651972 0.800453
O O3 0.140145 0.351222 0.891838
O O4 0.234244 0.732118 0.836710
O O5 0.441082 0.097653 0.707797
O O6 0.044420 0.895990 0.697040
O O7 0.270136 0.062364 0.860212
O O8 0.810311 0.303319 0.782849
O O9 0.932779 0.103153 0.745277
O O10 0.785350 0.007406 0.935697
O O11 0.500000 0.000000 0.000000
O O12 0.588372 0.463090 0.738838
O O13 0.311160 0.511953 0.622755
O O14 0.687792 0.828027 0.631214
O O15 0.719199 0.449390 0.585089
O O16 0.972076 0.813476 0.450500
O O17 0.000000 0.500000 0.500000
#
# Coordination Sequence:
#
# PCOD9030429 Si02
#       8
#     2   2   2   2   2   2   2   2
#     4  11  22  44  70 101 135 183 222 276 341 395
#     4  11  24  45  71  98 141 175 226 281 333 398
#     4  12  22  45  70  96 144 175 223 284 330 397
#     4  10  22  42  70  99 135 179 228 272 340 393
#     4  12  25  45  71 100 137 178 225 273 340 400
#     4  12  23  46  69  98 139 178 220 284 329 397
#     4  12  25  46  68 102 136 176 225 279 332 404
#     4  12  26  46  71 100 135 177 223 276 341 398
#
# _framework density 23.974457999999998
#
# number of rings (size 3 to 8) (size 9 to 14) (size 15 to 20)
#    0.000    0.500    7.500    1.125    0.000    3.500 
#    4.500    1.250    0.000    0.000    0.000    0.000 
#    0.000    0.000    0.000    0.000    0.000    0.000 
#
# Total GULP energy -89675.921758 kJ/mol
# GULP energy per Si atom -5604.745110 kJ/mol
# Density = 2.391989 g / cm^3
# Si number density = 23.974458 Si / 1000 Ang^3
#
#
#
# Elastic Constant Matrix: (Units=GPa)
#
#
# Indices 1 2 3 4 5 6 
#
# 1 86.6062 13.9519 21.0759 8.2217 12.8108 -0.5831
# 2 13.9519 110.0728 7.7011 -2.1938 -0.9007 21.5227
# 3 21.0759 7.7011 82.5167 -11.8239 -14.1891 1.5984
# 4 8.2217 -2.1938 -11.8239 36.2186 1.7764 -5.5586
# 5 12.8108 -0.9007 -14.1891 1.7764 32.4851 -5.3872
# 6 -0.5831 21.5227 1.5984 -5.5586 -5.3872 49.9006
#
#
#
# Elastic Compliance Matrix: (Units=1/GPa)
#
#
# Indices 1 2 3 4 5 6 
#
# 1 0.014902 -0.001571 -0.005789 -0.005027 -0.008243 -0.000413
# 2 -0.001571 0.010174 -0.000446 0.000157 -0.000028 -0.004378
# 3 -0.005789 -0.000446 0.016092 0.006290 0.009171 0.001300
# 4 -0.005027 0.000157 0.006290 0.031180 0.003616 0.003536
# 5 -0.008243 -0.000028 0.009171 0.003616 0.038535 0.004185
# 6 -0.000413 -0.004378 0.001300 0.003536 0.004185 0.022727
#
#
# Mechanical properties :
#
#
# Convention : Reuss Voigt Hill
#
# Bulk Modulus (GPa) = 39.12876 40.51704 39.82290
# Shear Modulus (GPa) = 31.69751 39.48534 35.59142
#
# Velocity S-wave (km/s) = 3.64006 4.06270 3.85717
# Velocity P-wave (km/s) = 5.83294 6.24052 6.04017
#
# Compressibility (1/GPa) = 0.02555665
#
# Stress axis : x y z
#
# Youngs Moduli (GPa) = 67.10466 98.28901 62.14175
#
# Poissons Ratio (x) = 0.15439 0.35976
# Poissons Ratio (y) = 0.10540 0.02771
# Poissons Ratio (z) = 0.38849 0.04382
#
# Static dielectric constant tensor:
#      x y z
#    x 1.726670 -0.045280 -0.006220 
#    y -0.045280 1.911160 0.004140 
#    z -0.006220 0.004140 1.877020 
# 
# From -- ./inp_files/217158.got.cif
#   From: 2010.05.17/outbox.cif.g08.bks.cpg/sg2_109_cif.got.tgz:217158.got - 2010.06.03 11:33:40.
