data_PCOD9030171
_publ_section_title
;
Structure prediction by ZEFSAII (Michael W. Deem and Ramdas Pophale) SiO2 
 PCOD9030171
Probable space group: P -1
;
_chemical_formula_sum "Si O2"
_cell_formula_units_Z 16
_cell_length_a 14.035110
_cell_length_b 9.727533
_cell_length_c 9.410564
_cell_angle_alpha 44.065158
_cell_angle_beta 103.454341
_cell_angle_gamma 127.868790
_cell_volume 652.580271
_symmetry_space_group_name_H-M "P -1"
_symmetry_group_IT_number 2
_symmetry_cell_setting 'triclinic'
loop_
_space_group_symop_operation_xyz
x,y,z
-x,-y,-z
loop_
_atom_site_type_symbol
_atom_site_label
_atom_site_fract_x
_atom_site_fract_y
_atom_site_fract_z
Si Si1 0.968340 0.042806 0.138266
Si Si2 0.565646 0.780675 0.115015
Si Si3 0.957777 0.294891 0.516927
Si Si4 0.219334 0.357420 0.855301
Si Si5 0.650554 0.200556 0.055260
Si Si6 0.949616 0.633723 0.818592
Si Si7 0.486503 0.731834 0.565176
Si Si8 0.326608 0.140924 0.213828
O O1 0.962262 0.094637 0.262551
O O2 0.016446 0.883258 0.273422
O O3 0.842091 0.867581 0.123824
O O4 0.095692 0.312975 0.907612
O O5 0.432134 0.728080 0.090825
O O6 0.540274 0.515901 0.337469
O O7 0.648936 0.013495 0.084429
O O8 0.635394 0.886738 0.907390
O O9 0.032177 0.374927 0.335330
O O10 0.000000 0.500000 0.500000
O O11 0.804653 0.118747 0.571477
O O12 0.343452 0.630161 0.625702
O O13 0.287548 0.316498 0.032791
O O14 0.574973 0.005922 0.308446
O O15 0.798651 0.464694 0.928253
O O16 0.000000 0.500000 0.000000
O O17 0.559533 0.752454 0.716302
#
# Coordination Sequence:
#
# PCOD9030171 Si02
#       8
#     2   2   2   2   2   2   2   2
#     4  10  24  44  72 102 138 192 232 289 353 419
#     4  10  23  44  69  96 140 180 221 291 349 413
#     4  11  25  46  72 102 140 187 236 288 351 424
#     4   9  21  41  73  98 136 180 235 284 357 411
#     4  11  26  44  66 106 136 182 231 281 354 418
#     4  12  28  44  69 103 147 181 236 295 344 421
#     4  11  23  43  71 102 134 182 227 293 346 420
#     4  10  22  42  70 100 133 176 231 282 352 416
#
# _framework density 24.518058
#
# number of rings (size 3 to 8) (size 9 to 14) (size 15 to 20)
#    0.000    1.500    0.000    3.750   14.000    3.500 
#    4.500    0.000    0.000    0.000    0.000    0.000 
#    0.000    0.000    0.000    0.000    0.000    0.000 
#
# Total GULP energy -89425.606121 kJ/mol
# GULP energy per Si atom -5589.100383 kJ/mol
# Density = 2.446225 g / cm^3
# Si number density = 24.518058 Si / 1000 Ang^3
#
#
#
# Elastic Constant Matrix: (Units=GPa)
#
#
# Indices 1 2 3 4 5 6 
#
# 1 65.6135 22.9051 6.5319 -10.7779 -14.7153 3.8046
# 2 22.9051 124.1753 14.4195 15.1947 -19.0031 0.1194
# 3 6.5319 14.4195 85.7892 3.9166 -28.0895 5.0297
# 4 -10.7779 15.1947 3.9166 30.4656 -4.5970 -1.8838
# 5 -14.7153 -19.0031 -28.0895 -4.5970 45.3960 -6.9384
# 6 3.8046 0.1194 5.0297 -1.8838 -6.9384 48.9359
#
#
#
# Elastic Compliance Matrix: (Units=1/GPa)
#
#
# Indices 1 2 3 4 5 6 
#
# 1 0.019509 -0.003940 0.000739 0.009664 0.006057 -0.000352
# 2 -0.003940 0.009868 -0.000443 -0.005927 0.002039 0.000389
# 3 0.000739 -0.000443 0.014667 -0.000050 0.009082 -0.000278
# 4 0.009664 -0.005927 -0.000050 0.040038 0.004905 0.001505
# 5 0.006057 0.002039 0.009082 0.004905 0.031457 0.003240
# 6 -0.000352 0.000389 -0.000278 0.001505 0.003240 0.021007
#
#
# Mechanical properties :
#
#
# Convention : Reuss Voigt Hill
#
# Bulk Modulus (GPa) = 27.20590 40.36567 33.78578
# Shear Modulus (GPa) = 32.03381 40.40758 36.22069
#
# Velocity S-wave (km/s) = 3.61853 4.06405 3.84774
# Velocity P-wave (km/s) = 5.34591 6.20656 5.79224
#
# Compressibility (1/GPa) = 0.03675674
#
# Stress axis : x y z
#
# Youngs Moduli (GPa) = 51.25931 101.33592 68.18058
#
# Poissons Ratio (x) = 0.39922 -0.05042
# Poissons Ratio (y) = 0.20194 0.03023
# Poissons Ratio (z) = -0.03791 0.04493
#
# Static dielectric constant tensor:
#      x y z
#    x 1.952480 -0.028580 -0.072940 
#    y -0.028580 1.958910 0.092160 
#    z -0.072940 0.092160 1.981780 
# 
# From -- ./inp_files/327325.got.cif
#   From: 2010.05.17/outbox.cif.g08.bks.cpg/sg2_164_cif.got.tgz:327325.got - 2010.06.03 11:33:40.
