data_PCOD9030504
_publ_section_title
;
Structure prediction by ZEFSAII (Michael W. Deem and Ramdas Pophale) SiO2 
 PCOD9030504
Probable space group: P -1
;
_chemical_formula_sum "Si O2"
_cell_formula_units_Z 14
_cell_length_a 14.455515
_cell_length_b 7.923368
_cell_length_c 11.744273
_cell_angle_alpha 62.805801
_cell_angle_beta 53.551454
_cell_angle_gamma 105.243855
_cell_volume 639.875382
_symmetry_space_group_name_H-M "P -1"
_symmetry_group_IT_number 2
_symmetry_cell_setting 'triclinic'
loop_
_space_group_symop_operation_xyz
x,y,z
-x,-y,-z
loop_
_atom_site_type_symbol
_atom_site_label
_atom_site_fract_x
_atom_site_fract_y
_atom_site_fract_z
Si Si1 0.433694 0.869547 0.962696
Si Si2 0.299205 0.070362 0.873955
Si Si3 0.047178 0.122866 0.768809
Si Si4 0.513821 0.712214 0.558043
Si Si5 0.708908 0.039422 0.543243
Si Si6 0.838601 0.794896 0.595695
Si Si7 0.173137 0.458408 0.788679
O O1 0.598604 0.026557 0.716101
O O2 0.333932 0.926123 0.965707
O O3 0.309591 0.532723 0.155232
O O4 0.500000 0.000000 0.000000
O O5 0.434546 0.403164 0.705075
O O6 0.340091 0.081479 0.708405
O O7 0.112162 0.929597 0.077572
O O8 0.110187 0.208622 0.568070
O O9 0.181030 0.342031 0.702658
O O10 0.973410 0.822719 0.942759
O O11 0.586812 0.832673 0.591824
O O12 0.354614 0.654411 0.660184
O O13 0.774226 0.930675 0.588012
O O14 0.851606 0.356725 0.288200
O O15 0.000000 0.000000 0.500000
#
# Coordination Sequence:
#
# PCOD9030504 Si02
#       7
#     2   2   2   2   2   2   2
#     4  12  27  47  73  96 136 194 242 273 330 413
#     4  10  23  41  74  96 137 175 226 278 349 402
#     4  10  25  45  67 100 142 178 220 275 356 418
#     4  10  22  42  71 110 132 167 227 296 346 399
#     4  12  26  44  73 100 137 176 236 291 339 397
#     4  12  31  46  66  99 148 186 232 280 339 411
#     4  10  22  43  73 102 135 171 226 285 354 404
#
# _framework density 21.879261
#
# number of rings (size 3 to 8) (size 9 to 14) (size 15 to 20)
#    0.000    1.143    1.429    2.571   16.000    1.143 
#    0.000    0.000    0.000    0.000    0.000    0.000 
#    0.000    0.000    0.000    0.000    0.000    0.000 
#
# Total GULP energy -78392.687753 kJ/mol
# GULP energy per Si atom -5599.477697 kJ/mol
# Density = 2.182946 g / cm^3
# Si number density = 21.879261 Si / 1000 Ang^3
#
#
#
# Elastic Constant Matrix: (Units=GPa)
#
#
# Indices 1 2 3 4 5 6 
#
# 1 144.4381 30.2707 32.6139 -24.8016 20.3816 -16.5820
# 2 30.2707 54.2629 -1.6108 -2.1740 4.8207 11.5613
# 3 32.6139 -1.6108 57.8191 -12.0036 16.1615 -9.5338
# 4 -24.8016 -2.1740 -12.0036 40.7029 -3.9212 13.2560
# 5 20.3816 4.8207 16.1615 -3.9212 32.6571 -8.8560
# 6 -16.5820 11.5613 -9.5338 13.2560 -8.8560 49.5955
#
#
#
# Elastic Compliance Matrix: (Units=1/GPa)
#
#
# Indices 1 2 3 4 5 6 
#
# 1 0.010439 -0.006171 -0.004190 0.003684 -0.002351 0.002719
# 2 -0.006171 0.024018 0.004095 0.000906 -0.003722 -0.007782
# 3 -0.004190 0.004095 0.022996 0.003755 -0.009070 -0.000558
# 4 0.003684 0.000906 0.003755 0.029909 -0.002517 -0.006701
# 5 -0.002351 -0.003722 -0.009070 -0.002517 0.038416 0.005871
# 6 0.002719 -0.007782 -0.000558 -0.006701 0.005871 0.025618
#
#
# Mechanical properties :
#
#
# Convention : Reuss Voigt Hill
#
# Bulk Modulus (GPa) = 22.26099 42.11862 32.18981
# Shear Modulus (GPa) = 27.94847 37.60755 32.77801
#
# Velocity S-wave (km/s) = 3.57794 4.15042 3.87477
# Velocity P-wave (km/s) = 5.22164 6.50079 5.89600
#
# Compressibility (1/GPa) = 0.04492162
#
# Stress axis : x y z
#
# Youngs Moduli (GPa) = 95.79335 41.63602 43.48634
#
# Poissons Ratio (x) = 0.25692 0.18221
# Poissons Ratio (y) = 0.59111 -0.17809
# Poissons Ratio (z) = 0.40138 -0.17051
#
# Static dielectric constant tensor:
#      x y z
#    x 1.777450 -0.015480 -0.007140 
#    y -0.015480 1.769160 -0.015210 
#    z -0.007140 -0.015210 1.786810 
# 
# From -- ./inp_files/446933.got.cif
#   From: 2010.05.17/outbox.cif.g08.bks.cpg/sg2_224_cif.got.tgz:446933.got - 2010.06.03 11:33:40.
