data_PCOD9030102
_publ_section_title
;
Structure prediction by ZEFSAII (Michael W. Deem and Ramdas Pophale) SiO2 
 PCOD9030102
Probable space group: P -1
;
_chemical_formula_sum "Si O2"
_cell_formula_units_Z 16
_cell_length_a 7.097776
_cell_length_b 9.551951
_cell_length_c 20.882676
_cell_angle_alpha 118.454022
_cell_angle_beta 45.721153
_cell_angle_gamma 129.705068
_cell_volume 778.644032
_symmetry_space_group_name_H-M "P -1"
_symmetry_group_IT_number 2
_symmetry_cell_setting 'triclinic'
loop_
_space_group_symop_operation_xyz
x,y,z
-x,-y,-z
loop_
_atom_site_type_symbol
_atom_site_label
_atom_site_fract_x
_atom_site_fract_y
_atom_site_fract_z
Si Si1 0.345301 0.632927 0.804255
Si Si2 0.682226 0.816211 0.545552
Si Si3 0.741764 0.472789 0.725811
Si Si4 0.301208 0.173431 0.863373
Si Si5 0.812628 0.503069 0.483588
Si Si6 0.752455 0.186510 0.250732
Si Si7 0.710214 0.205189 0.015931
Si Si8 0.659421 0.376649 0.937186
O O1 0.543933 0.534278 0.743175
O O2 0.403765 0.758100 0.756286
O O3 0.994502 0.483225 0.853277
O O4 0.381283 0.747379 0.884768
O O5 0.727164 0.664340 0.541436
O O6 0.483258 0.692845 0.505068
O O7 0.468468 0.871296 0.648603
O O8 0.000000 0.000000 0.500000
O O9 0.532143 0.301921 0.782346
O O10 0.970458 0.449238 0.619628
O O11 0.943667 0.638322 0.761301
O O12 0.465454 0.206358 0.899941
O O13 0.043306 0.229193 0.944388
O O14 0.178722 0.968094 0.825072
O O15 0.000000 0.500000 0.500000
O O16 0.686523 0.327466 0.992427
O O17 0.500000 0.000000 0.000000
O O18 0.500000 0.500000 0.000000
#
# Coordination Sequence:
#
# PCOD9030102 Si02
#       8
#     2   2   2   2   2   2   2   2
#     4  12  23  41  63  90 128 165 215 261 313 371
#     4  10  22  44  67  98 133 166 211 263 325 392
#     4  11  23  43  65  92 129 163 209 267 312 376
#     4  12  24  42  64  92 126 168 216 257 319 370
#     4  10  22  42  69  97 128 169 211 261 327 390
#     4  11  25  41  66  96 126 166 211 264 314 375
#     4  12  26  40  60  90 127 169 214 260 311 379
#     4  12  24  41  64  89 122 173 214 260 318 363
#
# _framework density 20.548542999999999
#
# number of rings (size 3 to 8) (size 9 to 14) (size 15 to 20)
#    0.000    0.750    3.750    4.125    1.750    1.500 
#    2.250    0.000    0.000    0.000    0.000    0.000 
#    0.000    0.000    0.000    0.000    0.000    0.000 
#
# Total GULP energy -89496.367682 kJ/mol
# GULP energy per Si atom -5593.522980 kJ/mol
# Density = 2.050177 g / cm^3
# Si number density = 20.548543 Si / 1000 Ang^3
#
#
#
# Elastic Constant Matrix: (Units=GPa)
#
#
# Indices 1 2 3 4 5 6 
#
# 1 112.7925 19.3207 -1.1149 3.8797 3.9805 2.4051
# 2 19.3207 54.1612 4.3685 3.9541 9.3066 12.3960
# 3 -1.1149 4.3685 48.8785 8.1140 -5.9264 4.9407
# 4 3.8797 3.9541 8.1140 35.3788 -1.9031 -6.1353
# 5 3.9805 9.3066 -5.9264 -1.9031 31.8151 3.6589
# 6 2.4051 12.3960 4.9407 -6.1353 3.6589 29.6700
#
#
#
# Elastic Compliance Matrix: (Units=1/GPa)
#
#
# Indices 1 2 3 4 5 6 
#
# 1 0.009484 -0.003452 0.000579 -0.000718 -0.000164 0.000449
# 2 -0.003452 0.023190 -0.001273 -0.003840 -0.005751 -0.009282
# 3 0.000579 -0.001273 0.022624 -0.005731 0.004753 -0.005054
# 4 -0.000718 -0.003840 -0.005731 0.031711 0.001002 0.009051
# 5 -0.000164 -0.005751 0.004753 0.001002 0.034356 -0.002405
# 6 0.000449 -0.009282 -0.005054 0.009051 -0.002405 0.040555
#
#
# Mechanical properties :
#
#
# Convention : Reuss Voigt Hill
#
# Bulk Modulus (GPa) = 21.27376 28.99786 25.13581
# Shear Modulus (GPa) = 26.89876 32.25665 29.57770
#
# Velocity S-wave (km/s) = 3.62198 3.96634 3.79807
# Velocity P-wave (km/s) = 5.27893 5.92607 5.61184
#
# Compressibility (1/GPa) = 0.04700627
#
# Stress axis : x y z
#
# Youngs Moduli (GPa) = 105.44344 43.12120 44.20036
#
# Poissons Ratio (x) = 0.14885 -0.02558
# Poissons Ratio (y) = 0.36399 0.05626
# Poissons Ratio (z) = -0.06103 0.05489
#
# Static dielectric constant tensor:
#      x y z
#    x 1.697090 -0.016920 -0.095660 
#    y -0.016920 1.736790 -0.051520 
#    z -0.095660 -0.051520 1.492200 
# 
# From -- ./inp_files/47576.got.cif
#   From: 2010.05.17/outbox.cif.g08.bks.cpg/sg2_24_cif.got.tgz:47576.got - 2010.06.03 11:33:40.
