data_PCOD9030057
_publ_section_title
;
Structure prediction by ZEFSAII (Michael W. Deem and Ramdas Pophale) SiO2 
 PCOD9030057
Probable space group: P -1
;
_chemical_formula_sum "Si O2"
_cell_formula_units_Z 16
_cell_length_a 15.880705
_cell_length_b 9.198220
_cell_length_c 8.260901
_cell_angle_alpha 107.262060
_cell_angle_beta 34.623174
_cell_angle_gamma 106.192473
_cell_volume 653.401015
_symmetry_space_group_name_H-M "P -1"
_symmetry_group_IT_number 2
_symmetry_cell_setting 'triclinic'
loop_
_space_group_symop_operation_xyz
x,y,z
-x,-y,-z
loop_
_atom_site_type_symbol
_atom_site_label
_atom_site_fract_x
_atom_site_fract_y
_atom_site_fract_z
Si Si1 0.559159 0.332788 0.337759
Si Si2 0.668126 0.890213 0.542540
Si Si3 0.031978 0.374452 0.271043
Si Si4 0.806661 0.424198 0.199068
Si Si5 0.229997 0.248195 0.152478
Si Si6 0.705172 0.392826 0.788690
Si Si7 0.894421 0.727087 0.302357
Si Si8 0.502375 0.174527 0.865084
O O1 0.500000 0.500000 0.500000
O O2 0.418017 0.218763 0.487795
O O3 0.663841 0.326390 0.326868
O O4 0.656911 0.321465 0.016166
O O5 0.831975 0.840192 0.306663
O O6 0.630598 0.058211 0.608124
O O7 0.589524 0.862871 0.835009
O O8 0.128325 0.471018 0.019566
O O9 0.123613 0.243886 0.164315
O O10 0.000000 0.500000 0.500000
O O11 0.864085 0.331580 0.470169
O O12 0.938480 0.318088 0.998356
O O13 0.795656 0.563521 0.388780
O O14 0.285319 0.426976 0.136217
O O15 0.129404 0.214586 0.459565
O O16 0.379751 0.163021 0.914340
O O17 0.584887 0.336946 0.827674
#
# Coordination Sequence:
#
# PCOD9030057 Si02
#       8
#     2   2   2   2   2   2   2   2
#     4  11  19  32  53  78 104 136 169 214 263 307
#     4   9  19  34  49  73 108 139 171 210 259 305
#     4  10  17  32  51  76 109 132 162 218 264 300
#     4  11  19  32  51  82 105 133 167 216 264 304
#     4  10  17  32  53  81 104 131 174 217 259 299
#     4  10  18  32  54  80 104 132 174 217 258 304
#     4  10  19  31  53  77 105 132 173 212 257 306
#     4   9  19  32  50  75 106 138 171 214 255 304
#
# _framework density 24.487259000000002
#
# number of rings (size 3 to 8) (size 9 to 14) (size 15 to 20)
#    0.000    2.000    6.250    0.375    0.000    0.000 
#    0.000    1.250    0.000    9.750    0.000    0.000 
#    0.000    0.000    0.000    0.000    0.000    0.000 
#
# Total GULP energy -89394.269709 kJ/mol
# GULP energy per Si atom -5587.141857 kJ/mol
# Density = 2.443153 g / cm^3
# Si number density = 24.487259 Si / 1000 Ang^3
#
#
#
# Elastic Constant Matrix: (Units=GPa)
#
#
# Indices 1 2 3 4 5 6 
#
# 1 130.0205 6.3492 47.6882 10.3108 -26.9287 -22.5888
# 2 6.3492 28.4000 8.0454 18.9864 -14.8768 -8.9006
# 3 47.6882 8.0454 70.6613 4.8018 -13.9579 -18.3352
# 4 10.3108 18.9864 4.8018 29.5657 -18.4476 -8.5871
# 5 -26.9287 -14.8768 -13.9579 -18.4476 54.1070 10.9650
# 6 -22.5888 -8.9006 -18.3352 -8.5871 10.9650 27.0667
#
#
#
# Elastic Compliance Matrix: (Units=1/GPa)
#
#
# Indices 1 2 3 4 5 6 
#
# 1 0.011438 0.003695 -0.006117 -0.001796 0.003587 0.004594
# 2 0.003695 0.065588 -0.004507 -0.037731 0.004243 0.007909
# 3 -0.006117 -0.004507 0.020920 0.004765 0.000974 0.008701
# 4 -0.001796 -0.037731 0.004765 0.066812 0.011558 0.005836
# 5 0.003587 0.004243 0.000974 0.011558 0.025993 -0.001814
# 6 0.004594 0.007909 0.008701 0.005836 -0.001814 0.051861
#
#
# Mechanical properties :
#
#
# Convention : Reuss Voigt Hill
#
# Bulk Modulus (GPa) = 11.89244 39.24971 25.57107
# Shear Modulus (GPa) = 17.57470 33.28114 25.42792
#
# Velocity S-wave (km/s) = 2.68191 3.69063 3.22594
# Velocity P-wave (km/s) = 3.80228 5.85016 4.93365
#
# Compressibility (1/GPa) = 0.08408705
#
# Stress axis : x y z
#
# Youngs Moduli (GPa) = 87.42964 15.24676 47.80109
#
# Poissons Ratio (x) = -0.05634 0.29241
# Poissons Ratio (y) = -0.32307 0.21545
# Poissons Ratio (z) = 0.53483 0.06872
#
# Static dielectric constant tensor:
#      x y z
#    x 2.025490 -0.015470 0.012840 
#    y -0.015470 1.926330 -0.014940 
#    z 0.012840 -0.014940 2.027440 
# 
# From -- ./inp_files/305488.got.cif
#   From: 2010.05.17/outbox.cif.g08.bks.cpg/sg2_153_cif.got.tgz:305488.got - 2010.06.03 11:33:40.
