data_PCOD9030465
_publ_section_title
;
Structure prediction by ZEFSAII (Michael W. Deem and Ramdas Pophale) SiO2 
 PCOD9030465
Probable space group: P -1
;
_chemical_formula_sum "Si O2"
_cell_formula_units_Z 14
_cell_length_a 22.202875
_cell_length_b 9.547765
_cell_length_c 17.492963
_cell_angle_alpha 31.008956
_cell_angle_beta 158.556240
_cell_angle_gamma 136.831178
_cell_volume 650.713370
_symmetry_space_group_name_H-M "P -1"
_symmetry_group_IT_number 2
_symmetry_cell_setting 'triclinic'
loop_
_space_group_symop_operation_xyz
x,y,z
-x,-y,-z
loop_
_atom_site_type_symbol
_atom_site_label
_atom_site_fract_x
_atom_site_fract_y
_atom_site_fract_z
Si Si1 0.425039 0.339617 0.727751
Si Si2 0.929183 0.155820 0.261721
Si Si3 0.274761 0.399426 0.073241
Si Si4 0.693679 0.260077 0.351551
Si Si5 0.785892 0.114295 0.690854
Si Si6 0.845399 0.738103 0.657497
Si Si7 0.949037 0.600858 0.478853
O O1 0.576527 0.473004 0.832849
O O2 0.293201 0.547076 0.537347
O O3 0.311004 0.368738 0.502499
O O4 0.500000 0.000000 0.000000
O O5 0.072943 0.200844 0.354265
O O6 0.856160 0.945254 0.225247
O O7 0.795530 0.460213 0.992421
O O8 0.000000 0.000000 0.500000
O O9 0.294612 0.064187 0.263802
O O10 0.125848 0.510523 0.779993
O O11 0.714648 0.085257 0.536574
O O12 0.826294 0.431180 0.439341
O O13 0.761130 0.035957 0.466247
O O14 0.500000 0.500000 0.000000
O O15 0.000000 0.000000 0.000000
O O16 0.000000 0.500000 0.000000
O O17 0.000000 0.500000 0.500000
#
# Coordination Sequence:
#
# PCOD9030465 Si02
#       7
#     2   2   2   2   2   2   2
#     4  12  27  46  76 108 147 190 247 297 352 442
#     4  10  22  42  71 101 140 188 240 283 360 438
#     4  11  25  45  74 106 140 192 244 298 356 430
#     4  12  27  44  71 107 145 183 240 299 360 426
#     4  12  25  49  74 105 147 192 238 294 366 434
#     4  12  26  48  70 105 146 190 234 299 371 425
#     4  11  23  42  71 103 144 186 237 296 365 424
#
# _framework density 21.514849000000002
#
# number of rings (size 3 to 8) (size 9 to 14) (size 15 to 20)
#    0.000    0.571    2.857    5.571    8.000    0.000 
#    2.571    1.429    0.000    0.000    0.000    0.000 
#    0.000    0.000    0.000    0.000    0.000    0.000 
#
# Total GULP energy -78220.559414 kJ/mol
# GULP energy per Si atom -5587.182815 kJ/mol
# Density = 2.146588 g / cm^3
# Si number density = 21.514849 Si / 1000 Ang^3
#
#
#
# Elastic Constant Matrix: (Units=GPa)
#
#
# Indices 1 2 3 4 5 6 
#
# 1 114.1589 54.9507 68.8452 -1.4733 4.1577 -14.4377
# 2 54.9507 137.9224 55.6278 11.6081 12.4368 -2.0554
# 3 68.8452 55.6278 134.9154 5.5885 7.7623 4.5533
# 4 -1.4733 11.6081 5.5885 51.6094 -7.0930 7.9387
# 5 4.1577 12.4368 7.7623 -7.0930 34.1275 -9.1282
# 6 -14.4377 -2.0554 4.5533 7.9387 -9.1282 51.3381
#
#
#
# Elastic Compliance Matrix: (Units=1/GPa)
#
#
# Indices 1 2 3 4 5 6 
#
# 1 0.014986 -0.003632 -0.006529 0.001561 0.002610 0.004871
# 2 -0.003632 0.009994 -0.001941 -0.002513 -0.003461 -0.000676
# 3 -0.006529 -0.001941 0.011816 -0.000838 -0.002222 -0.003227
# 4 0.001561 -0.002513 -0.000838 0.021037 0.004755 -0.001995
# 5 0.002610 -0.003461 -0.002222 0.004755 0.033340 0.005985
# 6 0.004871 -0.000676 -0.003227 -0.001995 0.005985 0.022480
#
#
# Mechanical properties :
#
#
# Convention : Reuss Voigt Hill
#
# Bulk Modulus (GPa) = 79.41811 82.87155 81.14483
# Shear Modulus (GPa) = 35.19755 41.25320 38.22537
#
# Velocity S-wave (km/s) = 4.04909 4.38360 4.21966
# Velocity P-wave (km/s) = 7.67160 8.01393 7.84464
#
# Compressibility (1/GPa) = 0.01259159
#
# Stress axis : x y z
#
# Youngs Moduli (GPa) = 66.72681 100.06082 84.63251
#
# Poissons Ratio (x) = 0.36338 0.55258
# Poissons Ratio (y) = 0.24233 0.16431
# Poissons Ratio (z) = 0.43567 0.19426
#
# Static dielectric constant tensor:
#      x y z
#    x 1.800240 -0.014120 0.042900 
#    y -0.014120 1.833630 -0.088800 
#    z 0.042900 -0.088800 1.896410 
# 
# From -- ./inp_files/579035.got.cif
#   From: 2010.05.17/outbox.cif.g08.bks.cpg/sg2_290_cif.got.tgz:579035.got - 2010.06.03 11:33:40.
