data_PCOD9030514
_publ_section_title
;
Structure prediction by ZEFSAII (Michael W. Deem and Ramdas Pophale) SiO2 
 PCOD9030514
Probable space group: P -1
;
_chemical_formula_sum "Si O2"
_cell_formula_units_Z 16
_cell_length_a 10.324567
_cell_length_b 21.867229
_cell_length_c 17.179325
_cell_angle_alpha 16.363270
_cell_angle_beta 36.801150
_cell_angle_gamma 31.298133
_cell_volume 562.767865
_symmetry_space_group_name_H-M "P -1"
_symmetry_group_IT_number 2
_symmetry_cell_setting 'triclinic'
loop_
_space_group_symop_operation_xyz
x,y,z
-x,-y,-z
loop_
_atom_site_type_symbol
_atom_site_label
_atom_site_fract_x
_atom_site_fract_y
_atom_site_fract_z
Si Si1 0.153621 0.125288 0.454202
Si Si2 0.341409 0.689119 0.631354
Si Si3 0.851036 0.214660 0.720139
Si Si4 0.241912 0.233940 0.737777
Si Si5 0.498849 0.715210 0.684893
Si Si6 0.391761 0.778390 0.021532
Si Si7 0.003612 0.732088 0.034783
Si Si8 0.864546 0.575242 0.146164
O O1 0.408103 0.954767 0.492052
O O2 0.097799 0.926928 0.767889
O O3 0.923305 0.240610 0.363524
O O4 0.102184 0.355847 0.252282
O O5 0.502010 0.786829 0.387868
O O6 0.318384 0.771339 0.630402
O O7 0.516349 0.390953 0.892752
O O8 0.721490 0.326056 0.729735
O O9 0.788073 0.419148 0.433452
O O10 0.774665 0.005023 0.993814
O O11 0.152154 0.047393 0.790226
O O12 0.000000 0.500000 0.500000
O O13 0.213360 0.219251 0.861729
O O14 0.771672 0.554664 0.710910
O O15 0.500000 0.500000 0.000000
O O16 0.639357 0.738581 0.995611
O O17 0.936247 0.732743 0.976126
#
# Coordination Sequence:
#
# PCOD9030514 Si02
#       8
#     2   2   2   2   2   2   2   2
#     4  10  24  44  67  95 131 178 218 272 331 379
#     4  11  22  41  67  95 132 172 218 276 330 396
#     4  11  22  40  63  92 141 184 206 268 334 388
#     4  12  22  38  66 100 133 172 221 263 336 404
#     4  10  22  42  71  93 124 174 226 272 326 391
#     4  10  23  38  59  93 131 174 215 263 322 394
#     4  11  23  43  67 100 133 172 217 271 327 398
#     4  11  24  42  64  97 138 169 224 268 325 398
#
# _framework density 28.430906
#
# number of rings (size 3 to 8) (size 9 to 14) (size 15 to 20)
#    0.000    1.250    3.750    1.500    5.250    2.000 
#    0.000    0.000    5.500    6.750    0.000    0.000 
#    0.000    0.000    0.000    0.000    0.000    0.000 
#
# Total GULP energy -89780.486903 kJ/mol
# GULP energy per Si atom -5611.280431 kJ/mol
# Density = 2.836620 g / cm^3
# Si number density = 28.430906 Si / 1000 Ang^3
#
#
#
# Elastic Constant Matrix: (Units=GPa)
#
#
# Indices 1 2 3 4 5 6 
#
# 1 116.2636 37.6784 23.8691 -8.5012 8.2530 11.2433
# 2 37.6784 167.8171 22.1886 -9.4116 -0.1803 20.2234
# 3 23.8691 22.1886 110.2909 7.4171 -11.5528 3.3108
# 4 -8.5012 -9.4116 7.4171 51.4464 3.0154 4.3441
# 5 8.2530 -0.1803 -11.5528 3.0154 46.8475 -10.9204
# 6 11.2433 20.2234 3.3108 4.3441 -10.9204 53.8297
#
#
#
# Elastic Compliance Matrix: (Units=1/GPa)
#
#
# Indices 1 2 3 4 5 6 
#
# 1 0.010158 -0.001610 -0.002262 0.002067 -0.002988 -0.002151
# 2 -0.001610 0.006833 -0.001111 0.001383 -0.000612 -0.002398
# 3 -0.002262 -0.001111 0.010254 -0.002346 0.003336 0.001126
# 4 0.002067 0.001383 -0.002346 0.020807 -0.002998 -0.003094
# 5 -0.002988 -0.000612 0.003336 -0.002998 0.024240 0.005808
# 6 -0.002151 -0.002398 0.001126 -0.003094 0.005808 0.021286
#
#
# Mechanical properties :
#
#
# Convention : Reuss Voigt Hill
#
# Bulk Modulus (GPa) = 57.87515 62.42708 60.15111
# Shear Modulus (GPa) = 45.74378 51.13375 48.43877
#
# Velocity S-wave (km/s) = 4.01552 4.24551 4.13211
# Velocity P-wave (km/s) = 6.47300 6.78510 6.63089
#
# Compressibility (1/GPa) = 0.01727857
#
# Stress axis : x y z
#
# Youngs Moduli (GPa) = 98.43980 146.34507 97.52744
#
# Poissons Ratio (x) = 0.23558 0.22061
# Poissons Ratio (y) = 0.15847 0.10840
# Poissons Ratio (z) = 0.22268 0.16265
#
# Static dielectric constant tensor:
#      x y z
#    x 2.201090 -0.051070 -0.000550 
#    y -0.051070 2.189180 0.010790 
#    z -0.000550 0.010790 2.229980 
# 
# From -- ./inp_files/570910.got.cif
#   From: 2010.05.17/outbox.cif.g08.bks.cpg/sg2_286_cif.got.tgz:570910.got - 2010.06.03 11:33:40.
