data_PCOD9030330
_publ_section_title
;
Structure prediction by ZEFSAII (Michael W. Deem and Ramdas Pophale) SiO2 
 PCOD9030330
Probable space group: P -1
;
_chemical_formula_sum "Si O2"
_cell_formula_units_Z 16
_cell_length_a 19.875278
_cell_length_b 4.810724
_cell_length_c 9.204918
_cell_angle_alpha 116.688503
_cell_angle_beta 132.302633
_cell_angle_gamma 71.003699
_cell_volume 581.230317
_symmetry_space_group_name_H-M "P -1"
_symmetry_group_IT_number 2
_symmetry_cell_setting 'triclinic'
loop_
_space_group_symop_operation_xyz
x,y,z
-x,-y,-z
loop_
_atom_site_type_symbol
_atom_site_label
_atom_site_fract_x
_atom_site_fract_y
_atom_site_fract_z
Si Si1 0.888254 0.110952 0.875002
Si Si2 0.541128 0.698163 0.905536
Si Si3 0.665289 0.167786 0.075822
Si Si4 0.741706 0.682453 0.509652
Si Si5 0.642883 0.338703 0.530237
Si Si6 0.083370 0.305360 0.654508
Si Si7 0.981610 0.176438 0.762749
Si Si8 0.258425 0.646040 0.051858
O O1 0.843309 0.807509 0.665942
O O2 0.965281 0.044463 0.093417
O O3 0.917933 0.327345 0.834306
O O4 0.804697 0.215245 0.878144
O O5 0.459842 0.609177 0.660805
O O6 0.575287 0.389278 0.966740
O O7 0.500000 0.000000 0.000000
O O8 0.634260 0.841865 0.014560
O O9 0.722854 0.384254 0.314066
O O10 0.715963 0.126819 0.987307
O O11 0.709134 0.566064 0.592675
O O12 0.674528 0.982606 0.450140
O O13 0.652157 0.400080 0.728968
O O14 0.056783 0.288344 0.783295
O O15 0.184370 0.424796 0.820360
O O16 0.000000 0.500000 0.500000
O O17 0.080908 0.986471 0.485619
#
# Coordination Sequence:
#
# PCOD9030330 Si02
#       8
#     2   2   2   2   2   2   2   2
#     4  10  22  43  65  99 135 177 235 274 344 407
#     4  12  23  45  72 102 131 176 233 282 336 411
#     4  12  25  42  73 100 137 179 225 280 346 400
#     4  11  21  42  65 103 130 183 218 284 331 405
#     4  11  24  42  71  95 138 174 225 279 341 400
#     4  11  22  44  66  99 134 174 228 283 337 400
#     4  10  22  42  70  93 130 185 225 283 338 402
#     4  11  26  44  63 103 138 175 221 286 338 409
#
# _framework density 27.527812000000001
#
# number of rings (size 3 to 8) (size 9 to 14) (size 15 to 20)
#    0.000    1.000    3.750    2.625    0.000    4.500 
#   11.250    0.000    0.000    0.000    0.000    0.000 
#    0.000    0.000    0.000    0.000    0.000    0.000 
#
# Total GULP energy -89444.806643 kJ/mol
# GULP energy per Si atom -5590.300415 kJ/mol
# Density = 2.746516 g / cm^3
# Si number density = 27.527812 Si / 1000 Ang^3
#
#
#
# Elastic Constant Matrix: (Units=GPa)
#
#
# Indices 1 2 3 4 5 6 
#
# 1 145.5117 9.9228 34.0370 -8.5642 -6.8067 32.7938
# 2 9.9228 78.5367 2.9918 -14.7609 2.6050 14.7309
# 3 34.0370 2.9918 154.0353 -4.5234 7.3768 4.6036
# 4 -8.5642 -14.7609 -4.5234 36.7502 0.5776 1.0095
# 5 -6.8067 2.6050 7.3768 0.5776 67.3739 -4.2800
# 6 32.7938 14.7309 4.6036 1.0095 -4.2800 59.1748
#
#
#
# Elastic Compliance Matrix: (Units=1/GPa)
#
#
# Indices 1 2 3 4 5 6 
#
# 1 0.008438 0.000199 -0.001709 0.001950 0.000725 -0.004574
# 2 0.000199 0.014603 0.000007 0.006033 -0.000845 -0.003910
# 3 -0.001709 0.000007 0.006917 0.000461 -0.000913 0.000333
# 4 0.001950 0.006033 0.000461 0.030241 -0.000548 -0.003174
# 5 0.000725 -0.000845 -0.000913 -0.000548 0.015116 0.000983
# 6 -0.004574 -0.003910 0.000333 -0.003174 0.000983 0.020506
#
#
# Mechanical properties :
#
#
# Convention : Reuss Voigt Hill
#
# Bulk Modulus (GPa) = 37.10311 52.44299 44.77305
# Shear Modulus (GPa) = 46.37766 54.73524 50.55645
#
# Velocity S-wave (km/s) = 4.10903 4.46394 4.29016
# Velocity P-wave (km/s) = 6.00165 6.75732 6.39066
#
# Compressibility (1/GPa) = 0.02695192
#
# Stress axis : x y z
#
# Youngs Moduli (GPa) = 118.51216 68.47961 144.57454
#
# Poissons Ratio (x) = -0.01366 0.24710
# Poissons Ratio (y) = -0.02363 -0.00099
# Poissons Ratio (z) = 0.20255 -0.00047
#
# Static dielectric constant tensor:
#      x y z
#    x 2.283470 -0.171870 0.057840 
#    y -0.171870 2.274340 0.035240 
#    z 0.057840 0.035240 2.238270 
# 
# From -- ./inp_files/324175.got.cif
#   From: 2010.05.17/outbox.cif.g08.bks.cpg/sg2_163_cif.got.tgz:324175.got - 2010.06.03 11:33:40.
