data_PCOD9030717
_publ_section_title
;
Structure prediction by ZEFSAII (Michael W. Deem and Ramdas Pophale) SiO2 
 PCOD9030717
Probable space group: P -1
;
_chemical_formula_sum "Si O2"
_cell_formula_units_Z 16
_cell_length_a 9.066118
_cell_length_b 26.576378
_cell_length_c 9.671496
_cell_angle_alpha 36.415760
_cell_angle_beta 31.909481
_cell_angle_gamma 38.957199
_cell_volume 697.270521
_symmetry_space_group_name_H-M "P -1"
_symmetry_group_IT_number 2
_symmetry_cell_setting 'triclinic'
loop_
_space_group_symop_operation_xyz
x,y,z
-x,-y,-z
loop_
_atom_site_type_symbol
_atom_site_label
_atom_site_fract_x
_atom_site_fract_y
_atom_site_fract_z
Si Si1 0.890071 0.737893 0.992306
Si Si2 0.299474 0.523858 0.740141
Si Si3 0.542682 0.151414 0.388833
Si Si4 0.265338 0.544151 0.204276
Si Si5 0.365004 0.834115 0.393233
Si Si6 0.789435 0.133685 0.955463
Si Si7 0.606099 0.018396 0.165890
Si Si8 0.991126 0.723968 0.631192
O O1 0.056803 0.812853 0.686819
O O2 0.844244 0.719468 0.906940
O O3 0.120237 0.648070 0.063320
O O4 0.624914 0.764492 0.253737
O O5 0.500000 0.500000 0.500000
O O6 0.529652 0.473598 0.784859
O O7 0.182180 0.627371 0.646027
O O8 0.000000 0.500000 0.000000
O O9 0.562687 0.165847 0.502231
O O10 0.248945 0.223095 0.405610
O O11 0.592051 0.045060 0.563404
O O12 0.759514 0.166055 0.065484
O O13 0.000000 0.500000 0.500000
O O14 0.500000 0.500000 0.000000
O O15 0.352897 0.925996 0.123070
O O16 0.805024 0.211680 0.669173
O O17 0.554003 0.087702 0.182862
O O18 0.093049 0.057272 0.875034
#
# Coordination Sequence:
#
# PCOD9030717 Si02
#       8
#     2   2   2   2   2   2   2   2
#     4  12  28  48  75 105 147 194 256 301 368 454
#     4  12  30  48  78 115 155 196 244 317 389 455
#     4  11  26  41  72 103 152 187 246 311 373 439
#     4  12  26  50  80 111 148 200 252 312 380 455
#     4  12  28  44  73 108 147 194 243 312 370 441
#     4  10  22  42  73 102 141 194 249 302 362 455
#     4  10  22  43  66 107 139 199 244 296 372 444
#     4  11  26  47  73 105 145 198 247 304 373 454
#
# _framework density 22.946618999999998
#
# number of rings (size 3 to 8) (size 9 to 14) (size 15 to 20)
#    0.000    0.750    2.500    3.000   10.500    0.500 
#    0.000    0.000    0.000    0.000    0.000    0.000 
#    0.000    0.000    0.000    0.000    0.000    0.000 
#
# Total GULP energy -89343.839836 kJ/mol
# GULP energy per Si atom -5583.989990 kJ/mol
# Density = 2.289439 g / cm^3
# Si number density = 22.946619 Si / 1000 Ang^3
#
#
#
# Elastic Constant Matrix: (Units=GPa)
#
#
# Indices 1 2 3 4 5 6 
#
# 1 149.9831 40.7988 56.7421 3.1578 29.9267 9.3425
# 2 40.7988 124.3720 29.4993 11.2504 16.3261 -2.8524
# 3 56.7421 29.4993 81.6146 26.6716 21.3142 -8.4487
# 4 3.1578 11.2504 26.6716 47.6428 -8.3393 24.4102
# 5 29.9267 16.3261 21.3142 -8.3393 36.9817 20.4423
# 6 9.3425 -2.8524 -8.4487 24.4102 20.4423 25.7250
#
#
#
# Elastic Compliance Matrix: (Units=1/GPa)
#
#
# Indices 1 2 3 4 5 6 
#
# 1 0.009521 -0.001059 -0.003018 -0.002115 -0.008133 0.003903
# 2 -0.001059 0.008830 -0.003994 0.002278 0.001677 -0.003442
# 3 -0.003018 -0.003994 0.005311 0.012260 0.016074 -0.022009
# 4 -0.002115 0.002278 0.012260 -0.006204 -0.024615 0.030494
# 5 -0.008133 0.001677 0.016074 -0.024615 0.000895 0.031064
# 6 0.003903 -0.003442 -0.022009 0.030494 0.031064 -0.023775
#
#
# Mechanical properties :
#
#
# Convention : Reuss Voigt Hill
#
# Bulk Modulus (GPa) = 132.94736 67.78334 100.36535
# Shear Modulus (GPa) = 378.01264 37.33186 207.67225
#
# Velocity S-wave (km/s) = 12.84886 4.03786 9.52359
# Velocity P-wave (km/s) = 16.67896 7.16539 12.83609
#
# Compressibility (1/GPa) = 0.00752177
#
# Stress axis : x y z
#
# Youngs Moduli (GPa) = 105.02737 113.24992 188.27214
#
# Poissons Ratio (x) = 0.11995 0.56813
# Poissons Ratio (y) = 0.11125 0.75191
# Poissons Ratio (z) = 0.31693 0.45229
#
# Static dielectric constant tensor:
#      x y z
#    x 1.836490 0.003300 -0.090860 
#    y 0.003300 1.828710 -0.012500 
#    z -0.090860 -0.012500 1.881920 
# 
# From -- ./inp_files/225910.got.cif
#   From: 2010.05.17/outbox.cif.g08.bks.cpg/sg2_113_cif.got.tgz:225910.got - 2010.06.03 11:33:40.
