data_PCOD9030049
_publ_section_title
;
Structure prediction by ZEFSAII (Michael W. Deem and Ramdas Pophale) SiO2 
 PCOD9030049
Probable space group: P -1
;
_chemical_formula_sum "Si O2"
_cell_formula_units_Z 16
_cell_length_a 14.538993
_cell_length_b 25.503099
_cell_length_c 16.307231
_cell_angle_alpha 21.503957
_cell_angle_beta 32.509458
_cell_angle_gamma 20.957510
_cell_volume 777.585116
_symmetry_space_group_name_H-M "P -1"
_symmetry_group_IT_number 2
_symmetry_cell_setting 'triclinic'
loop_
_space_group_symop_operation_xyz
x,y,z
-x,-y,-z
loop_
_atom_site_type_symbol
_atom_site_label
_atom_site_fract_x
_atom_site_fract_y
_atom_site_fract_z
Si Si1 0.244105 0.707818 0.842373
Si Si2 0.658120 0.759045 0.755566
Si Si3 0.823741 0.920111 0.636612
Si Si4 0.609395 0.492390 0.147797
Si Si5 0.227129 0.448571 0.720780
Si Si6 0.536999 0.094254 0.135711
Si Si7 0.245665 0.164455 0.009356
Si Si8 0.896373 0.223518 0.776975
O O1 0.323056 0.651671 0.768939
O O2 0.004080 0.748817 0.973796
O O3 0.177921 0.910583 0.622074
O O4 0.500000 0.500000 0.000000
O O5 0.564423 0.775103 0.893031
O O6 0.965566 0.592204 0.761880
O O7 0.500000 0.000000 0.500000
O O8 0.592273 0.668844 0.876523
O O9 0.627492 0.947067 0.692859
O O10 0.739870 0.936962 0.769410
O O11 0.124291 0.680380 0.747613
O O12 0.343374 0.625706 0.199289
O O13 0.207552 0.619346 0.450736
O O14 0.466393 0.244324 0.894988
O O15 0.209230 0.348230 0.804110
O O16 0.844022 0.870348 0.242124
O O17 0.500000 0.000000 0.000000
O O18 0.000000 0.000000 0.000000
#
# Coordination Sequence:
#
# PCOD9030049 Si02
#       8
#     2   2   2   2   2   2   2   2
#     4  11  25  42  67 100 130 170 225 272 331 400
#     4  12  21  41  71  93 131 177 222 269 330 400
#     4  10  24  44  68  94 132 175 220 271 327 407
#     4  11  23  46  64  96 132 177 218 274 339 388
#     4  11  24  42  70  97 134 176 220 276 332 400
#     4  11  24  43  70  99 133 173 232 263 340 395
#     4  10  22  42  69  94 127 171 218 268 335 385
#     4  12  26  44  65 100 139 174 218 283 334 388
#
# _framework density 20.576526000000001
#
# number of rings (size 3 to 8) (size 9 to 14) (size 15 to 20)
#    0.000    1.000    6.250    1.875    7.000    2.500 
#    0.000    1.250    0.000    0.000    0.000    0.000 
#    0.000    0.000    0.000    0.000    0.000    0.000 
#
# Total GULP energy -89336.219998 kJ/mol
# GULP energy per Si atom -5583.513750 kJ/mol
# Density = 2.052969 g / cm^3
# Si number density = 20.576526 Si / 1000 Ang^3
#
#
#
# Elastic Constant Matrix: (Units=GPa)
#
#
# Indices 1 2 3 4 5 6 
#
# 1 58.3726 29.6345 14.6841 -6.8404 -9.0014 -18.2398
# 2 29.6345 165.3305 3.6894 -5.9895 -0.2812 0.5163
# 3 14.6841 3.6894 105.6280 -20.5763 -8.9656 4.8862
# 4 -6.8404 -5.9895 -20.5763 22.5427 3.7542 1.3932
# 5 -9.0014 -0.2812 -8.9656 3.7542 28.7970 -1.3900
# 6 -18.2398 0.5163 4.8862 1.3932 -1.3900 23.9542
#
#
#
# Elastic Compliance Matrix: (Units=1/GPa)
#
#
# Indices 1 2 3 4 5 6 
#
# 1 0.029945 -0.005303 -0.004159 0.000873 0.009070 0.024240
# 2 -0.005303 0.007050 0.000872 0.001633 -0.001751 -0.004565
# 3 -0.004159 0.000872 0.012440 0.010563 0.000901 -0.006285
# 4 0.000873 0.001633 0.010563 0.055662 -0.003920 -0.004990
# 5 0.009070 -0.001751 0.000901 -0.003920 0.038781 0.009239
# 6 0.024240 -0.004565 -0.006285 -0.004990 0.009239 0.062411
#
#
# Mechanical properties :
#
#
# Convention : Reuss Voigt Hill
#
# Bulk Modulus (GPa) = 31.00436 47.26078 39.13257
# Shear Modulus (GPa) = 21.34734 33.81363 27.58049
#
# Velocity S-wave (km/s) = 3.22446 4.05818 3.66510
# Velocity P-wave (km/s) = 5.38176 6.70646 6.08029
#
# Compressibility (1/GPa) = 0.03225353
#
# Stress axis : x y z
#
# Youngs Moduli (GPa) = 33.39433 141.84251 80.38755
#
# Poissons Ratio (x) = 0.75224 0.33434
# Poissons Ratio (y) = 0.17710 -0.07007
# Poissons Ratio (z) = 0.13889 -0.12365
#
# Static dielectric constant tensor:
#      x y z
#    x 1.806890 -0.019340 0.009260 
#    y -0.019340 1.722400 0.004460 
#    z 0.009260 0.004460 1.803940 
# 
# From -- ./inp_files/574512.got.cif
#   From: 2010.05.17/outbox.cif.g08.bks.cpg/sg2_288_cif.got.tgz:574512.got - 2010.06.03 11:33:40.
