data_PCOD9030310
_publ_section_title
;
Structure prediction by ZEFSAII (Michael W. Deem and Ramdas Pophale) SiO2 
 PCOD9030310
Probable space group: P -1
;
_chemical_formula_sum "Si O2"
_cell_formula_units_Z 13
_cell_length_a 13.843428
_cell_length_b 9.558785
_cell_length_c 8.476931
_cell_angle_alpha 89.492558
_cell_angle_beta 67.372620
_cell_angle_gamma 35.922039
_cell_volume 503.671792
_symmetry_space_group_name_H-M "P -1"
_symmetry_group_IT_number 2
_symmetry_cell_setting 'triclinic'
loop_
_space_group_symop_operation_xyz
x,y,z
-x,-y,-z
loop_
_atom_site_type_symbol
_atom_site_label
_atom_site_fract_x
_atom_site_fract_y
_atom_site_fract_z
Si Si1 0.842152 0.292698 0.269078
Si Si2 0.233965 0.914375 0.804542
Si Si3 0.000000 0.500000 0.000000
Si Si4 0.634639 0.404008 0.774252
Si Si5 0.884195 0.696824 0.369864
Si Si6 0.564818 0.845218 0.300303
Si Si7 0.048903 0.745372 0.451726
O O1 0.790039 0.188943 0.295716
O O2 0.657515 0.584853 0.284074
O O3 0.858646 0.336361 0.431913
O O4 0.061914 0.073161 0.043698
O O5 0.464145 0.651944 0.746358
O O6 0.169612 0.136240 0.755872
O O7 0.978072 0.467989 0.200814
O O8 0.757852 0.707874 0.105482
O O9 0.786771 0.349460 0.747345
O O10 0.808109 0.088371 0.607709
O O11 0.500000 0.500000 0.000000
O O12 0.036114 0.610211 0.384243
O O13 0.678451 0.900556 0.603502
O O14 0.500000 0.000000 0.500000
#
# Coordination Sequence:
#
# PCOD9030310 Si02
#       7
#     2   2   1   2   2   2   2
#     4  11  22  40  64  99 132 166 214 258 318 383
#     4  11  22  38  68  95 130 176 206 256 321 386
#     4  10  22  44  64  92 118 162 222 260 310 382
#     4  11  22  37  57  94 138 170 206 256 320 378
#     4  11  23  41  68  94 124 171 212 268 317 375
#     4  10  22  42  70  90 122 168 217 262 312 381
#     4  11  24  38  60  96 132 165 211 266 314 379
#
# _framework density 25.810459000000002
#
# number of rings (size 3 to 8) (size 9 to 14) (size 15 to 20)
#    0.000    1.231    3.077    3.692    2.154    3.077 
#    0.000    3.077    0.000    3.692    0.000    0.000 
#    0.000    0.000    0.000    0.000    0.000    0.000 
#
# Total GULP energy -72493.227521 kJ/mol
# GULP energy per Si atom -5576.402117 kJ/mol
# Density = 2.575171 g / cm^3
# Si number density = 25.810459 Si / 1000 Ang^3
#
#
#
# Elastic Constant Matrix: (Units=GPa)
#
#
# Indices 1 2 3 4 5 6 
#
# 1 116.2502 8.0462 22.4068 -10.6017 -20.2139 -20.6169
# 2 8.0462 94.4191 22.9117 -1.1963 -17.6774 -14.4869
# 3 22.4068 22.9117 156.0554 18.2014 -46.4950 -26.0797
# 4 -10.6017 -1.1963 18.2014 20.0156 -9.2901 -3.7581
# 5 -20.2139 -17.6774 -46.4950 -9.2901 42.0178 -8.8756
# 6 -20.6169 -14.4869 -26.0797 -3.7581 -8.8756 36.2017
#
#
#
# Elastic Compliance Matrix: (Units=1/GPa)
#
#
# Indices 1 2 3 4 5 6 
#
# 1 0.021271 0.008530 0.009460 0.027040 0.037524 0.034349
# 2 0.008530 0.017677 0.006946 0.017308 0.028485 0.025716
# 3 0.009460 0.006946 0.019866 0.011750 0.039083 0.033280
# 4 0.027040 0.017308 0.011750 0.096294 0.066649 0.057127
# 5 0.037524 0.028485 0.039083 0.066649 0.133040 0.100461
# 6 0.034349 0.025716 0.033280 0.057127 0.100461 0.112011
#
#
# Mechanical properties :
#
#
# Convention : Reuss Voigt Hill
#
# Bulk Modulus (GPa) = 9.20099 52.60601 30.90350
# Shear Modulus (GPa) = 12.93608 40.53768 26.73688
#
# Velocity S-wave (km/s) = 2.24117 3.96737 3.22202
# Velocity P-wave (km/s) = 3.20463 6.43526 5.08342
#
# Compressibility (1/GPa) = 0.10868397
#
# Stress axis : x y z
#
# Youngs Moduli (GPa) = 47.01277 56.57171 50.33803
#
# Poissons Ratio (x) = -0.48255 -0.47619
# Poissons Ratio (y) = -0.40102 -0.34963
# Poissons Ratio (z) = -0.44473 -0.39292
#
# Static dielectric constant tensor:
#      x y z
#    x 1.873430 -0.044390 -0.291410 
#    y -0.044390 2.118090 -0.081580 
#    z -0.291410 -0.081580 1.806890 
# 
# From -- ./inp_files/177244.got.cif
#   From: 2010.05.17/outbox.cif.g08.bks.cpg/sg2_89_cif.got.tgz:177244.got - 2010.06.03 11:33:40.
