data_PCOD9030748
_publ_section_title
;
Structure prediction by ZEFSAII (Michael W. Deem and Ramdas Pophale) SiO2 
 PCOD9030748
Probable space group: P -1
;
_chemical_formula_sum "Si O2"
_cell_formula_units_Z 14
_cell_length_a 7.708063
_cell_length_b 19.002078
_cell_length_c 15.890389
_cell_angle_alpha 159.155870
_cell_angle_beta 52.291642
_cell_angle_gamma 135.661609
_cell_volume 563.519610
_symmetry_space_group_name_H-M "P -1"
_symmetry_group_IT_number 2
_symmetry_cell_setting 'triclinic'
loop_
_space_group_symop_operation_xyz
x,y,z
-x,-y,-z
loop_
_atom_site_type_symbol
_atom_site_label
_atom_site_fract_x
_atom_site_fract_y
_atom_site_fract_z
Si Si1 0.805525 0.715185 0.907392
Si Si2 0.040954 0.570048 0.232416
Si Si3 0.709275 0.750246 0.498388
Si Si4 0.558745 0.955428 0.337901
Si Si5 0.750626 0.366212 0.252131
Si Si6 0.101469 0.868794 0.268144
Si Si7 0.200310 0.159494 0.227449
O O1 0.568873 0.471397 0.678231
O O2 0.039629 0.682542 0.826902
O O3 0.701319 0.813312 0.122114
O O4 0.933434 0.921868 0.031554
O O5 0.920202 0.680994 0.332540
O O6 0.814298 0.412929 0.187349
O O7 0.259755 0.783483 0.456442
O O8 0.117888 0.394318 0.977864
O O9 0.758337 0.813172 0.652506
O O10 0.768256 0.968127 0.668688
O O11 0.500000 0.000000 0.500000
O O12 0.309144 0.842944 0.230389
O O13 0.456850 0.173831 0.135081
O O14 0.791606 0.608935 0.546358
O O15 0.000000 0.000000 0.500000
#
# Coordination Sequence:
#
# PCOD9030748 Si02
#       7
#     2   2   2   2   2   2   2
#     4  12  23  42  68  99 135 175 223 279 331 399
#     4  11  24  47  68  97 139 174 221 284 326 402
#     4  11  24  42  69  97 136 174 220 280 332 397
#     4  12  27  45  69  99 136 181 228 276 334 401
#     4  10  22  42  73  96 136 181 221 273 338 397
#     4  12  28  44  69 100 130 180 230 275 339 397
#     4  10  23  46  66 102 137 176 225 273 336 400
#
# _framework density 24.843858999999998
#
# number of rings (size 3 to 8) (size 9 to 14) (size 15 to 20)
#    0.000    0.857    4.286    3.000    4.000    2.286 
#    0.000    7.857    0.000    0.000    0.000    0.000 
#    0.000    0.000    0.000    0.000    0.000    0.000 
#
# Total GULP energy -78326.836931 kJ/mol
# GULP energy per Si atom -5594.774066 kJ/mol
# Density = 2.478731 g / cm^3
# Si number density = 24.843859 Si / 1000 Ang^3
#
#
#
# Elastic Constant Matrix: (Units=GPa)
#
#
# Indices 1 2 3 4 5 6 
#
# 1 48.0367 1.4733 20.0714 1.3399 -12.9865 18.7255
# 2 1.4733 82.8005 -0.2938 3.9208 -1.2783 8.2390
# 3 20.0714 -0.2938 120.5108 8.9444 -1.3747 12.2444
# 4 1.3399 3.9208 8.9444 36.6323 10.1358 -2.8321
# 5 -12.9865 -1.2783 -1.3747 10.1358 37.2883 -0.1753
# 6 18.7255 8.2390 12.2444 -2.8321 -0.1753 36.1754
#
#
#
# Elastic Compliance Matrix: (Units=1/GPa)
#
#
# Indices 1 2 3 4 5 6 
#
# 1 0.031853 0.001463 -0.003136 -0.005225 0.012373 -0.016109
# 2 0.001463 0.012570 0.000366 -0.002216 0.001538 -0.003910
# 3 -0.003136 0.000366 0.009164 -0.002259 -0.000136 -0.001739
# 4 -0.005225 -0.002216 -0.002259 0.031696 -0.010565 0.006404
# 5 0.012373 0.001538 -0.000136 -0.010565 0.034012 -0.007371
# 6 -0.016109 -0.003910 -0.001739 0.006404 -0.007371 0.037927
#
#
# Mechanical properties :
#
#
# Convention : Reuss Voigt Hill
#
# Bulk Modulus (GPa) = 19.61751 32.64997 26.13374
# Shear Modulus (GPa) = 28.27629 37.35900 32.81764
#
# Velocity S-wave (km/s) = 3.37732 3.88203 3.63844
# Velocity P-wave (km/s) = 4.80852 5.76751 5.30971
#
# Compressibility (1/GPa) = 0.05097488
#
# Stress axis : x y z
#
# Youngs Moduli (GPa) = 31.39416 79.55270 109.12202
#
# Poissons Ratio (x) = -0.11642 0.34220
# Poissons Ratio (y) = -0.04594 -0.03997
# Poissons Ratio (z) = 0.09845 -0.02914
#
# Static dielectric constant tensor:
#      x y z
#    x 1.952600 -0.005420 -0.001470 
#    y -0.005420 2.015950 -0.012230 
#    z -0.001470 -0.012230 2.077420 
# 
# From -- ./inp_files/562736.got.cif
#   From: 2010.05.17/outbox.cif.g08.bks.cpg/sg2_282_cif.got.tgz:562736.got - 2010.06.03 11:33:40.
