data_PCOD9030624
_publ_section_title
;
Structure prediction by ZEFSAII (Michael W. Deem and Ramdas Pophale) SiO2 
 PCOD9030624
Probable space group: P -1
;
_chemical_formula_sum "Si O2"
_cell_formula_units_Z 14
_cell_length_a 5.604803
_cell_length_b 19.528416
_cell_length_c 5.559691
_cell_angle_alpha 114.062181
_cell_angle_beta 101.991860
_cell_angle_gamma 72.562910
_cell_volume 527.546919
_symmetry_space_group_name_H-M "P -1"
_symmetry_group_IT_number 2
_symmetry_cell_setting 'triclinic'
loop_
_space_group_symop_operation_xyz
x,y,z
-x,-y,-z
loop_
_atom_site_type_symbol
_atom_site_label
_atom_site_fract_x
_atom_site_fract_y
_atom_site_fract_z
Si Si1 0.576202 0.914280 0.786110
Si Si2 0.674315 0.662443 0.656520
Si Si3 0.273917 0.483643 0.775073
Si Si4 0.780391 0.246304 0.583730
Si Si5 0.980350 0.786409 0.911763
Si Si6 0.017698 0.950864 0.679525
Si Si7 0.085815 0.372747 0.931495
O O1 0.726918 0.853813 0.925430
O O2 0.769416 0.916760 0.610268
O O3 0.305585 0.898960 0.649325
O O4 0.500000 0.000000 0.000000
O O5 0.628426 0.575503 0.502179
O O6 0.502253 0.712174 0.488623
O O7 0.910333 0.703573 0.762525
O O8 0.649763 0.670253 0.953259
O O9 0.075107 0.564781 0.821536
O O10 0.500000 0.500000 0.000000
O O11 0.132670 0.426810 0.804642
O O12 0.874302 0.205767 0.290553
O O13 0.868360 0.207637 0.805157
O O14 0.924411 0.315781 0.731309
O O15 0.000000 0.000000 0.500000
O O16 0.000000 0.000000 0.000000
#
# Coordination Sequence:
#
# PCOD9030624 Si02
#       7
#     2   2   2   2   2   2   2
#     4  10  24  48  74 112 146 191 244 306 367 439
#     4  11  24  42  66  93 139 182 231 287 359 418
#     4  11  21  39  63  95 129 179 227 293 346 414
#     4  11  25  45  68  98 139 184 235 287 357 429
#     4  11  27  45  70 101 140 184 236 289 357 432
#     4  10  22  42  72 105 144 182 228 293 360 430
#     4  10  23  40  62  96 131 173 238 286 348 420
#
# _framework density 26.537918999999999
#
# number of rings (size 3 to 8) (size 9 to 14) (size 15 to 20)
#    0.000    1.429    2.857    0.857    4.000    5.143 
#    0.000    0.000    0.000    0.000    0.000    0.000 
#    0.000    0.000    0.000    0.000    0.000    0.000 
#
# Total GULP energy -78029.243884 kJ/mol
# GULP energy per Si atom -5573.517420 kJ/mol
# Density = 2.647752 g / cm^3
# Si number density = 26.537919 Si / 1000 Ang^3
#
#
#
# Elastic Constant Matrix: (Units=GPa)
#
#
# Indices 1 2 3 4 5 6 
#
# 1 119.7559 27.7172 59.7461 -8.8010 16.1768 7.4050
# 2 27.7172 121.6054 41.9232 -27.5872 -0.4364 -3.6271
# 3 59.7461 41.9232 173.3924 -32.0970 24.8411 -6.7465
# 4 -8.8010 -27.5872 -32.0970 51.2984 -0.3211 7.6115
# 5 16.1768 -0.4364 24.8411 -0.3211 44.1702 1.1564
# 6 7.4050 -3.6271 -6.7465 7.6115 1.1564 45.3195
#
#
#
# Elastic Compliance Matrix: (Units=1/GPa)
#
#
# Indices 1 2 3 4 5 6 
#
# 1 0.010680 -0.001556 -0.003225 -0.000712 -0.002061 -0.002178
# 2 -0.001556 0.010006 -0.001286 0.004303 0.001421 0.000105
# 3 -0.003225 -0.001286 0.008463 0.003860 -0.003592 0.001127
# 4 -0.000712 0.004303 0.003860 0.024543 -0.001609 -0.003045
# 5 -0.002061 0.001421 -0.003592 -0.001609 0.025429 -0.000463
# 6 -0.002178 0.000105 0.001127 -0.003045 -0.000463 0.023121
#
#
# Mechanical properties :
#
#
# Convention : Reuss Voigt Hill
#
# Bulk Modulus (GPa) = 58.77613 74.83629 66.80621
# Shear Modulus (GPa) = 41.65023 47.18210 44.41617
#
# Velocity S-wave (km/s) = 3.96594 4.22110 4.09551
# Velocity P-wave (km/s) = 6.57021 7.21235 6.89875
#
# Compressibility (1/GPa) = 0.01701371
#
# Stress axis : x y z
#
# Youngs Moduli (GPa) = 93.63047 99.94327 118.16764
#
# Poissons Ratio (x) = 0.15556 0.38110
# Poissons Ratio (y) = 0.14573 0.15195
# Poissons Ratio (z) = 0.30197 0.12851
#
# Static dielectric constant tensor:
#      x y z
#    x 2.353950 -0.136360 -0.040470 
#    y -0.136360 2.569620 0.107860 
#    z -0.040470 0.107860 2.223660 
# 
# From -- ./inp_files/11573.got.cif
#   From: 2010.05.17/outbox.cif.g08.bks.cpg/sg2_6_cif.got.tgz:11573.got - 2010.06.03 11:33:40.
