data_PCOD9030565
_publ_section_title
;
Structure prediction by ZEFSAII (Michael W. Deem and Ramdas Pophale) SiO2 
 PCOD9030565
Probable space group: P -1
;
_chemical_formula_sum "Si O2"
_cell_formula_units_Z 16
_cell_length_a 5.455383
_cell_length_b 15.945459
_cell_length_c 9.674084
_cell_angle_alpha 119.789816
_cell_angle_beta 72.591315
_cell_angle_gamma 119.096490
_cell_volume 636.320175
_symmetry_space_group_name_H-M "P -1"
_symmetry_group_IT_number 2
_symmetry_cell_setting 'triclinic'
loop_
_space_group_symop_operation_xyz
x,y,z
-x,-y,-z
loop_
_atom_site_type_symbol
_atom_site_label
_atom_site_fract_x
_atom_site_fract_y
_atom_site_fract_z
Si Si1 0.354471 0.422461 0.836754
Si Si2 0.351568 0.735849 0.757927
Si Si3 0.581400 0.788539 0.292427
Si Si4 0.603579 0.071196 0.403907
Si Si5 0.199352 0.704684 0.043564
Si Si6 0.111585 0.921899 0.179715
Si Si7 0.662919 0.455664 0.539748
Si Si8 0.016323 0.134767 0.156756
O O1 0.365919 0.308112 0.737984
O O2 0.542643 0.478063 0.720854
O O3 0.022128 0.382436 0.890279
O O4 0.500000 0.500000 0.000000
O O5 0.429061 0.668302 0.577086
O O6 0.133008 0.782154 0.775102
O O7 0.648869 0.818089 0.838128
O O8 0.214296 0.661776 0.854442
O O9 0.374682 0.817251 0.448094
O O10 0.478817 0.750840 0.123678
O O11 0.853265 0.895876 0.307329
O O12 0.881662 0.082932 0.284186
O O13 0.500000 0.000000 0.500000
O O14 0.372380 0.018706 0.279726
O O15 0.149651 0.810840 0.104151
O O16 0.065716 0.928156 0.027722
O O17 0.500000 0.500000 0.500000
O O18 0.000000 0.500000 0.500000
#
# Coordination Sequence:
#
# PCOD9030565 Si02
#       8
#     2   2   2   2   2   2   2   2
#     4  11  27  45  73 104 139 185 240 293 358 427
#     4  11  24  47  72 101 143 187 240 296 359 427
#     4  11  23  42  71  97 139 181 234 290 363 410
#     4  12  25  42  69 104 144 185 241 295 356 424
#     4  10  22  42  71  99 137 180 234 289 351 421
#     4  10  22  45  65 105 135 189 234 293 349 430
#     4  12  28  46  71 106 144 186 238 298 362 427
#     4  11  25  44  73 101 141 194 237 290 356 429
#
# _framework density 25.144576000000001
#
# number of rings (size 3 to 8) (size 9 to 14) (size 15 to 20)
#    0.000    1.000    2.500    3.000    5.250    2.500 
#    0.000    2.500    0.000    0.000    0.000    0.000 
#    0.000    0.000    0.000    0.000    0.000    0.000 
#
# Total GULP energy -89363.962401 kJ/mol
# GULP energy per Si atom -5585.247650 kJ/mol
# Density = 2.508735 g / cm^3
# Si number density = 25.144576 Si / 1000 Ang^3
#
#
#
# Elastic Constant Matrix: (Units=GPa)
#
#
# Indices 1 2 3 4 5 6 
#
# 1 87.4147 26.3047 5.8685 -16.5067 -5.2281 3.5076
# 2 26.3047 61.1163 25.4171 -22.7603 0.5556 8.0257
# 3 5.8685 25.4171 152.9858 -28.5454 -6.9582 -6.5525
# 4 -16.5067 -22.7603 -28.5454 55.3858 0.4341 -6.2755
# 5 -5.2281 0.5556 -6.9582 0.4341 40.7757 7.8888
# 6 3.5076 8.0257 -6.5525 -6.2755 7.8888 34.7413
#
#
#
# Elastic Compliance Matrix: (Units=1/GPa)
#
#
# Indices 1 2 3 4 5 6 
#
# 1 0.013540 -0.005369 0.000885 0.002271 0.001934 0.000011
# 2 -0.005369 0.022465 -0.002640 0.005832 -0.000748 -0.003922
# 3 0.000885 -0.002640 0.007726 0.003422 0.000972 0.002375
# 4 0.002271 0.005832 0.003422 0.023266 -0.000089 0.003292
# 5 0.001934 -0.000748 0.000972 -0.000089 0.026066 -0.005774
# 6 0.000011 -0.003922 0.002375 0.003292 -0.005774 0.032043
#
#
# Mechanical properties :
#
#
# Convention : Reuss Voigt Hill
#
# Bulk Modulus (GPa) = 33.91882 46.29972 40.10927
# Shear Modulus (GPa) = 33.51615 42.44233 37.97924
#
# Velocity S-wave (km/s) = 3.65490 4.11290 3.89065
# Velocity P-wave (km/s) = 5.59731 6.40375 6.01406
#
# Compressibility (1/GPa) = 0.02948215
#
# Stress axis : x y z
#
# Youngs Moduli (GPa) = 73.85517 44.51386 129.43832
#
# Poissons Ratio (x) = 0.23899 -0.11453
# Poissons Ratio (y) = 0.39652 0.34173
# Poissons Ratio (z) = -0.06535 0.11752
#
# Static dielectric constant tensor:
#      x y z
#    x 2.112560 0.043250 -0.012950 
#    y 0.043250 2.147310 -0.061140 
#    z -0.012950 -0.061140 2.042320 
# 
# From -- ./inp_files/47803.got.cif
#   From: 2010.05.17/outbox.cif.g08.bks.cpg/sg2_24_cif.got.tgz:47803.got - 2010.06.03 11:33:40.
