data_PCOD9030960
_publ_section_title
;
Structure prediction by ZEFSAII (Michael W. Deem and Ramdas Pophale) SiO2 
 PCOD9030960
Probable space group: P -1
;
_chemical_formula_sum "Si O2"
_cell_formula_units_Z 16
_cell_length_a 17.097700
_cell_length_b 12.308256
_cell_length_c 7.464310
_cell_angle_alpha 103.372769
_cell_angle_beta 100.416876
_cell_angle_gamma 31.977956
_cell_volume 808.973736
_symmetry_space_group_name_H-M "P -1"
_symmetry_group_IT_number 2
_symmetry_cell_setting 'triclinic'
loop_
_space_group_symop_operation_xyz
x,y,z
-x,-y,-z
loop_
_atom_site_type_symbol
_atom_site_label
_atom_site_fract_x
_atom_site_fract_y
_atom_site_fract_z
Si Si1 0.072542 0.179248 0.275226
Si Si2 0.430421 0.467173 0.405626
Si Si3 0.872245 0.367886 0.935167
Si Si4 0.474023 0.223330 0.092611
Si Si5 0.442028 0.223877 0.476189
Si Si6 0.132236 0.495826 0.387188
Si Si7 0.690832 0.929277 0.751095
Si Si8 0.094638 0.901544 0.321070
O O1 0.003705 0.329495 0.469602
O O2 0.231344 0.044440 0.245101
O O3 0.075603 0.046226 0.284974
O O4 0.965410 0.313174 0.110277
O O5 0.500000 0.500000 0.500000
O O6 0.502066 0.316835 0.209688
O O7 0.562662 0.635296 0.476826
O O8 0.737378 0.313347 0.630547
O O9 0.694410 0.580809 0.975601
O O10 0.892914 0.405190 0.767417
O O11 0.928967 0.173953 0.852985
O O12 0.475005 0.154157 0.254644
O O13 0.597125 0.041659 0.936660
O O14 0.277083 0.376718 0.499680
O O15 0.571949 0.037259 0.590497
O O16 0.179428 0.315265 0.287903
O O17 0.000000 0.000000 0.500000
#
# Coordination Sequence:
#
# PCOD9030960 Si02
#       8
#     2   2   2   2   2   2   2   2
#     4  12  25  38  61  95 125 158 206 249 308 362
#     4   9  18  37  61  89 121 150 194 257 308 347
#     4  10  22  43  63  89 121 161 210 246 299 366
#     4   8  21  39  60  87 121 158 205 245 300 360
#     4   9  20  40  63  87 119 157 212 243 301 360
#     4  11  23  43  62  86 125 169 206 248 293 362
#     4  12  24  38  62  94 125 160 203 254 305 355
#     4  11  20  40  66  87 120 161 201 250 302 368
#
# _framework density 19.778144999999999
#
# number of rings (size 3 to 8) (size 9 to 14) (size 15 to 20)
#    0.750    1.000    2.500    2.625    0.000    5.500 
#    0.000    6.875    0.000    0.000    0.000    0.000 
#    0.000    0.000    0.000    0.000    0.000    0.000 
#
# Total GULP energy -89262.871815 kJ/mol
# GULP energy per Si atom -5578.929488 kJ/mol
# Density = 1.973313 g / cm^3
# Si number density = 19.778145 Si / 1000 Ang^3
#
#
#
# Elastic Constant Matrix: (Units=GPa)
#
#
# Indices 1 2 3 4 5 6 
#
# 1 47.2709 -12.4705 8.8902 2.1665 4.3858 -4.7118
# 2 -12.4705 52.6257 24.2286 4.8174 -7.2767 7.2660
# 3 8.8902 24.2286 56.4851 14.1747 -5.3614 -5.9799
# 4 2.1665 4.8174 14.1747 21.9330 -1.9381 -4.7887
# 5 4.3858 -7.2767 -5.3614 -1.9381 21.6953 11.1009
# 6 -4.7118 7.2660 -5.9799 -4.7887 11.1009 22.5926
#
#
#
# Elastic Compliance Matrix: (Units=1/GPa)
#
#
# Indices 1 2 3 4 5 6 
#
# 1 0.025800 0.008327 -0.008110 0.001158 -0.006323 0.003908
# 2 0.008327 0.033964 -0.016352 -0.001031 0.016834 -0.022005
# 3 -0.008110 -0.016352 0.030088 -0.013088 -0.002751 0.010109
# 4 0.001158 -0.001031 -0.013088 0.056221 -0.004555 0.011264
# 5 -0.006323 0.016834 -0.002751 -0.004555 0.075131 -0.045342
# 6 0.003908 -0.022005 0.010109 0.011264 -0.045342 0.079496
#
#
# Mechanical properties :
#
#
# Convention : Reuss Voigt Hill
#
# Bulk Modulus (GPa) = 17.36623 21.96427 19.66525
# Shear Modulus (GPa) = 14.19802 22.29308 18.24555
#
# Velocity S-wave (km/s) = 2.68221 3.36096 3.04058
# Velocity P-wave (km/s) = 4.28858 5.11770 4.72137
#
# Compressibility (1/GPa) = 0.05758301
#
# Stress axis : x y z
#
# Youngs Moduli (GPa) = 38.75999 29.44292 33.23628
#
# Poissons Ratio (x) = -0.24518 0.26953
# Poissons Ratio (y) = -0.32277 0.54348
# Poissons Ratio (z) = 0.31433 0.48145
#
# Static dielectric constant tensor:
#      x y z
#    x 1.651470 0.051580 0.009240 
#    y 0.051580 1.699010 0.025530 
#    z 0.009240 0.025530 1.704020 
# 
# From -- ./inp_files/332396.got.cif
#   From: 2010.05.17/outbox.cif.g08.bks.cpg/sg2_167_cif.got.tgz:332396.got - 2010.06.03 11:33:40.
