data_PCOD9030218
_publ_section_title
;
Structure prediction by ZEFSAII (Michael W. Deem and Ramdas Pophale) SiO2 
 PCOD9030218
Probable space group: P -1
;
_chemical_formula_sum "Si O2"
_cell_formula_units_Z 15
_cell_length_a 11.722378
_cell_length_b 10.949439
_cell_length_c 10.475711
_cell_angle_alpha 110.234712
_cell_angle_beta 82.596938
_cell_angle_gamma 40.332584
_cell_volume 623.070039
_symmetry_space_group_name_H-M "P -1"
_symmetry_group_IT_number 2
_symmetry_cell_setting 'triclinic'
loop_
_space_group_symop_operation_xyz
x,y,z
-x,-y,-z
loop_
_atom_site_type_symbol
_atom_site_label
_atom_site_fract_x
_atom_site_fract_y
_atom_site_fract_z
Si Si1 0.115987 0.211417 0.987117
Si Si2 0.436033 0.147221 0.903642
Si Si3 0.611579 0.338702 0.797482
Si Si4 0.569205 0.645125 0.798601
Si Si5 0.609004 0.688430 0.300985
Si Si6 0.871279 0.556116 0.651173
Si Si7 0.156967 0.117436 0.656338
Si Si8 0.000000 0.000000 0.500000
O O1 0.241113 0.228192 0.966644
O O2 0.069761 0.221881 0.850092
O O3 0.301404 0.924374 0.907698
O O4 0.881263 0.443748 0.186054
O O5 0.467466 0.150350 0.751972
O O6 0.670012 0.856581 0.821612
O O7 0.392916 0.317255 0.057947
O O8 0.663866 0.406389 0.713073
O O9 0.441126 0.406532 0.780831
O O10 0.500000 0.500000 0.000000
O O11 0.877238 0.039760 0.659440
O O12 0.715505 0.581906 0.652599
O O13 0.431824 0.875283 0.510888
O O14 0.000000 0.500000 0.500000
O O15 0.040898 0.334716 0.654485
O O16 0.094829 0.032815 0.589371
#
# Coordination Sequence:
#
# PCOD9030218 Si02
#       8
#     2   2   2   2   2   2   2   1
#     4  11  25  44  64  98 148 174 215 286 336 401
#     4  11  23  44  67  95 136 180 227 275 336 396
#     4  11  21  41  75  97 130 174 231 278 331 397
#     4  11  24  46  68 100 134 183 225 279 337 396
#     4  11  23  41  67 103 128 180 228 272 343 403
#     4  11  21  40  66  97 132 171 226 276 325 400
#     4  11  23  44  70 100 135 177 226 276 346 391
#     4  10  22  42  70 102 128 174 228 278 324 410
#
# _framework density 24.074341
#
# number of rings (size 3 to 8) (size 9 to 14) (size 15 to 20)
#    0.000    1.067    4.000    3.600    0.000    2.133 
#    9.600    2.667    0.000    0.000    0.000    0.000 
#    0.000    0.000    0.000    0.000    0.000    0.000 
#
# Total GULP energy -83638.667989 kJ/mol
# GULP energy per Si atom -5575.911199 kJ/mol
# Density = 2.401955 g / cm^3
# Si number density = 24.074341 Si / 1000 Ang^3
#
#
#
# Elastic Constant Matrix: (Units=GPa)
#
#
# Indices 1 2 3 4 5 6 
#
# 1 115.7024 13.5852 26.4639 3.1819 -3.4275 7.1390
# 2 13.5852 74.6949 1.2340 15.3440 -4.0199 -7.7408
# 3 26.4639 1.2340 116.9713 13.3117 -22.0536 -12.9054
# 4 3.1819 15.3440 13.3117 29.9365 -1.3660 -4.0316
# 5 -3.4275 -4.0199 -22.0536 -1.3660 50.6550 5.2300
# 6 7.1390 -7.7408 -12.9054 -4.0316 5.2300 30.9831
#
#
#
# Elastic Compliance Matrix: (Units=1/GPa)
#
#
# Indices 1 2 3 4 5 6 
#
# 1 0.009747 -0.002313 -0.002756 0.000848 -0.000308 -0.003809
# 2 -0.002313 0.015954 0.001988 -0.008208 0.001335 0.004053
# 3 -0.002756 0.001988 0.010968 -0.004825 0.004165 0.004369
# 4 0.000848 -0.008208 -0.004825 0.039750 -0.001748 0.001212
# 5 -0.000308 0.001335 0.004165 -0.001748 0.021775 -0.001764
# 6 -0.003809 0.004053 0.004369 0.001212 -0.001764 0.036441
#
#
# Mechanical properties :
#
#
# Convention : Reuss Voigt Hill
#
# Bulk Modulus (GPa) = 32.77783 43.32609 38.05196
# Shear Modulus (GPa) = 33.12019 40.05394 36.58707
#
# Velocity S-wave (km/s) = 3.71313 4.08335 3.90263
# Velocity P-wave (km/s) = 5.65932 6.34567 6.01230
#
# Compressibility (1/GPa) = 0.03050843
#
# Stress axis : x y z
#
# Youngs Moduli (GPa) = 102.59252 62.68140 91.17447
#
# Poissons Ratio (x) = 0.14496 0.25124
# Poissons Ratio (y) = 0.23727 -0.18126
# Poissons Ratio (z) = 0.28270 -0.12461
#
# Static dielectric constant tensor:
#      x y z
#    x 1.947670 0.011720 -0.006540 
#    y 0.011720 1.793200 -0.219030 
#    z -0.006540 -0.219030 1.602390 
# 
# From -- ./inp_files/426335.got.cif
#   From: 2010.05.17/outbox.cif.g08.bks.cpg/sg2_214_cif.got.tgz:426335.got - 2010.06.03 11:33:40.
