data_PCOD9030408
_publ_section_title
;
Structure prediction by ZEFSAII (Michael W. Deem and Ramdas Pophale) SiO2 
 PCOD9030408
Probable space group: P -1
;
_chemical_formula_sum "Si O2"
_cell_formula_units_Z 13
_cell_length_a 12.477181
_cell_length_b 10.260521
_cell_length_c 11.925917
_cell_angle_alpha 39.531655
_cell_angle_beta 140.556788
_cell_angle_gamma 118.926086
_cell_volume 593.274452
_symmetry_space_group_name_H-M "P -1"
_symmetry_group_IT_number 2
_symmetry_cell_setting 'triclinic'
loop_
_space_group_symop_operation_xyz
x,y,z
-x,-y,-z
loop_
_atom_site_type_symbol
_atom_site_label
_atom_site_fract_x
_atom_site_fract_y
_atom_site_fract_z
Si Si1 0.675386 0.718540 0.491089
Si Si2 0.500000 0.500000 0.000000
Si Si3 0.258602 0.772171 0.144603
Si Si4 0.109367 0.472246 0.720373
Si Si5 0.638120 0.035241 0.434751
Si Si6 0.749276 0.997679 0.789787
Si Si7 0.095524 0.106285 0.599863
O O1 0.465099 0.756211 0.300416
O O2 0.759582 0.465130 0.726570
O O3 0.727015 0.831721 0.567840
O O4 0.738435 0.834330 0.361398
O O5 0.307654 0.464584 0.857290
O O6 0.409278 0.744293 0.815721
O O7 0.212754 0.854493 0.179772
O O8 0.150709 0.943193 0.855782
O O9 0.000000 0.500000 0.500000
O O10 0.026265 0.668976 0.603621
O O11 0.127451 0.240642 0.941527
O O12 0.742050 0.069369 0.607545
O O13 0.451817 0.004223 0.345200
O O14 0.000000 0.000000 0.500000
#
# Coordination Sequence:
#
# PCOD9030408 Si02
#       7
#     2   1   2   2   2   2   2
#     4  10  23  44  68  99 133 182 223 283 342 417
#     4  10  22  42  70  98 134 174 226 288 344 414
#     4  10  22  45  69  97 136 177 231 280 344 406
#     4  11  23  44  67  98 136 177 231 287 343 411
#     4   9  19  39  67  96 126 173 223 276 341 403
#     4   9  19  40  65  93 130 170 224 282 335 403
#     4  12  26  43  65 101 139 181 227 284 347 415
#
# _framework density 21.912285000000001
#
# number of rings (size 3 to 8) (size 9 to 14) (size 15 to 20)
#    0.000    1.846    1.538    1.385    2.154    1.846 
#   16.615    1.538    0.000    0.000    0.000    0.000 
#    0.000    0.000    0.000    0.000    0.000    0.000 
#
# Total GULP energy -72371.824098 kJ/mol
# GULP energy per Si atom -5567.063392 kJ/mol
# Density = 2.186241 g / cm^3
# Si number density = 21.912285 Si / 1000 Ang^3
#
#
#
# Elastic Constant Matrix: (Units=GPa)
#
#
# Indices 1 2 3 4 5 6 
#
# 1 57.1283 66.8497 45.0283 9.5204 2.7154 -7.0886
# 2 66.8497 147.8958 52.9473 -37.9452 11.7018 -34.7131
# 3 45.0283 52.9473 78.2783 -35.7905 13.4876 -27.6731
# 4 9.5204 -37.9452 -35.7905 41.2953 2.8284 13.7697
# 5 2.7154 11.7018 13.4876 2.8284 19.0654 2.1287
# 6 -7.0886 -34.7131 -27.6731 13.7697 2.1287 49.5634
#
#
#
# Elastic Compliance Matrix: (Units=1/GPa)
#
#
# Indices 1 2 3 4 5 6 
#
# 1 -0.011921 0.009190 0.020812 0.027630 -0.023848 0.009700
# 2 0.009190 0.003973 -0.015812 -0.012241 0.009449 -0.001737
# 3 0.020812 -0.015812 -0.000040 -0.018949 0.009947 -0.003283
# 4 0.027630 -0.012241 -0.018949 -0.006407 0.019526 -0.014260
# 5 -0.023848 0.009449 0.009947 0.019526 0.039933 0.001621
# 6 0.009700 -0.001737 -0.003283 -0.014260 0.001621 0.022406
#
#
# Mechanical properties :
#
#
# Convention : Reuss Voigt Hill
#
# Bulk Modulus (GPa) = 49.04007 68.10589 58.57298
# Shear Modulus (GPa) = 189.67902 29.88330 109.78116
#
# Velocity S-wave (km/s) = 9.31401 3.69693 7.08583
# Velocity P-wave (km/s) = 11.75145 7.02650 9.68164
#
# Compressibility (1/GPa) = 0.02039149
#
# Stress axis : x y z
#
# Youngs Moduli (GPa) = -83.88646 251.72325 -24833.39291
#
# Poissons Ratio (x) = -2.31330 516.84458
# Poissons Ratio (y) = 0.77090 -392.67392
# Poissons Ratio (z) = 1.74589 3.98033
#
# Static dielectric constant tensor:
#      x y z
#    x 1.847130 0.039650 -0.009130 
#    y 0.039650 1.801820 0.003830 
#    z -0.009130 0.003830 1.802480 
# 
# From -- ./inp_files/418797.got.cif
#   From: 2010.05.17/outbox.cif.g08.bks.cpg/sg2_210_cif.got.tgz:418797.got - 2010.06.03 11:33:40.
