data_PCOD9030139
_publ_section_title
;
Structure prediction by ZEFSAII (Michael W. Deem and Ramdas Pophale) SiO2 
 PCOD9030139
Probable space group: P -1
;
_chemical_formula_sum "Si O2"
_cell_formula_units_Z 16
_cell_length_a 8.655792
_cell_length_b 7.879675
_cell_length_c 15.639314
_cell_angle_alpha 93.818180
_cell_angle_beta 61.121300
_cell_angle_gamma 129.464454
_cell_volume 673.962406
_symmetry_space_group_name_H-M "P -1"
_symmetry_group_IT_number 2
_symmetry_cell_setting 'triclinic'
loop_
_space_group_symop_operation_xyz
x,y,z
-x,-y,-z
loop_
_atom_site_type_symbol
_atom_site_label
_atom_site_fract_x
_atom_site_fract_y
_atom_site_fract_z
Si Si1 0.468377 0.898763 0.778187
Si Si2 0.971435 0.080975 0.597643
Si Si3 0.232515 0.535347 0.453642
Si Si4 0.592191 0.387687 0.774961
Si Si5 0.787772 0.006535 0.332038
Si Si6 0.308171 0.960246 0.111246
Si Si7 0.078240 0.081839 0.884188
Si Si8 0.004625 0.560245 0.776203
O O1 0.199140 0.688947 0.806111
O O2 0.513224 0.133338 0.783520
O O3 0.521865 0.852056 0.854191
O O4 0.696245 0.972135 0.668138
O O5 0.157781 0.360944 0.544213
O O6 0.061048 0.020490 0.649002
O O7 0.000000 0.000000 0.500000
O O8 0.272297 0.482264 0.345920
O O9 0.499004 0.788328 0.410255
O O10 0.000000 0.500000 0.500000
O O11 0.349206 0.336852 0.834382
O O12 0.754955 0.503283 0.821104
O O13 0.868980 0.013168 0.212802
O O14 0.838687 0.242933 0.333551
O O15 0.143993 0.965232 0.096759
O O16 0.109228 0.703319 0.201497
O O17 0.500000 0.000000 0.000000
O O18 0.000000 0.000000 0.000000
#
# Coordination Sequence:
#
# PCOD9030139 Si02
#       8
#     2   2   2   2   2   2   2   2
#     4  11  22  45  67 101 142 182 229 297 345 412
#     4  12  25  42  66 103 141 187 243 285 349 417
#     4  11  21  41  69  94 141 186 231 293 350 403
#     4  10  22  42  69  98 141 181 236 285 353 410
#     4  11  24  44  67 102 140 185 237 292 345 418
#     4  11  26  46  73 104 139 181 232 291 363 421
#     4  11  22  46  74 100 139 180 228 293 360 421
#     4  11  23  43  72  97 141 180 230 285 352 417
#
# _framework density 23.740196000000001
#
# number of rings (size 3 to 8) (size 9 to 14) (size 15 to 20)
#    0.000    1.000    5.000    2.625    0.000    4.500 
#    0.000    3.750    0.000    0.000    0.000    0.000 
#    0.000    0.000    0.000    0.000    0.000    0.000 
#
# Total GULP energy -89081.601822 kJ/mol
# GULP energy per Si atom -5567.600114 kJ/mol
# Density = 2.368616 g / cm^3
# Si number density = 23.740196 Si / 1000 Ang^3
#
#
#
# Elastic Constant Matrix: (Units=GPa)
#
#
# Indices 1 2 3 4 5 6 
#
# 1 203.6178 39.4724 38.2358 2.0398 2.6294 54.2857
# 2 39.4724 78.0930 13.9643 -6.9591 -5.8723 31.7563
# 3 38.2358 13.9643 118.6724 11.1957 -10.7169 11.7847
# 4 2.0398 -6.9591 11.1957 13.2271 5.2124 -1.6410
# 5 2.6294 -5.8723 -10.7169 5.2124 55.4139 -7.4350
# 6 54.2857 31.7563 11.7847 -1.6410 -7.4350 48.5667
#
#
#
# Elastic Compliance Matrix: (Units=1/GPa)
#
#
# Indices 1 2 3 4 5 6 
#
# 1 0.007447 -0.000381 -0.001708 -0.000189 -0.001771 -0.007938
# 2 -0.000381 0.018774 -0.002067 0.010655 -0.000887 -0.011124
# 3 -0.001708 -0.002067 0.010420 -0.010722 0.002997 0.000829
# 4 -0.000189 0.010655 -0.010722 0.093986 -0.010115 -0.002527
# 5 -0.001771 -0.000887 0.002997 -0.010115 0.020182 0.004580
# 6 -0.007938 -0.011124 0.000829 -0.002527 0.004580 0.037151
#
#
# Mechanical properties :
#
#
# Convention : Reuss Voigt Hill
#
# Bulk Modulus (GPa) = 35.30049 64.85866 50.07958
# Shear Modulus (GPa) = 24.30552 44.02225 34.16388
#
# Velocity S-wave (km/s) = 3.20318 4.31087 3.79763
# Velocity P-wave (km/s) = 5.34624 7.22202 6.35373
#
# Compressibility (1/GPa) = 0.02832822
#
# Stress axis : x y z
#
# Youngs Moduli (GPa) = 134.28581 53.26581 95.96858
#
# Poissons Ratio (x) = 0.02028 0.16395
# Poissons Ratio (y) = 0.05113 0.19838
# Poissons Ratio (z) = 0.22941 0.11011
#
# Static dielectric constant tensor:
#      x y z
#    x 1.940010 -0.063700 0.019310 
#    y -0.063700 2.072220 -0.003330 
#    z 0.019310 -0.003330 1.924780 
# 
# From -- ./inp_files/557247.got.cif
#   From: 2010.05.17/outbox.cif.g08.bks.cpg/sg2_279_cif.got.tgz:557247.got - 2010.06.03 11:33:40.
