data_PCOD9030398
_publ_section_title
;
Structure prediction by ZEFSAII (Michael W. Deem and Ramdas Pophale) SiO2 
 PCOD9030398
Probable space group: P -1
;
_chemical_formula_sum "Si O2"
_cell_formula_units_Z 14
_cell_length_a 9.517273
_cell_length_b 9.158195
_cell_length_c 11.273027
_cell_angle_alpha 118.712427
_cell_angle_beta 121.754279
_cell_angle_gamma 47.759956
_cell_volume 605.899843
_symmetry_space_group_name_H-M "P -1"
_symmetry_group_IT_number 2
_symmetry_cell_setting 'triclinic'
loop_
_space_group_symop_operation_xyz
x,y,z
-x,-y,-z
loop_
_atom_site_type_symbol
_atom_site_label
_atom_site_fract_x
_atom_site_fract_y
_atom_site_fract_z
Si Si1 0.817003 0.982859 0.398846
Si Si2 0.791242 0.673714 0.421146
Si Si3 0.364742 0.476353 0.251357
Si Si4 0.302335 0.904704 0.875198
Si Si5 0.008534 0.681716 0.020104
Si Si6 0.717765 0.414768 0.120453
Si Si7 0.583567 0.653739 0.527739
O O1 0.834770 0.806085 0.411667
O O2 0.777702 0.987342 0.244472
O O3 0.627073 0.178118 0.447263
O O4 0.000000 0.000000 0.500000
O O5 0.699202 0.585405 0.261544
O O6 0.656886 0.754180 0.510965
O O7 0.000000 0.500000 0.500000
O O8 0.470902 0.281437 0.133963
O O9 0.179140 0.665878 0.176221
O O10 0.538428 0.509893 0.378343
O O11 0.291389 0.446925 0.335016
O O12 0.222065 0.780615 0.851200
O O13 0.207007 0.104488 0.992555
O O14 0.114233 0.637458 0.922507
O O15 0.000000 0.500000 0.000000
O O16 0.500000 0.500000 0.000000
#
# Coordination Sequence:
#
# PCOD9030398 Si02
#       7
#     2   2   2   2   2   2   2
#     4  11  24  42  70 106 144 187 240 296 373 435
#     4  12  26  43  72 109 145 185 246 303 356 440
#     4  10  22  43  70 101 139 186 231 300 358 430
#     4  11  23  45  69  99 135 192 238 289 363 424
#     4  12  26  43  70 102 141 182 243 295 365 427
#     4  12  25  49  72 102 147 193 243 303 360 433
#     4  10  22  42  70  97 143 183 234 292 364 422
#
# _framework density 23.10613
#
# number of rings (size 3 to 8) (size 9 to 14) (size 15 to 20)
#    0.000    0.857    2.857    3.429    8.000    0.571 
#    5.143    2.857    0.000    0.000    0.000    0.000 
#    0.000    0.000    0.000    0.000    0.000    0.000 
#
# Total GULP energy -78161.169539 kJ/mol
# GULP energy per Si atom -5582.940681 kJ/mol
# Density = 2.305354 g / cm^3
# Si number density = 23.106130 Si / 1000 Ang^3
#
#
#
# Elastic Constant Matrix: (Units=GPa)
#
#
# Indices 1 2 3 4 5 6 
#
# 1 170.2052 27.9222 23.3263 4.6042 -39.3875 36.6273
# 2 27.9222 77.0505 -10.9326 2.1186 -15.2155 26.2694
# 3 23.3263 -10.9326 33.6968 -6.8057 -17.8206 2.3401
# 4 4.6042 2.1186 -6.8057 31.4367 -0.8242 -9.0350
# 5 -39.3875 -15.2155 -17.8206 -0.8242 40.1893 0.2600
# 6 36.6273 26.2694 2.3401 -9.0350 0.2600 65.1485
#
#
#
# Elastic Compliance Matrix: (Units=1/GPa)
#
#
# Indices 1 2 3 4 5 6 
#
# 1 0.009405 -0.000231 -0.002693 -0.003345 0.007904 -0.005594
# 2 -0.000231 0.021263 0.015410 -0.000292 0.014710 -0.009097
# 3 -0.002693 0.015410 0.053245 0.010062 0.027046 -0.005325
# 4 -0.003345 -0.000292 0.010062 0.036466 0.001777 0.006687
# 5 0.007904 0.014710 0.027046 0.001777 0.050300 -0.011301
# 6 -0.005594 -0.009097 -0.005325 0.006687 -0.011301 0.023326
#
#
# Mechanical properties :
#
#
# Convention : Reuss Voigt Hill
#
# Bulk Modulus (GPa) = 9.18377 40.17603 24.67990
# Shear Modulus (GPa) = 24.35131 43.39735 33.87433
#
# Velocity S-wave (km/s) = 3.24989 4.33849 3.83303
# Velocity P-wave (km/s) = 4.25036 6.52089 5.50398
#
# Compressibility (1/GPa) = 0.10888777
#
# Stress axis : x y z
#
# Youngs Moduli (GPa) = 106.32151 47.03015 18.78102
#
# Poissons Ratio (x) = 0.01084 0.05057
# Poissons Ratio (y) = 0.02452 -0.28942
# Poissons Ratio (z) = 0.28630 -0.72475
#
# Static dielectric constant tensor:
#      x y z
#    x 1.906270 -0.019590 -0.144980 
#    y -0.019590 1.889910 -0.045210 
#    z -0.144980 -0.045210 1.758050 
# 
# From -- ./inp_files/383347.got.cif
#   From: 2010.05.17/outbox.cif.g08.bks.cpg/sg2_192_cif.got.tgz:383347.got - 2010.06.03 11:33:40.
