data_PCOD9030355
_publ_section_title
;
Structure prediction by ZEFSAII (Michael W. Deem and Ramdas Pophale) SiO2 
 PCOD9030355
Probable space group: P -1
;
_chemical_formula_sum "Si O2"
_cell_formula_units_Z 16
_cell_length_a 8.710076
_cell_length_b 17.338892
_cell_length_c 20.773355
_cell_angle_alpha 26.723406
_cell_angle_beta 30.824141
_cell_angle_gamma 30.751406
_cell_volume 662.254310
_symmetry_space_group_name_H-M "P -1"
_symmetry_group_IT_number 2
_symmetry_cell_setting 'triclinic'
loop_
_space_group_symop_operation_xyz
x,y,z
-x,-y,-z
loop_
_atom_site_type_symbol
_atom_site_label
_atom_site_fract_x
_atom_site_fract_y
_atom_site_fract_z
Si Si1 0.293150 0.922175 0.540546
Si Si2 0.168477 0.695056 0.644727
Si Si3 0.335741 0.851200 0.722821
Si Si4 0.252362 0.379688 0.051771
Si Si5 0.872526 0.488626 0.757261
Si Si6 0.863834 0.862963 0.990574
Si Si7 0.808254 0.574239 0.447304
Si Si8 0.222673 0.011346 0.852928
O O1 0.328060 0.751525 0.608560
O O2 0.201620 0.890835 0.669184
O O3 0.610552 0.970674 0.400711
O O4 0.032948 0.107860 0.463322
O O5 0.456490 0.568036 0.589413
O O6 0.936013 0.602933 0.826310
O O7 0.698323 0.685969 0.708784
O O8 0.098174 0.796561 0.893673
O O9 0.421285 0.156486 0.145368
O O10 0.558447 0.436575 0.898820
O O11 0.000000 0.500000 0.000000
O O12 0.021580 0.507986 0.620453
O O13 0.112757 0.313536 0.842865
O O14 0.036004 0.974925 0.886226
O O15 0.500000 0.000000 0.000000
O O16 0.000000 0.500000 0.500000
O O17 0.752246 0.791873 0.302758
O O18 0.000000 0.000000 0.000000
#
# Coordination Sequence:
#
# PCOD9030355 Si02
#       8
#     2   2   2   2   2   2   2   2
#     4  10  22  42  70  95 131 184 225 289 348 413
#     4  11  23  40  70 103 134 171 245 287 343 409
#     4  11  23  44  70  95 138 183 230 279 354 420
#     4  11  22  40  70 107 136 177 232 295 358 412
#     4  11  25  45  67 102 146 184 228 291 351 422
#     4  11  25  43  69  99 135 184 235 281 351 410
#     4  12  24  43  70 105 144 182 229 295 358 410
#     4  11  23  45  73  99 142 180 233 299 349 413
#
# _framework density 24.159903
#
# number of rings (size 3 to 8) (size 9 to 14) (size 15 to 20)
#    0.000    1.000    2.500    6.375    1.750    3.000 
#    2.250    0.625    0.000    0.000    0.000    0.000 
#    0.000    0.000    0.000    0.000    0.000    0.000 
#
# Total GULP energy -89614.330884 kJ/mol
# GULP energy per Si atom -5600.895680 kJ/mol
# Density = 2.410491 g / cm^3
# Si number density = 24.159903 Si / 1000 Ang^3
#
#
#
# Elastic Constant Matrix: (Units=GPa)
#
#
# Indices 1 2 3 4 5 6 
#
# 1 120.2718 51.5540 38.9593 4.2515 26.2749 -7.1347
# 2 51.5540 121.0571 61.9445 20.5945 15.3446 -12.1709
# 3 38.9593 61.9445 113.1441 36.6122 36.1990 8.8404
# 4 4.2515 20.5945 36.6122 52.2202 14.5739 6.4901
# 5 26.2749 15.3446 36.1990 14.5739 51.8485 -5.7921
# 6 -7.1347 -12.1709 8.8404 6.4901 -5.7921 47.7714
#
#
#
# Elastic Compliance Matrix: (Units=1/GPa)
#
#
# Indices 1 2 3 4 5 6 
#
# 1 0.011344 -0.004210 -0.001014 0.002740 -0.004578 -0.000118
# 2 -0.004210 0.014165 -0.007474 -0.001826 0.004245 0.005126
# 3 -0.001014 -0.007474 0.018908 -0.006960 -0.009158 -0.005719
# 4 0.002740 -0.001826 -0.006960 0.025857 -0.003560 -0.002712
# 5 -0.004578 0.004245 -0.009158 -0.003560 0.028418 0.006022
# 6 -0.000118 0.005126 -0.005719 -0.002712 0.006022 0.024378
#
#
# Mechanical properties :
#
#
# Convention : Reuss Voigt Hill
#
# Bulk Modulus (GPa) = 52.56842 73.26541 62.91692
# Shear Modulus (GPa) = 32.29846 43.83569 38.06708
#
# Velocity S-wave (km/s) = 3.66028 4.26420 3.97373
# Velocity P-wave (km/s) = 6.29836 7.39159 6.86676
#
# Compressibility (1/GPa) = 0.01902283
#
# Stress axis : x y z
#
# Youngs Moduli (GPa) = 88.15437 70.59420 52.88733
#
# Poissons Ratio (x) = 0.29719 0.05362
# Poissons Ratio (y) = 0.37111 0.39526
# Poissons Ratio (z) = 0.08938 0.52759
#
# Static dielectric constant tensor:
#      x y z
#    x 1.923260 0.012400 -0.064310 
#    y 0.012400 1.953180 -0.017850 
#    z -0.064310 -0.017850 1.918910 
# 
# From -- ./inp_files/591211.got.cif
#   From: 2010.05.17/outbox.cif.g08.bks.cpg/sg2_296_cif.got.tgz:591211.got - 2010.06.03 11:33:40.
