data_PCOD9030956
_publ_section_title
;
Structure prediction by ZEFSAII (Michael W. Deem and Ramdas Pophale) SiO2 
 PCOD9030956
Probable space group: P -1
;
_chemical_formula_sum "Si O2"
_cell_formula_units_Z 14
_cell_length_a 12.190727
_cell_length_b 16.859527
_cell_length_c 5.177971
_cell_angle_alpha 73.915266
_cell_angle_beta 80.885139
_cell_angle_gamma 33.719120
_cell_volume 562.448801
_symmetry_space_group_name_H-M "P -1"
_symmetry_group_IT_number 2
_symmetry_cell_setting 'triclinic'
loop_
_space_group_symop_operation_xyz
x,y,z
-x,-y,-z
loop_
_atom_site_type_symbol
_atom_site_label
_atom_site_fract_x
_atom_site_fract_y
_atom_site_fract_z
Si Si1 0.917253 0.669308 0.906183
Si Si2 0.915512 0.143607 0.671035
Si Si3 0.181775 0.496549 0.454805
Si Si4 0.704728 0.130458 0.929916
Si Si5 0.367253 0.562100 0.242042
Si Si6 0.195851 0.072152 0.299551
Si Si7 0.426969 0.228937 0.295846
O O1 0.841692 0.809369 0.837913
O O2 0.736613 0.724050 0.829806
O O3 0.080182 0.564581 0.710091
O O4 0.013449 0.584887 0.218290
O O5 0.750233 0.174455 0.668325
O O6 0.820326 0.260376 0.820013
O O7 0.993336 0.155804 0.409499
O O8 0.117866 0.972612 0.833550
O O9 0.284421 0.520600 0.327022
O O10 0.338203 0.327048 0.494563
O O11 0.737048 0.022343 0.884579
O O12 0.503456 0.254129 0.053750
O O13 0.500000 0.500000 0.500000
O O14 0.500000 0.500000 0.000000
O O15 0.379423 0.944193 0.544409
#
# Coordination Sequence:
#
# PCOD9030956 Si02
#       7
#     2   2   2   2   2   2   2
#     4  12  27  48  75 103 147 194 239 296 357 425
#     4  10  22  43  63 104 134 189 229 291 364 420
#     4  12  27  49  73 105 148 189 239 295 365 422
#     4  10  23  41  71  96 144 179 240 293 355 424
#     4  12  26  42  72 101 141 180 232 286 352 426
#     4  11  24  43  73 100 144 184 242 296 358 424
#     4  11  27  44  71 108 137 192 247 295 350 422
#
# _framework density 24.891155999999999
#
# number of rings (size 3 to 8) (size 9 to 14) (size 15 to 20)
#    0.000    0.857    1.429    4.286   10.000    0.571 
#    0.000    0.000    0.000    0.000    0.000    0.000 
#    0.000    0.000    0.000    0.000    0.000    0.000 
#
# Total GULP energy -78470.869888 kJ/mol
# GULP energy per Si atom -5605.062135 kJ/mol
# Density = 2.483450 g / cm^3
# Si number density = 24.891156 Si / 1000 Ang^3
#
#
#
# Elastic Constant Matrix: (Units=GPa)
#
#
# Indices 1 2 3 4 5 6 
#
# 1 102.9083 25.2808 7.9123 7.2583 -14.6911 3.9095
# 2 25.2808 118.9348 32.7384 8.6202 -8.7714 7.6751
# 3 7.9123 32.7384 82.2271 13.4704 13.9163 -11.1580
# 4 7.2583 8.6202 13.4704 41.5727 0.7661 0.4171
# 5 -14.6911 -8.7714 13.9163 0.7661 31.2186 5.4708
# 6 3.9095 7.6751 -11.1580 0.4171 5.4708 46.2961
#
#
#
# Elastic Compliance Matrix: (Units=1/GPa)
#
#
# Indices 1 2 3 4 5 6 
#
# 1 0.011165 -0.001282 -0.001614 -0.001252 0.005962 -0.001813
# 2 -0.001282 0.010906 -0.005630 -0.000280 0.005630 -0.003720
# 3 -0.001614 -0.005630 0.018138 -0.004284 -0.011521 0.006841
# 4 -0.001252 -0.000280 -0.004284 0.025716 0.000823 -0.001209
# 5 0.005962 0.005630 -0.011521 0.000823 0.043169 -0.009322
# 6 -0.001813 -0.003720 0.006841 -0.001209 -0.009322 0.025131
#
#
# Mechanical properties :
#
#
# Convention : Reuss Voigt Hill
#
# Bulk Modulus (GPa) = 43.18322 48.43703 45.81013
# Shear Modulus (GPa) = 31.44752 39.69339 35.57045
#
# Velocity S-wave (km/s) = 3.55829 3.99767 3.78437
# Velocity P-wave (km/s) = 5.85392 6.38830 6.12694
#
# Compressibility (1/GPa) = 0.02315714
#
# Stress axis : x y z
#
# Youngs Moduli (GPa) = 89.56918 91.69508 55.13145
#
# Poissons Ratio (x) = 0.11751 0.08897
# Poissons Ratio (y) = 0.11478 0.31041
# Poissons Ratio (z) = 0.14455 0.51628
#
# Static dielectric constant tensor:
#      x y z
#    x 1.954380 -0.044800 -0.007560 
#    y -0.044800 1.977080 -0.059360 
#    z -0.007560 -0.059360 1.997340 
# 
# From -- ./inp_files/27898.got.cif
#   From: 2010.05.17/outbox.cif.g08.bks.cpg/sg2_14_cif.got.tgz:27898.got - 2010.06.03 11:33:40.
