data_PCOD9030639
_publ_section_title
;
Structure prediction by ZEFSAII (Michael W. Deem and Ramdas Pophale) SiO2 
 PCOD9030639
Probable space group: P -1
;
_chemical_formula_sum "Si O2"
_cell_formula_units_Z 12
_cell_length_a 5.180482
_cell_length_b 9.275402
_cell_length_c 12.228273
_cell_angle_alpha 109.178160
_cell_angle_beta 94.104882
_cell_angle_gamma 94.989679
_cell_volume 549.727511
_symmetry_space_group_name_H-M "P -1"
_symmetry_group_IT_number 2
_symmetry_cell_setting 'triclinic'
loop_
_space_group_symop_operation_xyz
x,y,z
-x,-y,-z
loop_
_atom_site_type_symbol
_atom_site_label
_atom_site_fract_x
_atom_site_fract_y
_atom_site_fract_z
Si Si1 0.278444 0.434519 0.302420
Si Si2 0.257936 0.071595 0.462148
Si Si3 0.037263 0.875156 0.716307
Si Si4 0.357634 0.672178 0.534821
Si Si5 0.253866 0.069678 0.958770
Si Si6 0.252654 0.437405 0.048506
O O1 0.194283 0.560774 0.416240
O O2 0.539423 0.400598 0.368427
O O3 0.291984 0.485987 0.189966
O O4 0.094568 0.272336 0.258068
O O5 0.381081 0.251122 0.501287
O O6 0.187125 0.039417 0.325113
O O7 0.500000 0.000000 0.500000
O O8 0.000000 0.000000 0.500000
O O9 0.189975 0.800295 0.605860
O O10 0.220674 0.995375 0.820008
O O11 0.252127 0.252316 0.002255
O O12 0.500000 0.000000 0.000000
O O13 0.000000 0.000000 0.000000
O O14 0.500000 0.500000 0.000000
O O15 0.000000 0.500000 0.000000
#
# Coordination Sequence:
#
# PCOD9030639 Si02
#       6
#     2   2   2   2   2   2
#     4  10  23  43  71 103 145 186 247 296 365 447
#     4  11  23  41  62  98 142 177 225 288 362 434
#     4  11  23  42  75 101 141 185 254 292 367 440
#     4  10  22  42  72 107 136 192 232 310 361 435
#     4  12  26  47  79 104 142 197 252 304 355 446
#     4  12  28  50  71 109 150 195 245 309 373 426
#
# _framework density 21.828997000000001
#
# number of rings (size 3 to 8) (size 9 to 14) (size 15 to 20)
#    0.000    1.000    3.333    2.500    4.667    2.667 
#    0.000    0.000    0.000    0.000    0.000    0.000 
#    0.000    0.000    0.000    0.000    0.000    0.000 
#
# Total GULP energy -66904.233324 kJ/mol
# GULP energy per Si atom -5575.352777 kJ/mol
# Density = 2.177931 g / cm^3
# Si number density = 21.828997 Si / 1000 Ang^3
#
#
#
# Elastic Constant Matrix: (Units=GPa)
#
#
# Indices 1 2 3 4 5 6 
#
# 1 150.2605 66.3612 47.4898 -17.8234 10.4693 -7.2718
# 2 66.3612 128.2925 62.5282 -15.0793 8.7157 -6.1694
# 3 47.4898 62.5282 174.9782 -2.6742 13.3730 -23.2861
# 4 -17.8234 -15.0793 -2.6742 45.0692 1.0050 -3.1772
# 5 10.4693 8.7157 13.3730 1.0050 34.6772 -9.2939
# 6 -7.2718 -6.1694 -23.2861 -3.1772 -9.2939 45.3469
#
#
#
# Elastic Compliance Matrix: (Units=1/GPa)
#
#
# Indices 1 2 3 4 5 6 
#
# 1 0.009022 -0.003857 -0.000884 0.002280 -0.001387 0.000344
# 2 -0.003857 0.011563 -0.003077 0.002134 -0.000788 -0.000638
# 3 -0.000884 -0.003077 0.007528 -0.000695 -0.001026 0.003046
# 4 0.002280 0.002134 -0.000695 0.023911 -0.001186 0.001731
# 5 -0.001387 -0.000788 -0.001026 -0.001186 0.031355 0.005487
# 6 0.000344 -0.000638 0.003046 0.001731 0.005487 0.024831
#
#
# Mechanical properties :
#
#
# Convention : Reuss Voigt Hill
#
# Bulk Modulus (GPa) = 80.15035 89.58771 84.86903
# Shear Modulus (GPa) = 39.06138 43.49549 41.27843
#
# Velocity S-wave (km/s) = 4.23475 4.46865 4.35327
# Velocity P-wave (km/s) = 7.79153 8.23133 8.01445
#
# Compressibility (1/GPa) = 0.01247655
#
# Stress axis : x y z
#
# Youngs Moduli (GPa) = 110.84557 86.48022 132.84322
#
# Poissons Ratio (x) = 0.33357 0.11737
# Poissons Ratio (y) = 0.42755 0.40880
# Poissons Ratio (z) = 0.09794 0.26613
#
# Static dielectric constant tensor:
#      x y z
#    x 1.889690 -0.031990 0.004720 
#    y -0.031990 1.931450 -0.000200 
#    z 0.004720 -0.000200 1.833780 
# 
# From -- ./inp_files/130633.got.cif
#   From: 2010.05.17/outbox.cif.g08.bks.cpg/sg2_66_cif.got.tgz:130633.got - 2010.06.03 11:33:40.
