data_PCOD9030447
_publ_section_title
;
Structure prediction by ZEFSAII (Michael W. Deem and Ramdas Pophale) SiO2 
 PCOD9030447
Probable space group: P -1
;
_chemical_formula_sum "Si O2"
_cell_formula_units_Z 12
_cell_length_a 7.890898
_cell_length_b 14.091524
_cell_length_c 10.172727
_cell_angle_alpha 91.329091
_cell_angle_beta 82.065928
_cell_angle_gamma 28.559536
_cell_volume 510.070326
_symmetry_space_group_name_H-M "P -1"
_symmetry_group_IT_number 2
_symmetry_cell_setting 'triclinic'
loop_
_space_group_symop_operation_xyz
x,y,z
-x,-y,-z
loop_
_atom_site_type_symbol
_atom_site_label
_atom_site_fract_x
_atom_site_fract_y
_atom_site_fract_z
Si Si1 0.219015 0.969909 0.567436
Si Si2 0.560341 0.888939 0.095541
Si Si3 0.082452 0.339704 0.696752
Si Si4 0.065084 0.968178 0.147345
Si Si5 0.416563 0.558096 0.360254
Si Si6 0.829760 0.506938 0.158975
O O1 0.619591 0.796319 0.457040
O O2 0.000000 0.000000 0.500000
O O3 0.236924 0.921420 0.712948
O O4 0.954098 0.192632 0.600266
O O5 0.749380 0.813318 0.213189
O O6 0.184328 0.016537 0.170494
O O7 0.847093 0.677149 0.983105
O O8 0.500000 0.000000 0.000000
O O9 0.065944 0.452408 0.765818
O O10 0.695036 0.485031 0.698363
O O11 0.434926 0.723263 0.135573
O O12 0.000000 0.000000 0.000000
O O13 0.500000 0.500000 0.500000
O O14 0.745668 0.456330 0.254875
#
# Coordination Sequence:
#
# PCOD9030447 Si02
#       6
#     2   2   2   2   2   2
#     4  11  21  46  70  97 144 181 228 284 343 417
#     4  11  25  43  69 102 136 183 235 285 353 413
#     4  11  23  47  70  96 142 188 223 291 347 411
#     4  10  22  42  71 100 136 185 225 283 350 409
#     4  11  26  42  68 103 136 180 235 284 345 412
#     4  10  24  48  64  99 148 175 234 286 345 421
#
# _framework density 23.526166
#
# number of rings (size 3 to 8) (size 9 to 14) (size 15 to 20)
#    0.000    1.333    5.000    2.500    7.000    2.667 
#    9.000    0.000    0.000    0.000    0.000    0.000 
#    0.000    0.000    0.000    0.000    0.000    0.000 
#
# Total GULP energy -67161.538307 kJ/mol
# GULP energy per Si atom -5596.794859 kJ/mol
# Density = 2.347262 g / cm^3
# Si number density = 23.526166 Si / 1000 Ang^3
#
#
#
# Elastic Constant Matrix: (Units=GPa)
#
#
# Indices 1 2 3 4 5 6 
#
# 1 114.3319 30.9150 58.4039 -22.0437 -8.6823 -5.5366
# 2 30.9150 67.5855 43.2918 -14.1062 -6.9592 9.2262
# 3 58.4039 43.2918 177.4453 -34.3395 -30.0266 0.7552
# 4 -22.0437 -14.1062 -34.3395 56.5327 0.1312 3.5858
# 5 -8.6823 -6.9592 -30.0266 0.1312 53.1870 -11.1230
# 6 -5.5366 9.2262 0.7552 3.5858 -11.1230 20.2803
#
#
#
# Elastic Compliance Matrix: (Units=1/GPa)
#
#
# Indices 1 2 3 4 5 6 
#
# 1 0.011763 -0.004144 -0.002334 0.001781 0.001213 0.005534
# 2 -0.004144 0.020935 -0.003722 0.002136 -0.002623 -0.012333
# 3 -0.002334 -0.003722 0.008713 0.003273 0.004602 0.002677
# 4 0.001781 0.002136 0.003273 0.021119 0.001647 -0.003438
# 5 0.001213 -0.002623 0.004602 0.001647 0.024255 0.014365
# 6 0.005534 -0.012333 0.002677 -0.003438 0.014365 0.064817
#
#
# Mechanical properties :
#
#
# Convention : Reuss Voigt Hill
#
# Bulk Modulus (GPa) = 47.59558 69.39820 58.49689
# Shear Modulus (GPa) = 27.93234 41.11679 34.52456
#
# Velocity S-wave (km/s) = 3.44944 4.18509 3.83495
# Velocity P-wave (km/s) = 6.01163 7.27432 6.67291
#
# Compressibility (1/GPa) = 0.02101035
#
# Stress axis : x y z
#
# Youngs Moduli (GPa) = 85.01302 47.76730 114.77685
#
# Poissons Ratio (x) = 0.19796 0.26790
# Poissons Ratio (y) = 0.35232 0.42714
# Poissons Ratio (z) = 0.19843 0.17777
#
# Static dielectric constant tensor:
#      x y z
#    x 1.954320 0.015220 -0.020710 
#    y 0.015220 1.929720 -0.003410 
#    z -0.020710 -0.003410 1.906760 
# 
# From -- ./inp_files/185180.got.cif
#   From: 2010.05.17/outbox.cif.g08.bks.cpg/sg2_93_cif.got.tgz:185180.got - 2010.06.03 11:33:40.
