data_PCOD9030842
_publ_section_title
;
Structure prediction by ZEFSAII (Michael W. Deem and Ramdas Pophale) SiO2 
 PCOD9030842
Probable space group: P -1
;
_chemical_formula_sum "Si O2"
_cell_formula_units_Z 15
_cell_length_a 5.150311
_cell_length_b 15.995411
_cell_length_c 8.755068
_cell_angle_alpha 118.226156
_cell_angle_beta 98.958502
_cell_angle_gamma 68.515182
_cell_volume 591.196321
_symmetry_space_group_name_H-M "P -1"
_symmetry_group_IT_number 2
_symmetry_cell_setting 'triclinic'
loop_
_space_group_symop_operation_xyz
x,y,z
-x,-y,-z
loop_
_atom_site_type_symbol
_atom_site_label
_atom_site_fract_x
_atom_site_fract_y
_atom_site_fract_z
Si Si1 0.506030 0.887657 0.926277
Si Si2 0.574196 0.606835 0.983103
Si Si3 0.485080 0.570471 0.287826
Si Si4 0.024994 0.696631 0.816609
Si Si5 0.475069 0.825370 0.178307
Si Si6 0.779981 0.223060 0.397736
Si Si7 0.000000 0.500000 0.500000
Si Si8 0.039100 0.107661 0.592064
O O1 0.408455 0.842111 0.729052
O O2 0.802724 0.805723 0.925232
O O3 0.334711 0.878352 0.053965
O O4 0.500000 0.000000 0.000000
O O5 0.699099 0.503799 0.807097
O O6 0.255093 0.649374 0.927009
O O7 0.604252 0.573280 0.132296
O O8 0.655045 0.706656 0.065379
O O9 0.328865 0.683798 0.417329
O O10 0.714923 0.526546 0.398649
O O11 0.171743 0.723015 0.703419
O O12 0.892809 0.615520 0.670880
O O13 0.234845 0.828633 0.280386
O O14 0.679480 0.883173 0.304971
O O15 0.028587 0.145769 0.449452
O O16 0.000000 0.000000 0.500000
#
# Coordination Sequence:
#
# PCOD9030842 Si02
#       8
#     2   2   2   2   2   2   1   2
#     4  12  28  47  74 106 152 199 255 313 384 451
#     4  10  22  45  74 106 154 193 252 309 389 458
#     4  10  22  44  72 110 148 195 255 311 386 456
#     4  11  25  45  71 110 147 203 249 320 378 462
#     4  12  26  51  76 109 155 202 255 315 385 465
#     4  12  26  44  75 106 149 194 258 316 379 455
#     4  10  22  42  76 102 148 192 254 316 378 454
#     4  12  29  49  79 110 152 203 261 321 382 456
#
# _framework density 25.372281000000001
#
# number of rings (size 3 to 8) (size 9 to 14) (size 15 to 20)
#    0.000    0.800    4.000    2.000    5.600    3.733 
#    0.000    0.667    0.000    0.000    0.000    0.000 
#    0.000    0.000    0.000    0.000    0.000    0.000 
#
# Total GULP energy -83659.753371 kJ/mol
# GULP energy per Si atom -5577.316891 kJ/mol
# Density = 2.531453 g / cm^3
# Si number density = 25.372281 Si / 1000 Ang^3
#
#
#
# Elastic Constant Matrix: (Units=GPa)
#
#
# Indices 1 2 3 4 5 6 
#
# 1 61.6640 9.7083 35.9273 -0.0834 6.1290 11.6667
# 2 9.7083 128.4610 52.7646 23.7625 -7.1229 20.8386
# 3 35.9273 52.7646 126.0199 30.0035 31.2399 12.7664
# 4 -0.0834 23.7625 30.0035 52.8783 4.5717 5.5432
# 5 6.1290 -7.1229 31.2399 4.5717 22.1212 5.1556
# 6 11.6667 20.8386 12.7664 5.5432 5.1556 34.6766
#
#
#
# Elastic Compliance Matrix: (Units=1/GPa)
#
#
# Indices 1 2 3 4 5 6 
#
# 1 0.022640 0.004264 -0.011527 0.004476 0.012435 -0.008500
# 2 0.004264 0.015688 -0.012518 -0.001003 0.024007 -0.009662
# 3 -0.011527 -0.012518 0.027172 -0.007267 -0.039680 0.008458
# 4 0.004476 -0.001003 -0.007267 0.023381 0.004480 -0.002631
# 5 0.012435 0.024007 -0.039680 0.004480 0.109494 -0.020997
# 6 -0.008500 -0.009662 0.008458 -0.002631 -0.020997 0.037933
#
#
# Mechanical properties :
#
#
# Convention : Reuss Voigt Hill
#
# Bulk Modulus (GPa) = 38.55215 56.99393 47.77304
# Shear Modulus (GPa) = 17.57374 36.45154 27.01264
#
# Velocity S-wave (km/s) = 2.63465 3.79445 3.26644
# Velocity P-wave (km/s) = 4.94801 6.45825 5.75290
#
# Compressibility (1/GPa) = 0.02593889
#
# Stress axis : x y z
#
# Youngs Moduli (GPa) = 44.17012 63.74329 36.80210
#
# Poissons Ratio (x) = -0.27180 0.42421
# Poissons Ratio (y) = -0.18834 0.46068
# Poissons Ratio (z) = 0.50914 0.79792
#
# Static dielectric constant tensor:
#      x y z
#    x 2.106290 0.023910 -0.139350 
#    y 0.023910 2.023100 0.023500 
#    z -0.139350 0.023500 2.177160 
# 
# From -- ./inp_files/99998.got.cif
#   From: 2010.05.17/outbox.cif.g08.bks.cpg/sg2_50_cif.got.tgz:99998.got - 2010.06.03 11:33:40.
