data_PCOD9030365
_publ_section_title
;
Structure prediction by ZEFSAII (Michael W. Deem and Ramdas Pophale) SiO2 
 PCOD9030365
Probable space group: P -1
;
_chemical_formula_sum "Si O2"
_cell_formula_units_Z 15
_cell_length_a 11.690170
_cell_length_b 7.843528
_cell_length_c 9.146414
_cell_angle_alpha 51.506912
_cell_angle_beta 86.764393
_cell_angle_gamma 98.366344
_cell_volume 637.605559
_symmetry_space_group_name_H-M "P -1"
_symmetry_group_IT_number 2
_symmetry_cell_setting 'triclinic'
loop_
_space_group_symop_operation_xyz
x,y,z
-x,-y,-z
loop_
_atom_site_type_symbol
_atom_site_label
_atom_site_fract_x
_atom_site_fract_y
_atom_site_fract_z
Si Si1 0.978988 0.732016 0.447317
Si Si2 0.865676 0.849971 0.960144
Si Si3 0.483180 0.719335 0.073686
Si Si4 0.665689 0.733457 0.820608
Si Si5 0.020832 0.522419 0.157987
Si Si6 0.272427 0.155290 0.560230
Si Si7 0.500000 0.500000 0.500000
Si Si8 0.256054 0.862267 0.978917
O O1 0.015818 0.705215 0.627727
O O2 0.845009 0.756445 0.447966
O O3 0.000000 0.500000 0.500000
O O4 0.055842 0.946469 0.246477
O O5 0.773936 0.709444 0.926798
O O6 0.795618 0.954708 0.029417
O O7 0.944249 0.700885 0.109204
O O8 0.406314 0.500638 0.112064
O O9 0.528793 0.637833 0.264939
O O10 0.382954 0.854675 0.035171
O O11 0.579987 0.825113 0.888319
O O12 0.709716 0.876269 0.596879
O O13 0.156658 0.633956 0.125530
O O14 0.000000 0.500000 0.000000
O O15 0.384470 0.334654 0.519845
O O16 0.264405 0.929624 0.772873
#
# Coordination Sequence:
#
# PCOD9030365 Si02
#       8
#     2   2   2   2   2   2   1   2
#     4  12  25  44  69 103 143 182 228 282 346 410
#     4  12  25  44  69 106 140 179 234 280 342 421
#     4  10  23  47  69  97 135 179 232 285 347 398
#     4  10  24  45  68  98 138 179 226 290 337 413
#     4  12  25  43  70 101 139 187 223 281 348 408
#     4  11  24  43  69  98 139 176 230 284 341 408
#     4  10  22  42  70  96 128 182 230 282 340 406
#     4  12  24  44  69  98 139 176 230 289 339 412
#
# _framework density 23.525516
#
# number of rings (size 3 to 8) (size 9 to 14) (size 15 to 20)
#    0.000    0.800    2.667    5.200    1.867    3.733 
#    0.000    2.667    0.000    0.000    0.000    0.000 
#    0.000    0.000    0.000    0.000    0.000    0.000 
#
# Total GULP energy -83726.609150 kJ/mol
# GULP energy per Si atom -5581.773943 kJ/mol
# Density = 2.347197 g / cm^3
# Si number density = 23.525516 Si / 1000 Ang^3
#
#
#
# Elastic Constant Matrix: (Units=GPa)
#
#
# Indices 1 2 3 4 5 6 
#
# 1 134.4649 27.9096 50.1383 17.2030 -3.2663 -6.5277
# 2 27.9096 61.7847 16.3489 21.0064 0.9198 -8.8424
# 3 50.1383 16.3489 159.7366 22.8418 -4.0527 -2.6482
# 4 17.2030 21.0064 22.8418 40.5749 3.7338 2.1805
# 5 -3.2663 0.9198 -4.0527 3.7338 33.3250 8.0787
# 6 -6.5277 -8.8424 -2.6482 2.1805 8.0787 37.6172
#
#
#
# Elastic Compliance Matrix: (Units=1/GPa)
#
#
# Indices 1 2 3 4 5 6 
#
# 1 0.009140 -0.003066 -0.002379 -0.001042 0.000658 0.000617
# 2 -0.003066 0.021807 0.000273 -0.010341 -0.001028 0.005433
# 3 -0.002379 0.000273 0.007502 -0.003459 0.001020 0.000161
# 4 -0.001042 -0.010341 -0.003459 0.032879 -0.002919 -0.004134
# 5 0.000658 -0.001028 0.001020 -0.002919 0.032200 -0.006802
# 6 0.000617 0.005433 0.000161 -0.004134 -0.006802 0.029679
#
#
# Mechanical properties :
#
#
# Convention : Reuss Voigt Hill
#
# Bulk Modulus (GPa) = 35.58143 60.53106 48.05624
# Shear Modulus (GPa) = 32.69685 39.74272 36.21978
#
# Velocity S-wave (km/s) = 3.73211 4.11462 3.92802
# Velocity P-wave (km/s) = 5.80766 6.95409 6.40657
#
# Compressibility (1/GPa) = 0.02810455
#
# Stress axis : x y z
#
# Youngs Moduli (GPa) = 109.41350 45.85724 133.29429
#
# Poissons Ratio (x) = 0.14061 0.31711
# Poissons Ratio (y) = 0.33550 -0.03643
# Poissons Ratio (z) = 0.26029 -0.01253
#
# Static dielectric constant tensor:
#      x y z
#    x 1.895300 -0.039040 -0.022170 
#    y -0.039040 1.979350 -0.009610 
#    z -0.022170 -0.009610 1.908490 
# 
# From -- ./inp_files/242120.got.cif
#   From: 2010.05.17/outbox.cif.g08.bks.cpg/sg2_122_cif.got.tgz:242120.got - 2010.06.03 11:33:40.
