data_PCOD9030243
_publ_section_title
;
Structure prediction by ZEFSAII (Michael W. Deem and Ramdas Pophale) SiO2 
 PCOD9030243
Probable space group: P -1
;
_chemical_formula_sum "Si O2"
_cell_formula_units_Z 16
_cell_length_a 5.071840
_cell_length_b 9.501424
_cell_length_c 29.519994
_cell_angle_alpha 38.135799
_cell_angle_beta 52.009456
_cell_angle_gamma 67.616394
_cell_volume 676.545297
_symmetry_space_group_name_H-M "P -1"
_symmetry_group_IT_number 2
_symmetry_cell_setting 'triclinic'
loop_
_space_group_symop_operation_xyz
x,y,z
-x,-y,-z
loop_
_atom_site_type_symbol
_atom_site_label
_atom_site_fract_x
_atom_site_fract_y
_atom_site_fract_z
Si Si1 0.788019 0.892682 0.471653
Si Si2 0.030857 0.073209 0.871489
Si Si3 0.307116 0.186622 0.273740
Si Si4 0.076094 0.615490 0.024580
Si Si5 0.269430 0.873019 0.272738
Si Si6 0.821649 0.852386 0.865912
Si Si7 0.033032 0.491826 0.833569
Si Si8 0.726269 0.407588 0.461505
O O1 0.550257 0.672874 0.527841
O O2 0.086829 0.801500 0.490447
O O3 0.500000 0.000000 0.500000
O O4 0.987992 0.075907 0.367562
O O5 0.793114 0.039913 0.860312
O O6 0.390448 0.117255 0.794987
O O7 0.058932 0.279363 0.851577
O O8 0.904975 0.824684 0.973468
O O9 0.614171 0.323492 0.238282
O O10 0.215289 0.376216 0.200866
O O11 0.346293 0.976871 0.288509
O O12 0.958630 0.340284 0.094753
O O13 0.098847 0.609069 0.077977
O O14 0.442826 0.699621 0.941148
O O15 0.033486 0.619343 0.362908
O O16 0.075956 0.033339 0.221940
O O17 0.500000 0.500000 0.500000
#
# Coordination Sequence:
#
# PCOD9030243 Si02
#       8
#     2   2   2   2   2   2   2   2
#     4  12  29  50  79 112 156 197 243 314 386 455
#     4  11  26  41  71 104 146 187 249 306 362 439
#     4  12  28  49  73 105 149 194 244 298 379 444
#     4  10  22  43  66 104 140 196 239 298 369 439
#     4  11  26  44  73 105 145 192 250 306 359 446
#     4  10  22  42  70 102 141 193 246 298 366 437
#     4  12  28  44  74 106 148 193 240 307 372 442
#     4  12  27  48  79 114 147 199 253 309 373 450
#
# _framework density 23.649562
#
# number of rings (size 3 to 8) (size 9 to 14) (size 15 to 20)
#    0.000    0.750    2.500    3.000   10.500    0.500 
#    0.000    0.000    0.000    0.000    0.000    0.000 
#    0.000    0.000    0.000    0.000    0.000    0.000 
#
# Total GULP energy -89372.407266 kJ/mol
# GULP energy per Si atom -5585.775454 kJ/mol
# Density = 2.359574 g / cm^3
# Si number density = 23.649562 Si / 1000 Ang^3
#
#
#
# Elastic Constant Matrix: (Units=GPa)
#
#
# Indices 1 2 3 4 5 6 
#
# 1 78.1168 6.0125 -6.5962 -0.3818 -6.3814 7.4710
# 2 6.0125 135.9042 16.7271 7.3331 -0.9470 19.8075
# 3 -6.5962 16.7271 86.9481 15.1223 5.9294 -2.9667
# 4 -0.3818 7.3331 15.1223 33.0087 7.6298 -9.7165
# 5 -6.3814 -0.9470 5.9294 7.6298 20.2518 -3.6193
# 6 7.4710 19.8075 -2.9667 -9.7165 -3.6193 39.0461
#
#
#
# Elastic Compliance Matrix: (Units=1/GPa)
#
#
# Indices 1 2 3 4 5 6 
#
# 1 0.013480 -0.000225 0.001037 -0.001980 0.004235 -0.002486
# 2 -0.000225 0.008426 -0.001362 -0.002932 0.000937 -0.004978
# 3 0.001037 -0.001362 0.012854 -0.005211 -0.001532 0.000030
# 4 -0.001980 -0.002932 -0.005211 0.039086 -0.012161 0.010070
# 5 0.004235 0.000937 -0.001532 -0.012161 0.055922 0.000755
# 6 -0.002486 -0.004978 0.000030 0.010070 0.000755 0.031190
#
#
# Mechanical properties :
#
#
# Convention : Reuss Voigt Hill
#
# Bulk Modulus (GPa) = 29.70969 37.02841 33.36905
# Shear Modulus (GPa) = 28.85541 37.44970 33.15256
#
# Velocity S-wave (km/s) = 3.49682 3.98367 3.74816
# Velocity P-wave (km/s) = 5.37526 6.07047 5.73341
#
# Compressibility (1/GPa) = 0.03365905
#
# Stress axis : x y z
#
# Youngs Moduli (GPa) = 74.18232 118.68145 77.79944
#
# Poissons Ratio (x) = 0.02673 -0.08065
# Poissons Ratio (y) = 0.01671 0.10595
# Poissons Ratio (z) = -0.07690 0.16162
#
# Static dielectric constant tensor:
#      x y z
#    x 2.030820 -0.060600 0.013300 
#    y -0.060600 1.961770 -0.030010 
#    z 0.013300 -0.030010 1.856450 
# 
# From -- ./inp_files/621729.got.cif
#   From: 2010.05.17/outbox.cif.g08.bks.cpg/sg2_311_cif.got.tgz:621729.got - 2010.06.03 11:33:40.
