data_PCOD9030462
_publ_section_title
;
Structure prediction by ZEFSAII (Michael W. Deem and Ramdas Pophale) SiO2 
 PCOD9030462
Probable space group: P -1
;
_chemical_formula_sum "Si O2"
_cell_formula_units_Z 14
_cell_length_a 8.194477
_cell_length_b 13.923375
_cell_length_c 18.676148
_cell_angle_alpha 145.458406
_cell_angle_beta 31.825279
_cell_angle_gamma 136.552137
_cell_volume 634.685638
_symmetry_space_group_name_H-M "P -1"
_symmetry_group_IT_number 2
_symmetry_cell_setting 'triclinic'
loop_
_space_group_symop_operation_xyz
x,y,z
-x,-y,-z
loop_
_atom_site_type_symbol
_atom_site_label
_atom_site_fract_x
_atom_site_fract_y
_atom_site_fract_z
Si Si1 0.706564 0.874513 0.008248
Si Si2 0.180036 0.428525 0.456797
Si Si3 0.180005 0.081802 0.170893
Si Si4 0.792174 0.519649 0.220719
Si Si5 0.806339 0.128880 0.698407
Si Si6 0.726062 0.754676 0.135912
Si Si7 0.400287 0.496206 0.205505
O O1 0.393646 0.944967 0.202452
O O2 0.811003 0.849826 0.871530
O O3 0.630794 0.676081 0.934419
O O4 0.000000 0.000000 0.000000
O O5 0.186166 0.230400 0.316797
O O6 0.527277 0.514583 0.377157
O O7 0.000000 0.500000 0.500000
O O8 0.952353 0.462506 0.625728
O O9 0.912914 0.934152 0.193426
O O10 0.500000 0.000000 0.000000
O O11 0.605464 0.473383 0.187348
O O12 0.964252 0.706781 0.264602
O O13 0.025748 0.376253 0.062713
O O14 0.543650 0.198266 0.787663
O O15 0.000000 0.000000 0.500000
O O16 0.574419 0.654691 0.198034
#
# Coordination Sequence:
#
# PCOD9030462 Si02
#       7
#     2   2   2   2   2   2   2
#     4  12  25  45  71  97 144 185 225 280 358 410
#     4  10  22  42  71 101 139 174 233 283 341 405
#     4  12  24  43  73 106 134 179 236 290 341 412
#     4  11  23  46  74  97 143 186 232 281 347 421
#     4  12  30  45  68 104 146 183 230 290 355 406
#     4  12  25  46  69 105 143 184 232 286 349 416
#     4  11  25  44  76 106 134 188 234 284 349 410
#
# _framework density 22.058164999999999
#
# number of rings (size 3 to 8) (size 9 to 14) (size 15 to 20)
#    0.000    0.571    7.143    0.857    8.000    1.714 
#    0.000    0.714    0.000    0.000    0.000    0.000 
#    0.000    0.000    0.000    0.000    0.000    0.000 
#
# Total GULP energy -78086.143458 kJ/mol
# GULP energy per Si atom -5577.581676 kJ/mol
# Density = 2.200796 g / cm^3
# Si number density = 22.058165 Si / 1000 Ang^3
#
#
#
# Elastic Constant Matrix: (Units=GPa)
#
#
# Indices 1 2 3 4 5 6 
#
# 1 51.3183 20.4108 16.2056 6.0288 -12.2824 16.9113
# 2 20.4108 175.3331 43.7553 -13.8636 6.9106 29.6450
# 3 16.2056 43.7553 146.9872 -16.8675 -4.4964 14.4625
# 4 6.0288 -13.8636 -16.8675 46.4640 4.0897 1.0615
# 5 -12.2824 6.9106 -4.4964 4.0897 28.7303 3.6838
# 6 16.9113 29.6450 14.4625 1.0615 3.6838 37.1070
#
#
#
# Elastic Compliance Matrix: (Units=1/GPa)
#
#
# Indices 1 2 3 4 5 6 
#
# 1 0.029221 -0.001962 -0.001641 -0.006023 0.015160 -0.012443
# 2 -0.001962 0.007257 -0.001353 0.002251 -0.002580 -0.004184
# 3 -0.001641 -0.001353 0.007843 0.002630 0.000653 -0.001369
# 4 -0.006023 0.002251 0.002630 0.024477 -0.006167 -0.000167
# 5 0.015160 -0.002580 0.000653 -0.006167 0.044081 -0.009302
# 6 -0.012443 -0.004184 -0.001369 -0.000167 -0.009302 0.037424
#
#
# Mechanical properties :
#
#
# Convention : Reuss Voigt Hill
#
# Bulk Modulus (GPa) = 29.06122 59.37580 44.21851
# Shear Modulus (GPa) = 29.12326 42.01137 35.56732
#
# Velocity S-wave (km/s) = 3.63753 4.36888 4.01987
# Velocity P-wave (km/s) = 5.55388 7.24056 6.45257
#
# Compressibility (1/GPa) = 0.03441012
#
# Stress axis : x y z
#
# Youngs Moduli (GPa) = 34.22182 137.80624 127.49666
#
# Poissons Ratio (x) = 0.27039 0.20918
# Poissons Ratio (y) = 0.06715 0.17246
# Poissons Ratio (z) = 0.05615 0.18641
#
# Static dielectric constant tensor:
#      x y z
#    x 1.805340 -0.041630 -0.016970 
#    y -0.041630 1.844650 -0.019340 
#    z -0.016970 -0.019340 1.816920 
# 
# From -- ./inp_files/566892.got.cif
#   From: 2010.05.17/outbox.cif.g08.bks.cpg/sg2_284_cif.got.tgz:566892.got - 2010.06.03 11:33:40.
