data_PCOD9030426
_publ_section_title
;
Structure prediction by ZEFSAII (Michael W. Deem and Ramdas Pophale) SiO2 
 PCOD9030426
Probable space group: P -1
;
_chemical_formula_sum "Si O2"
_cell_formula_units_Z 16
_cell_length_a 11.852507
_cell_length_b 16.587733
_cell_length_c 11.324732
_cell_angle_alpha 120.945387
_cell_angle_beta 142.352533
_cell_angle_gamma 33.572049
_cell_volume 678.696632
_symmetry_space_group_name_H-M "P -1"
_symmetry_group_IT_number 2
_symmetry_cell_setting 'triclinic'
loop_
_space_group_symop_operation_xyz
x,y,z
-x,-y,-z
loop_
_atom_site_type_symbol
_atom_site_label
_atom_site_fract_x
_atom_site_fract_y
_atom_site_fract_z
Si Si1 0.243379 0.498736 0.005452
Si Si2 0.103330 0.374779 0.580856
Si Si3 0.736478 0.092016 0.749522
Si Si4 0.896370 0.922515 0.114733
Si Si5 0.286274 0.158006 0.282007
Si Si6 0.224529 0.662241 0.818372
Si Si7 0.811976 0.351892 0.720288
Si Si8 0.284397 0.294565 0.938718
O O1 0.256497 0.412163 0.049765
O O2 0.924507 0.661240 0.791186
O O3 0.565460 0.348151 0.082523
O O4 0.275840 0.580598 0.169022
O O5 0.437467 0.212356 0.678396
O O6 0.132673 0.380240 0.747854
O O7 0.000000 0.500000 0.500000
O O8 0.895783 0.367929 0.390813
O O9 0.623056 0.055743 0.535312
O O10 0.820809 0.145079 0.774895
O O11 0.000000 0.000000 0.000000
O O12 0.047714 0.809996 0.269399
O O13 0.714330 0.916857 0.881630
O O14 0.633821 0.108601 0.069586
O O15 0.067622 0.197335 0.230508
O O16 0.500000 0.500000 0.000000
O O17 0.500000 0.500000 0.500000
O O18 0.087725 0.301893 0.855880
#
# Coordination Sequence:
#
# PCOD9030426 Si02
#       8
#     2   2   2   2   2   2   2   2
#     4  10  22  42  70  99 132 177 230 289 337 409
#     4  11  23  37  67  99 137 178 224 281 334 413
#     4  11  23  43  63 105 142 182 221 275 353 413
#     4  11  26  46  69  99 144 181 223 288 348 413
#     4   9  22  41  69  98 144 183 222 276 340 422
#     4   9  18  36  59  98 132 173 219 274 336 395
#     4  11  26  47  73  95 127 180 236 288 341 405
#     4  12  24  45  66  99 134 178 227 282 344 405
#
# _framework density 23.574596
#
# number of rings (size 3 to 8) (size 9 to 14) (size 15 to 20)
#    0.000    1.500    1.250    3.750   10.500    0.500 
#    4.500    0.625    0.000    0.000    0.000    0.000 
#    0.000    0.000    0.000    0.000    0.000    0.000 
#
# Total GULP energy -89179.802684 kJ/mol
# GULP energy per Si atom -5573.737668 kJ/mol
# Density = 2.352094 g / cm^3
# Si number density = 23.574596 Si / 1000 Ang^3
#
#
#
# Elastic Constant Matrix: (Units=GPa)
#
#
# Indices 1 2 3 4 5 6 
#
# 1 118.8042 9.5166 10.0413 -18.8824 17.6737 22.5293
# 2 9.5166 69.5054 15.3169 -13.6949 -2.6308 20.8356
# 3 10.0413 15.3169 116.0289 -10.0345 7.4525 15.0478
# 4 -18.8824 -13.6949 -10.0345 25.5219 9.6305 -9.8890
# 5 17.6737 -2.6308 7.4525 9.6305 38.6373 -1.5313
# 6 22.5293 20.8356 15.0478 -9.8890 -1.5313 33.5956
#
#
#
# Elastic Compliance Matrix: (Units=1/GPa)
#
#
# Indices 1 2 3 4 5 6 
#
# 1 0.012749 0.002163 0.001160 0.011611 -0.009096 -0.007407
# 2 0.002163 0.018931 -0.000458 0.008237 -0.002087 -0.010656
# 3 0.001160 -0.000458 0.009672 0.004359 -0.003661 -0.003710
# 4 0.011611 0.008237 0.004359 0.062949 -0.021174 0.002716
# 5 -0.009096 -0.002087 -0.003661 -0.021174 0.036060 0.004445
# 6 -0.007407 -0.010656 -0.003710 0.002716 0.004445 0.044006
#
#
# Mechanical properties :
#
#
# Convention : Reuss Voigt Hill
#
# Bulk Modulus (GPa) = 21.23942 41.56535 31.40238
# Shear Modulus (GPa) = 25.72934 37.51521 31.62228
#
# Velocity S-wave (km/s) = 3.30722 3.99349 3.66645
# Velocity P-wave (km/s) = 4.85928 6.23968 5.59224
#
# Compressibility (1/GPa) = 0.04708226
#
# Stress axis : x y z
#
# Youngs Moduli (GPa) = 78.43595 52.82475 103.39265
#
# Poissons Ratio (x) = -0.11425 -0.11996
# Poissons Ratio (y) = -0.16964 0.04733
# Poissons Ratio (z) = -0.09101 0.02418
#
# Static dielectric constant tensor:
#      x y z
#    x 1.932880 0.018980 -0.077950 
#    y 0.018980 2.005660 -0.032100 
#    z -0.077950 -0.032100 1.912870 
# 
# From -- ./inp_files/437335.got.cif
#   From: 2010.05.17/outbox.cif.g08.bks.cpg/sg2_219_cif.got.tgz:437335.got - 2010.06.03 11:33:40.
