data_PCOD9030166
_publ_section_title
;
Structure prediction by ZEFSAII (Michael W. Deem and Ramdas Pophale) SiO2 
 PCOD9030166
Probable space group: P -1
;
_chemical_formula_sum "Si O2"
_cell_formula_units_Z 16
_cell_length_a 9.640794
_cell_length_b 8.878225
_cell_length_c 12.796128
_cell_angle_alpha 48.056706
_cell_angle_beta 120.319518
_cell_angle_gamma 104.461150
_cell_volume 696.645360
_symmetry_space_group_name_H-M "P -1"
_symmetry_group_IT_number 2
_symmetry_cell_setting 'triclinic'
loop_
_space_group_symop_operation_xyz
x,y,z
-x,-y,-z
loop_
_atom_site_type_symbol
_atom_site_label
_atom_site_fract_x
_atom_site_fract_y
_atom_site_fract_z
Si Si1 0.642197 0.006243 0.468508
Si Si2 0.997012 0.005523 0.302001
Si Si3 0.264444 0.247335 0.572211
Si Si4 0.805669 0.421586 0.940420
Si Si5 0.918077 0.556186 0.118495
Si Si6 0.361869 0.562823 0.832319
Si Si7 0.476914 0.242596 0.858179
Si Si8 0.031084 0.633548 0.340783
O O1 0.829927 0.971616 0.592916
O O2 0.607661 0.234749 0.306125
O O3 0.500000 0.000000 0.500000
O O4 0.640243 0.846333 0.448308
O O5 0.043216 0.848730 0.297018
O O6 0.870809 0.899061 0.376336
O O7 0.904826 0.215916 0.123758
O O8 0.387425 0.260662 0.706751
O O9 0.174866 0.475667 0.420955
O O10 0.804167 0.592518 0.952932
O O11 0.638339 0.350644 0.875507
O O12 0.909395 0.483137 0.854141
O O13 0.819942 0.388844 0.212692
O O14 0.933667 0.688690 0.167453
O O15 0.368267 0.374528 0.842184
O O16 0.500000 0.500000 0.000000
O O17 0.500000 0.000000 0.000000
O O18 0.000000 0.500000 0.500000
#
# Coordination Sequence:
#
# PCOD9030166 Si02
#       8
#     2   2   2   2   2   2   2   2
#     4  12  28  45  73 108 141 186 240 303 359 423
#     4  11  22  44  69  99 143 181 242 281 358 422
#     4  11  22  44  73  98 141 184 235 287 359 425
#     4  11  25  43  69 104 142 190 230 299 345 430
#     4  11  24  44  69 101 139 186 241 284 364 418
#     4  12  24  45  71 100 141 185 236 290 354 424
#     4  12  24  45  68 106 143 185 240 287 360 420
#     4  10  22  42  70 100 129 183 232 293 347 424
#
# _framework density 22.967209
#
# number of rings (size 3 to 8) (size 9 to 14) (size 15 to 20)
#    0.000    0.750    2.500    6.375    1.750    2.500 
#    0.000    1.875    0.000    0.000    0.000    0.000 
#    0.000    0.000    0.000    0.000    0.000    0.000 
#
# Total GULP energy -89167.712946 kJ/mol
# GULP energy per Si atom -5572.982059 kJ/mol
# Density = 2.291493 g / cm^3
# Si number density = 22.967209 Si / 1000 Ang^3
#
#
#
# Elastic Constant Matrix: (Units=GPa)
#
#
# Indices 1 2 3 4 5 6 
#
# 1 169.4330 41.5650 44.7348 20.6757 -7.7437 -2.5414
# 2 41.5650 140.9502 40.8273 30.7370 -4.8278 -37.8069
# 3 44.7348 40.8273 91.5377 21.0112 6.4740 -11.1550
# 4 20.6757 30.7370 21.0112 60.9705 -4.2166 3.7544
# 5 -7.7437 -4.8278 6.4740 -4.2166 30.2166 11.7012
# 6 -2.5414 -37.8069 -11.1550 3.7544 11.7012 42.0557
#
#
#
# Elastic Compliance Matrix: (Units=1/GPa)
#
#
# Indices 1 2 3 4 5 6 
#
# 1 0.007382 -0.001952 -0.003403 0.000098 0.003567 -0.003213
# 2 -0.001952 0.012696 -0.001463 -0.006277 -0.003895 0.012551
# 3 -0.003403 -0.001463 0.015253 -0.004130 -0.006804 0.004787
# 4 0.000098 -0.006277 -0.004130 0.022107 0.007132 -0.010690
# 5 0.003567 -0.003895 -0.006804 0.007132 0.042652 -0.017594
# 6 -0.003213 0.012551 0.004787 -0.010690 -0.017594 0.041986
#
#
# Mechanical properties :
#
#
# Convention : Reuss Voigt Hill
#
# Bulk Modulus (GPa) = 46.09543 72.90834 59.50189
# Shear Modulus (GPa) = 30.68516 44.96815 37.82665
#
# Velocity S-wave (km/s) = 3.65916 4.42965 4.06271
# Velocity P-wave (km/s) = 6.16168 7.61419 6.92611
#
# Compressibility (1/GPa) = 0.02169412
#
# Stress axis : x y z
#
# Youngs Moduli (GPa) = 135.45740 78.76456 65.56219
#
# Poissons Ratio (x) = 0.15376 0.22314
# Poissons Ratio (y) = 0.26443 0.09591
# Poissons Ratio (z) = 0.46102 0.11523
#
# Static dielectric constant tensor:
#      x y z
#    x 1.931650 -0.051400 0.121350 
#    y -0.051400 2.169710 -0.323280 
#    z 0.121350 -0.323280 2.451770 
# 
# From -- ./inp_files/381460.got.cif
#   From: 2010.05.17/outbox.cif.g08.bks.cpg/sg2_191_cif.got.tgz:381460.got - 2010.06.03 11:33:40.
