data_PCOD9030263
_publ_section_title
;
Structure prediction by ZEFSAII (Michael W. Deem and Ramdas Pophale) SiO2 
 PCOD9030263
Probable space group: P -1
;
_chemical_formula_sum "Si O2"
_cell_formula_units_Z 14
_cell_length_a 6.940611
_cell_length_b 7.024076
_cell_length_c 15.161799
_cell_angle_alpha 125.351124
_cell_angle_beta 114.063689
_cell_angle_gamma 66.761952
_cell_volume 537.846807
_symmetry_space_group_name_H-M "P -1"
_symmetry_group_IT_number 2
_symmetry_cell_setting 'triclinic'
loop_
_space_group_symop_operation_xyz
x,y,z
-x,-y,-z
loop_
_atom_site_type_symbol
_atom_site_label
_atom_site_fract_x
_atom_site_fract_y
_atom_site_fract_z
Si Si1 0.695576 0.677973 0.558843
Si Si2 0.887420 0.708533 0.218489
Si Si3 0.702222 0.684932 0.767944
Si Si4 0.500000 0.000000 0.500000
Si Si5 0.524936 0.596633 0.246155
Si Si6 0.271082 0.536932 0.015591
Si Si7 0.000000 0.000000 0.000000
Si Si8 0.962316 0.144097 0.441428
O O1 0.695942 0.739543 0.677326
O O2 0.464600 0.759722 0.493565
O O3 0.832609 0.414405 0.497516
O O4 0.799256 0.844504 0.551825
O O5 0.733476 0.587792 0.220973
O O6 0.122336 0.563100 0.251366
O O7 0.862754 0.982208 0.312852
O O8 0.823418 0.685557 0.098050
O O9 0.483568 0.630606 0.754446
O O10 0.795765 0.885558 0.890142
O O11 0.514040 0.827204 0.365518
O O12 0.330308 0.590279 0.139686
O O13 0.500000 0.500000 0.000000
O O14 0.101116 0.750360 0.998875
O O15 0.000000 0.000000 0.500000
#
# Coordination Sequence:
#
# PCOD9030263 Si02
#       8
#     2   2   2   1   2   2   1   2
#     4  11  26  43  69 105 145 190 247 297 370 443
#     4  10  22  44  75 102 144 196 241 301 381 426
#     4  11  24  45  72 107 146 190 246 308 366 449
#     4  12  26  44  66 104 150 190 232 308 370 426
#     4  11  25  44  70 109 147 189 251 303 366 451
#     4   9  21  45  70 101 146 191 246 308 362 448
#     4  10  22  42  70 104 142 194 244 298 380 434
#     4  11  22  45  73 101 142 189 249 305 355 449
#
# _framework density 26.029719
#
# number of rings (size 3 to 8) (size 9 to 14) (size 15 to 20)
#    0.000    1.429    1.429    2.571    4.000    4.000 
#    5.143    6.429    0.000    0.000    0.000    0.000 
#    0.000    0.000    0.000    0.000    0.000    0.000 
#
# Total GULP energy -77939.125683 kJ/mol
# GULP energy per Si atom -5567.080406 kJ/mol
# Density = 2.597047 g / cm^3
# Si number density = 26.029719 Si / 1000 Ang^3
#
#
#
# Elastic Constant Matrix: (Units=GPa)
#
#
# Indices 1 2 3 4 5 6 
#
# 1 123.4625 49.0597 33.1372 -13.9924 1.0727 32.7408
# 2 49.0597 109.8360 56.9318 -21.3449 -10.9104 -1.2940
# 3 33.1372 56.9318 198.0849 -18.9230 11.8750 15.4496
# 4 -13.9924 -21.3449 -18.9230 48.1107 7.4126 14.0292
# 5 1.0727 -10.9104 11.8750 7.4126 29.7279 -0.0967
# 6 32.7408 -1.2940 15.4496 14.0292 -0.0967 34.7657
#
#
#
# Elastic Compliance Matrix: (Units=1/GPa)
#
#
# Indices 1 2 3 4 5 6 
#
# 1 0.017888 -0.008333 0.002565 0.010185 -0.007341 -0.022426
# 2 -0.008333 0.015911 -0.004750 -0.001849 0.008536 0.011321
# 3 0.002565 -0.004750 0.007409 0.004759 -0.006008 -0.007822
# 4 0.010185 -0.001849 0.004759 0.034019 -0.011513 -0.025535
# 5 -0.007341 0.008536 -0.006008 -0.011513 0.042354 0.014665
# 6 -0.022426 0.011321 -0.007822 -0.025535 0.014665 0.064127
#
#
# Mechanical properties :
#
#
# Convention : Reuss Voigt Hill
#
# Bulk Modulus (GPa) = 49.57767 78.84898 64.21332
# Shear Modulus (GPa) = 23.86986 42.00449 32.93718
#
# Velocity S-wave (km/s) = 3.03152 4.02146 3.56106
# Velocity P-wave (km/s) = 5.59834 7.20559 6.45221
#
# Compressibility (1/GPa) = 0.02017037
#
# Stress axis : x y z
#
# Youngs Moduli (GPa) = 55.90387 62.85038 134.96234
#
# Poissons Ratio (x) = 0.52376 -0.34616
# Poissons Ratio (y) = 0.46587 0.64110
# Poissons Ratio (z) = -0.14339 0.29855
#
# Static dielectric constant tensor:
#      x y z
#    x 2.548920 -0.239370 0.216820 
#    y -0.239370 2.328000 -0.202670 
#    z 0.216820 -0.202670 2.222230 
# 
# From -- ./inp_files/488766.got.cif
#   From: 2010.05.17/outbox.cif.g08.bks.cpg/sg2_245_cif.got.tgz:488766.got - 2010.06.03 11:33:40.
