data_PCOD9030523
_publ_section_title
;
Structure prediction by ZEFSAII (Michael W. Deem and Ramdas Pophale) SiO2 
 PCOD9030523
Probable space group: P -1
;
_chemical_formula_sum "Si O2"
_cell_formula_units_Z 10
_cell_length_a 16.520078
_cell_length_b 5.858972
_cell_length_c 9.168016
_cell_angle_alpha 84.240437
_cell_angle_beta 149.313173
_cell_angle_gamma 102.024009
_cell_volume 437.379777
_symmetry_space_group_name_H-M "P -1"
_symmetry_group_IT_number 2
_symmetry_cell_setting 'triclinic'
loop_
_space_group_symop_operation_xyz
x,y,z
-x,-y,-z
loop_
_atom_site_type_symbol
_atom_site_label
_atom_site_fract_x
_atom_site_fract_y
_atom_site_fract_z
Si Si1 0.936926 0.239519 0.343236
Si Si2 0.357853 0.067256 0.960055
Si Si3 0.450321 0.553694 0.580153
Si Si4 0.691697 0.924933 0.441673
Si Si5 0.116628 0.710549 0.076360
O O1 0.000000 0.500000 0.500000
O O2 0.747307 0.156366 0.103693
O O3 0.955692 0.264490 0.196441
O O4 0.000000 0.000000 0.500000
O O5 0.273224 0.089974 0.673657
O O6 0.390310 0.288535 0.103753
O O7 0.541797 0.052030 0.210594
O O8 0.500000 0.500000 0.500000
O O9 0.381045 0.328027 0.586646
O O10 0.295324 0.668023 0.321126
O O11 0.838038 0.065345 0.759592
O O12 0.000000 0.500000 0.000000
#
# Coordination Sequence:
#
# PCOD9030523 Si02
#       5
#     2   2   2   2   2
#     4  12  29  46  71 104 147 191 235 297 361 428
#     4  10  23  43  67 101 136 181 238 288 358 421
#     4  11  23  40  72  99 136 179 234 295 354 422
#     4  10  22  42  71  96 134 182 237 296 348 425
#     4  11  26  45  69 102 139 185 239 293 358 425
#
# _framework density 22.863424999999999
#
# number of rings (size 3 to 8) (size 9 to 14) (size 15 to 20)
#    0.000    1.200    0.000    4.200   11.200    4.000 
#    0.000    0.000    0.000    0.000    0.000    0.000 
#    0.000    0.000    0.000    0.000    0.000    0.000 
#
# Total GULP energy -55856.386587 kJ/mol
# GULP energy per Si atom -5585.638659 kJ/mol
# Density = 2.281139 g / cm^3
# Si number density = 22.863425 Si / 1000 Ang^3
#
#
#
# Elastic Constant Matrix: (Units=GPa)
#
#
# Indices 1 2 3 4 5 6 
#
# 1 148.2933 48.8118 91.1807 5.4718 -29.1984 19.0126
# 2 48.8118 125.0539 78.4410 35.9214 -40.2360 19.0891
# 3 91.1807 78.4410 126.9645 31.7696 -46.1794 -2.2988
# 4 5.4718 35.9214 31.7696 59.3878 2.7195 6.3370
# 5 -29.1984 -40.2360 -46.1794 2.7195 52.9934 -7.1559
# 6 19.0126 19.0891 -2.2988 6.3370 -7.1559 48.3730
#
#
#
# Elastic Compliance Matrix: (Units=1/GPa)
#
#
# Indices 1 2 3 4 5 6 
#
# 1 0.016889 0.001519 -0.017926 0.008527 -0.006983 -0.010239
# 2 0.001519 0.017013 -0.007959 -0.005822 0.006308 -0.005993
# 3 -0.017926 -0.007959 0.037099 -0.016082 0.019522 0.016944
# 4 0.008527 -0.005822 -0.016082 0.029796 -0.016365 -0.008142
# 5 -0.006983 0.006308 0.019522 -0.016365 0.038890 0.009080
# 6 -0.010239 -0.005993 0.016944 -0.008142 0.009080 0.030277
#
#
# Mechanical properties :
#
#
# Convention : Reuss Voigt Hill
#
# Bulk Modulus (GPa) = 44.90775 93.01988 68.96381
# Shear Modulus (GPa) = 22.11227 44.27606 33.19417
#
# Velocity S-wave (km/s) = 3.11327 4.40539 3.81444
# Velocity P-wave (km/s) = 5.71031 8.16395 7.04477
#
# Compressibility (1/GPa) = 0.02226787
#
# Stress axis : x y z
#
# Youngs Moduli (GPa) = 59.21033 58.77928 26.95495
#
# Poissons Ratio (x) = -0.08930 0.48320
# Poissons Ratio (y) = -0.08996 0.21454
# Poissons Ratio (z) = 1.06142 0.46784
#
# Static dielectric constant tensor:
#      x y z
#    x 1.852700 -0.104310 0.040350 
#    y -0.104310 1.874030 -0.047070 
#    z 0.040350 -0.047070 1.898230 
# 
# From -- ./inp_files/15431.got.cif
#   From: 2010.05.17/outbox.cif.g08.bks.cpg/sg2_8_cif.got.tgz:15431.got - 2010.06.03 11:33:40.
