data_PCOD9030899
_publ_section_title
;
Structure prediction by ZEFSAII (Michael W. Deem and Ramdas Pophale) SiO2 
 PCOD9030899
Probable space group: P -1
;
_chemical_formula_sum "Si O2"
_cell_formula_units_Z 16
_cell_length_a 12.191569
_cell_length_b 18.404789
_cell_length_c 9.014187
_cell_angle_alpha 39.250529
_cell_angle_beta 148.013094
_cell_angle_gamma 121.970640
_cell_volume 627.090585
_symmetry_space_group_name_H-M "P -1"
_symmetry_group_IT_number 2
_symmetry_cell_setting 'triclinic'
loop_
_space_group_symop_operation_xyz
x,y,z
-x,-y,-z
loop_
_atom_site_type_symbol
_atom_site_label
_atom_site_fract_x
_atom_site_fract_y
_atom_site_fract_z
Si Si1 0.871644 0.966722 0.541140
Si Si2 0.750592 0.337122 0.801503
Si Si3 0.854651 0.564208 0.531902
Si Si4 0.366761 0.141809 0.754800
Si Si5 0.911883 0.896528 0.258478
Si Si6 0.431584 0.364068 0.626602
Si Si7 0.568723 0.353504 0.271736
Si Si8 0.132812 0.722955 0.542522
O O1 0.009372 0.989261 0.803420
O O2 0.810968 0.853938 0.584365
O O3 0.619287 0.063386 0.121564
O O4 0.000000 0.000000 0.500000
O O5 0.874206 0.424481 0.745635
O O6 0.550587 0.422201 0.549207
O O7 0.641764 0.292046 0.611721
O O8 0.915018 0.222548 0.263761
O O9 0.771314 0.584123 0.574177
O O10 0.058106 0.607380 0.673253
O O11 0.651082 0.649097 0.057107
O O12 0.363358 0.272829 0.590821
O O13 0.311428 0.080810 0.938968
O O14 0.938528 0.841548 0.209697
O O15 0.642447 0.290248 0.090595
O O16 0.780624 0.295335 0.497769
O O17 0.500000 0.500000 0.000000
#
# Coordination Sequence:
#
# PCOD9030899 Si02
#       8
#     2   2   2   2   2   2   2   2
#     4   9  18  31  53  79 112 133 161 210 271 324
#     4  10  20  35  49  76 112 140 174 226 259 304
#     4  10  20  36  53  72 104 148 184 214 262 305
#     4  10  17  32  52  81 110 135 163 213 273 317
#     4  10  19  33  52  84 108 131 176 221 263 309
#     4  10  19  33  53  80 108 131 178 223 261 311
#     4   9  21  38  50  70 103 147 191 220 253 306
#     4  10  19  34  52  72 103 140 184 217 254 309
#
# _framework density 25.514654
#
# number of rings (size 3 to 8) (size 9 to 14) (size 15 to 20)
#    0.000    2.250    3.750    0.375    0.000    5.000 
#    9.000    0.000    0.000    0.000    0.000   15.750 
#    0.000    0.125    0.000    0.000    0.000    0.000 
#
# Total GULP energy -89295.653297 kJ/mol
# GULP energy per Si atom -5580.978331 kJ/mol
# Density = 2.545658 g / cm^3
# Si number density = 25.514654 Si / 1000 Ang^3
#
#
#
# Elastic Constant Matrix: (Units=GPa)
#
#
# Indices 1 2 3 4 5 6 
#
# 1 160.5352 20.1555 50.6579 11.3645 14.3312 -19.9181
# 2 20.1555 96.5382 13.5733 13.6605 4.4835 0.3008
# 3 50.6579 13.5733 53.8300 8.7963 13.2662 0.5920
# 4 11.3645 13.6605 8.7963 25.3863 2.8698 7.1194
# 5 14.3312 4.4835 13.2662 2.8698 41.2770 4.3717
# 6 -19.9181 0.3008 0.5920 7.1194 4.3717 47.3588
#
#
#
# Elastic Compliance Matrix: (Units=1/GPa)
#
#
# Indices 1 2 3 4 5 6 
#
# 1 0.009823 -0.000482 -0.008553 -0.002382 -0.000940 0.004686
# 2 -0.000482 0.011467 -0.001461 -0.005587 -0.000285 0.000609
# 3 -0.008553 -0.001461 0.029073 -0.004029 -0.005636 -0.002825
# 4 -0.002382 -0.005587 -0.004029 0.047075 0.000305 -0.008021
# 5 -0.000940 -0.000285 -0.005636 0.000305 0.026674 -0.002831
# 6 0.004686 0.000609 -0.002825 -0.008021 -0.002831 0.024585
#
#
# Mechanical properties :
#
#
# Convention : Reuss Voigt Hill
#
# Bulk Modulus (GPa) = 34.04899 53.29744 43.67322
# Shear Modulus (GPa) = 27.85864 37.90553 32.88208
#
# Velocity S-wave (km/s) = 3.30793 3.85858 3.59381
# Velocity P-wave (km/s) = 5.28807 6.38638 5.86300
#
# Compressibility (1/GPa) = 0.02936944
#
# Stress axis : x y z
#
# Youngs Moduli (GPa) = 101.80674 87.21022 34.39649
#
# Poissons Ratio (x) = 0.04205 0.29419
# Poissons Ratio (y) = 0.04908 0.05026
# Poissons Ratio (z) = 0.87073 0.12744
#
# Static dielectric constant tensor:
#      x y z
#    x 2.048950 -0.045130 -0.002560 
#    y -0.045130 2.063410 -0.045430 
#    z -0.002560 -0.045430 2.092160 
# 
# From -- ./inp_files/277520.got.cif
#   From: 2010.05.17/outbox.cif.g08.bks.cpg/sg2_139_cif.got.tgz:277520.got - 2010.06.03 11:33:40.
