data_PCOD9030304
_publ_section_title
;
Structure prediction by ZEFSAII (Michael W. Deem and Ramdas Pophale) SiO2 
 PCOD9030304
Probable space group: P -1
;
_chemical_formula_sum "Si O2"
_cell_formula_units_Z 10
_cell_length_a 9.392359
_cell_length_b 15.441130
_cell_length_c 5.541376
_cell_angle_alpha 68.825509
_cell_angle_beta 56.366633
_cell_angle_gamma 35.312176
_cell_volume 379.834685
_symmetry_space_group_name_H-M "P -1"
_symmetry_group_IT_number 2
_symmetry_cell_setting 'triclinic'
loop_
_space_group_symop_operation_xyz
x,y,z
-x,-y,-z
loop_
_atom_site_type_symbol
_atom_site_label
_atom_site_fract_x
_atom_site_fract_y
_atom_site_fract_z
Si Si1 0.629767 0.900917 0.724576
Si Si2 0.789618 0.057677 0.937737
Si Si3 0.031213 0.406769 0.763251
Si Si4 0.473330 0.327607 0.666808
Si Si5 0.922143 0.257428 0.179713
O O1 0.952717 0.769396 0.644572
O O2 0.500000 0.000000 0.500000
O O3 0.533865 0.836202 0.835484
O O4 0.500000 0.000000 0.000000
O O5 0.742500 0.166697 0.705857
O O6 0.925249 0.902118 0.889917
O O7 0.000000 0.000000 0.000000
O O8 0.343940 0.298111 0.667938
O O9 0.000000 0.500000 0.500000
O O10 0.780353 0.534108 0.061827
O O11 0.995483 0.311066 0.877144
O O12 0.597553 0.364678 0.381154
#
# Coordination Sequence:
#
# PCOD9030304 Si02
#       5
#     2   2   2   2   2
#     4  10  22  42  70 110 153 199 249 317 396 462
#     4  11  24  44  76 115 150 197 253 330 391 465
#     4  11  27  50  74 105 155 205 255 320 382 472
#     4  11  25  47  73 112 148 194 262 313 390 470
#     4  11  24  49  78 111 154 202 259 322 391 467
#
# _framework density 26.327244
#
# number of rings (size 3 to 8) (size 9 to 14) (size 15 to 20)
#    0.000    1.200    2.000    2.400    2.800    5.600 
#    7.200    0.000    0.000    0.000    0.000    0.000 
#    0.000    0.000    0.000    0.000    0.000    0.000 
#
# Total GULP energy -55724.135587 kJ/mol
# GULP energy per Si atom -5572.413559 kJ/mol
# Density = 2.626732 g / cm^3
# Si number density = 26.327244 Si / 1000 Ang^3
#
#
#
# Elastic Constant Matrix: (Units=GPa)
#
#
# Indices 1 2 3 4 5 6 
#
# 1 206.8573 42.2232 74.1195 -10.5748 -31.2332 -3.4032
# 2 42.2232 106.3923 20.7273 -16.5000 5.3251 -0.4223
# 3 74.1195 20.7273 116.1481 -23.8472 -32.6278 -15.6656
# 4 -10.5748 -16.5000 -23.8472 50.9035 -2.0529 5.1157
# 5 -31.2332 5.3251 -32.6278 -2.0529 61.6919 -3.7207
# 6 -3.4032 -0.4223 -15.6656 5.1157 -3.7207 37.2447
#
#
#
# Elastic Compliance Matrix: (Units=1/GPa)
#
#
# Indices 1 2 3 4 5 6 
#
# 1 0.006824 -0.002191 -0.003821 -0.000948 0.001548 -0.000724
# 2 -0.002191 0.010973 -0.000839 0.002714 -0.002473 -0.001048
# 3 -0.003821 -0.000839 0.015000 0.005642 0.006611 0.005836
# 4 -0.000948 0.002714 0.005642 0.023149 0.003006 -0.000562
# 5 0.001548 -0.002473 0.006611 0.003006 0.021080 0.004587
# 6 -0.000724 -0.001048 0.005836 -0.000562 0.004587 0.029762
#
#
# Mechanical properties :
#
#
# Convention : Reuss Voigt Hill
#
# Bulk Modulus (GPa) = 52.36829 78.17086 65.26957
# Shear Modulus (GPa) = 39.41529 49.45652 44.43590
#
# Velocity S-wave (km/s) = 3.87347 4.33890 4.11278
# Velocity P-wave (km/s) = 6.31977 7.40661 6.88467
#
# Compressibility (1/GPa) = 0.01909553
#
# Stress axis : x y z
#
# Youngs Moduli (GPa) = 146.54213 91.13534 66.66467
#
# Poissons Ratio (x) = 0.19968 0.25473
# Poissons Ratio (y) = 0.32108 0.05591
# Poissons Ratio (z) = 0.55994 0.07644
#
# Static dielectric constant tensor:
#      x y z
#    x 2.172160 -0.142590 -0.064240 
#    y -0.142590 2.331020 0.076940 
#    z -0.064240 0.076940 2.580290 
# 
# From -- ./inp_files/29324.got.cif
#   From: 2010.05.17/outbox.cif.g08.bks.cpg/sg2_15_cif.got.tgz:29324.got - 2010.06.03 11:33:40.
