data_PCOD9030422
_publ_section_title
;
Structure prediction by ZEFSAII (Michael W. Deem and Ramdas Pophale) SiO2 
 PCOD9030422
Probable space group: P -1
;
_chemical_formula_sum "Si O2"
_cell_formula_units_Z 14
_cell_length_a 17.068189
_cell_length_b 9.014225
_cell_length_c 5.372670
_cell_angle_alpha 62.566078
_cell_angle_beta 125.705153
_cell_angle_gamma 102.869089
_cell_volume 594.532041
_symmetry_space_group_name_H-M "P -1"
_symmetry_group_IT_number 2
_symmetry_cell_setting 'triclinic'
loop_
_space_group_symop_operation_xyz
x,y,z
-x,-y,-z
loop_
_atom_site_type_symbol
_atom_site_label
_atom_site_fract_x
_atom_site_fract_y
_atom_site_fract_z
Si Si1 0.892075 0.948486 0.858929
Si Si2 0.816310 0.598996 0.991231
Si Si3 0.701757 0.664757 0.239755
Si Si4 0.422694 0.575091 0.095855
Si Si5 0.261978 0.988292 0.104484
Si Si6 0.455241 0.930688 0.723495
Si Si7 0.773295 0.259374 0.143769
O O1 0.845485 0.968376 0.031708
O O2 0.825657 0.087506 0.476829
O O3 0.879764 0.753945 0.919401
O O4 0.000000 0.000000 0.000000
O O5 0.734259 0.603396 0.619455
O O6 0.778260 0.631005 0.177804
O O7 0.850063 0.403012 0.187231
O O8 0.613434 0.568822 0.039482
O O9 0.699284 0.865555 0.106973
O O10 0.500000 0.500000 0.500000
O O11 0.464688 0.731191 0.912898
O O12 0.323070 0.662394 0.961073
O O13 0.341743 0.989076 0.467362
O O14 0.263634 0.802791 0.141803
O O15 0.500000 0.000000 0.500000
O O16 0.500000 0.000000 0.000000
#
# Coordination Sequence:
#
# PCOD9030422 Si02
#       7
#     2   2   2   2   2   2   2
#     4  11  25  47  74 106 144 191 245 308 375 439
#     4  10  23  43  70 106 139 185 241 295 364 438
#     4  10  22  42  70  98 144 188 233 302 357 427
#     4  11  24  46  71 108 147 196 252 301 367 449
#     4  11  23  45  73 102 147 189 243 305 368 435
#     4  12  26  42  69 105 142 193 244 295 363 438
#     4  11  23  45  75  99 149 193 239 303 374 429
#
# _framework density 23.547934000000001
#
# number of rings (size 3 to 8) (size 9 to 14) (size 15 to 20)
#    0.000    1.143    2.857    2.571    2.000    4.571 
#    0.000    7.143    0.000    0.000    0.000    0.000 
#    0.000    0.000    0.000    0.000    0.000    0.000 
#
# Total GULP energy -78147.319761 kJ/mol
# GULP energy per Si atom -5581.951412 kJ/mol
# Density = 2.349434 g / cm^3
# Si number density = 23.547934 Si / 1000 Ang^3
#
#
#
# Elastic Constant Matrix: (Units=GPa)
#
#
# Indices 1 2 3 4 5 6 
#
# 1 112.5672 66.5352 38.8378 10.6489 3.2756 15.0176
# 2 66.5352 213.8041 21.0506 -6.6164 -0.7880 29.8174
# 3 38.8378 21.0506 70.7700 -5.6383 -11.0211 16.0299
# 4 10.6489 -6.6164 -5.6383 43.4314 7.5114 -16.2164
# 5 3.2756 -0.7880 -11.0211 7.5114 32.3021 -0.9655
# 6 15.0176 29.8174 16.0299 -16.2164 -0.9655 38.5380
#
#
#
# Elastic Compliance Matrix: (Units=1/GPa)
#
#
# Indices 1 2 3 4 5 6 
#
# 1 0.014391 -0.003652 -0.007202 -0.005311 -0.002833 -0.002092
# 2 -0.003652 0.006228 0.001120 0.000519 0.000675 -0.003626
# 3 -0.007202 0.001120 0.020291 0.001138 0.007241 -0.005840
# 4 -0.005311 0.000519 0.001138 0.030786 -0.005801 0.014004
# 5 -0.002833 0.000675 0.007241 -0.005801 0.034962 -0.003996
# 6 -0.002092 -0.003626 -0.005840 0.014004 -0.003996 0.037791
#
#
# Mechanical properties :
#
#
# Convention : Reuss Voigt Hill
#
# Bulk Modulus (GPa) = 46.64052 72.22094 59.43073
# Shear Modulus (GPa) = 29.22895 40.90214 35.06554
#
# Velocity S-wave (km/s) = 3.52696 4.17222 3.86309
# Velocity P-wave (km/s) = 6.03619 7.34481 6.72242
#
# Compressibility (1/GPa) = 0.02144058
#
# Stress axis : x y z
#
# Youngs Moduli (GPa) = 69.48707 160.57196 49.28409
#
# Poissons Ratio (x) = 0.58648 0.35493
# Poissons Ratio (y) = 0.25380 -0.05518
# Poissons Ratio (z) = 0.50042 -0.17979
#
# Static dielectric constant tensor:
#      x y z
#    x 1.963040 -0.013710 -0.046010 
#    y -0.013710 1.902910 -0.061890 
#    z -0.046010 -0.061890 1.985220 
# 
# From -- ./inp_files/106424.got.cif
#   From: 2010.05.17/outbox.cif.g08.bks.cpg/sg2_54_cif.got.tgz:106424.got - 2010.06.03 11:33:40.
