data_PCOD9030757
_publ_section_title
;
Structure prediction by ZEFSAII (Michael W. Deem and Ramdas Pophale) SiO2 
 PCOD9030757
Probable space group: P -1
;
_chemical_formula_sum "Si O2"
_cell_formula_units_Z 16
_cell_length_a 4.999812
_cell_length_b 14.661263
_cell_length_c 9.332679
_cell_angle_alpha 76.360645
_cell_angle_beta 99.485964
_cell_angle_gamma 108.756939
_cell_volume 626.567749
_symmetry_space_group_name_H-M "P -1"
_symmetry_group_IT_number 2
_symmetry_cell_setting 'triclinic'
loop_
_space_group_symop_operation_xyz
x,y,z
-x,-y,-z
loop_
_atom_site_type_symbol
_atom_site_label
_atom_site_fract_x
_atom_site_fract_y
_atom_site_fract_z
Si Si1 0.885809 0.072678 0.565595
Si Si2 0.238337 0.565024 0.105832
Si Si3 0.645720 0.713019 0.750504
Si Si4 0.861890 0.242585 0.015702
Si Si5 0.535550 0.343973 0.544249
Si Si6 0.544000 0.106380 0.269716
Si Si7 0.735628 0.480395 0.273740
Si Si8 0.031212 0.249768 0.703491
O O1 0.757649 0.128051 0.414161
O O2 0.066843 0.153568 0.660456
O O3 0.644608 0.003612 0.673808
O O4 0.000000 0.000000 0.500000
O O5 0.322504 0.681427 0.043458
O O6 0.048856 0.545767 0.241776
O O7 0.500112 0.522479 0.164510
O O8 0.344228 0.628726 0.766456
O O9 0.683988 0.704153 0.587895
O O10 0.641065 0.820526 0.750421
O O11 0.882969 0.697957 0.880728
O O12 0.973410 0.228488 0.873947
O O13 0.700972 0.141944 0.120936
O O14 0.680888 0.449400 0.445634
O O15 0.763493 0.283634 0.608832
O O16 0.323349 0.333531 0.662060
O O17 0.000000 0.500000 0.000000
#
# Coordination Sequence:
#
# PCOD9030757 Si02
#       8
#     2   2   2   2   2   2   2   2
#     4  11  24  46  76 103 130 182 246 282 335 438
#     4  12  22  41  64 107 139 184 239 286 342 407
#     4  10  22  42  73  99 137 186 245 280 345 408
#     4  12  28  40  70 105 151 178 222 301 365 405
#     4  10  23  46  73  96 140 195 240 279 339 422
#     4  11  23  43  72 103 132 183 237 282 347 424
#     4  10  23  39  73  94 133 187 251 283 316 404
#     4  12  26  46  69 109 145 184 224 296 367 406
#
# _framework density 25.535945999999999
#
# number of rings (size 3 to 8) (size 9 to 14) (size 15 to 20)
#    0.750    0.250    2.500    4.125    5.250    0.500 
#    0.000    6.250    0.000    0.000    0.000    0.000 
#    0.000    0.000    0.000    0.000    0.000    0.000 
#
# Total GULP energy -89464.563906 kJ/mol
# GULP energy per Si atom -5591.535244 kJ/mol
# Density = 2.547782 g / cm^3
# Si number density = 25.535946 Si / 1000 Ang^3
#
#
#
# Elastic Constant Matrix: (Units=GPa)
#
#
# Indices 1 2 3 4 5 6 
#
# 1 87.2650 14.0758 51.2337 -22.9384 -1.4396 -5.5656
# 2 14.0758 78.1175 47.2076 -2.2473 -12.1574 8.6305
# 3 51.2337 47.2076 190.5848 -16.9707 -25.6810 -2.3969
# 4 -22.9384 -2.2473 -16.9707 51.6111 9.3349 -11.3607
# 5 -1.4396 -12.1574 -25.6810 9.3349 53.2046 -8.5979
# 6 -5.5656 8.6305 -2.3969 -11.3607 -8.5979 34.5739
#
#
#
# Elastic Compliance Matrix: (Units=1/GPa)
#
#
# Indices 1 2 3 4 5 6 
#
# 1 0.015897 -0.001354 -0.003524 0.007221 -0.002120 0.004498
# 2 -0.001354 0.015965 -0.003672 -0.002460 0.001479 -0.004898
# 3 -0.003524 -0.003672 0.007574 0.000637 0.002902 0.001805
# 4 0.007221 -0.002460 0.000637 0.025293 -0.002979 0.009391
# 5 -0.002120 0.001479 0.002902 -0.002979 0.021628 0.003890
# 6 0.004498 -0.004898 0.001805 0.009391 0.003890 0.035049
#
#
# Mechanical properties :
#
#
# Convention : Reuss Voigt Hill
#
# Bulk Modulus (GPa) = 44.77070 64.55572 54.66321
# Shear Modulus (GPa) = 34.25806 44.10796 39.18301
#
# Velocity S-wave (km/s) = 3.66671 4.16058 3.92142
# Velocity P-wave (km/s) = 5.95792 6.95814 6.47737
#
# Compressibility (1/GPa) = 0.02233604
#
# Stress axis : x y z
#
# Youngs Moduli (GPa) = 62.90539 62.63828 132.02531
#
# Poissons Ratio (x) = 0.08481 0.46529
# Poissons Ratio (y) = 0.08517 0.48477
# Poissons Ratio (z) = 0.22169 0.22999
#
# Static dielectric constant tensor:
#      x y z
#    x 2.093050 -0.008460 -0.056010 
#    y -0.008460 2.048270 0.021890 
#    z -0.056010 0.021890 2.128970 
# 
# From -- ./inp_files/137509.got.cif
#   From: 2010.05.17/outbox.cif.g08.bks.cpg/sg2_69_cif.got.tgz:137509.got - 2010.06.03 11:33:40.
