data_PCOD9030328
_publ_section_title
;
Structure prediction by ZEFSAII (Michael W. Deem and Ramdas Pophale) SiO2 
 PCOD9030328
Probable space group: P -1
;
_chemical_formula_sum "Si O2"
_cell_formula_units_Z 14
_cell_length_a 5.361788
_cell_length_b 14.436441
_cell_length_c 25.710143
_cell_angle_alpha 20.911707
_cell_angle_beta 120.999196
_cell_angle_gamma 124.592861
_cell_volume 583.947797
_symmetry_space_group_name_H-M "P -1"
_symmetry_group_IT_number 2
_symmetry_cell_setting 'triclinic'
loop_
_space_group_symop_operation_xyz
x,y,z
-x,-y,-z
loop_
_atom_site_type_symbol
_atom_site_label
_atom_site_fract_x
_atom_site_fract_y
_atom_site_fract_z
Si Si1 0.796744 0.490918 0.830695
Si Si2 0.999482 0.635845 0.509869
Si Si3 0.763674 0.712255 0.947468
Si Si4 0.063684 0.372806 0.816492
Si Si5 0.165396 0.918426 0.483765
Si Si6 0.826250 0.767950 0.323074
Si Si7 0.277033 0.902997 0.169929
O O1 0.430650 0.425815 0.832909
O O2 0.879820 0.341640 0.867029
O O3 0.938051 0.811333 0.665744
O O4 0.972274 0.418943 0.936964
O O5 0.162371 0.842068 0.462765
O O6 0.200493 0.532733 0.543198
O O7 0.777681 0.744626 0.392103
O O8 0.853643 0.355644 0.670913
O O9 0.674177 0.832211 0.928914
O O10 0.500000 0.500000 0.000000
O O11 0.876885 0.980447 0.783588
O O12 0.004250 0.644880 0.640985
O O13 0.930233 0.147291 0.876382
O O14 0.500000 0.000000 0.500000
O O15 0.600675 0.867947 0.209162
#
# Coordination Sequence:
#
# PCOD9030328 Si02
#       7
#     2   2   2   2   2   2   2
#     4  11  25  45  68 102 140 186 224 282 345 414
#     4   9  20  41  65 103 126 177 230 286 348 398
#     4  11  28  45  63  99 139 186 232 274 344 421
#     4  10  24  44  73 100 135 175 239 287 346 399
#     4   9  20  39  66  99 136 172 224 287 345 403
#     4  10  22  42  70  92 137 178 233 285 342 403
#     4  10  23  42  71  97 133 176 230 296 335 410
#
# _framework density 23.974746
#
# number of rings (size 3 to 8) (size 9 to 14) (size 15 to 20)
#    0.000    2.000    0.000    0.857   12.000    4.000 
#    7.714    0.000    0.000    0.000    0.000    0.000 
#    0.000    0.000    0.000    0.000    0.000    0.000 
#
# Total GULP energy -78113.719653 kJ/mol
# GULP energy per Si atom -5579.551404 kJ/mol
# Density = 2.392018 g / cm^3
# Si number density = 23.974746 Si / 1000 Ang^3
#
#
#
# Elastic Constant Matrix: (Units=GPa)
#
#
# Indices 1 2 3 4 5 6 
#
# 1 60.9501 41.3122 23.9935 -0.6429 -2.3092 -3.8635
# 2 41.3122 211.0101 64.1263 1.3615 4.9829 -10.4602
# 3 23.9935 64.1263 103.5604 8.5954 10.3998 -5.4053
# 4 -0.6429 1.3615 8.5954 50.9108 -8.5462 3.0042
# 5 -2.3092 4.9829 10.3998 -8.5462 34.9752 5.4954
# 6 -3.8635 -10.4602 -5.4053 3.0042 5.4954 27.2855
#
#
#
# Elastic Compliance Matrix: (Units=1/GPa)
#
#
# Indices 1 2 3 4 5 6 
#
# 1 0.019810 -0.002991 -0.003128 0.001335 0.002944 0.000299
# 2 -0.002991 0.006361 -0.003150 0.000180 -0.000349 0.001441
# 3 -0.003128 -0.003150 0.013192 -0.003122 -0.004800 0.002273
# 4 0.001335 0.000180 -0.003122 0.021586 0.006914 -0.004130
# 5 0.002944 -0.000349 -0.004800 0.006914 0.033229 -0.008122
# 6 0.000299 0.001441 0.002273 -0.004130 -0.008122 0.039785
#
#
# Mechanical properties :
#
#
# Convention : Reuss Voigt Hill
#
# Bulk Modulus (GPa) = 48.02397 70.48719 59.25558
# Shear Modulus (GPa) = 31.35924 39.04022 35.19973
#
# Velocity S-wave (km/s) = 3.62057 4.03971 3.83587
# Velocity P-wave (km/s) = 6.12802 7.15705 6.66243
#
# Compressibility (1/GPa) = 0.02082293
#
# Stress axis : x y z
#
# Youngs Moduli (GPa) = 50.47877 157.21746 75.80606
#
# Poissons Ratio (x) = 0.47025 0.23715
# Poissons Ratio (y) = 0.15099 0.23881
# Poissons Ratio (z) = 0.15792 0.49527
#
# Static dielectric constant tensor:
#      x y z
#    x 2.137570 0.060130 0.085070 
#    y 0.060130 1.878770 0.062680 
#    z 0.085070 0.062680 2.107090 
# 
# From -- ./inp_files/118335.got.cif
#   From: 2010.05.17/outbox.cif.g08.bks.cpg/sg2_60_cif.got.tgz:118335.got - 2010.06.03 11:33:40.
