data_PCOD9030188
_publ_section_title
;
Structure prediction by ZEFSAII (Michael W. Deem and Ramdas Pophale) SiO2 
 PCOD9030188
Probable space group: P -1
;
_chemical_formula_sum "Si O2"
_cell_formula_units_Z 16
_cell_length_a 8.380403
_cell_length_b 22.164891
_cell_length_c 19.730672
_cell_angle_alpha 21.454780
_cell_angle_beta 137.379051
_cell_angle_gamma 147.116162
_cell_volume 708.262101
_symmetry_space_group_name_H-M "P -1"
_symmetry_group_IT_number 2
_symmetry_cell_setting 'triclinic'
loop_
_space_group_symop_operation_xyz
x,y,z
-x,-y,-z
loop_
_atom_site_type_symbol
_atom_site_label
_atom_site_fract_x
_atom_site_fract_y
_atom_site_fract_z
Si Si1 0.648320 0.887925 0.352250
Si Si2 0.665795 0.780404 0.617885
Si Si3 0.367495 0.677303 0.232427
Si Si4 0.679933 0.483096 0.471070
Si Si5 0.758645 0.006849 0.613441
Si Si6 0.199137 0.928273 0.116403
Si Si7 0.130227 0.601373 0.732318
Si Si8 0.730188 0.431173 0.036779
O O1 0.562996 0.774337 0.516388
O O2 0.512514 0.722300 0.421350
O O3 0.477483 0.989014 0.187731
O O4 0.013003 0.024202 0.317669
O O5 0.444068 0.757247 0.627996
O O6 0.657472 0.584409 0.835175
O O7 0.000000 0.000000 0.500000
O O8 0.518217 0.577007 0.352628
O O9 0.249199 0.586432 0.365229
O O10 0.091826 0.592444 0.184124
O O11 0.621814 0.931192 0.041244
O O12 0.958667 0.675387 0.312795
O O13 0.968666 0.251407 0.444982
O O14 0.500000 0.000000 0.500000
O O15 0.558867 0.814976 0.803937
O O16 0.000000 0.000000 0.000000
O O17 0.172119 0.541592 0.882071
O O18 0.000000 0.500000 0.000000
#
# Coordination Sequence:
#
# PCOD9030188 Si02
#       8
#     2   2   2   2   2   2   2   2
#     4  12  24  45  74 100 142 193 233 288 364 422
#     4  12  26  42  67 103 143 187 235 294 354 424
#     4  10  22  42  70 100 140 177 233 297 368 414
#     4  10  22  46  67 101 139 181 234 300 353 432
#     4  10  22  44  68 100 140 183 234 293 347 424
#     4  10  24  44  70 102 142 182 243 297 351 430
#     4  11  22  42  68  96 142 185 229 293 367 419
#     4  11  24  43  66  99 142 182 241 295 344 433
#
# _framework density 22.590506999999999
#
# number of rings (size 3 to 8) (size 9 to 14) (size 15 to 20)
#    0.000    1.250    1.250    5.250    3.500    0.500 
#    4.500    0.000    0.000    0.000    0.000    0.000 
#    0.000    0.000    0.000    0.000    0.000    0.000 
#
# Total GULP energy -89230.650173 kJ/mol
# GULP energy per Si atom -5576.915636 kJ/mol
# Density = 2.253909 g / cm^3
# Si number density = 22.590507 Si / 1000 Ang^3
#
#
#
# Elastic Constant Matrix: (Units=GPa)
#
#
# Indices 1 2 3 4 5 6 
#
# 1 93.3951 29.9994 11.1916 28.7454 -15.3665 7.8340
# 2 29.9994 86.2738 26.1410 13.1561 -12.5259 0.9025
# 3 11.1916 26.1410 129.2206 20.4018 -15.8034 -0.3884
# 4 28.7454 13.1561 20.4018 34.6709 8.2310 0.5445
# 5 -15.3665 -12.5259 -15.8034 8.2310 41.4876 7.4866
# 6 7.8340 0.9025 -0.3884 0.5445 7.4866 46.5444
#
#
#
# Elastic Compliance Matrix: (Units=1/GPa)
#
#
# Indices 1 2 3 4 5 6 
#
# 1 0.020235 -0.003038 0.003736 -0.020844 0.013070 -0.005174
# 2 -0.003038 0.013995 -0.001832 -0.002403 0.002918 -0.000217
# 3 0.003736 -0.001832 0.010224 -0.010055 0.006993 -0.001515
# 4 -0.020844 -0.002403 -0.010055 0.058822 -0.025179 0.006833
# 5 0.013070 0.002918 0.006993 -0.025179 0.038959 -0.008170
# 6 -0.005174 -0.000217 -0.001515 0.006833 -0.008170 0.023581
#
#
# Mechanical properties :
#
#
# Convention : Reuss Voigt Hill
#
# Bulk Modulus (GPa) = 23.70531 49.28372 36.49452
# Shear Modulus (GPa) = 27.45025 40.64442 34.04734
#
# Velocity S-wave (km/s) = 3.48964 4.24628 3.88642
# Velocity P-wave (km/s) = 5.17234 6.77530 6.02734
#
# Compressibility (1/GPa) = 0.04218464
#
# Stress axis : x y z
#
# Youngs Moduli (GPa) = 49.41909 71.45455 97.80904
#
# Poissons Ratio (x) = 0.21708 -0.36539
# Poissons Ratio (y) = 0.15013 0.17923
# Poissons Ratio (z) = -0.18462 0.13094
#
# Static dielectric constant tensor:
#      x y z
#    x 1.818070 -0.026420 0.031240 
#    y -0.026420 1.929760 -0.046910 
#    z 0.031240 -0.046910 1.843450 
# 
# From -- ./inp_files/591952.got.cif
#   From: 2010.05.17/outbox.cif.g08.bks.cpg/sg2_296_cif.got.tgz:591952.got - 2010.06.03 11:33:40.
