data_PCOD9030493
_publ_section_title
;
Structure prediction by ZEFSAII (Michael W. Deem and Ramdas Pophale) SiO2 
 PCOD9030493
Probable space group: P -1
;
_chemical_formula_sum "Si O2"
_cell_formula_units_Z 14
_cell_length_a 9.253806
_cell_length_b 7.974440
_cell_length_c 9.517911
_cell_angle_alpha 99.666304
_cell_angle_beta 74.894661
_cell_angle_gamma 118.058558
_cell_volume 597.549986
_symmetry_space_group_name_H-M "P -1"
_symmetry_group_IT_number 2
_symmetry_cell_setting 'triclinic'
loop_
_space_group_symop_operation_xyz
x,y,z
-x,-y,-z
loop_
_atom_site_type_symbol
_atom_site_label
_atom_site_fract_x
_atom_site_fract_y
_atom_site_fract_z
Si Si1 0.355929 0.844545 0.924367
Si Si2 0.655334 0.554239 0.076794
Si Si3 0.570594 0.679888 0.405543
Si Si4 0.962538 0.622176 0.400645
Si Si5 0.326492 0.767958 0.618364
Si Si6 0.973551 0.178673 0.878918
Si Si7 0.094113 0.958763 0.624547
O O1 0.321104 0.635473 0.950792
O O2 0.419861 0.855004 0.750622
O O3 0.186512 0.867007 0.990348
O O4 0.500000 0.000000 0.000000
O O5 0.579613 0.606377 0.240255
O O6 0.852182 0.716742 0.061692
O O7 0.500000 0.500000 0.000000
O O8 0.500000 0.500000 0.500000
O O9 0.450460 0.783401 0.463777
O O10 0.754112 0.836631 0.422565
O O11 0.785052 0.459306 0.372178
O O12 0.042417 0.698529 0.235479
O O13 0.000000 0.500000 0.500000
O O14 0.999349 0.815382 0.502304
O O15 0.198485 0.855789 0.648221
O O16 0.981180 0.000281 0.772184
#
# Coordination Sequence:
#
# PCOD9030493 Si02
#       7
#     2   2   2   2   2   2   2
#     4  12  28  45  71 102 149 197 247 299 375 437
#     4  11  26  48  72 107 144 193 243 299 382 430
#     4  11  22  44  74 100 145 188 240 314 356 437
#     4  10  22  42  71 106 137 188 245 299 368 428
#     4  11  23  45  67 107 144 189 247 300 360 444
#     4  11  24  48  72 101 153 192 242 307 361 450
#     4  10  24  41  73 107 138 186 247 297 378 427
#
# _framework density 23.429003999999999
#
# number of rings (size 3 to 8) (size 9 to 14) (size 15 to 20)
#    0.000    1.143    2.857    2.143    6.000    4.000 
#    2.571    0.000    0.000    0.000    0.000    0.000 
#    0.000    0.000    0.000    0.000    0.000    0.000 
#
# Total GULP energy -78013.066576 kJ/mol
# GULP energy per Si atom -5572.361898 kJ/mol
# Density = 2.337568 g / cm^3
# Si number density = 23.429004 Si / 1000 Ang^3
#
#
#
# Elastic Constant Matrix: (Units=GPa)
#
#
# Indices 1 2 3 4 5 6 
#
# 1 112.1638 19.6094 82.6199 9.7068 -10.4048 -1.5020
# 2 19.6094 91.7865 61.5683 30.6829 1.3084 2.6980
# 3 82.6199 61.5683 146.8601 32.9938 2.3210 28.9207
# 4 9.7068 30.6829 32.9938 40.1464 4.4786 5.8539
# 5 -10.4048 1.3084 2.3210 4.4786 58.3003 9.8627
# 6 -1.5020 2.6980 28.9207 5.8539 9.8627 27.1120
#
#
#
# Elastic Compliance Matrix: (Units=1/GPa)
#
#
# Indices 1 2 3 4 5 6 
#
# 1 0.023783 0.008017 -0.021875 0.002656 0.000845 0.022973
# 2 0.008017 0.021452 -0.014752 -0.008494 -0.000530 0.016072
# 3 -0.021875 -0.014752 0.033457 -0.006039 0.001420 -0.034645
# 4 0.002656 -0.008494 -0.006039 0.035880 -0.001916 0.000385
# 5 0.000845 -0.000530 0.001420 -0.001916 0.018728 -0.007814
# 6 0.022973 0.016072 -0.034645 0.000385 -0.007814 0.076274
#
#
# Mechanical properties :
#
#
# Convention : Reuss Voigt Hill
#
# Bulk Modulus (GPa) = 46.57095 75.37839 60.97467
# Shear Modulus (GPa) = 18.25149 37.57926 27.91537
#
# Velocity S-wave (km/s) = 2.79411 4.00930 3.45554
# Velocity P-wave (km/s) = 5.50727 7.32636 6.48096
#
# Compressibility (1/GPa) = 0.02147261
#
# Stress axis : x y z
#
# Youngs Moduli (GPa) = 42.04651 46.61585 29.88926
#
# Poissons Ratio (x) = -0.37372 0.65382
# Poissons Ratio (y) = -0.33708 0.44092
# Poissons Ratio (z) = 0.91976 0.68766
#
# Static dielectric constant tensor:
#      x y z
#    x 2.000900 -0.061570 0.013000 
#    y -0.061570 1.955000 -0.037420 
#    z 0.013000 -0.037420 1.876830 
# 
# From -- ./inp_files/415615.got.cif
#   From: 2010.05.17/outbox.cif.g08.bks.cpg/sg2_208_cif.got.tgz:415615.got - 2010.06.03 11:33:40.
