data_PCOD9030160
_publ_section_title
;
Structure prediction by ZEFSAII (Michael W. Deem and Ramdas Pophale) SiO2 
 PCOD9030160
Probable space group: P -1
;
_chemical_formula_sum "Si O2"
_cell_formula_units_Z 13
_cell_length_a 8.990133
_cell_length_b 13.983104
_cell_length_c 11.687656
_cell_angle_alpha 150.334729
_cell_angle_beta 134.060420
_cell_angle_gamma 60.075184
_cell_volume 499.081173
_symmetry_space_group_name_H-M "P -1"
_symmetry_group_IT_number 2
_symmetry_cell_setting 'triclinic'
loop_
_space_group_symop_operation_xyz
x,y,z
-x,-y,-z
loop_
_atom_site_type_symbol
_atom_site_label
_atom_site_fract_x
_atom_site_fract_y
_atom_site_fract_z
Si Si1 0.904969 0.502699 0.825200
Si Si2 0.475910 0.836118 0.658165
Si Si3 0.074833 0.331208 0.546153
Si Si4 0.034127 0.093590 0.988288
Si Si5 0.506372 0.490385 0.853694
Si Si6 0.000000 0.500000 0.500000
Si Si7 0.237417 0.157942 0.814059
O O1 0.698586 0.309082 0.502850
O O2 0.085567 0.467009 0.802553
O O3 0.823526 0.696940 0.973687
O O4 0.000000 0.500000 0.000000
O O5 0.714835 0.870129 0.866766
O O6 0.461104 0.706390 0.396278
O O7 0.393445 0.027543 0.793948
O O8 0.240009 0.444070 0.646629
O O9 0.872658 0.337591 0.368140
O O10 0.094311 0.112697 0.362152
O O11 0.973747 0.298001 0.179475
O O12 0.000000 0.000000 0.000000
O O13 0.500000 0.500000 0.000000
O O14 0.642113 0.687419 0.062408
O O15 0.000000 0.000000 0.500000
#
# Coordination Sequence:
#
# PCOD9030160 Si02
#       7
#     2   2   2   2   2   1   2
#     4  11  24  46  69 101 151 180 235 297 356 425
#     4  11  23  44  68  99 141 189 232 289 361 428
#     4  11  24  43  72 105 139 187 231 302 354 421
#     4  10  22  42  69  99 140 183 228 297 343 421
#     4  11  25  42  70 105 141 181 243 300 356 421
#     4  10  22  44  68 102 144 172 240 286 354 412
#     4  11  25  44  69  99 141 193 232 291 357 429
#
# _framework density 26.047868999999999
#
# number of rings (size 3 to 8) (size 9 to 14) (size 15 to 20)
#    0.000    1.231    4.615    1.846    4.308    2.462 
#    0.000    1.538    0.000    0.000    0.000    0.000 
#    0.000    0.000    0.000    0.000    0.000    0.000 
#
# Total GULP energy -72437.261759 kJ/mol
# GULP energy per Si atom -5572.097058 kJ/mol
# Density = 2.598858 g / cm^3
# Si number density = 26.047869 Si / 1000 Ang^3
#
#
#
# Elastic Constant Matrix: (Units=GPa)
#
#
# Indices 1 2 3 4 5 6 
#
# 1 154.9268 26.0898 61.3617 17.6563 -13.2987 -21.7916
# 2 26.0898 90.5854 49.7618 36.3279 -24.7730 -19.0308
# 3 61.3617 49.7618 137.3178 45.5874 -10.0156 -6.2145
# 4 17.6563 36.3279 45.5874 55.3451 -16.9874 -19.4715
# 5 -13.2987 -24.7730 -10.0156 -16.9874 70.2337 -2.3866
# 6 -21.7916 -19.0308 -6.2145 -19.4715 -2.3866 41.1632
#
#
#
# Elastic Compliance Matrix: (Units=1/GPa)
#
#
# Indices 1 2 3 4 5 6 
#
# 1 0.008990 0.000600 -0.005041 0.003785 0.002321 0.006200
# 2 0.000600 0.017774 -0.004601 -0.004465 0.004851 0.006009
# 3 -0.005041 -0.004601 0.014235 -0.010999 -0.003481 -0.008051
# 4 0.003785 -0.004465 -0.010999 0.036624 0.006975 0.016007
# 5 0.002321 0.004851 -0.003481 0.006975 0.017827 0.007279
# 6 0.006200 0.006009 -0.008051 0.016007 0.007279 0.037133
#
#
# Mechanical properties :
#
#
# Convention : Reuss Voigt Hill
#
# Bulk Modulus (GPa) = 43.64006 73.02850 58.33428
# Shear Modulus (GPa) = 31.58438 49.72285 40.65361
#
# Velocity S-wave (km/s) = 3.48595 4.37384 3.95489
# Velocity P-wave (km/s) = 5.74392 7.32150 6.58016
#
# Compressibility (1/GPa) = 0.02291472
#
# Stress axis : x y z
#
# Youngs Moduli (GPa) = 111.22945 56.26305 70.24739
#
# Poissons Ratio (x) = -0.03374 0.35414
# Poissons Ratio (y) = -0.06669 0.32319
# Poissons Ratio (z) = 0.56074 0.25885
#
# Static dielectric constant tensor:
#      x y z
#    x 2.151200 -0.081680 0.051150 
#    y -0.081680 2.466380 -0.268030 
#    z 0.051150 -0.268030 2.352700 
# 
# From -- ./inp_files/507202.got.cif
#   From: 2010.05.17/outbox.cif.g08.bks.cpg/sg2_254_cif.got.tgz:507202.got - 2010.06.03 11:33:40.
