data_PCOD9030466
_publ_section_title
;
Structure prediction by ZEFSAII (Michael W. Deem and Ramdas Pophale) SiO2 
 PCOD9030466
Probable space group: P -1
;
_chemical_formula_sum "Si O2"
_cell_formula_units_Z 12
_cell_length_a 11.999520
_cell_length_b 8.469214
_cell_length_c 12.011759
_cell_angle_alpha 99.460864
_cell_angle_beta 115.877658
_cell_angle_gamma 135.235626
_cell_volume 512.853054
_symmetry_space_group_name_H-M "P -1"
_symmetry_group_IT_number 2
_symmetry_cell_setting 'triclinic'
loop_
_space_group_symop_operation_xyz
x,y,z
-x,-y,-z
loop_
_atom_site_type_symbol
_atom_site_label
_atom_site_fract_x
_atom_site_fract_y
_atom_site_fract_z
Si Si1 0.089067 0.777381 0.700864
Si Si2 0.525536 0.872834 0.917204
Si Si3 0.734397 0.886103 0.618496
Si Si4 0.329075 0.981768 0.599560
Si Si5 0.213385 0.254958 0.818003
Si Si6 0.707676 0.161531 0.791609
O O1 0.299100 0.984058 0.717591
O O2 0.878191 0.397221 0.557821
O O3 0.027588 0.893074 0.666158
O O4 0.210799 0.904038 0.891767
O O5 0.299113 0.486858 0.794442
O O6 0.541857 0.932484 0.803223
O O7 0.500000 0.000000 0.000000
O O8 0.500000 0.500000 0.500000
O O9 0.727200 0.929245 0.490474
O O10 0.687658 0.999172 0.674955
O O11 0.020969 0.138028 0.801407
O O12 0.604318 0.215963 0.714702
O O13 0.500000 0.500000 0.000000
O O14 0.000000 0.500000 0.000000
#
# Coordination Sequence:
#
# PCOD9030466 Si02
#       6
#     2   2   2   2   2   2
#     4  10  22  42  71 102 133 179 241 291 341 409
#     4  11  21  43  71 102 136 183 240 288 347 422
#     4  12  28  47  70 105 151 188 230 295 369 423
#     4  11  24  43  71  99 141 184 234 289 353 423
#     4  10  24  43  71 100 139 183 242 288 338 419
#     4  12  26  43  72 104 142 188 235 292 361 423
#
# _framework density 23.398515
#
# number of rings (size 3 to 8) (size 9 to 14) (size 15 to 20)
#    0.000    1.000    1.667    4.500    7.000    3.333 
#    0.000    4.167    0.000    0.000    0.000    0.000 
#    0.000    0.000    0.000    0.000    0.000    0.000 
#
# Total GULP energy -66989.890554 kJ/mol
# GULP energy per Si atom -5582.490880 kJ/mol
# Density = 2.334526 g / cm^3
# Si number density = 23.398515 Si / 1000 Ang^3
#
#
#
# Elastic Constant Matrix: (Units=GPa)
#
#
# Indices 1 2 3 4 5 6 
#
# 1 79.4901 9.0161 3.0702 -7.5319 26.4439 0.4136
# 2 9.0161 105.3868 20.6649 -1.9107 11.2545 -16.7092
# 3 3.0702 20.6649 78.4193 -1.5565 22.5149 4.0122
# 4 -7.5319 -1.9107 -1.5565 28.4568 6.9408 -5.0887
# 5 26.4439 11.2545 22.5149 6.9408 35.0988 5.4666
# 6 0.4136 -16.7092 4.0122 -5.0887 5.4666 39.9680
#
#
#
# Elastic Compliance Matrix: (Units=1/GPa)
#
#
# Indices 1 2 3 4 5 6 
#
# 1 0.020912 0.000367 0.005564 0.012051 -0.022445 0.003983
# 2 0.000367 0.011264 -0.002075 0.002757 -0.004008 0.005813
# 3 0.005564 -0.002075 0.017868 0.006341 -0.016292 0.000317
# 4 0.012051 0.002757 0.006341 0.046641 -0.024768 0.009717
# 5 -0.022445 -0.004008 -0.016292 -0.024768 0.063857 -0.011695
# 6 0.003983 0.005813 0.000317 0.009717 -0.011695 0.030214
#
#
# Mechanical properties :
#
#
# Convention : Reuss Voigt Hill
#
# Bulk Modulus (GPa) = 17.31398 36.53318 26.92358
# Shear Modulus (GPa) = 24.71636 36.07437 30.39536
#
# Velocity S-wave (km/s) = 3.25364 3.93076 3.60812
# Velocity P-wave (km/s) = 4.64010 6.02067 5.37490
#
# Compressibility (1/GPa) = 0.05775679
#
# Stress axis : x y z
#
# Youngs Moduli (GPa) = 47.82022 88.77948 55.96549
#
# Poissons Ratio (x) = -0.03256 -0.31141
# Poissons Ratio (y) = -0.01754 0.11611
# Poissons Ratio (z) = -0.26609 0.18418
#
# Static dielectric constant tensor:
#      x y z
#    x 2.270490 0.092160 0.225090 
#    y 0.092160 1.904180 0.069130 
#    z 0.225090 0.069130 2.001790 
# 
# From -- ./inp_files/243781.got.cif
#   From: 2010.05.17/outbox.cif.g08.bks.cpg/sg2_122_cif.got.tgz:243781.got - 2010.06.03 11:33:40.
