data_PCOD9030902
_publ_section_title
;
Structure prediction by ZEFSAII (Michael W. Deem and Ramdas Pophale) SiO2 
 PCOD9030902
Probable space group: P -1
;
_chemical_formula_sum "Si O2"
_cell_formula_units_Z 16
_cell_length_a 5.342978
_cell_length_b 7.440285
_cell_length_c 18.910973
_cell_angle_alpha 93.296747
_cell_angle_beta 106.440272
_cell_angle_gamma 59.392592
_cell_volume 617.155868
_symmetry_space_group_name_H-M "P -1"
_symmetry_group_IT_number 2
_symmetry_cell_setting 'triclinic'
loop_
_space_group_symop_operation_xyz
x,y,z
-x,-y,-z
loop_
_atom_site_type_symbol
_atom_site_label
_atom_site_fract_x
_atom_site_fract_y
_atom_site_fract_z
Si Si1 0.572482 0.436783 0.424155
Si Si2 0.063306 0.674630 0.674185
Si Si3 0.473663 0.977028 0.581084
Si Si4 0.948542 0.404838 0.133374
Si Si5 0.245387 0.064615 0.040520
Si Si6 0.401857 0.555470 0.191633
Si Si7 0.591387 0.037964 0.794140
Si Si8 0.039828 0.268153 0.665312
O O1 0.500000 0.500000 0.500000
O O2 0.876253 0.377960 0.406481
O O3 0.563209 0.223544 0.412982
O O4 0.313482 0.645161 0.368176
O O5 0.371848 0.621034 0.737517
O O6 0.025569 0.482902 0.692354
O O7 0.777208 0.908067 0.650580
O O8 0.500000 0.000000 0.500000
O O9 0.192822 0.178466 0.599160
O O10 0.103804 0.543128 0.156816
O O11 0.605964 0.500736 0.135146
O O12 0.038142 0.302413 0.059980
O O13 0.138559 0.202246 0.196531
O O14 0.437193 0.948815 0.123148
O O15 0.500000 0.000000 0.000000
O O16 0.000000 0.000000 0.000000
O O17 0.329970 0.784382 0.215008
O O18 0.278818 0.094221 0.733286
#
# Coordination Sequence:
#
# PCOD9030902 Si02
#       8
#     2   2   2   2   2   2   2   2
#     4  11  24  40  60  92 131 168 218 289 338 402
#     4  10  24  39  62  88 132 165 219 291 334 400
#     4  11  23  40  62  88 126 172 222 268 344 417
#     4  10  24  42  70 101 140 177 226 284 340 408
#     4  10  22  45  69  99 145 183 223 287 347 410
#     4  11  23  43  68 104 136 177 234 284 343 407
#     4   9  24  42  71  97 138 181 230 286 345 412
#     4  10  22  43  61  93 125 173 227 274 343 408
#
# _framework density 25.925383
#
# number of rings (size 3 to 8) (size 9 to 14) (size 15 to 20)
#    0.750    1.000    0.000    3.000    7.000    7.000 
#    4.500    3.750    0.000    0.000    0.000    0.000 
#    0.000    0.000    0.000    0.000    0.000    0.000 
#
# Total GULP energy -89393.572602 kJ/mol
# GULP energy per Si atom -5587.098288 kJ/mol
# Density = 2.586638 g / cm^3
# Si number density = 25.925383 Si / 1000 Ang^3
#
#
#
# Elastic Constant Matrix: (Units=GPa)
#
#
# Indices 1 2 3 4 5 6 
#
# 1 98.6466 32.7044 14.5333 18.7764 -12.8461 -15.7308
# 2 32.7044 124.4645 -7.2260 16.0565 -3.1382 -0.3483
# 3 14.5333 -7.2260 78.9049 14.7188 -18.1477 -6.2927
# 4 18.7764 16.0565 14.7188 40.1148 -3.2991 -3.9306
# 5 -12.8461 -3.1382 -18.1477 -3.2991 33.6337 8.6138
# 6 -15.7308 -0.3483 -6.2927 -3.9306 8.6138 47.7146
#
#
#
# Elastic Compliance Matrix: (Units=1/GPa)
#
#
# Indices 1 2 3 4 5 6 
#
# 1 0.012875 -0.002843 -0.000961 -0.003978 0.002913 0.003244
# 2 -0.002843 0.009335 0.002093 -0.003202 0.000859 -0.001012
# 3 -0.000961 0.002093 0.015887 -0.005578 0.007876 -0.000088
# 4 -0.003978 -0.003202 -0.005578 0.030024 -0.002082 0.000779
# 5 0.002913 0.000859 0.007876 -0.002082 0.036173 -0.004697
# 6 0.003244 -0.001012 -0.000088 0.000779 -0.004697 0.022920
#
#
# Mechanical properties :
#
#
# Convention : Reuss Voigt Hill
#
# Bulk Modulus (GPa) = 28.83989 42.44882 35.64435
# Shear Modulus (GPa) = 35.16294 41.75957 38.46126
#
# Velocity S-wave (km/s) = 3.68681 4.01778 3.85585
# Velocity P-wave (km/s) = 5.41034 6.15893 5.79673
#
# Compressibility (1/GPa) = 0.03467420
#
# Stress axis : x y z
#
# Youngs Moduli (GPa) = 77.66871 107.12496 62.94447
#
# Poissons Ratio (x) = 0.30457 0.06050
# Poissons Ratio (y) = 0.22082 -0.13173
# Poissons Ratio (z) = 0.07465 -0.22419
#
# Static dielectric constant tensor:
#      x y z
#    x 2.027130 -0.051190 -0.017770 
#    y -0.051190 2.005930 0.035270 
#    z -0.017770 0.035270 2.126070 
# 
# From -- ./inp_files/581987.got.cif
#   From: 2010.05.17/outbox.cif.g08.bks.cpg/sg2_291_cif.got.tgz:581987.got - 2010.06.03 11:33:40.
