data_PCOD9030157
_publ_section_title
;
Structure prediction by ZEFSAII (Michael W. Deem and Ramdas Pophale) SiO2 
 PCOD9030157
Probable space group: P -1
;
_chemical_formula_sum "Si O2"
_cell_formula_units_Z 16
_cell_length_a 9.600542
_cell_length_b 7.939685
_cell_length_c 11.613370
_cell_angle_alpha 100.098023
_cell_angle_beta 119.692428
_cell_angle_gamma 62.099935
_cell_volume 677.774288
_symmetry_space_group_name_H-M "P -1"
_symmetry_group_IT_number 2
_symmetry_cell_setting 'triclinic'
loop_
_space_group_symop_operation_xyz
x,y,z
-x,-y,-z
loop_
_atom_site_type_symbol
_atom_site_label
_atom_site_fract_x
_atom_site_fract_y
_atom_site_fract_z
Si Si1 0.450552 0.222123 0.380580
Si Si2 0.418614 0.230048 0.643798
Si Si3 0.288377 0.857218 0.806209
Si Si4 0.071084 0.434116 0.151631
Si Si5 0.115723 0.282572 0.694831
Si Si6 0.830518 0.209978 0.462156
Si Si7 0.436823 0.519476 0.111393
Si Si8 0.084682 0.824023 0.933200
O O1 0.417118 0.259764 0.509057
O O2 0.278499 0.381934 0.261211
O O3 0.644057 0.222479 0.434759
O O4 0.484170 0.004229 0.336002
O O5 0.224406 0.301654 0.633034
O O6 0.501118 0.351176 0.765344
O O7 0.205342 0.743547 0.680881
O O8 0.493517 0.705763 0.862867
O O9 0.193893 0.876053 0.889706
O O10 0.234153 0.063967 0.758812
O O11 0.923981 0.587802 0.194392
O O12 0.065372 0.239018 0.169294
O O13 0.000000 0.500000 0.000000
O O14 0.917267 0.320449 0.579896
O O15 0.000000 0.000000 0.500000
O O16 0.500000 0.500000 0.000000
O O17 0.227747 0.642834 0.037191
O O18 0.000000 0.000000 0.000000
#
# Coordination Sequence:
#
# PCOD9030157 Si02
#       8
#     2   2   2   2   2   2   2   2
#     4  11  26  46  73 110 151 188 247 311 373 438
#     4  11  24  46  75 111 144 190 248 315 364 439
#     4  10  22  42  69  99 138 190 233 294 353 441
#     4  12  29  46  71 110 149 195 250 303 364 440
#     4  11  24  45  75 106 146 190 243 300 368 440
#     4  10  22  44  70 102 138 187 234 292 375 429
#     4  10  23  43  68 101 140 190 246 288 363 439
#     4  11  24  45  69 100 143 194 239 297 367 432
#
# _framework density 23.606679
#
# number of rings (size 3 to 8) (size 9 to 14) (size 15 to 20)
#    0.000    1.250    2.500    3.000    5.250    6.000 
#    0.000    3.750    0.000    0.000    0.000    0.000 
#    0.000    0.000    0.000    0.000    0.000    0.000 
#
# Total GULP energy -89165.761182 kJ/mol
# GULP energy per Si atom -5572.860074 kJ/mol
# Density = 2.355295 g / cm^3
# Si number density = 23.606679 Si / 1000 Ang^3
#
#
#
# Elastic Constant Matrix: (Units=GPa)
#
#
# Indices 1 2 3 4 5 6 
#
# 1 155.6749 56.6396 51.3225 2.6758 -8.1873 -37.7959
# 2 56.6396 112.8970 43.1638 17.3757 -15.7732 -32.5902
# 3 51.3225 43.1638 89.7963 13.7568 -20.6869 -31.1370
# 4 2.6758 17.3757 13.7568 47.3955 -11.0860 2.2134
# 5 -8.1873 -15.7732 -20.6869 -11.0860 40.0100 7.9744
# 6 -37.7959 -32.5902 -31.1370 2.2134 7.9744 33.4712
#
#
#
# Elastic Compliance Matrix: (Units=1/GPa)
#
#
# Indices 1 2 3 4 5 6 
#
# 1 0.009581 -0.002168 -0.002484 0.000328 -0.001426 0.006715
# 2 -0.002168 0.014334 -0.000862 -0.005103 0.001204 0.010757
# 3 -0.002484 -0.000862 0.019644 -0.004646 0.005296 0.013676
# 4 0.000328 -0.005103 -0.004646 0.026084 0.005252 -0.011897
# 5 -0.001426 0.001204 0.005296 0.005252 0.029967 -0.002999
# 6 0.006715 0.010757 0.013676 -0.011897 -0.002999 0.062156
#
#
# Mechanical properties :
#
#
# Convention : Reuss Voigt Hill
#
# Bulk Modulus (GPa) = 30.73980 73.40221 52.07101
# Shear Modulus (GPa) = 27.22742 37.99150 32.60946
#
# Velocity S-wave (km/s) = 3.39983 4.01603 3.72071
# Velocity P-wave (km/s) = 5.33495 7.25713 6.36897
#
# Compressibility (1/GPa) = 0.03253112
#
# Stress axis : x y z
#
# Youngs Moduli (GPa) = 104.37094 69.76529 50.90602
#
# Poissons Ratio (x) = 0.15127 0.12646
# Poissons Ratio (y) = 0.22631 0.04386
# Poissons Ratio (z) = 0.25927 0.06011
#
# Static dielectric constant tensor:
#      x y z
#    x 1.056700 0.425650 -0.643830 
#    y 0.425650 1.432110 0.647700 
#    z -0.643830 0.647700 1.163620 
# 
# From -- ./inp_files/382740.got.cif
#   From: 2010.05.17/outbox.cif.g08.bks.cpg/sg2_192_cif.got.tgz:382740.got - 2010.06.03 11:33:40.
