data_PCOD9030784
_publ_section_title
;
Structure prediction by ZEFSAII (Michael W. Deem and Ramdas Pophale) SiO2 
 PCOD9030784
Probable space group: P -1
;
_chemical_formula_sum "Si O2"
_cell_formula_units_Z 16
_cell_length_a 7.205302
_cell_length_b 8.886843
_cell_length_c 17.450026
_cell_angle_alpha 62.809388
_cell_angle_beta 101.130704
_cell_angle_gamma 132.752654
_cell_volume 717.968444
_symmetry_space_group_name_H-M "P -1"
_symmetry_group_IT_number 2
_symmetry_cell_setting 'triclinic'
loop_
_space_group_symop_operation_xyz
x,y,z
-x,-y,-z
loop_
_atom_site_type_symbol
_atom_site_label
_atom_site_fract_x
_atom_site_fract_y
_atom_site_fract_z
Si Si1 0.488274 0.223024 0.811502
Si Si2 0.098196 0.221994 0.844771
Si Si3 0.069959 0.581727 0.790522
Si Si4 0.309297 0.239719 0.018993
Si Si5 0.367149 0.088019 0.660928
Si Si6 0.706902 0.236416 0.504213
Si Si7 0.768609 0.628419 0.445675
Si Si8 0.263205 0.736903 0.936237
O O1 0.327693 0.293477 0.795847
O O2 0.503716 0.186574 0.731496
O O3 0.768845 0.417628 0.823823
O O4 0.314967 0.967032 0.892334
O O5 0.069633 0.402807 0.789225
O O6 0.157381 0.227004 0.938822
O O7 0.855394 0.948556 0.882923
O O8 0.245153 0.680166 0.857812
O O9 0.179996 0.812986 0.703629
O O10 0.497059 0.203252 0.016882
O O11 0.500000 0.500000 0.000000
O O12 0.587358 0.194986 0.589553
O O13 0.194247 0.155196 0.627603
O O14 0.723327 0.441417 0.428357
O O15 0.975434 0.294716 0.511339
O O16 0.500000 0.000000 0.500000
O O17 0.500000 0.500000 0.500000
O O18 0.000000 0.500000 0.000000
#
# Coordination Sequence:
#
# PCOD9030784 Si02
#       8
#     2   2   2   2   2   2   2   2
#     4  11  25  42  59  89 128 169 210 266 321 390
#     4  11  24  38  61  88 112 167 215 265 330 375
#     4  11  24  42  59  90 127 170 214 263 323 388
#     4  11  21  38  61  85 118 149 216 283 321 375
#     4  10  25  42  61  96 137 172 205 258 319 380
#     4  10  22  42  74 105 130 170 214 260 309 376
#     4   9  21  43  69 103 135 167 210 258 313 374
#     4  11  22  39  62  87 122 163 213 281 331 378
#
# _framework density 22.285102999999999
#
# number of rings (size 3 to 8) (size 9 to 14) (size 15 to 20)
#    0.000    1.500    2.500    1.500    1.750   11.000 
#    0.000    0.000    0.000    0.000    0.000    0.000 
#    0.000    0.000    0.000    0.000    0.000    0.000 
#
# Total GULP energy -89165.189268 kJ/mol
# GULP energy per Si atom -5572.824329 kJ/mol
# Density = 2.223438 g / cm^3
# Si number density = 22.285103 Si / 1000 Ang^3
#
#
#
# Elastic Constant Matrix: (Units=GPa)
#
#
# Indices 1 2 3 4 5 6 
#
# 1 150.9399 42.4850 37.0126 -19.8514 19.9718 1.3169
# 2 42.4850 111.1485 24.2167 -24.5287 10.2828 -2.4079
# 3 37.0126 24.2167 57.1982 -22.4134 11.9543 -13.3250
# 4 -19.8514 -24.5287 -22.4134 33.1540 -10.5932 0.4523
# 5 19.9718 10.2828 11.9543 -10.5932 32.1777 -7.0463
# 6 1.3169 -2.4079 -13.3250 0.4523 -7.0463 33.4468
#
#
#
# Elastic Compliance Matrix: (Units=1/GPa)
#
#
# Indices 1 2 3 4 5 6 
#
# 1 0.008952 -0.002218 -0.005224 -0.001044 -0.004000 -0.003422
# 2 -0.002218 0.011477 -0.000686 0.006799 0.000338 0.000620
# 3 -0.005224 -0.000686 0.030570 0.016981 0.000362 0.012182
# 4 -0.001044 0.006799 0.016981 0.049217 0.010296 0.008799
# 5 -0.004000 0.000338 0.000362 0.010296 0.038525 0.008303
# 6 -0.003422 0.000620 0.012182 0.008799 0.008303 0.036561
#
#
# Mechanical properties :
#
#
# Convention : Reuss Voigt Hill
#
# Bulk Modulus (GPa) = 28.78281 58.52389 43.65335
# Shear Modulus (GPa) = 24.61364 34.12720 29.37042
#
# Velocity S-wave (km/s) = 3.32699 3.91754 3.63428
# Velocity P-wave (km/s) = 5.26329 6.83969 6.10260
#
# Compressibility (1/GPa) = 0.03474296
#
# Stress axis : x y z
#
# Youngs Moduli (GPa) = 111.70266 87.13241 32.71161
#
# Poissons Ratio (x) = 0.19327 0.17089
# Poissons Ratio (y) = 0.24777 0.02244
# Poissons Ratio (z) = 0.58355 0.05977
#
# Static dielectric constant tensor:
#      x y z
#    x 1.926070 -0.004390 0.013950 
#    y -0.004390 1.842690 -0.027060 
#    z 0.013950 -0.027060 1.944080 
# 
# From -- ./inp_files/582350.got.cif
#   From: 2010.05.17/outbox.cif.g08.bks.cpg/sg2_292_cif.got.tgz:582350.got - 2010.06.03 11:33:40.
