data_PCOD9030314
_publ_section_title
;
Structure prediction by ZEFSAII (Michael W. Deem and Ramdas Pophale) SiO2 
 PCOD9030314
Probable space group: P -1
;
_chemical_formula_sum "Si O2"
_cell_formula_units_Z 14
_cell_length_a 8.461302
_cell_length_b 16.283529
_cell_length_c 16.227817
_cell_angle_alpha 25.567659
_cell_angle_beta 131.514073
_cell_angle_gamma 115.148074
_cell_volume 610.374742
_symmetry_space_group_name_H-M "P -1"
_symmetry_group_IT_number 2
_symmetry_cell_setting 'triclinic'
loop_
_space_group_symop_operation_xyz
x,y,z
-x,-y,-z
loop_
_atom_site_type_symbol
_atom_site_label
_atom_site_fract_x
_atom_site_fract_y
_atom_site_fract_z
Si Si1 0.313091 0.713076 0.798275
Si Si2 0.949730 0.948964 0.729094
Si Si3 0.298710 0.632522 0.451567
Si Si4 0.528088 0.021910 0.634372
Si Si5 0.717586 0.485285 0.861424
Si Si6 0.430600 0.852769 0.055456
Si Si7 0.270437 0.078355 0.028497
O O1 0.431650 0.859760 0.728827
O O2 0.500000 0.500000 0.000000
O O3 0.260581 0.627255 0.941636
O O4 0.081253 0.882615 0.506833
O O5 0.685989 0.031382 0.604856
O O6 0.069932 0.699969 0.957457
O O7 0.141881 0.939378 0.870948
O O8 0.458060 0.556847 0.659775
O O9 0.414508 0.412893 0.633752
O O10 0.004779 0.739863 0.263394
O O11 0.324908 0.833613 0.243627
O O12 0.307562 0.276729 0.349622
O O13 0.712418 0.924851 0.864325
O O14 0.526689 0.875920 0.978037
O O15 0.500000 0.000000 0.000000
#
# Coordination Sequence:
#
# PCOD9030314 Si02
#       7
#     2   2   2   2   2   2   2
#     4  12  25  45  70  97 132 176 222 270 336 391
#     4  11  25  46  66 100 133 172 225 274 324 393
#     4   9  21  42  66  94 129 174 220 262 326 388
#     4  11  24  46  69  95 135 174 222 270 331 392
#     4  10  23  45  68  97 135 170 223 273 323 391
#     4  11  25  41  65 100 135 169 218 271 328 388
#     4  10  22  42  70  91 133 177 215 267 332 381
#
# _framework density 22.936727999999999
#
# number of rings (size 3 to 8) (size 9 to 14) (size 15 to 20)
#    0.000    1.429    1.429    3.000    6.000    2.286 
#   15.429    0.000    0.000    0.000    0.000    0.000 
#    0.000    0.000    0.000    0.000    0.000    0.000 
#
# Total GULP energy -78345.500315 kJ/mol
# GULP energy per Si atom -5596.107165 kJ/mol
# Density = 2.288452 g / cm^3
# Si number density = 22.936728 Si / 1000 Ang^3
#
#
#
# Elastic Constant Matrix: (Units=GPa)
#
#
# Indices 1 2 3 4 5 6 
#
# 1 45.3329 6.8793 7.3196 0.5255 -7.2103 2.4941
# 2 6.8793 142.1337 54.4364 -35.2776 3.8663 8.3402
# 3 7.3196 54.4364 120.7492 -13.6600 5.1835 1.6935
# 4 0.5255 -35.2776 -13.6600 38.6100 0.0873 -8.3826
# 5 -7.2103 3.8663 5.1835 0.0873 25.9432 0.0706
# 6 2.4941 8.3402 1.6935 -8.3826 0.0706 35.1105
#
#
#
# Elastic Compliance Matrix: (Units=1/GPa)
#
#
# Indices 1 2 3 4 5 6 
#
# 1 0.023743 -0.001295 -0.001408 -0.002435 0.007087 -0.001907
# 2 -0.001295 0.010651 -0.003719 0.008381 -0.001232 -0.000255
# 3 -0.001408 -0.003719 0.010155 0.000344 -0.001869 0.000580
# 4 -0.002435 0.008381 0.000344 0.035142 -0.002131 0.006560
# 5 0.007087 -0.001232 -0.001869 -0.002131 0.041081 -0.000712
# 6 -0.001907 -0.000255 0.000580 0.006560 -0.000712 0.030217
#
#
# Mechanical properties :
#
#
# Convention : Reuss Voigt Hill
#
# Bulk Modulus (GPa) = 31.54084 49.49847 40.51965
# Shear Modulus (GPa) = 28.66944 35.90478 32.28711
#
# Velocity S-wave (km/s) = 3.53928 3.96079 3.75595
# Velocity P-wave (km/s) = 5.52115 6.52261 6.04266
#
# Compressibility (1/GPa) = 0.03170493
#
# Stress axis : x y z
#
# Youngs Moduli (GPa) = 42.11729 93.88551 98.47847
#
# Poissons Ratio (x) = 0.12158 0.13869
# Poissons Ratio (y) = 0.05454 0.36621
# Poissons Ratio (z) = 0.05932 0.34913
#
# Static dielectric constant tensor:
#      x y z
#    x 1.837780 -0.033950 -0.001680 
#    y -0.033950 1.882520 0.011780 
#    z -0.001680 0.011780 1.851970 
# 
# From -- ./inp_files/337950.got.cif
#   From: 2010.05.17/outbox.cif.g08.bks.cpg/sg2_169_cif.got.tgz:337950.got - 2010.06.03 11:33:40.
