data_PCOD9030187
_publ_section_title
;
Structure prediction by ZEFSAII (Michael W. Deem and Ramdas Pophale) SiO2 
 PCOD9030187
Probable space group: P -1
;
_chemical_formula_sum "Si O2"
_cell_formula_units_Z 15
_cell_length_a 19.925341
_cell_length_b 15.110411
_cell_length_c 8.787248
_cell_angle_alpha 46.726280
_cell_angle_beta 137.554304
_cell_angle_gamma 162.125257
_cell_volume 546.239073
_symmetry_space_group_name_H-M "P -1"
_symmetry_group_IT_number 2
_symmetry_cell_setting 'triclinic'
loop_
_space_group_symop_operation_xyz
x,y,z
-x,-y,-z
loop_
_atom_site_type_symbol
_atom_site_label
_atom_site_fract_x
_atom_site_fract_y
_atom_site_fract_z
Si Si1 0.376795 0.931344 0.077062
Si Si2 0.668050 0.958039 0.386575
Si Si3 0.500000 0.500000 0.500000
Si Si4 0.241471 0.806640 0.459175
Si Si5 0.042353 0.716130 0.934042
Si Si6 0.064632 0.259471 0.786199
Si Si7 0.794521 0.643687 0.781901
Si Si8 0.625521 0.602561 0.932311
O O1 0.178712 0.606700 0.117897
O O2 0.423491 0.025093 0.871416
O O3 0.253903 0.923025 0.929193
O O4 0.575984 0.102295 0.322953
O O5 0.491216 0.658472 0.381539
O O6 0.638608 0.954803 0.518905
O O7 0.941566 0.226327 0.520379
O O8 0.799081 0.789072 0.661947
O O9 0.478288 0.432636 0.730112
O O10 0.000000 0.500000 0.500000
O O11 0.152676 0.765707 0.204042
O O12 0.946799 0.742414 0.795302
O O13 0.840422 0.934074 0.862186
O O14 0.185759 0.420286 0.962345
O O15 0.254475 0.395387 0.851059
O O16 0.500000 0.500000 0.000000
#
# Coordination Sequence:
#
# PCOD9030187 Si02
#       8
#     2   2   1   2   2   2   2   2
#     4  11  25  39  61  97 131 172 226 277 335 414
#     4  12  22  40  65  93 131 176 218 275 345 407
#     4  10  22  42  70 100 140 176 226 292 340 414
#     4  12  22  40  64  90 125 180 220 270 340 402
#     4  11  23  42  61  93 136 170 222 283 336 407
#     4  10  23  43  67  98 137 174 229 287 344 414
#     4  11  22  42  67  94 132 179 219 276 345 400
#     4  10  22  46  72  99 136 182 233 291 353 413
#
# _framework density 27.460505000000001
#
# number of rings (size 3 to 8) (size 9 to 14) (size 15 to 20)
#    0.000    1.067    5.333    1.600    0.000    1.067 
#    4.800    6.000    0.000    0.000    0.000    0.000 
#    0.000    0.000    0.000    0.000    0.000    0.000 
#
# Total GULP energy -83595.248196 kJ/mol
# GULP energy per Si atom -5573.016546 kJ/mol
# Density = 2.739800 g / cm^3
# Si number density = 27.460505 Si / 1000 Ang^3
#
#
#
# Elastic Constant Matrix: (Units=GPa)
#
#
# Indices 1 2 3 4 5 6 
#
# 1 173.4438 26.5147 68.6291 15.5525 35.2953 37.0998
# 2 26.5147 55.3009 32.5516 16.9852 -5.6987 3.8855
# 3 68.6291 32.5516 213.9685 42.7669 21.0049 13.9025
# 4 15.5525 16.9852 42.7669 37.7202 3.6998 5.1833
# 5 35.2953 -5.6987 21.0049 3.6998 65.5370 11.7184
# 6 37.0998 3.8855 13.9025 5.1833 11.7184 37.2371
#
#
#
# Elastic Compliance Matrix: (Units=1/GPa)
#
#
# Indices 1 2 3 4 5 6 
#
# 1 0.009154 -0.003533 -0.001841 0.001224 -0.003437 -0.007153
# 2 -0.003533 0.023473 -0.001326 -0.008235 0.004608 0.001262
# 3 -0.001841 -0.001326 0.006793 -0.006331 -0.001060 0.000651
# 4 0.001224 -0.008235 -0.006331 0.037384 -0.000937 -0.002905
# 5 -0.003437 0.004608 -0.001060 -0.000937 0.018313 -0.002293
# 6 -0.007153 0.001262 0.000651 -0.002905 -0.002293 0.034733
#
#
# Mechanical properties :
#
#
# Convention : Reuss Voigt Hill
#
# Bulk Modulus (GPa) = 38.43285 77.56710 57.99998
# Shear Modulus (GPa) = 32.91161 49.10006 41.00583
#
# Velocity S-wave (km/s) = 3.46570 4.23309 3.86847
# Velocity P-wave (km/s) = 5.48095 7.22497 6.41253
#
# Compressibility (1/GPa) = 0.02601941
#
# Stress axis : x y z
#
# Youngs Moduli (GPa) = 109.24483 42.60252 147.20959
#
# Poissons Ratio (x) = 0.15050 0.27102
# Poissons Ratio (y) = 0.38593 0.19525
# Poissons Ratio (z) = 0.20112 0.05650
#
# Static dielectric constant tensor:
#      x y z
#    x 2.873410 -0.240210 0.111010 
#    y -0.240210 2.357140 -0.083120 
#    z 0.111010 -0.083120 2.338510 
# 
# From -- ./inp_files/348462.got.cif
#   From: 2010.05.17/outbox.cif.g08.bks.cpg/sg2_175_cif.got.tgz:348462.got - 2010.06.03 11:33:40.
