data_PCOD9030021
_publ_section_title
;
Structure prediction by ZEFSAII (Michael W. Deem and Ramdas Pophale) SiO2 
 PCOD9030021
Probable space group: P -1
;
_chemical_formula_sum "Si O2"
_cell_formula_units_Z 16
_cell_length_a 6.216383
_cell_length_b 17.094220
_cell_length_c 23.874107
_cell_angle_alpha 18.554642
_cell_angle_beta 94.580382
_cell_angle_gamma 105.289232
_cell_volume 648.157022
_symmetry_space_group_name_H-M "P -1"
_symmetry_group_IT_number 2
_symmetry_cell_setting 'triclinic'
loop_
_space_group_symop_operation_xyz
x,y,z
-x,-y,-z
loop_
_atom_site_type_symbol
_atom_site_label
_atom_site_fract_x
_atom_site_fract_y
_atom_site_fract_z
Si Si1 0.041423 0.763520 0.972586
Si Si2 0.326915 0.510140 0.146866
Si Si3 0.742163 0.664627 0.240727
Si Si4 0.195712 0.390878 0.589988
Si Si5 0.142770 0.250859 0.493217
Si Si6 0.758346 0.999876 0.429169
Si Si7 0.777706 0.326024 0.366619
Si Si8 0.703760 0.699064 0.919962
O O1 0.930930 0.669638 0.970634
O O2 0.861637 0.521042 0.180837
O O3 0.043544 0.049675 0.794796
O O4 0.317681 0.797142 0.964301
O O5 0.356473 0.327024 0.320549
O O6 0.519703 0.612060 0.029246
O O7 0.025728 0.252585 0.293863
O O8 0.786938 0.601889 0.347052
O O9 0.431215 0.551237 0.312988
O O10 0.736123 0.465175 0.325778
O O11 0.000000 0.000000 0.000000
O O12 0.500000 0.500000 0.500000
O O13 0.000000 0.500000 0.500000
O O14 0.182036 0.012965 0.625830
O O15 0.020845 0.321440 0.392059
O O16 0.898096 0.055820 0.663398
O O17 0.500731 0.002170 0.426485
O O18 0.500000 0.500000 0.000000
#
# Coordination Sequence:
#
# PCOD9030021 Si02
#       8
#     2   2   2   2   2   2   2   2
#     4  12  27  47  76 108 147 209 266 323 397 487
#     4  11  24  42  74 105 155 205 267 316 390 476
#     4  11  26  50  79 111 148 200 267 334 399 476
#     4  12  31  54  82 118 161 211 263 340 415 483
#     4  11  25  45  71 112 149 197 254 330 388 472
#     4  10  22  42  69 111 149 202 258 314 381 469
#     4  11  24  44  77 107 152 198 263 320 391 474
#     4  12  27  46  69 111 158 203 251 327 399 478
#
# _framework density 24.685376999999999
#
# number of rings (size 3 to 8) (size 9 to 14) (size 15 to 20)
#    0.000    0.750    5.000    0.750    7.000    4.500 
#    0.000    0.000    0.000    0.000    0.000    0.000 
#    0.000    0.000    0.000    0.000    0.000    0.000 
#
# Total GULP energy -89128.057283 kJ/mol
# GULP energy per Si atom -5570.503580 kJ/mol
# Density = 2.462919 g / cm^3
# Si number density = 24.685377 Si / 1000 Ang^3
#
#
#
# Elastic Constant Matrix: (Units=GPa)
#
#
# Indices 1 2 3 4 5 6 
#
# 1 122.1221 32.7773 57.9061 7.6570 -24.7645 10.5891
# 2 32.7773 126.4977 46.7560 26.7148 -21.0189 6.2626
# 3 57.9061 46.7560 110.6174 12.7976 -21.2373 8.1387
# 4 7.6570 26.7148 12.7976 41.8395 -0.7479 -2.5962
# 5 -24.7645 -21.0189 -21.2373 -0.7479 38.7889 -4.6691
# 6 10.5891 6.2626 8.1387 -2.5962 -4.6691 54.3574
#
#
#
# Elastic Compliance Matrix: (Units=1/GPa)
#
#
# Indices 1 2 3 4 5 6 
#
# 1 0.011655 -0.000300 -0.005000 -0.000403 0.004397 -0.001129
# 2 -0.000300 0.011069 -0.003007 -0.006066 0.003957 -0.000716
# 3 -0.005000 -0.003007 0.013610 -0.001317 0.002536 -0.000562
# 4 -0.000403 -0.006066 -0.001317 0.028315 -0.003476 0.002028
# 5 0.004397 0.003957 0.002536 -0.003476 0.032162 0.000904
# 6 -0.001129 -0.000716 -0.000562 0.002028 0.000904 0.018958
#
#
# Mechanical properties :
#
#
# Convention : Reuss Voigt Hill
#
# Bulk Modulus (GPa) = 50.71605 70.45732 60.58668
# Shear Modulus (GPa) = 35.98264 41.78369 38.88317
#
# Velocity S-wave (km/s) = 3.82206 4.11865 3.97312
# Velocity P-wave (km/s) = 6.32986 7.15694 6.75607
#
# Compressibility (1/GPa) = 0.01971762
#
# Stress axis : x y z
#
# Youngs Moduli (GPa) = 85.80103 90.34564 73.47762
#
# Poissons Ratio (x) = 0.02711 0.36742
# Poissons Ratio (y) = 0.02574 0.22097
# Poissons Ratio (z) = 0.42904 0.27169
#
# Static dielectric constant tensor:
#      x y z
#    x 2.147610 0.014140 -0.081790 
#    y 0.014140 1.936020 -0.055260 
#    z -0.081790 -0.055260 1.919970 
# 
# From -- ./inp_files/604972.got.cif
#   From: 2010.05.17/outbox.cif.g08.bks.cpg/sg2_303_cif.got.tgz:604972.got - 2010.06.03 11:33:40.
