data_PCOD9030175
_publ_section_title
;
Structure prediction by ZEFSAII (Michael W. Deem and Ramdas Pophale) SiO2 
 PCOD9030175
Probable space group: P -1
;
_chemical_formula_sum "Si O2"
_cell_formula_units_Z 15
_cell_length_a 9.236283
_cell_length_b 9.506548
_cell_length_c 19.136239
_cell_angle_alpha 129.352288
_cell_angle_beta 50.197941
_cell_angle_gamma 150.478353
_cell_volume 622.765599
_symmetry_space_group_name_H-M "P -1"
_symmetry_group_IT_number 2
_symmetry_cell_setting 'triclinic'
loop_
_space_group_symop_operation_xyz
x,y,z
-x,-y,-z
loop_
_atom_site_type_symbol
_atom_site_label
_atom_site_fract_x
_atom_site_fract_y
_atom_site_fract_z
Si Si1 0.598958 0.868260 0.911028
Si Si2 0.116941 0.312555 0.794259
Si Si3 0.936721 0.528944 0.843422
Si Si4 0.674226 0.214589 0.333341
Si Si5 0.656323 0.829657 0.413621
Si Si6 0.500000 0.500000 0.500000
Si Si7 0.297542 0.114628 0.966096
Si Si8 0.791636 0.301422 0.589995
O O1 0.421001 0.636567 0.830192
O O2 0.583731 0.748605 0.950596
O O3 0.938275 0.137288 0.864598
O O4 0.500000 0.000000 0.000000
O O5 0.155811 0.158982 0.690676
O O6 0.939346 0.323927 0.804858
O O7 0.591896 0.339080 0.895926
O O8 0.119621 0.686714 0.764295
O O9 0.152928 0.804151 0.915450
O O10 0.564817 0.339660 0.397580
O O11 0.892103 0.376301 0.384587
O O12 0.394560 0.878954 0.337508
O O13 0.553917 0.631271 0.447989
O O14 0.392766 0.713775 0.410667
O O15 0.828009 0.130273 0.489986
O O16 0.000000 0.000000 0.000000
#
# Coordination Sequence:
#
# PCOD9030175 Si02
#       8
#     2   2   2   2   2   1   2   2
#     4  12  24  44  70  97 137 176 227 289 352 405
#     4  12  24  42  73 103 131 179 239 286 334 417
#     4  12  23  45  70 102 139 174 237 288 338 412
#     4  11  24  44  70 103 137 191 222 290 336 413
#     4  10  24  45  69 106 136 189 226 289 337 411
#     4  10  22  42  70 100 136 176 234 266 346 400
#     4  12  27  45  69 100 138 180 223 288 358 416
#     4  10  25  45  68  98 153 178 230 278 352 403
#
# _framework density 24.086107999999999
#
# number of rings (size 3 to 8) (size 9 to 14) (size 15 to 20)
#    0.000    0.800    4.000    2.400    0.000   13.333 
#    2.400    0.000    0.000    0.000    0.000    0.000 
#    0.000    0.000    0.000    0.000    0.000    0.000 
#
# Total GULP energy -83697.431907 kJ/mol
# GULP energy per Si atom -5579.828794 kJ/mol
# Density = 2.403129 g / cm^3
# Si number density = 24.086108 Si / 1000 Ang^3
#
#
#
# Elastic Constant Matrix: (Units=GPa)
#
#
# Indices 1 2 3 4 5 6 
#
# 1 69.4332 11.5154 37.0466 -11.5714 1.9228 -16.9521
# 2 11.5154 78.9339 13.7219 -19.0013 -8.7580 0.7458
# 3 37.0466 13.7219 112.7292 -32.5590 1.3102 -9.5338
# 4 -11.5714 -19.0013 -32.5590 32.9820 0.3294 12.6446
# 5 1.9228 -8.7580 1.3102 0.3294 22.5084 0.6165
# 6 -16.9521 0.7458 -9.5338 12.6446 0.6165 35.9791
#
#
#
# Elastic Compliance Matrix: (Units=1/GPa)
#
#
# Indices 1 2 3 4 5 6 
#
# 1 0.020229 -0.003467 -0.006946 -0.005459 -0.002859 0.009730
# 2 -0.003467 0.016666 0.002229 0.012823 0.006628 -0.006008
# 3 -0.006946 0.002229 0.014922 0.015409 0.000498 -0.004789
# 4 -0.005459 0.012823 0.015409 0.058376 0.004234 -0.019343
# 5 -0.002859 0.006628 0.000498 0.004234 0.047260 -0.003651
# 6 0.009730 -0.006008 -0.004789 -0.019343 -0.003651 0.038095
#
#
# Mechanical properties :
#
#
# Convention : Reuss Voigt Hill
#
# Bulk Modulus (GPa) = 28.21032 42.85157 35.53095
# Shear Modulus (GPa) = 22.34819 31.54807 26.94813
#
# Velocity S-wave (km/s) = 3.04936 3.62305 3.34851
# Velocity P-wave (km/s) = 4.91282 5.94404 5.45286
#
# Compressibility (1/GPa) = 0.03544802
#
# Stress axis : x y z
#
# Youngs Moduli (GPa) = 49.43515 60.00210 67.01549
#
# Poissons Ratio (x) = 0.20802 0.46552
# Poissons Ratio (y) = 0.17139 -0.14938
# Poissons Ratio (z) = 0.34340 -0.13375
#
# Static dielectric constant tensor:
#      x y z
#    x 1.854360 -0.043060 -0.050590 
#    y -0.043060 1.768450 -0.063700 
#    z -0.050590 -0.063700 1.915220 
# 
# From -- ./inp_files/588111.got.cif
#   From: 2010.05.17/outbox.cif.g08.bks.cpg/sg2_295_cif.got.tgz:588111.got - 2010.06.03 11:33:40.
