data_PCOD9030440
_publ_section_title
;
Structure prediction by ZEFSAII (Michael W. Deem and Ramdas Pophale) SiO2 
 PCOD9030440
Probable space group: P -1
;
_chemical_formula_sum "Si O2"
_cell_formula_units_Z 12
_cell_length_a 7.436327
_cell_length_b 7.379711
_cell_length_c 13.287238
_cell_angle_alpha 79.074271
_cell_angle_beta 60.242861
_cell_angle_gamma 117.576284
_cell_volume 470.495266
_symmetry_space_group_name_H-M "P -1"
_symmetry_group_IT_number 2
_symmetry_cell_setting 'triclinic'
loop_
_space_group_symop_operation_xyz
x,y,z
-x,-y,-z
loop_
_atom_site_type_symbol
_atom_site_label
_atom_site_fract_x
_atom_site_fract_y
_atom_site_fract_z
Si Si1 0.749189 0.005840 0.411534
Si Si2 0.391390 0.298884 0.828074
Si Si3 0.699835 0.130538 0.836312
Si Si4 0.102682 0.116025 0.129731
Si Si5 0.091818 0.233292 0.457026
Si Si6 0.189069 0.561896 0.577400
O O1 0.939704 0.154302 0.246000
O O2 0.919370 0.288514 0.425464
O O3 0.893689 0.965941 0.464267
O O4 0.512860 0.717691 0.467797
O O5 0.542238 0.184278 0.802445
O O6 0.604533 0.567262 0.695220
O O7 0.310068 0.303513 0.965478
O O8 0.125682 0.118548 0.851654
O O9 0.002269 0.392744 0.741645
O O10 0.756770 0.946573 0.825467
O O11 0.500000 0.000000 0.000000
O O12 0.067996 0.353936 0.548828
O O13 0.500000 0.000000 0.500000
#
# Coordination Sequence:
#
# PCOD9030440 Si02
#       6
#     2   2   2   2   2   2
#     4  11  24  42  71 101 139 195 227 297 359 414
#     4  10  22  44  71 101 146 181 234 302 346 419
#     4  10  22  42  70  99 139 186 228 290 353 417
#     4  10  22  43  74 102 136 189 238 289 356 420
#     4  12  25  41  67 104 140 188 236 290 356 421
#     4  11  24  44  67 100 149 180 238 296 352 423
#
# _framework density 25.505040999999999
#
# number of rings (size 3 to 8) (size 9 to 14) (size 15 to 20)
#    0.000    1.333    3.333    1.500    2.333    2.000 
#    3.000    0.000    0.000    4.000    0.000    0.000 
#    0.000    0.000    0.000    0.000    0.000    0.000 
#
# Total GULP energy -66841.248926 kJ/mol
# GULP energy per Si atom -5570.104077 kJ/mol
# Density = 2.544699 g / cm^3
# Si number density = 25.505041 Si / 1000 Ang^3
#
#
#
# Elastic Constant Matrix: (Units=GPa)
#
#
# Indices 1 2 3 4 5 6 
#
# 1 90.4757 44.5709 40.8077 10.7643 11.3512 -20.9594
# 2 44.5709 103.5657 54.8810 12.0495 11.5168 -31.1225
# 3 40.8077 54.8810 201.4522 6.7842 -6.7122 -11.3293
# 4 10.7643 12.0495 6.7842 44.8639 -6.3962 -0.7835
# 5 11.3512 11.5168 -6.7122 -6.3962 43.4064 -5.5456
# 6 -20.9594 -31.1225 -11.3293 -0.7835 -5.5456 54.6974
#
#
#
# Elastic Compliance Matrix: (Units=1/GPa)
#
#
# Indices 1 2 3 4 5 6 
#
# 1 0.015266 -0.004087 -0.001840 -0.002700 -0.003236 0.002777
# 2 -0.004087 0.015677 -0.003089 -0.003111 -0.003216 0.006344
# 3 -0.001840 -0.003089 0.006178 0.000638 0.002229 -0.000948
# 4 -0.002700 -0.003111 0.000638 0.024356 0.004987 -0.001818
# 5 -0.003236 -0.003216 0.002229 0.004987 0.025827 0.000082
# 6 0.002777 0.006344 -0.000948 -0.001818 0.000082 0.022742
#
#
# Mechanical properties :
#
#
# Convention : Reuss Voigt Hill
#
# Bulk Modulus (GPa) = 52.38219 75.11253 63.74736
# Shear Modulus (GPa) = 37.19135 45.60915 41.40025
#
# Velocity S-wave (km/s) = 3.82278 4.23335 4.03329
# Velocity P-wave (km/s) = 6.32988 7.30814 6.83653
#
# Compressibility (1/GPa) = 0.01909046
#
# Stress axis : x y z
#
# Youngs Moduli (GPa) = 65.50445 63.78695 161.87611
#
# Poissons Ratio (x) = 0.26068 0.29782
# Poissons Ratio (y) = 0.26770 0.49999
# Poissons Ratio (z) = 0.12052 0.19702
#
# Static dielectric constant tensor:
#      x y z
#    x 2.001670 -0.026350 0.034500 
#    y -0.026350 2.349770 -0.021840 
#    z 0.034500 -0.021840 2.016530 
# 
# From -- ./inp_files/492720.got.cif
#   From: 2010.05.17/outbox.cif.g08.bks.cpg/sg2_247_cif.got.tgz:492720.got - 2010.06.03 11:33:40.
