data_PCOD9030581
_publ_section_title
;
Structure prediction by ZEFSAII (Michael W. Deem and Ramdas Pophale) SiO2 
 PCOD9030581
Probable space group: P -1
;
_chemical_formula_sum "Si O2"
_cell_formula_units_Z 16
_cell_length_a 5.306381
_cell_length_b 9.200631
_cell_length_c 27.299646
_cell_angle_alpha 40.474973
_cell_angle_beta 89.633298
_cell_angle_gamma 64.641647
_cell_volume 655.741885
_symmetry_space_group_name_H-M "P -1"
_symmetry_group_IT_number 2
_symmetry_cell_setting 'triclinic'
loop_
_space_group_symop_operation_xyz
x,y,z
-x,-y,-z
loop_
_atom_site_type_symbol
_atom_site_label
_atom_site_fract_x
_atom_site_fract_y
_atom_site_fract_z
Si Si1 0.325190 0.899482 0.497069
Si Si2 0.868532 0.263136 0.037620
Si Si3 0.131047 0.592788 0.696432
Si Si4 0.581844 0.332829 0.593699
Si Si5 0.227437 0.592339 0.202583
Si Si6 0.052696 0.349303 0.116013
Si Si7 0.780676 0.218141 0.220618
Si Si8 0.712894 0.786506 0.301220
O O1 0.567522 0.550897 0.576215
O O2 0.500000 0.000000 0.500000
O O3 0.000000 0.000000 0.500000
O O4 0.178154 0.068056 0.402468
O O5 0.078938 0.230973 0.092016
O O6 0.500000 0.500000 0.000000
O O7 0.993808 0.944225 0.107273
O O8 0.913123 0.409264 0.955565
O O9 0.475027 0.512916 0.732164
O O10 0.167145 0.441762 0.683332
O O11 0.006664 0.476672 0.763840
O O12 0.500000 0.500000 0.500000
O O13 0.297008 0.329152 0.616245
O O14 0.929896 0.997579 0.683875
O O15 0.437094 0.405301 0.202576
O O16 0.752719 0.448800 0.125843
O O17 0.328989 0.057661 0.220547
O O18 0.837314 0.967791 0.250811
#
# Coordination Sequence:
#
# PCOD9030581 Si02
#       8
#     2   2   2   2   2   2   2   2
#     4  12  25  44  71 107 137 186 250 303 351 416
#     4  11  23  44  73 110 134 185 240 301 350 436
#     4  12  25  47  71 103 143 190 245 301 351 432
#     4  11  26  45  68 102 145 192 237 301 360 430
#     4  12  28  45  74 106 146 188 240 296 365 427
#     4  10  22  42  72 100 140 178 238 284 365 424
#     4  11  26  45  69 102 145 195 228 295 370 431
#     4  11  23  45  70 100 140 191 239 286 365 425
#
# _framework density 24.399846
#
# number of rings (size 3 to 8) (size 9 to 14) (size 15 to 20)
#    0.000    0.750    2.500    4.500    8.750    1.000 
#    0.000    2.500    0.000    0.000    0.000    0.000 
#    0.000    0.000    0.000    0.000    0.000    0.000 
#
# Total GULP energy -89386.730820 kJ/mol
# GULP energy per Si atom -5586.670676 kJ/mol
# Density = 2.434431 g / cm^3
# Si number density = 24.399846 Si / 1000 Ang^3
#
#
#
# Elastic Constant Matrix: (Units=GPa)
#
#
# Indices 1 2 3 4 5 6 
#
# 1 75.8786 3.2885 15.8939 3.5856 -19.2328 5.5396
# 2 3.2885 74.9320 29.9301 -5.6041 -5.0685 -3.8245
# 3 15.8939 29.9301 135.8866 -3.2515 -28.4830 -13.5216
# 4 3.5856 -5.6041 -3.2515 53.2070 -8.1142 -5.9006
# 5 -19.2328 -5.0685 -28.4830 -8.1142 38.5974 4.9122
# 6 5.5396 -3.8245 -13.5216 -5.9006 4.9122 35.7813
#
#
#
# Elastic Compliance Matrix: (Units=1/GPa)
#
#
# Indices 1 2 3 4 5 6 
#
# 1 0.015549 -0.000158 -0.000544 -0.000334 0.007732 -0.003746
# 2 -0.000158 0.014746 -0.003190 0.001399 -0.000287 0.000665
# 3 -0.000544 -0.003190 0.009813 0.001609 0.006531 0.002820
# 4 -0.000334 0.001399 0.001609 0.020210 0.005014 0.003454
# 5 0.007732 -0.000287 0.006531 0.005014 0.035963 -0.002870
# 6 -0.003746 0.000665 0.002820 0.003454 -0.002870 0.030628
#
#
# Mechanical properties :
#
#
# Convention : Reuss Voigt Hill
#
# Bulk Modulus (GPa) = 30.93665 42.76913 36.85289
# Shear Modulus (GPa) = 34.37181 41.35610 37.86395
#
# Velocity S-wave (km/s) = 3.75732 4.12142 3.94358
# Velocity P-wave (km/s) = 5.61515 6.34150 5.98935
#
# Compressibility (1/GPa) = 0.03232412
#
# Stress axis : x y z
#
# Youngs Moduli (GPa) = 64.31314 67.81660 101.90095
#
# Poissons Ratio (x) = 0.01074 0.05541
# Poissons Ratio (y) = 0.01018 0.32505
# Poissons Ratio (z) = 0.03497 0.21632
#
# Static dielectric constant tensor:
#      x y z
#    x 2.264270 0.008350 0.054270 
#    y 0.008350 1.961390 0.040230 
#    z 0.054270 0.040230 1.970070 
# 
# From -- ./inp_files/52155.got.cif
#   From: 2010.05.17/outbox.cif.g08.bks.cpg/sg2_27_cif.got.tgz:52155.got - 2010.06.03 11:33:40.
