data_PCOD9030511
_publ_section_title
;
Structure prediction by ZEFSAII (Michael W. Deem and Ramdas Pophale) SiO2 
 PCOD9030511
Probable space group: P -1
;
_chemical_formula_sum "Si O2"
_cell_formula_units_Z 14
_cell_length_a 14.974216
_cell_length_b 15.348363
_cell_length_c 8.214021
_cell_angle_alpha 75.067648
_cell_angle_beta 56.673082
_cell_angle_gamma 27.957709
_cell_volume 601.848549
_symmetry_space_group_name_H-M "P -1"
_symmetry_group_IT_number 2
_symmetry_cell_setting 'triclinic'
loop_
_space_group_symop_operation_xyz
x,y,z
-x,-y,-z
loop_
_atom_site_type_symbol
_atom_site_label
_atom_site_fract_x
_atom_site_fract_y
_atom_site_fract_z
Si Si1 0.632927 0.431962 0.607450
Si Si2 0.251064 0.508547 0.289681
Si Si3 0.934058 0.603618 0.739462
Si Si4 0.531634 0.621504 0.314822
Si Si5 0.232274 0.958525 0.202497
Si Si6 0.945112 0.698287 0.190805
Si Si7 0.603671 0.980378 0.112140
O O1 0.706743 0.428733 0.696463
O O2 0.499295 0.606638 0.533482
O O3 0.464571 0.470839 0.759890
O O4 0.924111 0.176535 0.363974
O O5 0.158478 0.502841 0.512668
O O6 0.024472 0.681687 0.291082
O O7 0.535540 0.260073 0.042637
O O8 0.032007 0.426679 0.753662
O O9 0.709778 0.777055 0.736029
O O10 0.758489 0.773016 0.988474
O O11 0.304577 0.862495 0.352614
O O12 0.812506 0.456214 0.095954
O O13 0.272432 0.033960 0.110760
O O14 0.676252 0.934723 0.250318
#
# Coordination Sequence:
#
# PCOD9030511 Si02
#       7
#     2   2   2   2   2   2   2
#     4  11  23  46  66  93 127 166 210 263 315 371
#     4  11  24  42  65  94 131 163 210 261 312 375
#     4  11  22  42  62  92 129 167 210 257 307 377
#     4  10  22  42  71  91 124 168 211 259 317 372
#     4  11  22  43  63  93 130 160 211 261 306 377
#     4  11  22  39  63  94 127 165 209 260 308 376
#     4  11  22  39  66  88 130 169 206 254 317 365
#
# _framework density 23.261666000000002
#
# number of rings (size 3 to 8) (size 9 to 14) (size 15 to 20)
#    0.000    1.143    5.714    1.286    0.000    2.857 
#    2.571    2.857    0.000    0.000    0.000    0.000 
#    0.000    0.000    0.000    0.000    0.000    0.000 
#
# Total GULP energy -78289.758624 kJ/mol
# GULP energy per Si atom -5592.125616 kJ/mol
# Density = 2.320872 g / cm^3
# Si number density = 23.261666 Si / 1000 Ang^3
#
#
#
# Elastic Constant Matrix: (Units=GPa)
#
#
# Indices 1 2 3 4 5 6 
#
# 1 102.1812 48.4753 -0.4818 -7.6689 4.7412 -6.2592
# 2 48.4753 117.7998 24.1727 -8.4148 5.0644 -15.4728
# 3 -0.4818 24.1727 60.0450 2.2575 -12.3321 5.5872
# 4 -7.6689 -8.4148 2.2575 27.2066 -5.3739 -4.8182
# 5 4.7412 5.0644 -12.3321 -5.3739 24.2256 -4.0863
# 6 -6.2592 -15.4728 5.5872 -4.8182 -4.0863 27.2233
#
#
#
# Elastic Compliance Matrix: (Units=1/GPa)
#
#
# Indices 1 2 3 4 5 6 
#
# 1 0.012537 -0.005611 0.002387 0.001552 0.000196 -0.000493
# 2 -0.005611 0.013783 -0.007159 0.004125 -0.003116 0.008275
# 3 0.002387 -0.007159 0.022507 -0.002520 0.010752 -0.006971
# 4 0.001552 0.004125 -0.002520 0.042611 0.009048 0.012118
# 5 0.000196 -0.003116 0.010752 0.009048 0.050251 0.005211
# 6 -0.000493 0.008275 -0.006971 0.012118 0.005211 0.045681
#
#
# Mechanical properties :
#
#
# Convention : Reuss Voigt Hill
#
# Bulk Modulus (GPa) = 35.63653 47.15093 41.39373
# Shear Modulus (GPa) = 22.98970 29.58841 26.28905
#
# Velocity S-wave (km/s) = 3.14715 3.57035 3.36541
# Velocity P-wave (km/s) = 5.34408 6.10822 5.73888
#
# Compressibility (1/GPa) = 0.02806109
#
# Stress axis : x y z
#
# Youngs Moduli (GPa) = 79.76410 72.55563 44.43090
#
# Poissons Ratio (x) = 0.40712 -0.10607
# Poissons Ratio (y) = 0.44757 0.31807
# Poissons Ratio (z) = -0.19041 0.51940
#
# Static dielectric constant tensor:
#      x y z
#    x 1.906620 -0.016300 0.045140 
#    y -0.016300 1.865860 -0.013050 
#    z 0.045140 -0.013050 1.915740 
# 
# From -- ./inp_files/180850.got.cif
#   From: 2010.05.17/outbox.cif.g08.bks.cpg/sg2_91_cif.got.tgz:180850.got - 2010.06.03 11:33:40.
