data_PCOD9030592
_publ_section_title
;
Structure prediction by ZEFSAII (Michael W. Deem and Ramdas Pophale) SiO2 
 PCOD9030592
Probable space group: P -1
;
_chemical_formula_sum "Si O2"
_cell_formula_units_Z 16
_cell_length_a 5.582420
_cell_length_b 23.055789
_cell_length_c 12.099332
_cell_angle_alpha 32.242480
_cell_angle_beta 123.208605
_cell_angle_gamma 120.772078
_cell_volume 691.026287
_symmetry_space_group_name_H-M "P -1"
_symmetry_group_IT_number 2
_symmetry_cell_setting 'triclinic'
loop_
_space_group_symop_operation_xyz
x,y,z
-x,-y,-z
loop_
_atom_site_type_symbol
_atom_site_label
_atom_site_fract_x
_atom_site_fract_y
_atom_site_fract_z
Si Si1 0.338383 0.511175 0.596140
Si Si2 0.284617 0.084130 0.440684
Si Si3 0.301915 0.099835 0.174082
Si Si4 0.288350 0.224459 0.437997
Si Si5 0.811633 0.365071 0.447295
Si Si6 0.165840 0.021753 0.887253
Si Si7 0.627115 0.677630 0.224900
Si Si8 0.154768 0.462924 0.990156
O O1 0.389644 0.568663 0.633017
O O2 0.469618 0.597085 0.402272
O O3 0.419653 0.389470 0.792905
O O4 0.000000 0.500000 0.500000
O O5 0.289456 0.140031 0.232082
O O6 0.293439 0.155901 0.436821
O O7 0.542878 0.008530 0.624535
O O8 0.000000 0.000000 0.500000
O O9 0.468781 0.202738 0.989131
O O10 0.996267 0.064369 0.099950
O O11 0.610572 0.274872 0.474270
O O12 0.161218 0.143550 0.635276
O O13 0.125547 0.331151 0.198102
O O14 0.971041 0.463434 0.255848
O O15 0.040194 0.313347 0.665590
O O16 0.500000 0.000000 0.000000
O O17 0.000000 0.000000 0.000000
O O18 0.500000 0.500000 0.000000
O O19 0.000000 0.500000 0.000000
#
# Coordination Sequence:
#
# PCOD9030592 Si02
#       8
#     2   2   2   2   2   2   2   2
#     4   9  21  42  62 102 142 181 236 290 380 458
#     4  11  25  51  68 104 149 201 266 308 370 461
#     4  11  26  45  75 106 147 202 258 312 380 457
#     4  11  25  49  74 103 152 198 248 318 379 444
#     4  10  23  43  71 107 144 189 246 316 380 460
#     4  12  27  46  76 115 152 195 257 319 385 452
#     4  10  22  42  72 101 147 189 238 314 382 450
#     4  10  25  45  70 107 144 187 242 299 371 452
#
# _framework density 23.153967000000002
#
# number of rings (size 3 to 8) (size 9 to 14) (size 15 to 20)
#    0.000    1.500    1.250    1.500    7.000    6.000 
#    4.500    0.000    0.000    0.000    0.000    0.000 
#    0.000    0.000    0.000    0.000    0.000    0.000 
#
# Total GULP energy -89315.812066 kJ/mol
# GULP energy per Si atom -5582.238254 kJ/mol
# Density = 2.310127 g / cm^3
# Si number density = 23.153967 Si / 1000 Ang^3
#
#
#
# Elastic Constant Matrix: (Units=GPa)
#
#
# Indices 1 2 3 4 5 6 
#
# 1 103.0804 54.7933 29.3290 1.1329 -10.6981 -12.5983
# 2 54.7933 166.8750 46.9952 -8.8808 -3.9724 -15.8670
# 3 29.3290 46.9952 118.3874 -25.0278 -31.9771 -12.7798
# 4 1.1329 -8.8808 -25.0278 33.0896 6.9566 -2.9967
# 5 -10.6981 -3.9724 -31.9771 6.9566 20.7984 5.8440
# 6 -12.5983 -15.8670 -12.7798 -2.9967 5.8440 46.0433
#
#
#
# Elastic Compliance Matrix: (Units=1/GPa)
#
#
# Indices 1 2 3 4 5 6 
#
# 1 0.012701 -0.003927 -0.000613 -0.003026 0.005558 0.001050
# 2 -0.003927 0.008439 -0.003925 0.001125 -0.007310 0.001745
# 3 -0.000613 -0.003925 0.018583 0.007955 0.024553 0.001039
# 4 -0.003026 0.001125 0.007955 0.037694 -0.003012 0.004603
# 5 0.005558 -0.007310 0.024553 -0.003012 0.089927 -0.005793
# 6 0.001050 0.001745 0.001039 0.004603 -0.005793 0.023931
#
#
# Mechanical properties :
#
#
# Convention : Reuss Voigt Hill
#
# Bulk Modulus (GPa) = 43.87351 72.28644 58.07997
# Shear Modulus (GPa) = 23.16937 37.13461 30.15199
#
# Velocity S-wave (km/s) = 3.16676 4.00911 3.61257
# Velocity P-wave (km/s) = 5.68866 7.26073 6.52224
#
# Compressibility (1/GPa) = 0.02279280
#
# Stress axis : x y z
#
# Youngs Moduli (GPa) = 78.73256 118.49548 53.81395
#
# Poissons Ratio (x) = 0.46530 0.03298
# Poissons Ratio (y) = 0.30916 0.21124
# Poissons Ratio (z) = 0.04826 0.46514
#
# Static dielectric constant tensor:
#      x y z
#    x 1.887650 0.054810 0.063480 
#    y 0.054810 1.990220 0.108120 
#    z 0.063480 0.108120 1.974080 
# 
# From -- ./inp_files/371035.got.cif
#   From: 2010.05.17/outbox.cif.g08.bks.cpg/sg2_186_cif.got.tgz:371035.got - 2010.06.03 11:33:40.
