data_PCOD9030908
_publ_section_title
;
Structure prediction by ZEFSAII (Michael W. Deem and Ramdas Pophale) SiO2 
 PCOD9030908
Probable space group: P -1
;
_chemical_formula_sum "Si O2"
_cell_formula_units_Z 16
_cell_length_a 20.427048
_cell_length_b 5.207128
_cell_length_c 8.768801
_cell_angle_alpha 115.314111
_cell_angle_beta 132.659242
_cell_angle_gamma 68.049914
_cell_volume 615.068929
_symmetry_space_group_name_H-M "P -1"
_symmetry_group_IT_number 2
_symmetry_cell_setting 'triclinic'
loop_
_space_group_symop_operation_xyz
x,y,z
-x,-y,-z
loop_
_atom_site_type_symbol
_atom_site_label
_atom_site_fract_x
_atom_site_fract_y
_atom_site_fract_z
Si Si1 0.969372 0.247861 0.290035
Si Si2 0.827773 0.031267 0.499522
Si Si3 0.422210 0.496003 0.746729
Si Si4 0.443087 0.332756 0.212693
Si Si5 0.293908 0.386866 0.755834
Si Si6 0.936774 0.301077 0.932099
Si Si7 0.199286 0.933191 0.883952
Si Si8 0.619850 0.984978 0.671914
O O1 0.900641 0.058437 0.210416
O O2 0.000000 0.500000 0.500000
O O3 0.065534 0.065503 0.369257
O O4 0.917469 0.394256 0.099162
O O5 0.769042 0.839504 0.456528
O O6 0.843556 0.306556 0.694390
O O7 0.798359 0.985741 0.269164
O O8 0.458878 0.679921 0.714656
O O9 0.332759 0.563788 0.724318
O O10 0.405395 0.201795 0.559246
O O11 0.500000 0.500000 0.000000
O O12 0.424323 0.145206 0.280874
O O13 0.413074 0.671391 0.291215
O O14 0.378553 0.250657 0.953706
O O15 0.235072 0.595986 0.831585
O O16 0.000000 0.500000 0.000000
O O17 0.000000 0.000000 0.000000
O O18 0.273456 0.053697 0.135145
#
# Coordination Sequence:
#
# PCOD9030908 Si02
#       8
#     2   2   2   2   2   2   2   2
#     4  11  22  41  69  92 129 182 230 272 329 392
#     4  11  22  42  66  90 137 174 225 277 334 389
#     4  10  23  44  71  99 135 176 220 265 341 404
#     4  10  22  46  69 100 131 174 220 271 331 403
#     4  10  22  43  61  99 135 173 214 281 331 392
#     4  10  24  42  63  94 125 170 221 276 329 384
#     4  11  23  41  65 100 132 177 225 277 328 392
#     4  11  23  44  71 101 138 171 222 278 327 394
#
# _framework density 26.013344
#
# number of rings (size 3 to 8) (size 9 to 14) (size 15 to 20)
#    0.000    1.500    2.500    1.875    3.500    1.000 
#    4.500    5.625    0.000    0.000    0.000    0.000 
#    0.000    0.000    0.000    0.000    0.000    0.000 
#
# Total GULP energy -89283.887955 kJ/mol
# GULP energy per Si atom -5580.242997 kJ/mol
# Density = 2.595414 g / cm^3
# Si number density = 26.013344 Si / 1000 Ang^3
#
#
#
# Elastic Constant Matrix: (Units=GPa)
#
#
# Indices 1 2 3 4 5 6 
#
# 1 118.5220 25.5892 24.9638 8.1623 20.0172 27.3283
# 2 25.5892 96.9859 26.0299 5.3312 -0.6713 33.7778
# 3 24.9638 26.0299 160.3263 21.5292 12.0355 9.9313
# 4 8.1623 5.3312 21.5292 28.6653 13.3861 7.2086
# 5 20.0172 -0.6713 12.0355 13.3861 53.0243 2.0366
# 6 27.3283 33.7778 9.9313 7.2086 2.0366 36.8970
#
#
#
# Elastic Compliance Matrix: (Units=1/GPa)
#
#
# Indices 1 2 3 4 5 6 
#
# 1 0.011092 0.000076 -0.001153 0.001598 -0.004018 -0.008065
# 2 0.000076 0.015704 -0.001971 0.001800 0.000712 -0.014293
# 3 -0.001153 -0.001971 0.007335 -0.005246 0.000004 0.001709
# 4 0.001598 0.001800 -0.005246 0.045365 -0.010470 -0.009704
# 5 -0.004018 0.000712 0.000004 -0.010470 0.022908 0.003104
# 6 -0.008065 -0.014293 0.001709 -0.009704 0.003104 0.047425
#
#
# Mechanical properties :
#
#
# Convention : Reuss Voigt Hill
#
# Bulk Modulus (GPa) = 35.67005 58.77778 47.22392
# Shear Modulus (GPa) = 30.25362 43.66739 36.96051
#
# Velocity S-wave (km/s) = 3.41398 4.10158 3.77348
# Velocity P-wave (km/s) = 5.41132 6.71379 6.09743
#
# Compressibility (1/GPa) = 0.02803472
#
# Stress axis : x y z
#
# Youngs Moduli (GPa) = 90.15623 63.67988 136.33107
#
# Poissons Ratio (x) = -0.00485 0.15716
# Poissons Ratio (y) = -0.00686 0.26874
# Poissons Ratio (z) = 0.10393 0.12553
#
# Static dielectric constant tensor:
#      x y z
#    x 2.234340 -0.456690 -0.550750 
#    y -0.456690 3.184070 1.235020 
#    z -0.550750 1.235020 3.857650 
# 
# From -- ./inp_files/339950.got.cif
#   From: 2010.05.17/outbox.cif.g08.bks.cpg/sg2_170_cif.got.tgz:339950.got - 2010.06.03 11:33:40.
