data_PCOD9030118
_publ_section_title
;
Structure prediction by ZEFSAII (Michael W. Deem and Ramdas Pophale) SiO2 
 PCOD9030118
Probable space group: P -1
;
_chemical_formula_sum "Si O2"
_cell_formula_units_Z 14
_cell_length_a 13.091317
_cell_length_b 20.271956
_cell_length_c 7.030823
_cell_angle_alpha 96.178993
_cell_angle_beta 99.174900
_cell_angle_gamma 155.156371
_cell_volume 614.222812
_symmetry_space_group_name_H-M "P -1"
_symmetry_group_IT_number 2
_symmetry_cell_setting 'triclinic'
loop_
_space_group_symop_operation_xyz
x,y,z
-x,-y,-z
loop_
_atom_site_type_symbol
_atom_site_label
_atom_site_fract_x
_atom_site_fract_y
_atom_site_fract_z
Si Si1 0.210797 0.224206 0.612326
Si Si2 0.133304 0.680990 0.088076
Si Si3 0.269108 0.904784 0.536023
Si Si4 0.869706 0.666050 0.025292
Si Si5 0.201362 0.613871 0.407960
Si Si6 0.864052 0.704544 0.630054
Si Si7 0.171096 0.081330 0.272730
O O1 0.501391 0.441720 0.843914
O O2 0.020472 0.160647 0.405065
O O3 0.291592 0.217075 0.475351
O O4 0.057546 0.094695 0.703966
O O5 0.195285 0.676851 0.297928
O O6 0.474843 0.908070 0.195163
O O7 0.943680 0.632723 0.059103
O O8 0.954676 0.532106 0.830416
O O9 0.983622 0.715658 0.536301
O O10 0.500000 0.000000 0.500000
O O11 0.069624 0.822470 0.292406
O O12 0.988028 0.765170 0.892786
O O13 0.535878 0.789566 0.624617
O O14 0.000000 0.500000 0.500000
O O15 0.500000 0.500000 0.500000
O O16 0.000000 0.000000 0.000000
#
# Coordination Sequence:
#
# PCOD9030118 Si02
#       7
#     2   2   2   2   2   2   2
#     4  10  23  43  65  94 139 172 228 280 335 407
#     4  10  23  43  65  96 140 174 227 279 340 408
#     4  10  23  41  65  98 133 180 223 278 338 408
#     4  10  22  42  69  97 139 180 223 282 345 411
#     4  11  25  42  69  99 133 180 227 287 340 400
#     4  10  23  41  66  98 136 182 227 278 340 411
#     4  11  25  42  69  98 131 184 227 284 339 402
#
# _framework density 22.793030000000002
#
# number of rings (size 3 to 8) (size 9 to 14) (size 15 to 20)
#    0.000    1.714    1.429    0.857    2.000   14.857 
#    0.000    0.000    0.000    0.000    0.000    0.000 
#    0.000    0.000    0.000    0.000    0.000    0.000 
#
# Total GULP energy -77936.401438 kJ/mol
# GULP energy per Si atom -5566.885817 kJ/mol
# Density = 2.274115 g / cm^3
# Si number density = 22.793030 Si / 1000 Ang^3
#
#
#
# Elastic Constant Matrix: (Units=GPa)
#
#
# Indices 1 2 3 4 5 6 
#
# 1 84.8503 27.6475 21.5387 -9.3211 19.9229 9.0205
# 2 27.6475 90.5027 48.6403 -16.2224 7.2240 28.1369
# 3 21.5387 48.6403 137.7131 -16.8150 25.0501 4.0148
# 4 -9.3211 -16.2224 -16.8150 41.5864 3.1146 0.0954
# 5 19.9229 7.2240 25.0501 3.1146 32.5891 5.4971
# 6 9.0205 28.1369 4.0148 0.0954 5.4971 41.9774
#
#
#
# Elastic Compliance Matrix: (Units=1/GPa)
#
#
# Indices 1 2 3 4 5 6 
#
# 1 0.015432 -0.004270 0.001235 0.003028 -0.009846 0.000710
# 2 -0.004270 0.020031 -0.006449 0.003913 0.004869 -0.012539
# 3 0.001235 -0.006449 0.011209 0.002952 -0.008923 0.004147
# 4 0.003028 0.003913 0.002952 0.027991 -0.007212 -0.002675
# 5 -0.009846 0.004869 -0.008923 -0.007212 0.044196 -0.006065
# 6 0.000710 -0.012539 0.004147 -0.002675 -0.006065 0.032478
#
#
# Mechanical properties :
#
#
# Convention : Reuss Voigt Hill
#
# Bulk Modulus (GPa) = 36.09767 56.52433 46.31100
# Shear Modulus (GPa) = 27.84873 37.57991 32.71432
#
# Velocity S-wave (km/s) = 3.49923 4.06488 3.79262
# Velocity P-wave (km/s) = 5.67430 6.84717 6.28814
#
# Compressibility (1/GPa) = 0.02770262
#
# Stress axis : x y z
#
# Youngs Moduli (GPa) = 64.79861 49.92256 89.21525
#
# Poissons Ratio (x) = 0.21317 -0.11014
# Poissons Ratio (y) = 0.27669 0.57538
# Poissons Ratio (z) = -0.08000 0.32197
#
# Static dielectric constant tensor:
#      x y z
#    x 2.008670 0.035290 -0.054860 
#    y 0.035290 1.913590 0.022320 
#    z -0.054860 0.022320 1.867350 
# 
# From -- ./inp_files/101180.got.cif
#   From: 2010.05.17/outbox.cif.g08.bks.cpg/sg2_51_cif.got.tgz:101180.got - 2010.06.03 11:33:40.
