data_PCOD9030467
_publ_section_title
;
Structure prediction by ZEFSAII (Michael W. Deem and Ramdas Pophale) SiO2 
 PCOD9030467
Probable space group: P -1
;
_chemical_formula_sum "Si O2"
_cell_formula_units_Z 12
_cell_length_a 9.535314
_cell_length_b 8.823152
_cell_length_c 9.563870
_cell_angle_alpha 82.454670
_cell_angle_beta 133.009208
_cell_angle_gamma 105.388344
_cell_volume 565.871144
_symmetry_space_group_name_H-M "P -1"
_symmetry_group_IT_number 2
_symmetry_cell_setting 'triclinic'
loop_
_space_group_symop_operation_xyz
x,y,z
-x,-y,-z
loop_
_atom_site_type_symbol
_atom_site_label
_atom_site_fract_x
_atom_site_fract_y
_atom_site_fract_z
Si Si1 0.213090 0.125347 0.161282
Si Si2 0.285900 0.869338 0.806589
Si Si3 0.423340 0.899979 0.193019
Si Si4 0.378418 0.324500 0.984860
Si Si5 0.612315 0.661362 0.487759
Si Si6 0.091398 0.351284 0.550047
O O1 0.254538 0.212804 0.328522
O O2 0.367834 0.017143 0.253054
O O3 0.280519 0.267874 0.075897
O O4 0.000000 0.000000 0.000000
O O5 0.085185 0.781800 0.613431
O O6 0.371441 0.025917 0.756781
O O7 0.271195 0.885465 0.961426
O O8 0.456685 0.774324 0.913029
O O9 0.449266 0.742379 0.299547
O O10 0.191826 0.294292 0.758972
O O11 0.500000 0.500000 0.000000
O O12 0.500000 0.500000 0.500000
O O13 0.743552 0.614040 0.460850
O O14 0.000000 0.500000 0.500000
#
# Coordination Sequence:
#
# PCOD9030467 Si02
#       6
#     2   2   2   2   2   2
#     4  11  26  45  69 105 146 187 237 295 367 427
#     4  10  22  42  71 102 133 179 243 291 341 413
#     4  10  23  45  70  98 143 184 230 297 354 419
#     4  11  22  44  70 101 144 187 238 298 346 424
#     4  12  27  45  71 105 147 189 231 296 371 422
#     4  12  25  41  74 104 135 186 247 284 347 426
#
# _framework density 21.206240999999999
#
# number of rings (size 3 to 8) (size 9 to 14) (size 15 to 20)
#    0.000    1.000    3.333    2.500    4.667    2.000 
#    0.000    2.500    0.000    0.000    0.000    0.000 
#    0.000    0.000    0.000    0.000    0.000    0.000 
#
# Total GULP energy -66979.965494 kJ/mol
# GULP energy per Si atom -5581.663791 kJ/mol
# Density = 2.115798 g / cm^3
# Si number density = 21.206241 Si / 1000 Ang^3
#
#
#
# Elastic Constant Matrix: (Units=GPa)
#
#
# Indices 1 2 3 4 5 6 
#
# 1 74.3352 10.2237 14.7237 -16.5940 -14.3393 -13.4161
# 2 10.2237 100.0890 13.3240 -17.6964 -2.9083 14.7905
# 3 14.7237 13.3240 85.3143 -0.5811 -1.9226 10.2228
# 4 -16.5940 -17.6964 -0.5811 41.8937 3.4880 1.5064
# 5 -14.3393 -2.9083 -1.9226 3.4880 30.9286 5.0238
# 6 -13.4161 14.7905 10.2228 1.5064 5.0238 34.4580
#
#
#
# Elastic Compliance Matrix: (Units=1/GPa)
#
#
# Indices 1 2 3 4 5 6 
#
# 1 0.018224 -0.001279 -0.003673 0.005838 0.006212 0.007573
# 2 -0.001279 0.011930 -0.000911 0.004652 0.000870 -0.005679
# 3 -0.003673 -0.000911 0.013068 -0.001482 -0.000022 -0.004848
# 4 0.005838 0.004652 -0.001482 0.028148 -0.000040 -0.000509
# 5 0.006212 0.000870 -0.000022 -0.000040 0.035812 -0.003168
# 6 0.007573 -0.005679 -0.004848 -0.000509 -0.003168 0.036329
#
#
# Mechanical properties :
#
#
# Convention : Reuss Voigt Hill
#
# Bulk Modulus (GPa) = 31.74964 37.36459 34.55712
# Shear Modulus (GPa) = 30.16832 36.22055 33.19444
#
# Velocity S-wave (km/s) = 3.77585 4.13730 3.96070
# Velocity P-wave (km/s) = 5.83213 6.36245 6.10305
#
# Compressibility (1/GPa) = 0.03149642
#
# Stress axis : x y z
#
# Youngs Moduli (GPa) = 54.87128 83.82305 76.52360
#
# Poissons Ratio (x) = 0.10721 0.28109
# Poissons Ratio (y) = 0.07018 0.06969
# Poissons Ratio (z) = 0.20155 0.07634
#
# Static dielectric constant tensor:
#      x y z
#    x 1.763980 0.015990 -0.017630 
#    y 0.015990 1.750880 0.013500 
#    z -0.017630 0.013500 1.763130 
# 
# From -- ./inp_files/148598.got.cif
#   From: 2010.05.17/outbox.cif.g08.bks.cpg/sg2_75_cif.got.tgz:148598.got - 2010.06.03 11:33:40.
