data_PCOD9030170
_publ_section_title
;
Structure prediction by ZEFSAII (Michael W. Deem and Ramdas Pophale) SiO2 
 PCOD9030170
Probable space group: P -1
;
_chemical_formula_sum "Si O2"
_cell_formula_units_Z 15
_cell_length_a 8.829857
_cell_length_b 8.204601
_cell_length_c 9.683431
_cell_angle_alpha 60.467667
_cell_angle_beta 103.812597
_cell_angle_gamma 101.931145
_cell_volume 589.424823
_symmetry_space_group_name_H-M "P -1"
_symmetry_group_IT_number 2
_symmetry_cell_setting 'triclinic'
loop_
_space_group_symop_operation_xyz
x,y,z
-x,-y,-z
loop_
_atom_site_type_symbol
_atom_site_label
_atom_site_fract_x
_atom_site_fract_y
_atom_site_fract_z
Si Si1 0.306846 0.656169 0.186174
Si Si2 0.893425 0.096502 0.831146
Si Si3 0.000000 0.500000 0.000000
Si Si4 0.251401 0.357673 0.534299
Si Si5 0.843656 0.586219 0.207742
Si Si6 0.077264 0.859297 0.480526
Si Si7 0.393919 0.971357 0.626464
Si Si8 0.452016 0.291150 0.017405
O O1 0.264839 0.850400 0.162114
O O2 0.321345 0.508273 0.374077
O O3 0.163038 0.576775 0.088200
O O4 0.459300 0.707366 0.108281
O O5 0.885423 0.028401 0.702233
O O6 0.996922 0.297686 0.754425
O O7 0.000000 0.000000 0.000000
O O8 0.096139 0.532405 0.857447
O O9 0.252289 0.444239 0.654511
O O10 0.063428 0.306778 0.489452
O O11 0.332525 0.162635 0.600748
O O12 0.733643 0.721730 0.043028
O O13 0.242215 0.835605 0.595834
O O14 0.000000 0.000000 0.500000
O O15 0.484040 0.857250 0.804402
O O16 0.500000 0.000000 0.500000
O O17 0.500000 0.500000 0.000000
#
# Coordination Sequence:
#
# PCOD9030170 Si02
#       8
#     2   2   1   2   2   2   2   2
#     4  11  25  41  72 100 136 182 229 288 345 408
#     4  10  24  41  67 101 135 177 233 285 337 397
#     4  10  22  42  70 100 132 184 228 286 338 404
#     4  10  24  47  68 105 136 184 235 289 342 405
#     4  10  24  44  70  99 143 180 233 286 346 415
#     4   9  22  42  70  95 135 178 232 279 334 407
#     4  11  26  42  70 102 143 186 226 286 353 416
#     4  12  26  44  69 104 140 182 228 281 352 422
#
# _framework density 25.448537999999999
#
# number of rings (size 3 to 8) (size 9 to 14) (size 15 to 20)
#    0.000    1.600    1.333    0.800    9.333   10.133 
#    0.000    0.000    0.000    0.000    0.000    0.000 
#    0.000    0.000    0.000    0.000    0.000    0.000 
#
# Total GULP energy -83521.299646 kJ/mol
# GULP energy per Si atom -5568.086643 kJ/mol
# Density = 2.539062 g / cm^3
# Si number density = 25.448538 Si / 1000 Ang^3
#
#
#
# Elastic Constant Matrix: (Units=GPa)
#
#
# Indices 1 2 3 4 5 6 
#
# 1 141.4468 28.6816 43.6809 10.5554 -7.6751 -9.2194
# 2 28.6816 110.4192 65.1930 12.8599 -9.4084 -33.2269
# 3 43.6809 65.1930 172.9566 20.8807 -21.2945 -17.4156
# 4 10.5554 12.8599 20.8807 49.2411 -11.7649 -8.2039
# 5 -7.6751 -9.4084 -21.2945 -11.7649 52.4856 22.5906
# 6 -9.2194 -33.2269 -17.4156 -8.2039 22.5906 35.9649
#
#
#
# Elastic Compliance Matrix: (Units=1/GPa)
#
#
# Indices 1 2 3 4 5 6 
#
# 1 0.007801 -0.001051 -0.001459 -0.000729 0.000178 0.000044
# 2 -0.001051 0.017001 -0.005162 -0.000797 -0.006674 0.016948
# 3 -0.001459 -0.005162 0.008355 -0.001665 0.003445 -0.003641
# 4 -0.000729 -0.000797 -0.001665 0.022430 0.003625 0.001110
# 5 0.000178 -0.006674 0.003445 0.003625 0.029676 -0.022266
# 6 0.000044 0.016948 -0.003641 0.001110 -0.022266 0.055950
#
#
# Mechanical properties :
#
#
# Convention : Reuss Voigt Hill
#
# Bulk Modulus (GPa) = 56.14439 77.77039 66.95739
# Shear Modulus (GPa) = 30.77034 46.68945 38.72989
#
# Velocity S-wave (km/s) = 3.48101 4.28794 3.90537
# Velocity P-wave (km/s) = 6.18599 7.42573 6.83403
#
# Compressibility (1/GPa) = 0.01781122
#
# Stress axis : x y z
#
# Youngs Moduli (GPa) = 128.19559 58.81969 119.69506
#
# Poissons Ratio (x) = 0.06184 0.17469
# Poissons Ratio (y) = 0.13478 0.61783
# Poissons Ratio (z) = 0.18710 0.30361
#
# Static dielectric constant tensor:
#      x y z
#    x 1.904110 0.026620 -0.212390 
#    y 0.026620 2.117220 -0.023180 
#    z -0.212390 -0.023180 2.197400 
# 
# From -- ./inp_files/156955.got.cif
#   From: 2010.05.17/outbox.cif.g08.bks.cpg/sg2_79_cif.got.tgz:156955.got - 2010.06.03 11:33:40.
