data_PCOD9030632
_publ_section_title
;
Structure prediction by ZEFSAII (Michael W. Deem and Ramdas Pophale) SiO2 
 PCOD9030632
Probable space group: P -1
;
_chemical_formula_sum "Si O2"
_cell_formula_units_Z 12
_cell_length_a 5.120184
_cell_length_b 9.432439
_cell_length_c 11.416513
_cell_angle_alpha 56.963118
_cell_angle_beta 117.136785
_cell_angle_gamma 106.294773
_cell_volume 410.966174
_symmetry_space_group_name_H-M "P -1"
_symmetry_group_IT_number 2
_symmetry_cell_setting 'triclinic'
loop_
_space_group_symop_operation_xyz
x,y,z
-x,-y,-z
loop_
_atom_site_type_symbol
_atom_site_label
_atom_site_fract_x
_atom_site_fract_y
_atom_site_fract_z
Si Si1 0.137504 0.794842 0.051229
Si Si2 0.755819 0.915063 0.226785
Si Si3 0.722880 0.344661 0.543761
Si Si4 0.728274 0.884314 0.539879
Si Si5 0.820411 0.274511 0.156243
Si Si6 0.159890 0.471080 0.748664
O O1 0.451422 0.825246 0.163902
O O2 0.871544 0.708649 0.109385
O O3 0.186800 0.670336 0.005118
O O4 0.087167 0.973856 0.898385
O O5 0.007804 0.783151 0.366509
O O6 0.674188 0.083121 0.209709
O O7 0.434849 0.223168 0.545810
O O8 0.689388 0.460139 0.369991
O O9 0.171483 0.547898 0.370399
O O10 0.849636 0.764234 0.718808
O O11 0.500000 0.000000 0.500000
O O12 0.000000 0.000000 0.500000
O O13 0.740503 0.399096 0.187343
#
# Coordination Sequence:
#
# PCOD9030632 Si02
#       6
#     2   2   2   2   2   2
#     4   9  21  43  72 102 140 205 247 309 376 451
#     4   9  21  43  73 101 143 187 267 300 364 454
#     4  11  26  44  64 113 146 197 250 308 389 443
#     4  12  25  45  77 111 151 195 259 321 366 452
#     4  10  22  42  72 106 139 198 252 308 370 453
#     4  11  25  43  69 103 160 191 239 318 387 455
#
# _framework density 29.199482
#
# number of rings (size 3 to 8) (size 9 to 14) (size 15 to 20)
#    1.000    0.667    1.667    1.500    2.333    4.667 
#    0.000    5.000    0.000    0.000    0.000    0.000 
#    0.000    0.000    0.000    0.000    0.000    0.000 
#
# Total GULP energy -67066.540266 kJ/mol
# GULP energy per Si atom -5588.878355 kJ/mol
# Density = 2.913302 g / cm^3
# Si number density = 29.199482 Si / 1000 Ang^3
#
#
#
# Elastic Constant Matrix: (Units=GPa)
#
#
# Indices 1 2 3 4 5 6 
#
# 1 144.2309 51.2674 25.2249 -17.5589 -9.5463 14.0211
# 2 51.2674 229.3473 50.2912 15.1503 -4.4414 12.0940
# 3 25.2249 50.2912 122.6007 -0.4046 -15.6742 -0.9392
# 4 -17.5589 15.1503 -0.4046 73.8501 9.0881 3.9625
# 5 -9.5463 -4.4414 -15.6742 9.0881 44.0713 -3.8708
# 6 14.0211 12.0940 -0.9392 3.9625 -3.8708 60.0504
#
#
#
# Elastic Compliance Matrix: (Units=1/GPa)
#
#
# Indices 1 2 3 4 5 6 
#
# 1 0.008177 -0.001676 -0.000916 0.002293 0.000654 -0.001695
# 2 -0.001676 0.005264 -0.001856 -0.001424 -0.000254 -0.000620
# 3 -0.000916 -0.001856 0.009513 -0.000221 0.003127 0.000953
# 4 0.002293 -0.001424 -0.000221 0.014811 -0.002904 -0.001417
# 5 0.000654 -0.000254 0.003127 -0.002904 0.024669 0.001729
# 6 -0.001695 -0.000620 0.000953 -0.001417 0.001729 0.017393
#
#
# Mechanical properties :
#
#
# Convention : Reuss Voigt Hill
#
# Bulk Modulus (GPa) = 71.14647 83.30509 77.22578
# Shear Modulus (GPa) = 53.52760 60.22073 56.87417
#
# Velocity S-wave (km/s) = 4.28620 4.54628 4.41815
# Velocity P-wave (km/s) = 6.99385 7.49332 7.24789
#
# Compressibility (1/GPa) = 0.01405551
#
# Stress axis : x y z
#
# Youngs Moduli (GPa) = 122.29797 189.97681 105.12053
#
# Poissons Ratio (x) = 0.31845 0.09634
# Poissons Ratio (y) = 0.20500 0.19513
# Poissons Ratio (z) = 0.11208 0.35264
#
# Static dielectric constant tensor:
#      x y z
#    x 2.242630 -0.097190 -0.014530 
#    y -0.097190 2.375220 0.081810 
#    z -0.014530 0.081810 2.468500 
# 
# From -- ./inp_files/478925.got.cif
#   From: 2010.05.17/outbox.cif.g08.bks.cpg/sg2_240_cif.got.tgz:478925.got - 2010.06.03 11:33:40.
