data_PCOD9030063
_publ_section_title
;
Structure prediction by ZEFSAII (Michael W. Deem and Ramdas Pophale) SiO2 
 PCOD9030063
Probable space group: P -1
;
_chemical_formula_sum "Si O2"
_cell_formula_units_Z 14
_cell_length_a 7.776497
_cell_length_b 13.079781
_cell_length_c 11.225498
_cell_angle_alpha 79.096919
_cell_angle_beta 36.851141
_cell_angle_gamma 64.333539
_cell_volume 590.454939
_symmetry_space_group_name_H-M "P -1"
_symmetry_group_IT_number 2
_symmetry_cell_setting 'triclinic'
loop_
_space_group_symop_operation_xyz
x,y,z
-x,-y,-z
loop_
_atom_site_type_symbol
_atom_site_label
_atom_site_fract_x
_atom_site_fract_y
_atom_site_fract_z
Si Si1 0.226467 0.534488 0.542371
Si Si2 0.721984 0.823136 0.106730
Si Si3 0.535373 0.289061 0.296905
Si Si4 0.440735 0.276913 0.073167
Si Si5 0.800966 0.914898 0.730134
Si Si6 0.538999 0.106444 0.510007
Si Si7 0.223823 0.742666 0.339642
O O1 0.500000 0.500000 0.500000
O O2 0.312876 0.419630 0.441334
O O3 0.209572 0.634807 0.437604
O O4 0.879213 0.594828 0.788648
O O5 0.695091 0.846425 0.257194
O O6 0.557190 0.741040 0.195073
O O7 0.087328 0.755700 0.873983
O O8 0.499585 0.954139 0.146027
O O9 0.525753 0.272537 0.165483
O O10 0.443041 0.202488 0.438451
O O11 0.726202 0.260804 0.828690
O O12 0.327107 0.176563 0.136654
O O13 0.100439 0.916994 0.636369
O O14 0.950672 0.862357 0.527588
O O15 0.500000 0.000000 0.500000
#
# Coordination Sequence:
#
# PCOD9030063 Si02
#       7
#     2   2   2   2   2   2   2
#     4  11  24  46  70  94 127 169 223 275 323 384
#     4  11  24  41  67  97 133 176 218 265 323 390
#     4  12  27  42  63 101 135 170 219 270 325 383
#     4  11  25  44  68  95 133 174 215 271 326 384
#     4  10  23  44  67  97 133 173 218 267 325 386
#     4  11  24  43  67  96 133 171 217 271 322 387
#     4  10  22  42  69  95 124 174 220 263 326 388
#
# _framework density 23.710529999999999
#
# number of rings (size 3 to 8) (size 9 to 14) (size 15 to 20)
#    0.000    1.143    0.000    7.286    0.000   15.429 
#    0.000    0.000    0.000    0.000    0.000    0.000 
#    0.000    0.000    0.000    0.000    0.000    0.000 
#
# Total GULP energy -78394.867699 kJ/mol
# GULP energy per Si atom -5599.633407 kJ/mol
# Density = 2.365656 g / cm^3
# Si number density = 23.710530 Si / 1000 Ang^3
#
#
#
# Elastic Constant Matrix: (Units=GPa)
#
#
# Indices 1 2 3 4 5 6 
#
# 1 106.1376 33.1146 18.7231 17.3479 13.7799 7.9722
# 2 33.1146 141.8423 39.7825 10.1876 5.3661 8.7691
# 3 18.7231 39.7825 120.3184 20.5691 0.1804 -2.2807
# 4 17.3479 10.1876 20.5691 35.6613 3.6819 0.8374
# 5 13.7799 5.3661 0.1804 3.6819 57.5593 6.0216
# 6 7.9722 8.7691 -2.2807 0.8374 6.0216 34.5738
#
#
#
# Elastic Compliance Matrix: (Units=1/GPa)
#
#
# Indices 1 2 3 4 5 6 
#
# 1 0.011228 -0.002027 -0.000347 -0.004433 -0.002043 -0.001634
# 2 -0.002027 0.008329 -0.002489 0.000095 -0.000102 -0.001794
# 3 -0.000347 -0.002489 0.010071 -0.005009 0.000456 0.001417
# 4 -0.004433 0.000095 -0.005009 0.033169 -0.001059 0.000049
# 5 -0.002043 -0.000102 0.000456 -0.001059 0.018212 -0.002619
# 6 -0.001634 -0.001794 0.001417 0.000049 -0.002619 0.030304
#
#
# Mechanical properties :
#
#
# Convention : Reuss Voigt Hill
#
# Bulk Modulus (GPa) = 50.24495 61.28207 55.76351
# Shear Modulus (GPa) = 39.16256 44.00406 41.58331
#
# Velocity S-wave (km/s) = 4.06851 4.31267 4.19237
# Velocity P-wave (km/s) = 6.58084 7.12046 6.85596
#
# Compressibility (1/GPa) = 0.01990250
#
# Stress axis : x y z
#
# Youngs Moduli (GPa) = 89.06205 120.05823 99.29835
#
# Poissons Ratio (x) = 0.24339 0.03445
# Poissons Ratio (y) = 0.18055 0.24711
# Poissons Ratio (z) = 0.03090 0.29878
#
# Static dielectric constant tensor:
#      x y z
#    x 1.990320 0.010770 0.028920 
#    y 0.010770 1.847730 0.004750 
#    z 0.028920 0.004750 1.939410 
# 
# From -- ./inp_files/113291.got.cif
#   From: 2010.05.17/outbox.cif.g08.bks.cpg/sg2_57_cif.got.tgz:113291.got - 2010.06.03 11:33:40.
