data_PCOD9030840
_publ_section_title
;
Structure prediction by ZEFSAII (Michael W. Deem and Ramdas Pophale) SiO2 
 PCOD9030840
Probable space group: P -1
;
_chemical_formula_sum "Si O2"
_cell_formula_units_Z 16
_cell_length_a 30.538851
_cell_length_b 5.592070
_cell_length_c 9.187638
_cell_angle_alpha 122.207621
_cell_angle_beta 35.850112
_cell_angle_gamma 102.396618
_cell_volume 698.752555
_symmetry_space_group_name_H-M "P -1"
_symmetry_group_IT_number 2
_symmetry_cell_setting 'triclinic'
loop_
_space_group_symop_operation_xyz
x,y,z
-x,-y,-z
loop_
_atom_site_type_symbol
_atom_site_label
_atom_site_fract_x
_atom_site_fract_y
_atom_site_fract_z
Si Si1 0.197934 0.469490 0.881207
Si Si2 0.340551 0.195918 0.181538
Si Si3 0.165000 0.101668 0.206019
Si Si4 0.046431 0.707349 0.889062
Si Si5 0.496299 0.845432 0.114072
Si Si6 0.705519 0.357728 0.811794
Si Si7 0.128835 0.051030 0.949629
Si Si8 0.694650 0.789967 0.215650
O O1 0.255228 0.432627 0.573127
O O2 0.121596 0.387225 0.021167
O O3 0.269492 0.247259 0.729917
O O4 0.157336 0.797886 0.183641
O O5 0.338179 0.331648 0.070168
O O6 0.340739 0.857074 0.093920
O O7 0.423947 0.177980 0.021660
O O8 0.121823 0.429762 0.509881
O O9 0.133403 0.106662 0.127102
O O10 0.263150 0.009718 0.908402
O O11 0.073259 0.877413 0.000426
O O12 0.000000 0.500000 0.000000
O O13 0.000000 0.000000 0.000000
O O14 0.403356 0.065612 0.489047
O O15 0.500000 0.500000 0.000000
O O16 0.500000 0.000000 0.000000
O O17 0.785330 0.150563 0.433116
O O18 0.728861 0.460351 0.933999
#
# Coordination Sequence:
#
# PCOD9030840 Si02
#       8
#     2   2   2   2   2   2   2   2
#     4  10  22  42  76 102 139 193 253 286 351 429
#     4  11  23  42  64 102 142 187 240 297 366 406
#     4  11  24  47  78 105 140 195 250 284 361 444
#     4  12  31  50  75 111 150 182 230 298 370 439
#     4  12  25  41  66  98 146 188 241 308 360 414
#     4  11  24  42  70 101 140 185 240 305 350 424
#     4  10  24  46  72 106 143 186 236 300 354 432
#     4  11  25  41  71 105 137 195 248 295 356 430
#
# _framework density 22.897949000000001
#
# number of rings (size 3 to 8) (size 9 to 14) (size 15 to 20)
#    0.000    1.000    3.750    1.500    8.750    2.000 
#    0.000    0.000    0.000    0.000    0.000    0.000 
#    0.000    0.000    0.000    0.000    0.000    0.000 
#
# Total GULP energy -89130.386170 kJ/mol
# GULP energy per Si atom -5570.649136 kJ/mol
# Density = 2.284583 g / cm^3
# Si number density = 22.897949 Si / 1000 Ang^3
#
#
#
# Elastic Constant Matrix: (Units=GPa)
#
#
# Indices 1 2 3 4 5 6 
#
# 1 51.3755 49.4133 -6.0711 -6.3716 12.2634 14.7006
# 2 49.4133 182.6337 20.8085 -6.8333 -3.4502 24.4592
# 3 -6.0711 20.8085 43.2773 -0.7616 6.4805 0.1859
# 4 -6.3716 -6.8333 -0.7616 25.2784 8.7677 0.9145
# 5 12.2634 -3.4502 6.4805 8.7677 26.1961 1.4968
# 6 14.7006 24.4592 0.1859 0.9145 1.4968 48.6697
#
#
#
# Elastic Compliance Matrix: (Units=1/GPa)
#
#
# Indices 1 2 3 4 5 6 
#
# 1 0.049408 -0.014572 0.019899 0.022201 -0.037005 -0.006956
# 2 -0.014572 0.010649 -0.009097 -0.005297 0.012316 -0.001195
# 3 0.019899 -0.009097 0.033874 0.011481 -0.022674 -0.001087
# 4 0.022201 -0.005297 0.011481 0.055400 -0.032236 -0.004137
# 5 -0.037005 0.012316 -0.022674 -0.032236 0.073322 0.003425
# 6 -0.006956 -0.001195 -0.001087 -0.004137 0.003425 0.023225
#
#
# Mechanical properties :
#
#
# Convention : Reuss Voigt Hill
#
# Bulk Modulus (GPa) = 11.57505 45.06533 28.32019
# Shear Modulus (GPa) = 17.71708 34.23791 25.97749
#
# Velocity S-wave (km/s) = 2.78464 3.87103 3.37187
# Velocity P-wave (km/s) = 3.92492 6.30107 5.24921
#
# Compressibility (1/GPa) = 0.08639271
#
# Stress axis : x y z
#
# Youngs Moduli (GPa) = 20.23958 93.90584 29.52097
#
# Poissons Ratio (x) = 1.36840 -0.58745
# Poissons Ratio (y) = 0.29493 0.26854
# Poissons Ratio (z) = -0.40276 0.85423
#
# Static dielectric constant tensor:
#      x y z
#    x 1.910980 -0.111670 -0.033650 
#    y -0.111670 2.221730 0.089810 
#    z -0.033650 0.089810 1.942570 
# 
# From -- ./inp_files/358284.got.cif
#   From: 2010.05.17/outbox.cif.g08.bks.cpg/sg2_180_cif.got.tgz:358284.got - 2010.06.03 11:33:40.
