data_PCOD9030676
_publ_section_title
;
Structure prediction by ZEFSAII (Michael W. Deem and Ramdas Pophale) SiO2 
 PCOD9030676
Probable space group: P -1
;
_chemical_formula_sum "Si O2"
_cell_formula_units_Z 11
_cell_length_a 10.179096
_cell_length_b 10.412188
_cell_length_c 10.023039
_cell_angle_alpha 120.775426
_cell_angle_beta 111.752079
_cell_angle_gamma 27.944166
_cell_volume 418.869743
_symmetry_space_group_name_H-M "P -1"
_symmetry_group_IT_number 2
_symmetry_cell_setting 'triclinic'
loop_
_space_group_symop_operation_xyz
x,y,z
-x,-y,-z
loop_
_atom_site_type_symbol
_atom_site_label
_atom_site_fract_x
_atom_site_fract_y
_atom_site_fract_z
Si Si1 0.818304 0.106913 0.270577
Si Si2 0.452481 0.844075 0.289437
Si Si3 0.384474 0.439725 0.061000
Si Si4 0.437326 0.338076 0.473080
Si Si5 0.053821 0.416557 0.281788
Si Si6 0.000000 0.500000 0.000000
O O1 0.668597 0.209469 0.128627
O O2 0.729812 0.351493 0.417110
O O3 0.149989 0.773215 0.199645
O O4 0.319044 0.879346 0.664561
O O5 0.422606 0.817619 0.413664
O O6 0.711151 0.728150 0.330234
O O7 0.181877 0.164408 0.283901
O O8 0.565476 0.614560 0.107199
O O9 0.246562 0.406725 0.031651
O O10 0.212331 0.417086 0.394022
O O11 0.113501 0.349272 0.112315
#
# Coordination Sequence:
#
# PCOD9030676 Si02
#       6
#     2   2   2   2   2   1
#     4  11  27  44  71 100 139 191 226 276 344 419
#     4  11  26  44  73 105 138 180 230 293 347 396
#     4  11  24  44  67 104 132 185 233 277 344 406
#     4  11  26  47  69 104 146 180 229 285 347 416
#     4  11  24  43  73 105 136 182 230 289 347 401
#     4  10  22  42  72  96 138 170 234 284 326 408
#
# _framework density 26.261146
#
# number of rings (size 3 to 8) (size 9 to 14) (size 15 to 20)
#    0.000    1.091    1.818    3.273    5.091   12.364 
#    0.000    0.000    0.000    0.000    0.000    0.000 
#    0.000    0.000    0.000    0.000    0.000    0.000 
#
# Total GULP energy -61537.994451 kJ/mol
# GULP energy per Si atom -5594.363132 kJ/mol
# Density = 2.620137 g / cm^3
# Si number density = 26.261146 Si / 1000 Ang^3
#
#
#
# Elastic Constant Matrix: (Units=GPa)
#
#
# Indices 1 2 3 4 5 6 
#
# 1 66.0824 30.9593 42.7949 -10.7295 -19.0446 2.1571
# 2 30.9593 98.0726 36.1947 -8.5203 -22.3028 4.3922
# 3 42.7949 36.1947 112.8535 -18.4128 -20.4618 -1.4980
# 4 -10.7295 -8.5203 -18.4128 42.7958 3.6814 -4.5442
# 5 -19.0446 -22.3028 -20.4618 3.6814 59.0262 -18.6366
# 6 2.1571 4.3922 -1.4980 -4.5442 -18.6366 25.9488
#
#
#
# Elastic Compliance Matrix: (Units=1/GPa)
#
#
# Indices 1 2 3 4 5 6 
#
# 1 0.022331 -0.003747 -0.006179 0.002025 0.004054 0.001687
# 2 -0.003747 0.012855 -0.002079 0.000495 0.002971 0.000236
# 3 -0.006179 -0.002079 0.013089 0.003884 0.002900 0.004384
# 4 0.002025 0.000495 0.003884 0.026101 0.002578 0.006395
# 5 0.004054 0.002971 0.002900 0.002578 0.026055 0.018492
# 6 0.001687 0.000236 0.004384 0.006395 0.018492 0.053011
#
#
# Mechanical properties :
#
#
# Convention : Reuss Voigt Hill
#
# Bulk Modulus (GPa) = 41.21194 55.21181 48.21187
# Shear Modulus (GPa) = 26.94815 36.69146 31.81981
#
# Velocity S-wave (km/s) = 3.20685 3.74194 3.48468
# Velocity P-wave (km/s) = 5.42578 6.30391 5.88125
#
# Compressibility (1/GPa) = 0.02426481
#
# Stress axis : x y z
#
# Youngs Moduli (GPa) = 44.78007 77.79167 76.40136
#
# Poissons Ratio (x) = 0.29148 0.47206
# Poissons Ratio (y) = 0.16779 0.15887
# Poissons Ratio (z) = 0.27668 0.16176
#
# Static dielectric constant tensor:
#      x y z
#    x 2.011270 0.019220 0.044520 
#    y 0.019220 1.988100 0.085520 
#    z 0.044520 0.085520 2.045710 
# 
# From -- ./inp_files/326926.got.cif
#   From: 2010.05.17/outbox.cif.g08.bks.cpg/sg2_164_cif.got.tgz:326926.got - 2010.06.03 11:33:40.
