data_PCOD9030661
_publ_section_title
;
Structure prediction by ZEFSAII (Michael W. Deem and Ramdas Pophale) SiO2 
 PCOD9030661
Probable space group: P -1
;
_chemical_formula_sum "Si O2"
_cell_formula_units_Z 15
_cell_length_a 9.960877
_cell_length_b 19.859579
_cell_length_c 10.679901
_cell_angle_alpha 148.315617
_cell_angle_beta 43.745233
_cell_angle_gamma 145.509111
_cell_volume 626.800649
_symmetry_space_group_name_H-M "P -1"
_symmetry_group_IT_number 2
_symmetry_cell_setting 'triclinic'
loop_
_space_group_symop_operation_xyz
x,y,z
-x,-y,-z
loop_
_atom_site_type_symbol
_atom_site_label
_atom_site_fract_x
_atom_site_fract_y
_atom_site_fract_z
Si Si1 0.000000 0.000000 0.000000
Si Si2 0.612166 0.579385 0.360907
Si Si3 0.126773 0.087907 0.354721
Si Si4 0.881474 0.659690 0.547668
Si Si5 0.931173 0.505185 0.694344
Si Si6 0.642645 0.920810 0.268157
Si Si7 0.510059 0.656729 0.134469
Si Si8 0.034104 0.824097 0.153664
O O1 0.998334 0.158498 0.221606
O O2 0.691373 0.885200 0.041459
O O3 0.649963 0.742903 0.566029
O O4 0.823183 0.624855 0.385405
O O5 0.366857 0.446292 0.378748
O O6 0.621004 0.502463 0.107666
O O7 0.987672 0.113023 0.598466
O O8 0.938064 0.019079 0.255529
O O9 0.183760 0.972375 0.194068
O O10 0.020665 0.591372 0.396015
O O11 0.645478 0.399606 0.725864
O O12 0.000000 0.500000 0.500000
O O13 0.071902 0.687980 0.925774
O O14 0.526413 0.784309 0.232673
O O15 0.500000 0.000000 0.500000
O O16 0.778203 0.732109 0.111693
#
# Coordination Sequence:
#
# PCOD9030661 Si02
#       8
#     1   2   2   2   2   2   2   2
#     4  12  22  46  70  98 144 184 224 288 358 412
#     4  11  22  43  68  97 132 180 226 281 354 410
#     4  10  22  42  72  92 134 183 227 284 347 410
#     4  11  26  41  66 103 136 178 227 288 349 416
#     4  12  26  40  66 102 135 178 235 286 338 419
#     4  11  24  43  70 103 134 180 237 289 351 424
#     4  11  23  42  70  94 135 186 226 281 351 417
#     4  10  23  44  67  96 131 183 228 275 349 419
#
# _framework density 23.931054
#
# number of rings (size 3 to 8) (size 9 to 14) (size 15 to 20)
#    0.000    1.067    4.000    2.000    3.733    1.600 
#    0.000    0.667    0.000    0.000    0.000    0.000 
#    0.000    0.000    0.000    0.000    0.000    0.000 
#
# Total GULP energy -83607.714358 kJ/mol
# GULP energy per Si atom -5573.847624 kJ/mol
# Density = 2.387659 g / cm^3
# Si number density = 23.931054 Si / 1000 Ang^3
#
#
#
# Elastic Constant Matrix: (Units=GPa)
#
#
# Indices 1 2 3 4 5 6 
#
# 1 78.8188 14.3035 39.1613 17.7461 -7.7774 -21.7519
# 2 14.3035 141.6786 36.9156 27.5252 -11.4701 -35.2338
# 3 39.1613 36.9156 103.9642 25.0680 -17.8593 -15.0193
# 4 17.7461 27.5252 25.0680 56.1667 -13.5129 -10.7526
# 5 -7.7774 -11.4701 -17.8593 -13.5129 43.8286 10.5927
# 6 -21.7519 -35.2338 -15.0193 -10.7526 10.5927 26.6608
#
#
#
# Elastic Compliance Matrix: (Units=1/GPa)
#
#
# Indices 1 2 3 4 5 6 
#
# 1 0.020934 0.004884 -0.006589 -0.003080 -0.003465 0.019957
# 2 0.004884 0.012372 -0.003259 -0.003300 -0.002644 0.018219
# 3 -0.006589 -0.003259 0.013882 -0.002408 0.003957 -0.004407
# 4 -0.003080 -0.003300 -0.002408 0.022411 0.004782 -0.001092
# 5 -0.003465 -0.002644 0.003957 0.004782 0.027787 -0.013204
# 6 0.019957 0.018219 -0.004407 -0.001092 -0.013204 0.080192
#
#
# Mechanical properties :
#
#
# Convention : Reuss Voigt Hill
#
# Bulk Modulus (GPa) = 26.83881 56.13582 41.48731
# Shear Modulus (GPa) = 25.00920 40.93663 32.97292
#
# Velocity S-wave (km/s) = 3.23623 4.14044 3.71594
# Velocity P-wave (km/s) = 5.02033 6.80925 5.98204
#
# Compressibility (1/GPa) = 0.03725948
#
# Stress axis : x y z
#
# Youngs Moduli (GPa) = 47.76932 80.82523 72.03647
#
# Poissons Ratio (x) = -0.39478 0.47466
# Poissons Ratio (y) = -0.23332 0.23480
# Poissons Ratio (z) = 0.31476 0.26345
#
# Static dielectric constant tensor:
#      x y z
#    x -2.809980 4.451900 -6.646590 
#    y 4.451900 -2.101470 6.023430 
#    z -6.646590 6.023430 -7.119340 
# 
# From -- ./inp_files/279472.got.cif
#   From: 2010.05.17/outbox.cif.g08.bks.cpg/sg2_140_cif.got.tgz:279472.got - 2010.06.03 11:33:40.
