data_PCOD9030333
_publ_section_title
;
Structure prediction by ZEFSAII (Michael W. Deem and Ramdas Pophale) SiO2 
 PCOD9030333
Probable space group: P -1
;
_chemical_formula_sum "Si O2"
_cell_formula_units_Z 10
_cell_length_a 17.112553
_cell_length_b 5.131439
_cell_length_c 5.287464
_cell_angle_alpha 84.074528
_cell_angle_beta 121.855478
_cell_angle_gamma 106.697042
_cell_volume 377.073749
_symmetry_space_group_name_H-M "P -1"
_symmetry_group_IT_number 2
_symmetry_cell_setting 'triclinic'
loop_
_space_group_symop_operation_xyz
x,y,z
-x,-y,-z
loop_
_atom_site_type_symbol
_atom_site_label
_atom_site_fract_x
_atom_site_fract_y
_atom_site_fract_z
Si Si1 0.686819 0.618433 0.660663
Si Si2 0.603331 0.048946 0.290310
Si Si3 0.942684 0.637794 0.585047
Si Si4 0.128267 0.981877 0.970399
Si Si5 0.241235 0.716417 0.813704
O O1 0.640794 0.348636 0.446544
O O2 0.616618 0.812185 0.521046
O O3 0.795004 0.801404 0.752226
O O4 0.706072 0.502737 0.977329
O O5 0.678564 0.045669 0.197111
O O6 0.500000 0.000000 0.000000
O O7 0.903293 0.849298 0.330049
O O8 0.846389 0.408565 0.513974
O O9 0.000000 0.500000 0.500000
O O10 0.025059 0.792751 0.904140
O O11 0.191470 0.807452 0.962317
#
# Coordination Sequence:
#
# PCOD9030333 Si02
#       5
#     2   2   2   2   2
#     4  11  24  45  67  96 131 169 220 269 322 390
#     4  12  28  45  66  97 130 169 225 274 322 385
#     4   8  16  32  65  96 128 173 206 253 325 382
#     4   9  17  38  66  95 131 171 210 260 321 386
#     4  10  22  42  70  93 135 175 209 267 328 376
#
# _framework density 26.520012999999999
#
# number of rings (size 3 to 8) (size 9 to 14) (size 15 to 20)
#    0.000    2.000    2.000    0.600    5.600    1.600 
#    0.000    2.000    0.000    0.000    0.000    0.000 
#    0.000    0.000    0.000    0.000    0.000    0.000 
#
# Total GULP energy -55945.349868 kJ/mol
# GULP energy per Si atom -5594.534987 kJ/mol
# Density = 2.645965 g / cm^3
# Si number density = 26.520013 Si / 1000 Ang^3
#
#
#
# Elastic Constant Matrix: (Units=GPa)
#
#
# Indices 1 2 3 4 5 6 
#
# 1 55.1797 25.4011 44.4901 10.2266 13.8356 1.7672
# 2 25.4011 128.4695 74.9228 17.6348 21.5187 -22.3761
# 3 44.4901 74.9228 200.4071 21.1246 58.5198 -2.3529
# 4 10.2266 17.6348 21.1246 69.8639 -0.1990 6.6796
# 5 13.8356 21.5187 58.5198 -0.1990 47.0150 6.1352
# 6 1.7672 -22.3761 -2.3529 6.6796 6.1352 40.8822
#
#
#
# Elastic Compliance Matrix: (Units=1/GPa)
#
#
# Indices 1 2 3 4 5 6 
#
# 1 0.022810 -0.002333 -0.003942 -0.001349 -0.000457 -0.002201
# 2 -0.002333 0.011914 -0.003030 -0.002438 -0.001937 0.007136
# 3 -0.003942 -0.003030 0.010212 -0.001866 -0.010296 0.000950
# 4 -0.001349 -0.002438 -0.001866 0.016153 0.004517 -0.004700
# 5 -0.000457 -0.001937 -0.010296 0.004517 0.036142 -0.007795
# 6 -0.002201 0.007136 0.000950 -0.004700 -0.007795 0.030454
#
#
# Mechanical properties :
#
#
# Convention : Reuss Voigt Hill
#
# Bulk Modulus (GPa) = 37.98414 74.85381 56.41897
# Shear Modulus (GPa) = 32.24351 47.50172 39.87261
#
# Velocity S-wave (km/s) = 3.49064 4.23681 3.88169
# Velocity P-wave (km/s) = 5.53173 7.22639 6.43509
#
# Compressibility (1/GPa) = 0.02632678
#
# Stress axis : x y z
#
# Youngs Moduli (GPa) = 43.84098 83.93295 97.92358
#
# Poissons Ratio (x) = 0.19579 0.38600
# Poissons Ratio (y) = 0.10227 0.29672
# Poissons Ratio (z) = 0.17282 0.25432
#
# Static dielectric constant tensor:
#      x y z
#    x 2.084040 0.043970 -0.062350 
#    y 0.043970 2.220370 0.015140 
#    z -0.062350 0.015140 2.071050 
# 
# From -- ./inp_files/2481.got.cif
#   From: 2010.05.17/outbox.cif.g08.bks.cpg/sg2_2_cif.got.tgz:2481.got - 2010.06.03 11:33:40.
