data_PCOD9030279
_publ_section_title
;
Structure prediction by ZEFSAII (Michael W. Deem and Ramdas Pophale) SiO2 
 PCOD9030279
Probable space group: P -1
;
_chemical_formula_sum "Si O2"
_cell_formula_units_Z 16
_cell_length_a 11.123931
_cell_length_b 11.798976
_cell_length_c 11.779561
_cell_angle_alpha 31.751515
_cell_angle_beta 113.279951
_cell_angle_gamma 102.241272
_cell_volume 722.337150
_symmetry_space_group_name_H-M "P -1"
_symmetry_group_IT_number 2
_symmetry_cell_setting 'triclinic'
loop_
_space_group_symop_operation_xyz
x,y,z
-x,-y,-z
loop_
_atom_site_type_symbol
_atom_site_label
_atom_site_fract_x
_atom_site_fract_y
_atom_site_fract_z
Si Si1 0.091154 0.100432 0.232915
Si Si2 0.581871 0.982744 0.348969
Si Si3 0.182162 0.679539 0.155592
Si Si4 0.706759 0.732330 0.996940
Si Si5 0.842512 0.574900 0.415404
Si Si6 0.736244 0.309747 0.229005
Si Si7 0.350494 0.998051 0.901839
Si Si8 0.804029 0.590641 0.825789
O O1 0.103743 0.264993 0.203451
O O2 0.154405 0.852969 0.511633
O O3 0.179486 0.179194 0.101346
O O4 0.945457 0.129790 0.098717
O O5 0.631118 0.170819 0.275321
O O6 0.644411 0.972408 0.256031
O O7 0.651577 0.751978 0.632625
O O8 0.421698 0.059624 0.213745
O O9 0.173859 0.607870 0.342820
O O10 0.169858 0.483408 0.231230
O O11 0.315641 0.764091 0.113791
O O12 0.759068 0.610475 0.237293
O O13 0.673790 0.541061 0.070250
O O14 0.769189 0.808770 0.251501
O O15 0.000000 0.500000 0.500000
O O16 0.805175 0.376920 0.084591
O O17 0.500000 0.000000 0.000000
#
# Coordination Sequence:
#
# PCOD9030279 Si02
#       8
#     2   2   2   2   2   2   2   2
#     4  10  24  42  69 106 142 185 231 294 352 431
#     4  11  22  45  69 102 143 182 234 300 347 424
#     4  12  25  45  75 101 141 191 234 293 365 413
#     4  11  24  44  69 102 147 183 236 290 356 418
#     4  12  27  48  73 104 146 188 239 295 353 434
#     4  10  23  42  69 107 137 185 236 288 360 418
#     4  12  27  48  71 104 143 191 247 296 348 424
#     4  10  22  42  70 106 138 181 236 291 358 422
#
# _framework density 22.150321000000002
#
# number of rings (size 3 to 8) (size 9 to 14) (size 15 to 20)
#    0.000    1.000    5.000    0.750    1.750    8.000 
#    2.250    0.000    0.000    0.000    0.000    0.000 
#    0.000    0.000    0.000    0.000    0.000    0.000 
#
# Total GULP energy -89399.545024 kJ/mol
# GULP energy per Si atom -5587.471564 kJ/mol
# Density = 2.209991 g / cm^3
# Si number density = 22.150321 Si / 1000 Ang^3
#
#
#
# Elastic Constant Matrix: (Units=GPa)
#
#
# Indices 1 2 3 4 5 6 
#
# 1 91.2737 48.6863 36.2476 8.9515 11.3104 -0.9389
# 2 48.6863 61.7251 29.7709 21.8336 -3.3899 -8.9047
# 3 36.2476 29.7709 126.5807 29.1839 -3.8195 6.3272
# 4 8.9515 21.8336 29.1839 34.9527 -4.0401 1.6234
# 5 11.3104 -3.3899 -3.8195 -4.0401 38.4697 7.0940
# 6 -0.9389 -8.9047 6.3272 1.6234 7.0940 32.8374
#
#
#
# Elastic Compliance Matrix: (Units=1/GPa)
#
#
# Indices 1 2 3 4 5 6 
#
# 1 0.023863 -0.021145 -0.004215 0.009869 -0.007696 -0.003065
# 2 -0.021145 0.041810 0.000753 -0.021137 0.005844 0.010371
# 3 -0.004215 0.000753 0.010992 -0.008254 0.001906 -0.002038
# 4 0.009869 -0.021137 -0.008254 0.046521 0.000456 -0.006258
# 5 -0.007696 0.005844 0.001906 0.000456 0.030026 -0.005512
# 6 -0.003065 0.010371 -0.002038 -0.006258 -0.005512 0.035070
#
#
# Mechanical properties :
#
#
# Convention : Reuss Voigt Hill
#
# Bulk Modulus (GPa) = 36.42816 56.55432 46.49124
# Shear Modulus (GPa) = 20.27189 32.24361 26.25775
#
# Velocity S-wave (km/s) = 3.02850 3.81947 3.44675
# Velocity P-wave (km/s) = 5.35824 6.71108 6.07245
#
# Compressibility (1/GPa) = 0.02745129
#
# Stress axis : x y z
#
# Youngs Moduli (GPa) = 41.90552 23.91778 90.97253
#
# Poissons Ratio (x) = 0.50575 0.38342
# Poissons Ratio (y) = 0.88611 -0.06849
# Poissons Ratio (z) = 0.17662 -0.01801
#
# Static dielectric constant tensor:
#      x y z
#    x 1.844700 -0.045020 0.039730 
#    y -0.045020 1.834400 -0.004700 
#    z 0.039730 -0.004700 1.818100 
# 
# From -- ./inp_files/427300.got.cif
#   From: 2010.05.17/outbox.cif.g08.bks.cpg/sg2_214_cif.got.tgz:427300.got - 2010.06.03 11:33:40.
