data_PCOD9030459
_publ_section_title
;
Structure prediction by ZEFSAII (Michael W. Deem and Ramdas Pophale) SiO2 
 PCOD9030459
Probable space group: P -1
;
_chemical_formula_sum "Si O2"
_cell_formula_units_Z 16
_cell_length_a 16.670682
_cell_length_b 13.789186
_cell_length_c 6.818736
_cell_angle_alpha 109.622411
_cell_angle_beta 40.119138
_cell_angle_gamma 130.457646
_cell_volume 726.240738
_symmetry_space_group_name_H-M "P -1"
_symmetry_group_IT_number 2
_symmetry_cell_setting 'triclinic'
loop_
_space_group_symop_operation_xyz
x,y,z
-x,-y,-z
loop_
_atom_site_type_symbol
_atom_site_label
_atom_site_fract_x
_atom_site_fract_y
_atom_site_fract_z
Si Si1 0.360419 0.182371 0.357864
Si Si2 0.262597 0.478675 0.932286
Si Si3 0.259241 0.793327 0.767388
Si Si4 0.624640 0.673846 0.235706
Si Si5 0.703872 0.398683 0.675040
Si Si6 0.508170 0.939129 0.742809
Si Si7 0.837942 0.868017 0.624632
Si Si8 0.899215 0.667290 0.248499
O O1 0.302447 0.243908 0.642992
O O2 0.416894 0.126852 0.365720
O O3 0.223383 0.084225 0.391334
O O4 0.513869 0.299075 0.019854
O O5 0.430383 0.584966 0.566354
O O6 0.319155 0.414263 0.923249
O O7 0.123600 0.374925 0.966713
O O8 0.219404 0.546582 0.211549
O O9 0.267220 0.690131 0.561890
O O10 0.343033 0.832126 0.852754
O O11 0.368646 0.934620 0.542563
O O12 0.073594 0.731102 0.058190
O O13 0.701831 0.776025 0.982115
O O14 0.769459 0.526639 0.508755
O O15 0.500000 0.000000 0.000000
O O16 0.868196 0.771185 0.411606
O O17 0.000000 0.000000 0.500000
#
# Coordination Sequence:
#
# PCOD9030459 Si02
#       8
#     2   2   2   2   2   2   2   2
#     4  11  25  44  74 102 129 181 232 281 338 405
#     4  10  22  42  71 101 134 181 222 280 345 401
#     4  11  28  46  70 103 136 184 230 283 339 398
#     4  10  22  43  67 100 139 174 229 272 333 421
#     4  11  24  45  71 101 136 182 229 283 337 402
#     4  11  26  49  73  97 135 184 240 279 327 406
#     4  12  28  42  67 103 144 180 220 281 350 406
#     4  12  26  44  67 104 147 174 224 284 345 414
#
# _framework density 22.03126
#
# number of rings (size 3 to 8) (size 9 to 14) (size 15 to 20)
#    0.000    1.000    3.750    1.125    8.750    4.000 
#    0.000    0.000    0.000    0.000    0.000    0.000 
#    0.000    0.000    0.000    0.000    0.000    0.000 
#
# Total GULP energy -89355.357744 kJ/mol
# GULP energy per Si atom -5584.709859 kJ/mol
# Density = 2.198112 g / cm^3
# Si number density = 22.031260 Si / 1000 Ang^3
#
#
#
# Elastic Constant Matrix: (Units=GPa)
#
#
# Indices 1 2 3 4 5 6 
#
# 1 152.9663 54.5031 39.7792 -3.7653 9.1666 24.7915
# 2 54.5031 89.8566 24.8535 -2.2434 5.2541 3.9730
# 3 39.7792 24.8535 41.2805 27.4365 19.6819 3.7597
# 4 -3.7653 -2.2434 27.4365 18.4176 -7.6495 5.8106
# 5 9.1666 5.2541 19.6819 -7.6495 9.4963 0.9508
# 6 24.7915 3.9730 3.7597 5.8106 0.9508 34.9139
#
#
#
# Elastic Compliance Matrix: (Units=1/GPa)
#
#
# Indices 1 2 3 4 5 6 
#
# 1 0.009621 -0.005355 0.001051 -0.002671 -0.010092 -0.005616
# 2 -0.005355 0.014490 0.000005 -0.002213 -0.004907 0.002655
# 3 0.001051 0.000005 -0.005839 0.022855 0.029968 -0.004738
# 4 -0.002671 -0.002213 0.022855 0.001715 -0.042240 0.000552
# 5 -0.010092 -0.004907 0.029968 -0.042240 0.020526 0.010968
# 6 -0.005616 0.002655 -0.004738 0.000552 0.010968 0.032447
#
#
# Mechanical properties :
#
#
# Convention : Reuss Voigt Hill
#
# Bulk Modulus (GPa) = 103.35691 58.04165 80.69928
# Shear Modulus (GPa) = 58.97401 23.56341 41.26871
#
# Velocity S-wave (km/s) = 5.17943 3.27394 4.33273
# Velocity P-wave (km/s) = 9.09858 6.37918 7.85742
#
# Compressibility (1/GPa) = 0.00967521
#
# Stress axis : x y z
#
# Youngs Moduli (GPa) = 103.93620 69.01437 -171.26958
#
# Poissons Ratio (x) = 0.36956 0.18003
# Poissons Ratio (y) = 0.55656 0.00088
# Poissons Ratio (z) = -0.10926 -0.00035
#
# Static dielectric constant tensor:
#      x y z
#    x 1.826290 -0.021980 -0.002460 
#    y -0.021980 2.048290 0.081580 
#    z -0.002460 0.081580 1.806360 
# 
# From -- ./inp_files/72369.got.cif
#   From: 2010.05.17/outbox.cif.g08.bks.cpg/sg2_37_cif.got.tgz:72369.got - 2010.06.03 11:33:40.
