data_PCOD9030853
_publ_section_title
;
Structure prediction by ZEFSAII (Michael W. Deem and Ramdas Pophale) SiO2 
 PCOD9030853
Probable space group: P -1
;
_chemical_formula_sum "Si O2"
_cell_formula_units_Z 16
_cell_length_a 8.925480
_cell_length_b 8.732324
_cell_length_c 15.776470
_cell_angle_alpha 121.337399
_cell_angle_beta 40.054993
_cell_angle_gamma 105.305725
_cell_volume 655.428314
_symmetry_space_group_name_H-M "P -1"
_symmetry_group_IT_number 2
_symmetry_cell_setting 'triclinic'
loop_
_space_group_symop_operation_xyz
x,y,z
-x,-y,-z
loop_
_atom_site_type_symbol
_atom_site_label
_atom_site_fract_x
_atom_site_fract_y
_atom_site_fract_z
Si Si1 0.611641 0.640445 0.545355
Si Si2 0.132916 0.061278 0.151430
Si Si3 0.602263 0.007701 0.364381
Si Si4 0.772512 0.028070 0.721199
Si Si5 0.084498 0.693683 0.378795
Si Si6 0.763562 0.266723 0.117700
Si Si7 0.241761 0.235840 0.002237
Si Si8 0.375527 0.394939 0.839106
O O1 0.500000 0.500000 0.500000
O O2 0.464682 0.681960 0.707633
O O3 0.894907 0.570426 0.415784
O O4 0.575236 0.832483 0.565400
O O5 0.218032 0.019118 0.197703
O O6 0.849806 0.071825 0.277568
O O7 0.204163 0.226462 0.116211
O O8 0.241746 0.886696 0.993695
O O9 0.639377 0.805129 0.248646
O O10 0.500000 0.000000 0.500000
O O11 0.866708 0.205284 0.700303
O O12 0.492704 0.086350 0.832851
O O13 0.943134 0.856482 0.549584
O O14 0.344622 0.602989 0.278172
O O15 0.767181 0.448842 0.115625
O O16 0.000202 0.202780 0.055152
O O17 0.280738 0.409596 0.981464
#
# Coordination Sequence:
#
# PCOD9030853 Si02
#       8
#     2   2   2   2   2   2   2   2
#     4  12  26  46  70 104 140 185 243 298 353 421
#     4  12  23  40  70 110 142 186 238 292 358 425
#     4  12  23  41  70 100 140 184 241 287 351 427
#     4  10  22  42  76 108 140 186 240 292 358 430
#     4  10  22  46  71 100 146 187 235 295 360 420
#     4  12  25  44  68 104 149 189 236 292 353 420
#     4  11  22  43  66  99 143 187 232 289 353 420
#     4  11  24  44  70  99 141 195 234 286 355 427
#
# _framework density 24.411518000000001
#
# number of rings (size 3 to 8) (size 9 to 14) (size 15 to 20)
#    0.000    0.750    2.500    7.125    0.000    0.500 
#    2.250    1.250    0.000    0.000    0.000    0.000 
#    0.000    0.000    0.000    0.000    0.000    0.000 
#
# Total GULP energy -89578.444402 kJ/mol
# GULP energy per Si atom -5598.652775 kJ/mol
# Density = 2.435596 g / cm^3
# Si number density = 24.411518 Si / 1000 Ang^3
#
#
#
# Elastic Constant Matrix: (Units=GPa)
#
#
# Indices 1 2 3 4 5 6 
#
# 1 112.0702 29.4315 42.6586 -15.5322 -8.1909 -25.2324
# 2 29.4315 48.6621 64.8271 -18.0929 3.7960 -19.8026
# 3 42.6586 64.8271 138.3795 -33.1811 10.1033 -16.0175
# 4 -15.5322 -18.0929 -33.1811 48.6497 -2.2918 7.4786
# 5 -8.1909 3.7960 10.1033 -2.2918 56.6770 -18.7830
# 6 -25.2324 -19.8026 -16.0175 7.4786 -18.7830 45.7445
#
#
#
# Elastic Compliance Matrix: (Units=1/GPa)
#
#
# Indices 1 2 3 4 5 6 
#
# 1 0.012278 -0.001153 -0.002550 0.000871 0.004719 0.007176
# 2 -0.001153 0.071051 -0.030377 0.002271 0.008005 0.022401
# 3 -0.002550 -0.030377 0.022612 0.004531 -0.005356 -0.009579
# 4 0.000871 0.002271 0.004531 0.024929 -0.000192 -0.001104
# 5 0.004719 0.008005 -0.005356 -0.000192 0.023309 0.013795
# 6 0.007176 0.022401 -0.009579 -0.001104 0.013795 0.038007
#
#
# Mechanical properties :
#
#
# Convention : Reuss Voigt Hill
#
# Bulk Modulus (GPa) = 26.46837 63.66072 45.06455
# Shear Modulus (GPa) = 18.31916 41.02720 29.67318
#
# Velocity S-wave (km/s) = 2.74237 4.10402 3.49024
# Velocity P-wave (km/s) = 4.57095 6.97080 5.89430
#
# Compressibility (1/GPa) = 0.03778094
#
# Stress axis : x y z
#
# Youngs Moduli (GPa) = 81.44925 14.07442 44.22392
#
# Poissons Ratio (x) = 0.01623 0.11276
# Poissons Ratio (y) = 0.09392 1.34339
# Poissons Ratio (z) = 0.20767 0.42754
#
# Static dielectric constant tensor:
#      x y z
#    x 1.943490 0.030110 -0.016690 
#    y 0.030110 1.980130 -0.017630 
#    z -0.016690 -0.017630 1.921090 
# 
# From -- ./inp_files/495363.got.cif
#   From: 2010.05.17/outbox.cif.g08.bks.cpg/sg2_248_cif.got.tgz:495363.got - 2010.06.03 11:33:40.
