data_PCOD9030103
_publ_section_title
;
Structure prediction by ZEFSAII (Michael W. Deem and Ramdas Pophale) SiO2 
 PCOD9030103
Probable space group: P -1
;
_chemical_formula_sum "Si O2"
_cell_formula_units_Z 14
_cell_length_a 15.307691
_cell_length_b 15.682929
_cell_length_c 7.342253
_cell_angle_alpha 81.678835
_cell_angle_beta 96.112763
_cell_angle_gamma 162.019079
_cell_volume 535.592072
_symmetry_space_group_name_H-M "P -1"
_symmetry_group_IT_number 2
_symmetry_cell_setting 'triclinic'
loop_
_space_group_symop_operation_xyz
x,y,z
-x,-y,-z
loop_
_atom_site_type_symbol
_atom_site_label
_atom_site_fract_x
_atom_site_fract_y
_atom_site_fract_z
Si Si1 0.991149 0.799602 0.998871
Si Si2 0.719593 0.138412 0.598929
Si Si3 0.294157 0.177538 0.503620
Si Si4 0.299229 0.360583 0.283086
Si Si5 0.859842 0.204827 0.241837
Si Si6 0.510131 0.762419 0.761842
Si Si7 0.282231 0.738076 0.146199
O O1 0.818585 0.721213 0.913384
O O2 0.047331 0.796604 0.829358
O O3 0.798539 0.559657 0.158103
O O4 0.277031 0.079107 0.088931
O O5 0.912154 0.274528 0.444386
O O6 0.863678 0.333800 0.718928
O O7 0.500000 0.000000 0.500000
O O8 0.554587 0.906121 0.730415
O O9 0.372303 0.328673 0.336252
O O10 0.445618 0.342966 0.675952
O O11 0.399956 0.190083 0.429085
O O12 0.958849 0.865922 0.560147
O O13 0.040288 0.449361 0.106953
O O14 0.521374 0.897836 0.236859
O O15 0.500000 0.000000 0.000000
#
# Coordination Sequence:
#
# PCOD9030103 Si02
#       7
#     2   2   2   2   2   2   2
#     4  12  25  41  64  97 133 169 208 264 325 380
#     4  10  24  42  63  90 122 169 221 266 316 380
#     4  10  22  43  69  97 128 169 214 259 308 386
#     4  10  22  42  69  97 129 169 213 255 316 383
#     4  11  23  39  60  85 119 163 208 253 311 376
#     4  12  26  42  64  96 132 167 215 268 324 377
#     4  11  22  39  61  86 119 156 206 265 318 367
#
# _framework density 26.139296999999999
#
# number of rings (size 3 to 8) (size 9 to 14) (size 15 to 20)
#    0.000    1.143    0.000    6.000    0.000    9.143 
#    0.000    0.000    0.000    0.000    0.000    0.000 
#    0.000    0.000    0.000    0.000    0.000    0.000 
#
# Total GULP energy -78427.874437 kJ/mol
# GULP energy per Si atom -5601.991031 kJ/mol
# Density = 2.607980 g / cm^3
# Si number density = 26.139297 Si / 1000 Ang^3
#
#
#
# Elastic Constant Matrix: (Units=GPa)
#
#
# Indices 1 2 3 4 5 6 
#
# 1 75.9849 13.6598 7.4031 9.1540 13.1182 -10.9268
# 2 13.6598 110.6962 -0.1643 3.4115 -4.7014 6.1857
# 3 7.4031 -0.1643 65.6960 -2.3740 13.1041 3.1397
# 4 9.1540 3.4115 -2.3740 35.5337 4.7502 -1.1997
# 5 13.1182 -4.7014 13.1041 4.7502 44.4609 -1.7798
# 6 -10.9268 6.1857 3.1397 -1.1997 -1.7798 30.9951
#
#
#
# Elastic Compliance Matrix: (Units=1/GPa)
#
#
# Indices 1 2 3 4 5 6 
#
# 1 0.015588 -0.002313 -0.001381 -0.003175 -0.003868 0.005752
# 2 -0.002313 0.009557 0.000063 -0.000626 0.001635 -0.002660
# 3 -0.001381 0.000063 0.016513 0.002010 -0.004762 -0.002368
# 4 -0.003175 -0.000626 0.002010 0.029533 -0.002886 -0.000220
# 5 -0.003868 0.001635 -0.004762 -0.002886 0.025524 0.000147
# 6 0.005752 -0.002660 -0.002368 -0.000220 0.000147 0.035061
#
#
# Mechanical properties :
#
#
# Convention : Reuss Voigt Hill
#
# Bulk Modulus (GPa) = 29.07325 32.68602 30.87964
# Shear Modulus (GPa) = 33.22193 37.62984 35.42588
#
# Velocity S-wave (km/s) = 3.56892 3.79831 3.68540
# Velocity P-wave (km/s) = 5.30372 5.63630 5.47254
#
# Compressibility (1/GPa) = 0.03439588
#
# Stress axis : x y z
#
# Youngs Moduli (GPa) = 64.15102 104.63926 60.55807
#
# Poissons Ratio (x) = 0.24208 0.08360
# Poissons Ratio (y) = 0.14841 -0.00381
# Poissons Ratio (z) = 0.08856 -0.00659
#
# Static dielectric constant tensor:
#      x y z
#    x 2.077900 -0.007360 0.128320 
#    y -0.007360 1.963040 -0.021230 
#    z 0.128320 -0.021230 2.169000 
# 
# From -- ./inp_files/313369.got.cif
#   From: 2010.05.17/outbox.cif.g08.bks.cpg/sg2_157_cif.got.tgz:313369.got - 2010.06.03 11:33:40.
