data_PCOD9030864
_publ_section_title
;
Structure prediction by ZEFSAII (Michael W. Deem and Ramdas Pophale) SiO2 
 PCOD9030864
Probable space group: P -1
;
_chemical_formula_sum "Si O2"
_cell_formula_units_Z 16
_cell_length_a 12.988038
_cell_length_b 13.669207
_cell_length_c 9.046343
_cell_angle_alpha 149.274125
_cell_angle_beta 131.167189
_cell_angle_gamma 57.902907
_cell_volume 615.238343
_symmetry_space_group_name_H-M "P -1"
_symmetry_group_IT_number 2
_symmetry_cell_setting 'triclinic'
loop_
_space_group_symop_operation_xyz
x,y,z
-x,-y,-z
loop_
_atom_site_type_symbol
_atom_site_label
_atom_site_fract_x
_atom_site_fract_y
_atom_site_fract_z
Si Si1 0.544987 0.525945 0.387755
Si Si2 0.075959 0.776558 0.338403
Si Si3 0.346566 0.786891 0.445167
Si Si4 0.563001 0.912680 0.294317
Si Si5 0.040772 0.301834 0.354114
Si Si6 0.166998 0.505561 0.331676
Si Si7 0.892739 0.912610 0.588692
Si Si8 0.282695 0.511279 0.750103
O O1 0.425266 0.661179 0.471088
O O2 0.689864 0.590363 0.686326
O O3 0.578673 0.538175 0.260161
O O4 0.502740 0.301428 0.076654
O O5 0.210659 0.857393 0.482351
O O6 0.137365 0.637616 0.338688
O O7 0.977342 0.901142 0.501736
O O8 0.963958 0.646466 0.967600
O O9 0.451139 0.947564 0.677160
O O10 0.293683 0.647168 0.077616
O O11 0.728680 0.903621 0.438341
O O12 0.500000 0.000000 0.500000
O O13 0.790265 0.395696 0.341760
O O14 0.061123 0.265655 0.500563
O O15 0.196732 0.313361 0.454206
O O16 0.951406 0.115370 0.973284
O O17 0.000000 0.500000 0.500000
#
# Coordination Sequence:
#
# PCOD9030864 Si02
#       8
#     2   2   2   2   2   2   2   2
#     4  10  25  47  75 108 152 201 256 312 380 445
#     4  11  26  50  73 114 157 203 249 311 392 455
#     4  12  26  47  80 113 152 200 258 313 380 459
#     4  12  26  45  72 109 148 192 255 321 379 443
#     4  11  24  44  81 112 142 197 258 317 381 443
#     4   9  24  45  76 105 156 207 258 306 380 450
#     4  11  28  47  74 113 158 192 250 324 379 455
#     4  10  22  42  77 107 143 198 261 308 363 443
#
# _framework density 26.006181999999999
#
# number of rings (size 3 to 8) (size 9 to 14) (size 15 to 20)
#    0.750    0.500    1.250    2.625   12.250    3.000 
#    0.000    1.875    0.000    0.000    0.000    0.000 
#    0.000    0.000    0.000    0.000    0.000    0.000 
#
# Total GULP energy -89428.167787 kJ/mol
# GULP energy per Si atom -5589.260487 kJ/mol
# Density = 2.594699 g / cm^3
# Si number density = 26.006182 Si / 1000 Ang^3
#
#
#
# Elastic Constant Matrix: (Units=GPa)
#
#
# Indices 1 2 3 4 5 6 
#
# 1 192.3383 40.3737 34.6712 -2.6879 17.4721 -14.0167
# 2 40.3737 136.0093 29.2406 1.0647 -0.3631 -15.9643
# 3 34.6712 29.2406 84.6569 1.0621 23.2421 -3.2470
# 4 -2.6879 1.0647 1.0621 32.4723 9.0833 4.6408
# 5 17.4721 -0.3631 23.2421 9.0833 48.4557 2.9043
# 6 -14.0167 -15.9643 -3.2470 4.6408 2.9043 39.2235
#
#
#
# Elastic Compliance Matrix: (Units=1/GPa)
#
#
# Indices 1 2 3 4 5 6 
#
# 1 0.006020 -0.001297 -0.001500 0.000851 -0.001712 0.001526
# 2 -0.001297 0.008709 -0.002898 -0.001261 0.001989 0.002843
# 3 -0.001500 -0.002898 0.015360 0.001473 -0.007119 -0.000091
# 4 0.000851 -0.001261 0.001473 0.033336 -0.007061 -0.003509
# 5 -0.001712 0.001989 -0.007119 -0.007061 0.026097 -0.001488
# 6 0.001526 0.002843 -0.000091 -0.003509 -0.001488 0.027715
#
#
# Mechanical properties :
#
#
# Convention : Reuss Voigt Hill
#
# Bulk Modulus (GPa) = 53.47571 69.06395 61.26983
# Shear Modulus (GPa) = 37.07503 44.61156 40.84330
#
# Velocity S-wave (km/s) = 3.77984 4.14626 3.96728
# Velocity P-wave (km/s) = 6.29737 7.03821 6.67807
#
# Compressibility (1/GPa) = 0.01870008
#
# Stress axis : x y z
#
# Youngs Moduli (GPa) = 166.10362 114.81802 65.10296
#
# Poissons Ratio (x) = 0.14890 0.09764
# Poissons Ratio (y) = 0.21541 0.18869
# Poissons Ratio (z) = 0.24913 0.33278
#
# Static dielectric constant tensor:
#      x y z
#    x 2.219740 -0.094240 0.004770 
#    y -0.094240 2.190980 -0.032300 
#    z 0.004770 -0.032300 2.015400 
# 
# From -- ./inp_files/437158.got.cif
#   From: 2010.05.17/outbox.cif.g08.bks.cpg/sg2_219_cif.got.tgz:437158.got - 2010.06.03 11:33:40.
