data_PCOD9030882
_publ_section_title
;
Structure prediction by ZEFSAII (Michael W. Deem and Ramdas Pophale) SiO2 
 PCOD9030882
Probable space group: P -1
;
_chemical_formula_sum "Si O2"
_cell_formula_units_Z 14
_cell_length_a 9.066723
_cell_length_b 11.858749
_cell_length_c 11.141456
_cell_angle_alpha 49.302492
_cell_angle_beta 136.180559
_cell_angle_gamma 139.590261
_cell_volume 523.421223
_symmetry_space_group_name_H-M "P -1"
_symmetry_group_IT_number 2
_symmetry_cell_setting 'triclinic'
loop_
_space_group_symop_operation_xyz
x,y,z
-x,-y,-z
loop_
_atom_site_type_symbol
_atom_site_label
_atom_site_fract_x
_atom_site_fract_y
_atom_site_fract_z
Si Si1 0.466255 0.188026 0.408757
Si Si2 0.266809 0.992649 0.928528
Si Si3 0.876362 0.193226 0.791650
Si Si4 0.011433 0.540228 0.774267
Si Si5 0.568172 0.692574 0.953773
Si Si6 0.193183 0.311321 0.284454
Si Si7 0.958161 0.827414 0.448385
O O1 0.713007 0.191023 0.587797
O O2 0.425667 0.203613 0.234693
O O3 0.451215 0.343933 0.358305
O O4 0.230387 0.004368 0.453441
O O5 0.016642 0.811393 0.853445
O O6 0.269634 0.972947 0.086785
O O7 0.240971 0.151427 0.758086
O O8 0.500000 0.000000 0.000000
O O9 0.923279 0.355591 0.789972
O O10 0.142801 0.222652 0.890876
O O11 0.313532 0.642246 0.912027
O O12 0.980317 0.658298 0.574266
O O13 0.845480 0.538484 0.789918
O O14 0.500000 0.500000 0.000000
O O15 0.124678 0.192201 0.446991
#
# Coordination Sequence:
#
# PCOD9030882 Si02
#       7
#     2   2   2   2   2   2   2
#     4  11  20  39  67  84 122 163 204 246 306 366
#     4  11  19  35  62  93 124 159 204 245 303 376
#     4  11  22  39  65  91 116 168 207 239 308 369
#     4   9  23  39  60  89 126 155 204 255 305 349
#     4  10  22  43  60  88 124 167 202 247 302 367
#     4   9  19  38  60  88 121 155 195 254 305 346
#     4   9  19  39  60  87 122 157 196 253 303 347
#
# _framework density 26.747102000000002
#
# number of rings (size 3 to 8) (size 9 to 14) (size 15 to 20)
#    0.857    1.143    2.857    3.429    0.000    4.000 
#    0.000    2.143    0.000    0.000    0.000    0.000 
#    0.000    0.000    0.000    0.000    0.000    0.000 
#
# Total GULP energy -78362.812417 kJ/mol
# GULP energy per Si atom -5597.343744 kJ/mol
# Density = 2.668622 g / cm^3
# Si number density = 26.747102 Si / 1000 Ang^3
#
#
#
# Elastic Constant Matrix: (Units=GPa)
#
#
# Indices 1 2 3 4 5 6 
#
# 1 158.9820 22.9087 77.0871 2.9561 7.3409 -16.7232
# 2 22.9087 46.3067 34.3772 -5.0483 13.2105 -6.8647
# 3 77.0871 34.3772 233.6588 2.5081 20.6750 7.5134
# 4 2.9561 -5.0483 2.5081 45.7558 2.3321 15.0643
# 5 7.3409 13.2105 20.6750 2.3321 64.6407 -4.2699
# 6 -16.7232 -6.8647 7.5134 15.0643 -4.2699 38.0117
#
#
#
# Elastic Compliance Matrix: (Units=1/GPa)
#
#
# Indices 1 2 3 4 5 6 
#
# 1 0.008379 -0.001878 -0.002681 -0.002230 0.000690 0.004838
# 2 -0.001878 0.026722 -0.003074 0.002398 -0.004140 0.003192
# 3 -0.002681 -0.003074 0.005818 0.000653 -0.001168 -0.003274
# 4 -0.002230 0.002398 0.000653 0.026035 -0.002127 -0.011234
# 5 0.000690 -0.004140 -0.001168 -0.002127 0.016855 0.002523
# 6 0.004838 0.003192 -0.003274 -0.011234 0.002523 0.034395
#
#
# Mechanical properties :
#
#
# Convention : Reuss Voigt Hill
#
# Bulk Modulus (GPa) = 38.98012 78.63261 58.80636
# Shear Modulus (GPa) = 35.20625 49.98660 42.59643
#
# Velocity S-wave (km/s) = 3.63197 4.32772 3.99502
# Velocity P-wave (km/s) = 5.67393 7.37798 6.58134
#
# Compressibility (1/GPa) = 0.02565410
#
# Stress axis : x y z
#
# Youngs Moduli (GPa) = 119.34667 37.42239 171.87847
#
# Poissons Ratio (x) = 0.07027 0.46076
# Poissons Ratio (y) = 0.22409 0.52836
# Poissons Ratio (z) = 0.31994 0.11504
#
# Static dielectric constant tensor:
#      x y z
#    x 2.066660 -0.067150 0.030050 
#    y -0.067150 2.209270 -0.013410 
#    z 0.030050 -0.013410 2.070380 
# 
# From -- ./inp_files/398695.got.cif
#   From: 2010.05.17/outbox.cif.g08.bks.cpg/sg2_200_cif.got.tgz:398695.got - 2010.06.03 11:33:40.
