data_PCOD9030293
_publ_section_title
;
Structure prediction by ZEFSAII (Michael W. Deem and Ramdas Pophale) SiO2 
 PCOD9030293
Probable space group: P -1
;
_chemical_formula_sum "Si O2"
_cell_formula_units_Z 15
_cell_length_a 20.998288
_cell_length_b 9.773773
_cell_length_c 5.428076
_cell_angle_alpha 73.247028
_cell_angle_beta 94.266053
_cell_angle_gamma 38.206392
_cell_volume 568.280418
_symmetry_space_group_name_H-M "P -1"
_symmetry_group_IT_number 2
_symmetry_cell_setting 'triclinic'
loop_
_space_group_symop_operation_xyz
x,y,z
-x,-y,-z
loop_
_atom_site_type_symbol
_atom_site_label
_atom_site_fract_x
_atom_site_fract_y
_atom_site_fract_z
Si Si1 0.088178 0.880318 0.806336
Si Si2 0.209465 0.351107 0.052221
Si Si3 0.727473 0.149766 0.493121
Si Si4 0.579224 0.560626 0.858516
Si Si5 0.344835 0.113732 0.720664
Si Si6 0.254676 0.591543 0.376008
Si Si7 0.500000 0.500000 0.500000
Si Si8 0.029336 0.316006 0.415838
O O1 0.185912 0.567488 0.935832
O O2 0.073182 0.083643 0.677763
O O3 0.117636 0.815641 0.146432
O O4 0.000000 0.000000 0.500000
O O5 0.289300 0.167434 0.931306
O O6 0.082838 0.516951 0.870048
O O7 0.268239 0.208255 0.409856
O O8 0.742886 0.289272 0.484710
O O9 0.647538 0.237130 0.637923
O O10 0.857534 0.850353 0.627599
O O11 0.638990 0.315520 0.147431
O O12 0.680916 0.464560 0.818252
O O13 0.502313 0.645625 0.569992
O O14 0.483001 0.812005 0.882662
O O15 0.328688 0.314441 0.613757
O O16 0.000000 0.500000 0.500000
#
# Coordination Sequence:
#
# PCOD9030293 Si02
#       8
#     2   2   2   2   2   2   1   2
#     4   9  19  43  70  98 145 187 238 287 369 441
#     4  10  25  46  70 107 149 195 239 300 372 443
#     4  11  24  45  72 102 143 187 246 298 378 434
#     4  11  24  43  72 100 145 185 243 303 364 439
#     4  11  25  43  73 107 148 187 245 297 367 442
#     4  10  22  42  70 108 135 188 238 300 370 441
#     4  10  26  44  68 102 134 206 234 302 366 450
#     4  11  24  43  72 105 141 189 246 313 361 439
#
# _framework density 26.395419
#
# number of rings (size 3 to 8) (size 9 to 14) (size 15 to 20)
#    0.000    1.600    1.333    1.600    7.467    3.733 
#    0.000    9.333    0.000    0.000    0.000    0.000 
#    0.000    0.000    0.000    0.000    0.000    0.000 
#
# Total GULP energy -83543.969510 kJ/mol
# GULP energy per Si atom -5569.597967 kJ/mol
# Density = 2.633534 g / cm^3
# Si number density = 26.395419 Si / 1000 Ang^3
#
#
#
# Elastic Constant Matrix: (Units=GPa)
#
#
# Indices 1 2 3 4 5 6 
#
# 1 74.9174 10.3171 44.0042 -27.1188 36.7854 68.0736
# 2 10.3171 37.9738 87.4782 -21.2052 32.0357 91.2643
# 3 44.0042 87.4782 108.0937 11.3824 -11.9533 -29.2781
# 4 -27.1188 -21.2052 11.3824 28.4537 12.7607 25.9175
# 5 36.7854 32.0357 -11.9533 12.7607 43.8939 -25.0724
# 6 68.0736 91.2643 -29.2781 25.9175 -25.0724 -38.0462
#
#
#
# Elastic Compliance Matrix: (Units=1/GPa)
#
#
# Indices 1 2 3 4 5 6 
#
# 1 0.014124 -0.010680 0.002742 0.003805 -0.003142 0.002206
# 2 -0.010680 0.012958 -0.003120 -0.007214 0.004465 0.006520
# 3 0.002742 -0.003120 0.008550 0.003036 -0.001907 -0.005832
# 4 0.003805 -0.007214 0.003036 0.026951 -0.001290 0.006377
# 5 -0.003142 0.004465 -0.001907 -0.001290 0.018348 -0.006415
# 6 0.002206 0.006520 -0.005832 0.006377 -0.006415 0.006361
#
#
# Mechanical properties :
#
#
# Convention : Reuss Voigt Hill
#
# Bulk Modulus (GPa) = 73.97937 56.06487 65.02212
# Shear Modulus (GPa) = 43.89292 12.13931 28.01611
#
# Velocity S-wave (km/s) = 4.08229 2.14686 3.26145
# Velocity P-wave (km/s) = 7.09284 5.23754 6.23459
#
# Compressibility (1/GPa) = 0.01351728
#
# Stress axis : x y z
#
# Youngs Moduli (GPa) = 70.80053 77.17024 116.96494
#
# Poissons Ratio (x) = 0.82416 -0.32076
# Poissons Ratio (y) = 0.75614 0.36492
# Poissons Ratio (z) = -0.19416 0.24077
#
# Static dielectric constant tensor:
#      x y z
#    x 2.510010 -0.015290 -0.215900 
#    y -0.015290 2.145580 -0.138190 
#    z -0.215900 -0.138190 2.539820 
# 
# From -- ./inp_files/116950.got.cif
#   From: 2010.05.17/outbox.cif.g08.bks.cpg/sg2_59_cif.got.tgz:116950.got - 2010.06.03 11:33:40.
