data_PCOD9030702
_publ_section_title
;
Structure prediction by ZEFSAII (Michael W. Deem and Ramdas Pophale) SiO2 
 PCOD9030702
Probable space group: P -1
;
_chemical_formula_sum "Si O2"
_cell_formula_units_Z 16
_cell_length_a 9.350995
_cell_length_b 12.261341
_cell_length_c 9.720348
_cell_angle_alpha 138.302352
_cell_angle_beta 109.131459
_cell_angle_gamma 78.998853
_cell_volume 697.835898
_symmetry_space_group_name_H-M "P -1"
_symmetry_group_IT_number 2
_symmetry_cell_setting 'triclinic'
loop_
_space_group_symop_operation_xyz
x,y,z
-x,-y,-z
loop_
_atom_site_type_symbol
_atom_site_label
_atom_site_fract_x
_atom_site_fract_y
_atom_site_fract_z
Si Si1 0.210322 0.086293 0.721567
Si Si2 0.819433 0.668449 0.528388
Si Si3 0.336017 0.903205 0.836094
Si Si4 0.638370 0.740303 0.298661
Si Si5 0.913070 0.213519 0.796201
Si Si6 0.344095 0.586783 0.146624
Si Si7 0.867340 0.274960 0.160424
Si Si8 0.488906 0.617968 0.483573
O O1 0.350354 0.167405 0.754659
O O2 0.091940 0.222970 0.835295
O O3 0.239599 0.012857 0.810619
O O4 0.146494 0.944767 0.461718
O O5 0.783605 0.771164 0.475060
O O6 0.833327 0.469795 0.329260
O O7 0.660478 0.688258 0.573656
O O8 0.969572 0.731772 0.718312
O O9 0.253680 0.832036 0.881613
O O10 0.373702 0.750344 0.609493
O O11 0.500000 0.000000 0.000000
O O12 0.468404 0.743935 0.307981
O O13 0.650641 0.546616 0.094746
O O14 0.822774 0.358781 0.844133
O O15 0.875492 0.211733 0.946071
O O16 0.414226 0.515915 0.237663
O O17 0.500000 0.500000 0.500000
#
# Coordination Sequence:
#
# PCOD9030702 Si02
#       8
#     2   2   2   2   2   2   2   2
#     4  11  28  47  65 102 142 181 227 282 348 419
#     4  10  23  43  72 107 133 183 233 294 341 402
#     4  12  29  46  70 105 143 183 231 286 353 418
#     4  10  23  42  71 100 136 173 236 285 343 401
#     4  11  25  47  69  98 138 188 225 280 351 408
#     4  10  22  42  72  99 132 181 236 288 333 400
#     4  11  25  46  71 100 144 180 235 284 350 412
#     4  11  23  44  71 102 139 184 239 290 335 410
#
# _framework density 22.928025999999999
#
# number of rings (size 3 to 8) (size 9 to 14) (size 15 to 20)
#    0.000    1.250    3.750    0.000    8.750    3.500 
#    0.000    0.000    0.000    0.000    0.000    0.000 
#    0.000    0.000    0.000    0.000    0.000    0.000 
#
# Total GULP energy -89265.555946 kJ/mol
# GULP energy per Si atom -5579.097247 kJ/mol
# Density = 2.287584 g / cm^3
# Si number density = 22.928026 Si / 1000 Ang^3
#
#
#
# Elastic Constant Matrix: (Units=GPa)
#
#
# Indices 1 2 3 4 5 6 
#
# 1 66.6995 14.3331 13.1784 -13.4835 -2.8222 -14.9866
# 2 14.3331 75.6962 12.3448 -23.1188 4.9131 3.3767
# 3 13.1784 12.3448 70.0595 -26.0791 9.2150 7.1497
# 4 -13.4835 -23.1188 -26.0791 32.5935 -2.5541 -6.7136
# 5 -2.8222 4.9131 9.2150 -2.5541 31.4243 -1.8849
# 6 -14.9866 3.3767 7.1497 -6.7136 -1.8849 29.7469
#
#
#
# Elastic Compliance Matrix: (Units=1/GPa)
#
#
# Indices 1 2 3 4 5 6 
#
# 1 0.020777 -0.001829 -0.002357 0.008521 0.004342 0.013440
# 2 -0.001829 0.017410 0.002674 0.013385 -0.002624 -0.000686
# 3 -0.002357 0.002674 0.021738 0.017201 -0.005798 -0.003201
# 4 0.008521 0.013385 0.017201 0.059897 -0.000777 0.012108
# 5 0.004342 -0.002624 -0.005798 -0.000777 0.034613 0.005897
# 6 0.013440 -0.000686 -0.003201 0.012108 0.005897 0.044342
#
#
# Mechanical properties :
#
#
# Convention : Reuss Voigt Hill
#
# Bulk Modulus (GPa) = 17.57415 32.46308 25.01861
# Shear Modulus (GPa) = 22.64827 30.25952 26.45389
#
# Velocity S-wave (km/s) = 3.14634 3.63679 3.40042
# Velocity P-wave (km/s) = 4.56955 5.64132 5.13348
#
# Compressibility (1/GPa) = 0.05690177
#
# Stress axis : x y z
#
# Youngs Moduli (GPa) = 48.12945 57.43903 46.00212
#
# Poissons Ratio (x) = 0.10504 0.10842
# Poissons Ratio (y) = 0.08802 -0.12300
# Poissons Ratio (z) = 0.11343 -0.15358
#
# Static dielectric constant tensor:
#      x y z
#    x 1.867510 0.030030 0.009320 
#    y 0.030030 1.899390 0.029010 
#    z 0.009320 0.029010 1.931590 
# 
# From -- ./inp_files/190923.got.cif
#   From: 2010.05.17/outbox.cif.g08.bks.cpg/sg2_96_cif.got.tgz:190923.got - 2010.06.03 11:33:40.
