data_PCOD9030297
_publ_section_title
;
Structure prediction by ZEFSAII (Michael W. Deem and Ramdas Pophale) SiO2 
 PCOD9030297
Probable space group: P -1
;
_chemical_formula_sum "Si O2"
_cell_formula_units_Z 15
_cell_length_a 17.422731
_cell_length_b 11.953379
_cell_length_c 9.395487
_cell_angle_alpha 131.382521
_cell_angle_beta 142.555892
_cell_angle_gamma 27.858799
_cell_volume 550.142879
_symmetry_space_group_name_H-M "P -1"
_symmetry_group_IT_number 2
_symmetry_cell_setting 'triclinic'
loop_
_space_group_symop_operation_xyz
x,y,z
-x,-y,-z
loop_
_atom_site_type_symbol
_atom_site_label
_atom_site_fract_x
_atom_site_fract_y
_atom_site_fract_z
Si Si1 0.789404 0.146203 0.400423
Si Si2 0.805516 0.477280 0.339515
Si Si3 0.547271 0.663072 0.570077
Si Si4 0.000000 0.500000 0.500000
Si Si5 0.508452 0.829721 0.951212
Si Si6 0.799320 0.897278 0.767896
Si Si7 0.052562 0.944430 0.867171
Si Si8 0.782070 0.669464 0.751890
O O1 0.645345 0.425737 0.441713
O O2 0.666470 0.102351 0.158725
O O3 0.000000 0.000000 0.500000
O O4 0.869641 0.050912 0.597265
O O5 0.767332 0.340812 0.138490
O O6 0.774386 0.552794 0.517341
O O7 0.030450 0.322725 0.495800
O O8 0.693382 0.676877 0.213728
O O9 0.555793 0.666037 0.756428
O O10 0.657885 0.714068 0.732414
O O11 0.338154 0.886612 0.364924
O O12 0.057015 0.349033 0.310908
O O13 0.500000 0.000000 0.000000
O O14 0.695187 0.896143 0.735828
O O15 0.918655 0.918335 0.035802
O O16 0.000000 0.000000 0.000000
O O17 0.000000 0.500000 0.000000
#
# Coordination Sequence:
#
# PCOD9030297 Si02
#       8
#     2   2   2   1   2   2   2   2
#     4  12  29  52  77 116 162 216 268 329 402 483
#     4  11  25  44  76 111 156 206 267 328 403 478
#     4  12  26  50  76 113 159 210 264 332 400 474
#     4  10  22  42  70 108 148 198 264 312 390 464
#     4  12  28  49  81 118 160 204 271 335 403 477
#     4  11  24  45  76 109 158 205 269 320 402 472
#     4  12  23  42  74 111 152 204 259 326 392 472
#     4  11  26  47  75 111 156 208 265 329 403 479
#
# _framework density 27.265644000000002
#
# number of rings (size 3 to 8) (size 9 to 14) (size 15 to 20)
#    0.000    0.533    1.333    6.400    5.600    3.200 
#    0.000    2.667    0.000    0.000    0.000    0.000 
#    0.000    0.000    0.000    0.000    0.000    0.000 
#
# Total GULP energy -83574.227867 kJ/mol
# GULP energy per Si atom -5571.615191 kJ/mol
# Density = 2.720359 g / cm^3
# Si number density = 27.265644 Si / 1000 Ang^3
#
#
#
# Elastic Constant Matrix: (Units=GPa)
#
#
# Indices 1 2 3 4 5 6 
#
# 1 155.7744 47.9818 43.6124 17.4106 5.4294 10.8806
# 2 47.9818 136.0465 58.4358 22.0273 3.0873 30.0256
# 3 43.6124 58.4358 140.0436 23.3711 -15.0985 0.2450
# 4 17.4106 22.0273 23.3711 40.5427 9.6106 0.9964
# 5 5.4294 3.0873 -15.0985 9.6106 61.8074 10.1603
# 6 10.8806 30.0256 0.2450 0.9964 10.1603 45.8616
#
#
#
# Elastic Compliance Matrix: (Units=1/GPa)
#
#
# Indices 1 2 3 4 5 6 
#
# 1 0.007563 -0.001683 -0.001508 -0.001295 -0.000664 -0.000510
# 2 -0.001683 0.011685 -0.003735 -0.003382 0.000368 -0.007239
# 3 -0.001508 -0.003735 0.010155 -0.003956 0.003060 0.002157
# 4 -0.001295 -0.003382 -0.003956 0.030678 -0.005980 0.003201
# 5 -0.000664 0.000368 0.003060 -0.005980 0.018568 -0.004083
# 6 -0.000510 -0.007239 0.002157 0.003201 -0.004083 0.027489
#
#
# Mechanical properties :
#
#
# Convention : Reuss Voigt Hill
#
# Bulk Modulus (GPa) = 64.29906 81.32494 72.81200
# Shear Modulus (GPa) = 39.94458 48.43131 44.18795
#
# Velocity S-wave (km/s) = 3.83170 4.21916 4.03009
# Velocity P-wave (km/s) = 6.57340 7.32303 6.95832
#
# Compressibility (1/GPa) = 0.01555233
#
# Stress axis : x y z
#
# Youngs Moduli (GPa) = 132.21504 85.57865 98.47358
#
# Poissons Ratio (x) = 0.14400 0.14848
# Poissons Ratio (y) = 0.22248 0.36781
# Poissons Ratio (z) = 0.19936 0.31964
#
# Static dielectric constant tensor:
#      x y z
#    x 1.971340 -0.148420 -0.268740 
#    y -0.148420 1.325180 -0.648610 
#    z -0.268740 -0.648610 1.773380 
# 
# From -- ./inp_files/333841.got.cif
#   From: 2010.05.17/outbox.cif.g08.bks.cpg/sg2_167_cif.got.tgz:333841.got - 2010.06.03 11:33:40.
