data_PCOD9030731
_publ_section_title
;
Structure prediction by ZEFSAII (Michael W. Deem and Ramdas Pophale) SiO2 
 PCOD9030731
Probable space group: P -1
;
_chemical_formula_sum "Si O2"
_cell_formula_units_Z 14
_cell_length_a 5.171054
_cell_length_b 24.356817
_cell_length_c 5.120191
_cell_angle_alpha 80.766732
_cell_angle_beta 77.059926
_cell_angle_gamma 112.198542
_cell_volume 560.057522
_symmetry_space_group_name_H-M "P -1"
_symmetry_group_IT_number 2
_symmetry_cell_setting 'triclinic'
loop_
_space_group_symop_operation_xyz
x,y,z
-x,-y,-z
loop_
_atom_site_type_symbol
_atom_site_label
_atom_site_fract_x
_atom_site_fract_y
_atom_site_fract_z
Si Si1 0.128338 0.330076 0.225586
Si Si2 0.429111 0.926397 0.391190
Si Si3 0.567268 0.829004 0.202297
Si Si4 0.508106 0.748689 0.773398
Si Si5 0.150844 0.948101 0.936219
Si Si6 0.808287 0.573912 0.503893
Si Si7 0.336101 0.552379 0.217051
O O1 0.263812 0.281117 0.220617
O O2 0.064695 0.355089 0.494383
O O3 0.819012 0.302968 0.171601
O O4 0.396854 0.393877 0.028428
O O5 0.368825 0.858848 0.358062
O O6 0.353554 0.929451 0.705767
O O7 0.756441 0.981466 0.228667
O O8 0.241303 0.946368 0.216588
O O9 0.616742 0.791888 0.459968
O O10 0.482193 0.786143 0.001991
O O11 0.841027 0.891361 0.004747
O O12 0.490986 0.557870 0.462042
O O13 0.768660 0.519818 0.764289
O O14 0.055510 0.567140 0.272558
#
# Coordination Sequence:
#
# PCOD9030731 Si02
#       7
#     2   2   2   2   2   2   2
#     4  12  27  48  66 106 137 200 230 316 330 454
#     4  10  22  42  73 105 137 178 232 301 369 426
#     4  12  27  48  66 106 137 200 230 316 330 454
#     4  12  32  44  78  96 154 194 260 272 376 406
#     4  10  22  42  73 105 137 178 232 301 369 426
#     4  10  22  42  73 105 137 178 232 301 369 426
#     4  10  22  42  73 105 137 178 232 301 369 426
#
# _framework density 24.997432
#
# number of rings (size 3 to 8) (size 9 to 14) (size 15 to 20)
#    0.000    1.143    0.000    4.286   12.000    0.000 
#    0.000   11.429    0.000    0.000    0.000    0.000 
#    0.000    0.000    0.000    0.000    0.000    0.000 
#
# Total GULP energy -78201.613041 kJ/mol
# GULP energy per Si atom -5585.829503 kJ/mol
# Density = 2.494054 g / cm^3
# Si number density = 24.997432 Si / 1000 Ang^3
#
#
#
# Elastic Constant Matrix: (Units=GPa)
#
#
# Indices 1 2 3 4 5 6 
#
# 1 93.6062 25.9353 5.5621 7.1895 -7.4847 4.4075
# 2 25.9353 150.6961 22.5646 24.1122 0.7071 6.9468
# 3 5.5621 22.5646 65.1568 -2.7053 -0.9998 7.8457
# 4 7.1895 24.1122 -2.7053 40.5743 11.1952 6.6916
# 5 -7.4847 0.7071 -0.9998 11.1952 28.0094 -4.6897
# 6 4.4075 6.9468 7.8457 6.6916 -4.6897 31.2313
#
#
#
# Elastic Compliance Matrix: (Units=1/GPa)
#
#
# Indices 1 2 3 4 5 6 
#
# 1 0.011649 -0.001591 -0.000464 -0.002244 0.004018 -0.000089
# 2 -0.001591 0.008160 -0.002944 -0.005242 0.001441 0.000489
# 3 -0.000464 -0.002944 0.017134 0.004308 -0.001964 -0.004802
# 4 -0.002244 -0.005242 0.004308 0.034271 -0.015565 -0.009280
# 5 0.004018 0.001441 -0.001964 -0.015565 0.044502 0.009623
# 6 -0.000089 0.000489 -0.004802 -0.009280 0.009623 0.036563
#
#
# Mechanical properties :
#
#
# Convention : Reuss Voigt Hill
#
# Bulk Modulus (GPa) = 37.11439 46.39811 41.75625
# Shear Modulus (GPa) = 29.19537 36.98948 33.09243
#
# Velocity S-wave (km/s) = 3.42121 3.85090 3.64240
# Velocity P-wave (km/s) = 5.52139 6.19468 5.86770
#
# Compressibility (1/GPa) = 0.02694373
#
# Stress axis : x y z
#
# Youngs Moduli (GPa) = 85.84206 122.54865 58.36399
#
# Poissons Ratio (x) = 0.19499 0.02709
# Poissons Ratio (y) = 0.13659 0.17185
# Poissons Ratio (z) = 0.03984 0.36084
#
# Static dielectric constant tensor:
#      x y z
#    x 1.990760 -0.040090 -0.083230 
#    y -0.040090 2.002230 0.036780 
#    z -0.083230 0.036780 2.106400 
# 
# From -- ./inp_files/10528.got.cif
#   From: 2010.05.17/outbox.cif.g08.bks.cpg/sg2_6_cif.got.tgz:10528.got - 2010.06.03 11:33:40.
