data_PCOD9030879
_publ_section_title
;
Structure prediction by ZEFSAII (Michael W. Deem and Ramdas Pophale) SiO2 
 PCOD9030879
Probable space group: P -1
;
_chemical_formula_sum "Si O2"
_cell_formula_units_Z 13
_cell_length_a 12.410723
_cell_length_b 14.515575
_cell_length_c 4.882369
_cell_angle_alpha 101.231105
_cell_angle_beta 95.970235
_cell_angle_gamma 32.630079
_cell_volume 462.179252
_symmetry_space_group_name_H-M "P -1"
_symmetry_group_IT_number 2
_symmetry_cell_setting 'triclinic'
loop_
_space_group_symop_operation_xyz
x,y,z
-x,-y,-z
loop_
_atom_site_type_symbol
_atom_site_label
_atom_site_fract_x
_atom_site_fract_y
_atom_site_fract_z
Si Si1 0.448192 0.414789 0.139575
Si Si2 0.308258 0.723177 0.382303
Si Si3 0.843336 0.732127 0.169075
Si Si4 0.418104 0.926274 0.464011
Si Si5 0.000000 0.000000 0.000000
Si Si6 0.837680 0.920552 0.032201
Si Si7 0.772392 0.605400 0.698235
O O1 0.324842 0.597701 0.298142
O O2 0.661012 0.269993 0.287325
O O3 0.344782 0.395524 0.193752
O O4 0.500872 0.381952 0.814035
O O5 0.127346 0.894860 0.260959
O O6 0.645280 0.926958 0.341620
O O7 0.997830 0.596071 0.373697
O O8 0.942411 0.744661 0.024465
O O9 0.790656 0.682638 0.942314
O O10 0.340771 0.971894 0.165646
O O11 0.642193 0.730753 0.476133
O O12 0.269838 0.972951 0.648904
O O13 0.032847 0.092212 0.064610
#
# Coordination Sequence:
#
# PCOD9030879 Si02
#       7
#     2   2   2   2   1   2   2
#     4  10  22  43  59  93 120 172 196 265 300 388
#     4  10  23  40  63  89 132 151 219 245 321 360
#     4   9  24  44  63 102 124 171 214 268 312 389
#     4  10  23  46  62  97 129 171 206 272 311 388
#     4  12  22  40  66  98 118 176 198 272 302 390
#     4  10  24  43  64  94 137 160 221 258 328 366
#     4  11  20  44  70  92 131 171 215 260 326 373
#
# _framework density 28.127614999999999
#
# number of rings (size 3 to 8) (size 9 to 14) (size 15 to 20)
#    0.923    0.923    0.000    3.231    0.000    3.077 
#   13.846    1.538    0.000    0.000    0.000    0.000 
#    0.000    0.000    0.000    0.000    0.000    0.000 
#
# Total GULP energy -72698.928000 kJ/mol
# GULP energy per Si atom -5592.225231 kJ/mol
# Density = 2.806360 g / cm^3
# Si number density = 28.127615 Si / 1000 Ang^3
#
#
#
# Elastic Constant Matrix: (Units=GPa)
#
#
# Indices 1 2 3 4 5 6 
#
# 1 158.4646 58.6770 27.7478 -2.1958 6.0495 27.4684
# 2 58.6770 105.9225 55.0563 -50.2330 -10.0772 26.4305
# 3 27.7478 55.0563 162.9363 -22.0796 4.9456 4.5800
# 4 -2.1958 -50.2330 -22.0796 56.8189 -3.0518 0.8583
# 5 6.0495 -10.0772 4.9456 -3.0518 36.6938 -7.5857
# 6 27.4684 26.4305 4.5800 0.8583 -7.5857 39.7733
#
#
#
# Elastic Compliance Matrix: (Units=1/GPa)
#
#
# Indices 1 2 3 4 5 6 
#
# 1 0.010471 -0.010935 0.000866 -0.009224 -0.005815 -0.000975
# 2 -0.010935 0.040771 -0.007267 0.033768 0.013294 -0.016898
# 3 0.000866 -0.007267 0.007982 -0.003489 -0.002919 0.002831
# 4 -0.009224 0.033768 -0.003489 0.046612 0.012174 -0.014352
# 5 -0.005815 0.013294 -0.002919 0.012174 0.033612 0.001665
# 6 -0.000975 -0.016898 0.002831 -0.014352 0.001665 0.037346
#
#
# Mechanical properties :
#
#
# Convention : Reuss Voigt Hill
#
# Bulk Modulus (GPa) = 40.73078 78.92062 59.82570
# Shear Modulus (GPa) = 22.76332 45.71335 34.23834
#
# Velocity S-wave (km/s) = 2.84788 4.03577 3.49270
# Velocity P-wave (km/s) = 5.03250 7.05943 6.13032
#
# Compressibility (1/GPa) = 0.02455146
#
# Stress axis : x y z
#
# Youngs Moduli (GPa) = 95.50068 24.52706 125.28647
#
# Poissons Ratio (x) = 0.26820 -0.10846
# Poissons Ratio (y) = 1.04430 0.91046
# Poissons Ratio (z) = -0.08267 0.17824
#
# Static dielectric constant tensor:
#      x y z
#    x 1.793500 0.330930 0.181740 
#    y 0.330930 1.974270 -0.195250 
#    z 0.181740 -0.195250 1.932270 
# 
# From -- ./inp_files/74566.got.cif
#   From: 2010.05.17/outbox.cif.g08.bks.cpg/sg2_38_cif.got.tgz:74566.got - 2010.06.03 11:33:40.
