data_PCOD9030192
_publ_section_title
;
Structure prediction by ZEFSAII (Michael W. Deem and Ramdas Pophale) SiO2 
 PCOD9030192
Probable space group: P -1
;
_chemical_formula_sum "Si O2"
_cell_formula_units_Z 13
_cell_length_a 5.596442
_cell_length_b 4.952546
_cell_length_c 21.816025
_cell_angle_alpha 84.605221
_cell_angle_beta 52.821137
_cell_angle_gamma 93.296392
_cell_volume 474.629035
_symmetry_space_group_name_H-M "P -1"
_symmetry_group_IT_number 2
_symmetry_cell_setting 'triclinic'
loop_
_space_group_symop_operation_xyz
x,y,z
-x,-y,-z
loop_
_atom_site_type_symbol
_atom_site_label
_atom_site_fract_x
_atom_site_fract_y
_atom_site_fract_z
Si Si1 0.110658 0.726838 0.428894
Si Si2 0.943392 0.420051 0.350572
Si Si3 0.195716 0.618854 0.087256
Si Si4 0.500000 0.000000 0.500000
Si Si5 0.747875 0.940497 0.315814
Si Si6 0.670412 0.087529 0.059655
Si Si7 0.196085 0.934483 0.830646
O O1 0.423434 0.897273 0.403151
O O2 0.000000 0.500000 0.500000
O O3 0.182038 0.565457 0.359357
O O4 0.149363 0.092769 0.550149
O O5 0.654570 0.299468 0.439510
O O6 0.867137 0.654437 0.311154
O O7 0.986854 0.168709 0.305990
O O8 0.094152 0.303037 0.124741
O O9 0.438808 0.819812 0.084068
O O10 0.901905 0.773972 0.141558
O O11 0.305057 0.667905 0.998897
O O12 0.673461 0.032290 0.257879
O O13 0.632096 0.158779 0.134829
O O14 0.000000 0.000000 0.000000
#
# Coordination Sequence:
#
# PCOD9030192 Si02
#       7
#     2   2   2   1   2   2   2
#     4  12  27  49  79 106 141 188 246 311 372 427
#     4  12  26  49  69 107 139 180 244 299 362 441
#     4  10  22  42  70 100 142 183 232 301 343 404
#     4  12  24  50  76 110 136 182 250 314 362 442
#     4  12  28  46  71 103 150 194 237 296 369 442
#     4   9  21  41  71 106 135 181 241 288 344 416
#     4  11  24  43  66 101 144 189 235 281 359 432
#
# _framework density 27.389809
#
# number of rings (size 3 to 8) (size 9 to 14) (size 15 to 20)
#    0.000    0.923    3.077    2.769    2.154   11.692 
#    0.000    0.000    0.000    0.000    0.000    0.000 
#    0.000    0.000    0.000    0.000    0.000    0.000 
#
# Total GULP energy -72635.326984 kJ/mol
# GULP energy per Si atom -5587.332845 kJ/mol
# Density = 2.732747 g / cm^3
# Si number density = 27.389809 Si / 1000 Ang^3
#
#
#
# Elastic Constant Matrix: (Units=GPa)
#
#
# Indices 1 2 3 4 5 6 
#
# 1 84.8485 24.6748 0.4710 -13.6389 19.7270 -2.9324
# 2 24.6748 149.7124 41.7385 -21.4830 11.3509 1.0480
# 3 0.4710 41.7385 110.9222 -14.7332 28.4500 -0.0957
# 4 -13.6389 -21.4830 -14.7332 34.0982 0.7340 3.5827
# 5 19.7270 11.3509 28.4500 0.7340 43.3423 -0.2593
# 6 -2.9324 1.0480 -0.0957 3.5827 -0.2593 44.1845
#
#
#
# Elastic Compliance Matrix: (Units=1/GPa)
#
#
# Indices 1 2 3 4 5 6 
#
# 1 0.015634 -0.002000 0.003990 0.006867 -0.009325 0.000482
# 2 -0.002000 0.008213 -0.002792 0.003219 0.000534 -0.000591
# 3 0.003990 -0.002792 0.013383 0.005853 -0.009970 -0.000173
# 4 0.006867 0.003219 0.005853 0.037093 -0.008454 -0.002665
# 5 -0.009325 0.000534 -0.009970 -0.008454 0.033865 0.000231
# 6 0.000482 -0.000591 -0.000173 -0.002665 0.000231 0.022895
#
#
# Mechanical properties :
#
#
# Convention : Reuss Voigt Hill
#
# Bulk Modulus (GPa) = 28.06865 53.25019 40.65942
# Shear Modulus (GPa) = 34.58713 42.89824 38.74269
#
# Velocity S-wave (km/s) = 3.55741 3.96183 3.76505
# Velocity P-wave (km/s) = 5.20995 6.35704 5.81187
#
# Compressibility (1/GPa) = 0.03562693
#
# Stress axis : x y z
#
# Youngs Moduli (GPa) = 63.96429 121.75802 74.71965
#
# Poissons Ratio (x) = 0.24353 -0.29816
# Poissons Ratio (y) = 0.12794 0.20861
# Poissons Ratio (z) = -0.25525 0.33994
#
# Static dielectric constant tensor:
#      x y z
#    x 2.184730 -0.035760 -0.075020 
#    y -0.035760 2.082510 0.024770 
#    z -0.075020 0.024770 1.890860 
# 
# From -- ./inp_files/6464.got.cif
#   From: 2010.05.17/outbox.cif.g08.bks.cpg/sg2_4_cif.got.tgz:6464.got - 2010.06.03 11:33:40.
