data_PCOD9030221
_publ_section_title
;
Structure prediction by ZEFSAII (Michael W. Deem and Ramdas Pophale) SiO2 
 PCOD9030221
Probable space group: P -1
;
_chemical_formula_sum "Si O2"
_cell_formula_units_Z 16
_cell_length_a 10.621179
_cell_length_b 19.013364
_cell_length_c 7.961041
_cell_angle_alpha 107.808507
_cell_angle_beta 72.041915
_cell_angle_gamma 153.192680
_cell_volume 687.967883
_symmetry_space_group_name_H-M "P -1"
_symmetry_group_IT_number 2
_symmetry_cell_setting 'triclinic'
loop_
_space_group_symop_operation_xyz
x,y,z
-x,-y,-z
loop_
_atom_site_type_symbol
_atom_site_label
_atom_site_fract_x
_atom_site_fract_y
_atom_site_fract_z
Si Si1 0.807698 0.520453 0.767135
Si Si2 0.776998 0.801993 0.288270
Si Si3 0.002074 0.763449 0.038088
Si Si4 0.233693 0.647280 0.888546
Si Si5 0.156976 0.904830 0.718495
Si Si6 0.736654 0.200987 0.790250
Si Si7 0.206987 0.398010 0.513098
Si Si8 0.805352 0.865082 0.710849
O O1 0.527793 0.334038 0.766513
O O2 0.075888 0.601624 0.755438
O O3 0.784598 0.544203 0.608688
O O4 0.838635 0.607277 0.940853
O O5 0.822578 0.738296 0.183066
O O6 0.783175 0.823748 0.499099
O O7 0.025221 0.974567 0.240140
O O8 0.237096 0.857029 0.143603
O O9 0.117145 0.853245 0.883946
O O10 0.046646 0.361913 0.701342
O O11 0.000000 0.500000 0.000000
O O12 0.345189 0.772770 0.035125
O O13 0.010340 0.774263 0.562935
O O14 0.986650 0.896296 0.763381
O O15 0.484916 0.073729 0.669514
O O16 0.500000 0.500000 0.500000
O O17 0.491703 0.721722 0.798626
#
# Coordination Sequence:
#
# PCOD9030221 Si02
#       8
#     2   2   2   2   2   2   2   2
#     4  10  24  44  70  99 130 182 228 284 345 391
#     4  11  24  44  71  95 142 174 229 283 334 417
#     4  10  22  42  70 102 133 171 230 288 345 396
#     4  11  28  46  66  97 142 184 231 279 332 418
#     4  11  24  41  71  99 140 176 228 282 342 414
#     4  11  24  43  68 101 133 182 228 281 349 396
#     4  11  24  43  72 104 138 174 229 291 337 405
#     4  11  27  45  64 104 138 188 224 276 347 403
#
# _framework density 23.256900000000002
#
# number of rings (size 3 to 8) (size 9 to 14) (size 15 to 20)
#    0.000    1.250    0.000    4.125    7.000    7.500 
#    0.000    0.000    0.000    0.000    0.000    0.000 
#    0.000    0.000    0.000    0.000    0.000    0.000 
#
# Total GULP energy -89507.914356 kJ/mol
# GULP energy per Si atom -5594.244647 kJ/mol
# Density = 2.320397 g / cm^3
# Si number density = 23.256900 Si / 1000 Ang^3
#
#
#
# Elastic Constant Matrix: (Units=GPa)
#
#
# Indices 1 2 3 4 5 6 
#
# 1 138.7128 54.6678 27.9448 -1.2453 15.8697 22.8991
# 2 54.6678 104.7302 25.6961 0.4268 10.3273 21.8256
# 3 27.9448 25.6961 57.4183 -6.2025 9.2763 12.2002
# 4 -1.2453 0.4268 -6.2025 36.2336 11.2243 4.3994
# 5 15.8697 10.3273 9.2763 11.2243 28.1209 0.3933
# 6 22.8991 21.8256 12.2002 4.3994 0.3933 37.9285
#
#
#
# Elastic Compliance Matrix: (Units=1/GPa)
#
#
# Indices 1 2 3 4 5 6 
#
# 1 0.010126 -0.003698 -0.001533 0.002000 -0.004598 -0.003677
# 2 -0.003698 0.013312 -0.002834 0.000389 -0.001958 -0.004541
# 3 -0.001533 -0.002834 0.022716 0.007124 -0.008354 -0.005490
# 4 0.002000 0.000389 0.007124 0.035257 -0.017587 -0.007630
# 5 -0.004598 -0.001958 -0.008354 -0.017587 0.048536 0.008127
# 6 -0.003677 -0.004541 -0.005490 -0.007630 0.008127 0.033765
#
#
# Mechanical properties :
#
#
# Convention : Reuss Voigt Hill
#
# Bulk Modulus (GPa) = 33.30786 57.49762 45.40274
# Shear Modulus (GPa) = 26.33626 33.29343 29.81485
#
# Velocity S-wave (km/s) = 3.36878 3.78769 3.58436
# Velocity P-wave (km/s) = 5.42995 6.62611 6.05762
#
# Compressibility (1/GPa) = 0.03002295
#
# Stress axis : x y z
#
# Youngs Moduli (GPa) = 98.75126 75.12030 44.02095
#
# Poissons Ratio (x) = 0.27781 0.06750
# Poissons Ratio (y) = 0.36520 0.12477
# Poissons Ratio (z) = 0.15142 0.21292
#
# Static dielectric constant tensor:
#      x y z
#    x 1.864690 0.004950 -0.002680 
#    y 0.004950 1.919300 0.004970 
#    z -0.002680 0.004970 1.912430 
# 
# From -- ./inp_files/399434.got.cif
#   From: 2010.05.17/outbox.cif.g08.bks.cpg/sg2_200_cif.got.tgz:399434.got - 2010.06.03 11:33:40.
