data_PCOD9030306
_publ_section_title
;
Structure prediction by ZEFSAII (Michael W. Deem and Ramdas Pophale) SiO2 
 PCOD9030306
Probable space group: P -1
;
_chemical_formula_sum "Si O2"
_cell_formula_units_Z 14
_cell_length_a 14.749415
_cell_length_b 9.498341
_cell_length_c 9.682263
_cell_angle_alpha 57.599206
_cell_angle_beta 147.341510
_cell_angle_gamma 128.500559
_cell_volume 572.623511
_symmetry_space_group_name_H-M "P -1"
_symmetry_group_IT_number 2
_symmetry_cell_setting 'triclinic'
loop_
_space_group_symop_operation_xyz
x,y,z
-x,-y,-z
loop_
_atom_site_type_symbol
_atom_site_label
_atom_site_fract_x
_atom_site_fract_y
_atom_site_fract_z
Si Si1 0.681425 0.467260 0.278898
Si Si2 0.922427 0.800910 0.575811
Si Si3 0.559502 0.874727 0.740652
Si Si4 0.814916 0.213680 0.422481
Si Si5 0.344684 0.205103 0.514425
Si Si6 0.289522 0.831096 0.007288
Si Si7 0.867453 0.814777 0.998781
O O1 0.611410 0.311709 0.385488
O O2 0.738553 0.364514 0.285693
O O3 0.500000 0.500000 0.000000
O O4 0.989251 0.728495 0.282520
O O5 0.832487 0.648456 0.427642
O O6 0.764302 0.778183 0.497063
O O7 0.097970 0.765930 0.878202
O O8 0.000000 0.000000 0.500000
O O9 0.737872 0.853938 0.922468
O O10 0.500000 0.000000 0.500000
O O11 0.610948 0.967880 0.907682
O O12 0.718953 0.012445 0.467232
O O13 0.776885 0.178920 0.230048
O O14 0.562051 0.261875 0.753472
O O15 0.265518 0.283534 0.245337
O O16 0.000000 0.000000 0.000000
#
# Coordination Sequence:
#
# PCOD9030306 Si02
#       7
#     2   2   2   2   2   2   2
#     4  12  28  47  74 116 158 196 262 323 386 465
#     4  12  27  46  74 112 155 201 255 323 385 455
#     4  12  24  48  79 111 154 208 250 317 397 463
#     4  11  23  43  73 109 151 195 256 320 376 457
#     4  11  22  46  75 107 151 201 258 312 387 465
#     4  12  23  42  77 109 145 200 254 309 388 445
#     4  10  22  42  70 112 150 200 258 305 385 468
#
# _framework density 24.448874
#
# number of rings (size 3 to 8) (size 9 to 14) (size 15 to 20)
#    0.000    0.571    4.286    4.714    2.000    0.571 
#    2.571    3.571    0.000    0.000    0.000    0.000 
#    0.000    0.000    0.000    0.000    0.000    0.000 
#
# Total GULP energy -78195.386239 kJ/mol
# GULP energy per Si atom -5585.384731 kJ/mol
# Density = 2.439323 g / cm^3
# Si number density = 24.448874 Si / 1000 Ang^3
#
#
#
# Elastic Constant Matrix: (Units=GPa)
#
#
# Indices 1 2 3 4 5 6 
#
# 1 157.1734 26.2285 39.5933 7.4556 14.0197 -16.6797
# 2 26.2285 115.2409 16.5053 3.0023 -5.7623 -12.8898
# 3 39.5933 16.5053 129.4479 24.2076 -1.4975 -6.9299
# 4 7.4556 3.0023 24.2076 34.9012 6.7441 3.4646
# 5 14.0197 -5.7623 -1.4975 6.7441 40.4226 5.0884
# 6 -16.6797 -12.8898 -6.9299 3.4646 5.0884 36.5638
#
#
#
# Elastic Compliance Matrix: (Units=1/GPa)
#
#
# Indices 1 2 3 4 5 6 
#
# 1 0.007731 -0.001283 -0.002125 0.000277 -0.003381 0.003116
# 2 -0.001283 0.009420 -0.000522 -0.000726 0.001577 0.002486
# 3 -0.002125 -0.000522 0.009792 -0.006789 0.002024 0.001064
# 4 0.000277 -0.000726 -0.006789 0.034870 -0.005776 -0.003917
# 5 -0.003381 0.001577 0.002024 -0.005776 0.027666 -0.003906
# 6 0.003116 0.002486 0.001064 -0.003917 -0.003906 0.030764
#
#
# Mechanical properties :
#
#
# Convention : Reuss Voigt Hill
#
# Bulk Modulus (GPa) = 52.40188 62.94625 57.67406
# Shear Modulus (GPa) = 37.18497 43.67986 40.43241
#
# Velocity S-wave (km/s) = 3.90414 4.23138 4.07105
# Velocity P-wave (km/s) = 6.46551 7.04803 6.76305
#
# Compressibility (1/GPa) = 0.01908329
#
# Stress axis : x y z
#
# Youngs Moduli (GPa) = 129.34956 106.15718 102.12747
#
# Poissons Ratio (x) = 0.13619 0.21703
# Poissons Ratio (y) = 0.16595 0.05327
# Poissons Ratio (z) = 0.27489 0.05537
#
# Static dielectric constant tensor:
#      x y z
#    x 2.061050 0.084740 0.026750 
#    y 0.084740 1.925240 0.078230 
#    z 0.026750 0.078230 1.963790 
# 
# From -- ./inp_files/448555.got.cif
#   From: 2010.05.17/outbox.cif.g08.bks.cpg/sg2_225_cif.got.tgz:448555.got - 2010.06.03 11:33:40.
