data_PCOD9030254
_publ_section_title
;
Structure prediction by ZEFSAII (Michael W. Deem and Ramdas Pophale) SiO2 
 PCOD9030254
Probable space group: P -1
;
_chemical_formula_sum "Si O2"
_cell_formula_units_Z 15
_cell_length_a 11.346565
_cell_length_b 5.058426
_cell_length_c 10.491060
_cell_angle_alpha 96.821693
_cell_angle_beta 96.780826
_cell_angle_gamma 76.044960
_cell_volume 577.729276
_symmetry_space_group_name_H-M "P -1"
_symmetry_group_IT_number 2
_symmetry_cell_setting 'triclinic'
loop_
_space_group_symop_operation_xyz
x,y,z
-x,-y,-z
loop_
_atom_site_type_symbol
_atom_site_label
_atom_site_fract_x
_atom_site_fract_y
_atom_site_fract_z
Si Si1 0.158018 0.400360 0.750588
Si Si2 0.577745 0.199274 0.470840
Si Si3 0.085739 0.427104 0.130092
Si Si4 0.500000 0.500000 0.000000
Si Si5 0.628447 0.319835 0.205383
Si Si6 0.809414 0.283027 0.650169
Si Si7 0.116556 0.261526 0.470884
Si Si8 0.300768 0.127308 0.998170
O O1 0.241577 0.614424 0.753800
O O2 0.171800 0.216589 0.616650
O O3 0.218567 0.218943 0.866806
O O4 0.019686 0.556525 0.776167
O O5 0.500000 0.500000 0.500000
O O6 0.596980 0.178882 0.319180
O O7 0.694783 0.182237 0.575453
O O8 0.500000 0.000000 0.500000
O O9 0.157012 0.654100 0.198582
O O10 0.197995 0.172722 0.097353
O O11 0.000000 0.500000 0.000000
O O12 0.470877 0.416332 0.838495
O O13 0.393877 0.320832 0.031966
O O14 0.627931 0.182280 0.051703
O O15 0.806431 0.572724 0.597068
O O16 0.910119 0.014184 0.604595
O O17 0.000000 0.500000 0.500000
#
# Coordination Sequence:
#
# PCOD9030254 Si02
#       8
#     2   2   2   1   2   2   2   2
#     4  10  22  42  70 103 145 189 246 311 379 467
#     4  12  29  49  79 113 154 201 264 334 389 458
#     4  10  24  46  68 110 150 193 252 310 379 458
#     4  10  24  44  68 104 142 200 256 318 380 460
#     4  11  24  45  75 102 147 200 257 319 392 462
#     4  12  26  48  72 109 150 199 252 315 390 455
#     4  12  24  43  75 108 144 194 246 306 382 471
#     4  10  23  43  71 100 142 200 253 311 383 456
#
# _framework density 25.963721
#
# number of rings (size 3 to 8) (size 9 to 14) (size 15 to 20)
#    0.000    1.067    2.667    2.400    5.600    1.600 
#    7.200    0.000    0.000    0.000    0.000    0.000 
#    0.000    0.000    0.000    0.000    0.000    0.000 
#
# Total GULP energy -83603.840722 kJ/mol
# GULP energy per Si atom -5573.589381 kJ/mol
# Density = 2.590463 g / cm^3
# Si number density = 25.963721 Si / 1000 Ang^3
#
#
#
# Elastic Constant Matrix: (Units=GPa)
#
#
# Indices 1 2 3 4 5 6 
#
# 1 103.9798 34.5462 66.5419 -7.7746 17.8170 10.3790
# 2 34.5462 118.0852 46.8210 8.1707 -12.3505 10.3246
# 3 66.5419 46.8210 155.2509 14.1733 8.1867 7.4808
# 4 -7.7746 8.1707 14.1733 46.0678 -2.6400 -2.4507
# 5 17.8170 -12.3505 8.1867 -2.6400 35.6312 -3.1999
# 6 10.3790 10.3246 7.4808 -2.4507 -3.1999 47.2507
#
#
#
# Elastic Compliance Matrix: (Units=1/GPa)
#
#
# Indices 1 2 3 4 5 6 
#
# 1 0.016474 -0.003424 -0.005927 0.004639 -0.007919 -0.002228
# 2 -0.003424 0.011063 -0.001972 -0.001658 0.005783 -0.001047
# 3 -0.005927 -0.001972 0.009934 -0.003726 -0.000283 -0.000052
# 4 0.004639 -0.001658 -0.003726 0.023983 -0.000156 0.001166
# 5 -0.007919 0.005783 -0.000283 -0.000156 0.034338 0.002838
# 6 -0.002228 -0.001047 -0.000052 0.001166 0.002838 0.022143
#
#
# Mechanical properties :
#
#
# Convention : Reuss Voigt Hill
#
# Bulk Modulus (GPa) = 67.45263 74.79268 71.12266
# Shear Modulus (GPa) = 34.35905 41.08373 37.72139
#
# Velocity S-wave (km/s) = 3.64173 3.98219 3.81576
# Velocity P-wave (km/s) = 6.61203 7.07198 6.84587
#
# Compressibility (1/GPa) = 0.01482522
#
# Stress axis : x y z
#
# Youngs Moduli (GPa) = 60.70275 90.38981 100.66662
#
# Poissons Ratio (x) = 0.30948 0.59662
# Poissons Ratio (y) = 0.20784 0.19853
# Poissons Ratio (z) = 0.35977 0.17826
#
# Static dielectric constant tensor:
#      x y z
#    x 2.182330 -0.282800 -0.022510 
#    y -0.282800 2.557010 -0.036870 
#    z -0.022510 -0.036870 2.148360 
# 
# From -- ./inp_files/411101.got.cif
#   From: 2010.05.17/outbox.cif.g08.bks.cpg/sg2_206_cif.got.tgz:411101.got - 2010.06.03 11:33:40.
