data_PCOD9030980
_publ_section_title
;
Structure prediction by ZEFSAII (Michael W. Deem and Ramdas Pophale) SiO2 
 PCOD9030980
Probable space group: P -1
;
_chemical_formula_sum "Si O2"
_cell_formula_units_Z 12
_cell_length_a 11.993597
_cell_length_b 7.949172
_cell_length_c 4.946612
_cell_angle_alpha 98.165305
_cell_angle_beta 102.029084
_cell_angle_gamma 97.203896
_cell_volume 450.684619
_symmetry_space_group_name_H-M "P -1"
_symmetry_group_IT_number 2
_symmetry_cell_setting 'triclinic'
loop_
_space_group_symop_operation_xyz
x,y,z
-x,-y,-z
loop_
_atom_site_type_symbol
_atom_site_label
_atom_site_fract_x
_atom_site_fract_y
_atom_site_fract_z
Si Si1 0.189550 0.585302 0.262563
Si Si2 0.866311 0.111555 0.016048
Si Si3 0.780100 0.756485 0.626597
Si Si4 0.563239 0.813256 0.215769
Si Si5 0.408021 0.790609 0.654469
Si Si6 0.996056 0.238585 0.619373
O O1 0.194386 0.724089 0.057050
O O2 0.211394 0.393796 0.186967
O O3 0.288508 0.665269 0.538510
O O4 0.061448 0.590769 0.318523
O O5 0.979638 0.150134 0.884434
O O6 0.792016 0.937995 0.829102
O O7 0.904756 0.124009 0.346544
O O8 0.664838 0.732194 0.385105
O O9 0.884455 0.746938 0.467887
O O10 0.464681 0.804513 0.390693
O O11 0.609678 0.016116 0.229529
O O12 0.500958 0.735498 0.896223
#
# Coordination Sequence:
#
# PCOD9030980 Si02
#       6
#     2   2   2   2   2   2
#     4  10  25  43  70  97 137 170 216 276 325 385
#     4  10  24  44  64  98 132 177 213 267 326 384
#     4  12  23  45  68 104 127 177 222 265 329 395
#     4  10  23  40  68  90 128 173 215 266 321 390
#     4  10  22  43  63  93 129 170 214 269 327 374
#     4  10  24  45  67  96 138 173 212 274 326 385
#
# _framework density 26.626159000000001
#
# number of rings (size 3 to 8) (size 9 to 14) (size 15 to 20)
#    1.000    0.667    1.667    1.500    2.333    6.000 
#    6.000    0.000    0.000    0.000    0.000    0.000 
#    0.000    0.000    0.000    0.000    0.000    0.000 
#
# Total GULP energy -67247.229249 kJ/mol
# GULP energy per Si atom -5603.935771 kJ/mol
# Density = 2.656556 g / cm^3
# Si number density = 26.626159 Si / 1000 Ang^3
#
#
#
# Elastic Constant Matrix: (Units=GPa)
#
#
# Indices 1 2 3 4 5 6 
#
# 1 93.9456 25.1804 17.9776 1.8965 9.2602 -10.7796
# 2 25.1804 139.6300 24.7714 -14.6327 1.1647 -16.5512
# 3 17.9776 24.7714 129.6897 -12.1840 5.2297 12.2660
# 4 1.8965 -14.6327 -12.1840 21.7951 -3.0772 10.7536
# 5 9.2602 1.1647 5.2297 -3.0772 30.2094 -5.2772
# 6 -10.7796 -16.5512 12.2660 10.7536 -5.2772 21.8328
#
#
#
# Elastic Compliance Matrix: (Units=1/GPa)
#
#
# Indices 1 2 3 4 5 6 
#
# 1 0.013603 -0.001429 -0.003685 -0.010643 -0.002401 0.012365
# 2 -0.001429 0.008727 -0.001975 0.001922 0.001775 0.006502
# 3 -0.003685 -0.001975 0.011586 0.013563 -0.002403 -0.017087
# 4 -0.010643 0.001922 0.013563 0.081001 0.000133 -0.051282
# 5 -0.002401 0.001775 -0.002403 0.000133 0.035971 0.010139
# 6 0.012365 0.006502 -0.017087 -0.051282 0.010139 0.094147
#
#
# Mechanical properties :
#
#
# Convention : Reuss Voigt Hill
#
# Bulk Modulus (GPa) = 50.66372 55.45823 53.06098
# Shear Modulus (GPa) = 18.81168 34.45652 26.63410
#
# Velocity S-wave (km/s) = 2.66091 3.60124 3.16618
# Velocity P-wave (km/s) = 5.33945 6.17783 5.77388
#
# Compressibility (1/GPa) = 0.01973799
#
# Stress axis : x y z
#
# Youngs Moduli (GPa) = 73.51307 114.58419 86.31105
#
# Poissons Ratio (x) = 0.16373 0.31808
# Poissons Ratio (y) = 0.10504 0.17045
# Poissons Ratio (z) = 0.27092 0.22629
#
# Static dielectric constant tensor:
#      x y z
#    x 2.063060 -0.025680 -0.001850 
#    y -0.025680 2.147930 0.011710 
#    z -0.001850 0.011710 2.000100 
# 
# From -- ./inp_files/59994.got.cif
#   From: 2010.05.17/outbox.cif.g08.bks.cpg/sg2_30_cif.got.tgz:59994.got - 2010.06.03 11:33:40.
