data_PCOD9030137
_publ_section_title
;
Structure prediction by ZEFSAII (Michael W. Deem and Ramdas Pophale) SiO2 
 PCOD9030137
Probable space group: P -1
;
_chemical_formula_sum "Si O2"
_cell_formula_units_Z 14
_cell_length_a 8.504542
_cell_length_b 15.492594
_cell_length_c 8.285907
_cell_angle_alpha 140.449059
_cell_angle_beta 114.402270
_cell_angle_gamma 82.468769
_cell_volume 599.069071
_symmetry_space_group_name_H-M "P -1"
_symmetry_group_IT_number 2
_symmetry_cell_setting 'triclinic'
loop_
_space_group_symop_operation_xyz
x,y,z
-x,-y,-z
loop_
_atom_site_type_symbol
_atom_site_label
_atom_site_fract_x
_atom_site_fract_y
_atom_site_fract_z
Si Si1 0.279812 0.131089 0.335391
Si Si2 0.952063 0.418954 0.161141
Si Si3 0.379133 0.656620 0.313223
Si Si4 0.028299 0.289205 0.295071
Si Si5 0.241596 0.846033 0.734250
Si Si6 0.668893 0.569577 0.790381
Si Si7 0.080231 0.116264 0.561076
O O1 0.466418 0.259563 0.624769
O O2 0.162542 0.200895 0.268294
O O3 0.172052 0.077544 0.379762
O O4 0.317655 0.001880 0.071454
O O5 0.887667 0.538624 0.399985
O O6 0.942843 0.282707 0.072864
O O7 0.158283 0.472200 0.261809
O O8 0.817856 0.381443 0.901909
O O9 0.380949 0.769784 0.619030
O O10 0.394423 0.512113 0.185870
O O11 0.877014 0.244928 0.303161
O O12 0.095833 0.851838 0.543000
O O13 0.500000 0.500000 0.500000
O O14 0.762690 0.740928 0.099936
O O15 0.000000 0.000000 0.500000
#
# Coordination Sequence:
#
# PCOD9030137 Si02
#       7
#     2   2   2   2   2   2   2
#     4  11  26  44  70 106 147 190 240 296 351 433
#     4  11  23  42  72 102 139 189 232 303 355 423
#     4  12  24  45  71 105 147 181 246 295 360 415
#     4  10  22  42  69  98 137 185 243 285 359 420
#     4  11  23  44  71  99 143 196 232 291 358 421
#     4  12  26  44  76 107 142 186 240 300 353 429
#     4  11  26  46  76 105 141 192 242 291 364 426
#
# _framework density 23.369592999999998
#
# number of rings (size 3 to 8) (size 9 to 14) (size 15 to 20)
#    0.000    0.857    2.857    5.143    6.000    4.571 
#    0.000    1.429    0.000    0.000    0.000    0.000 
#    0.000    0.000    0.000    0.000    0.000    0.000 
#
# Total GULP energy -78189.725569 kJ/mol
# GULP energy per Si atom -5584.980398 kJ/mol
# Density = 2.331640 g / cm^3
# Si number density = 23.369593 Si / 1000 Ang^3
#
#
#
# Elastic Constant Matrix: (Units=GPa)
#
#
# Indices 1 2 3 4 5 6 
#
# 1 43.0988 13.9079 20.5409 14.1023 11.8706 6.6612
# 2 13.9079 121.7328 50.3534 10.5480 17.1572 26.4056
# 3 20.5409 50.3534 123.7691 9.5169 6.3530 -5.9708
# 4 14.1023 10.5480 9.5169 35.3676 -5.9096 3.7840
# 5 11.8706 17.1572 6.3530 -5.9096 44.9087 6.5201
# 6 6.6612 26.4056 -5.9708 3.7840 6.5201 23.7295
#
#
#
# Elastic Compliance Matrix: (Units=1/GPa)
#
#
# Indices 1 2 3 4 5 6 
#
# 1 0.033401 0.003153 -0.005777 -0.013277 -0.009571 -0.009592
# 2 0.003153 0.015758 -0.007487 -0.002473 -0.003364 -0.018986
# 3 -0.005777 -0.007487 0.012687 -0.000151 0.000688 0.012981
# 4 -0.013277 -0.002473 -0.000151 0.036144 0.009513 -0.001937
# 5 -0.009571 -0.003364 0.000688 0.009513 0.027599 -0.002498
# 6 -0.009592 -0.018986 0.012981 -0.001937 -0.002498 0.070223
#
#
# Mechanical properties :
#
#
# Convention : Reuss Voigt Hill
#
# Bulk Modulus (GPa) = 24.02418 50.91167 37.46793
# Shear Modulus (GPa) = 21.74779 34.38773 28.06776
#
# Velocity S-wave (km/s) = 3.05389 3.84014 3.46936
# Velocity P-wave (km/s) = 4.76837 6.44166 5.66711
#
# Compressibility (1/GPa) = 0.04162473
#
# Stress axis : x y z
#
# Youngs Moduli (GPa) = 29.93918 63.45887 78.82135
#
# Poissons Ratio (x) = -0.20011 0.45533
# Poissons Ratio (y) = -0.09441 0.59017
# Poissons Ratio (z) = 0.17295 0.47514
#
# Static dielectric constant tensor:
#      x y z
#    x 1.875620 0.031360 -0.049230 
#    y 0.031360 1.892320 0.001810 
#    z -0.049230 0.001810 1.991120 
# 
# From -- ./inp_files/209573.got.cif
#   From: 2010.05.17/outbox.cif.g08.bks.cpg/sg2_105_cif.got.tgz:209573.got - 2010.06.03 11:33:40.
