data_PCOD9030374
_publ_section_title
;
Structure prediction by ZEFSAII (Michael W. Deem and Ramdas Pophale) SiO2 
 PCOD9030374
Probable space group: P -1
;
_chemical_formula_sum "Si O2"
_cell_formula_units_Z 16
_cell_length_a 7.969103
_cell_length_b 5.268251
_cell_length_c 15.423095
_cell_angle_alpha 66.590803
_cell_angle_beta 104.594828
_cell_angle_gamma 85.544107
_cell_volume 563.398191
_symmetry_space_group_name_H-M "P -1"
_symmetry_group_IT_number 2
_symmetry_cell_setting 'triclinic'
loop_
_space_group_symop_operation_xyz
x,y,z
-x,-y,-z
loop_
_atom_site_type_symbol
_atom_site_label
_atom_site_fract_x
_atom_site_fract_y
_atom_site_fract_z
Si Si1 0.102802 0.574230 0.586854
Si Si2 0.842031 0.770521 0.669362
Si Si3 0.976595 0.252178 0.876221
Si Si4 0.392351 0.409448 0.895723
Si Si5 0.688908 0.044892 0.768884
Si Si6 0.237423 0.508518 0.036914
Si Si7 0.486010 0.549809 0.594205
Si Si8 0.755274 0.950232 0.202736
O O1 0.283689 0.684436 0.574307
O O2 0.151331 0.275643 0.685504
O O3 0.000000 0.500000 0.500000
O O4 0.965599 0.780473 0.602447
O O5 0.961691 0.540205 0.779757
O O6 0.651051 0.692198 0.628009
O O7 0.796116 0.029788 0.693763
O O8 0.785976 0.182786 0.836164
O O9 0.938775 0.309703 0.966304
O O10 0.110738 0.032510 0.863145
O O11 0.591773 0.344919 0.964898
O O12 0.383784 0.198556 0.845786
O O13 0.325465 0.737521 0.816579
O O14 0.254157 0.374176 0.959938
O O15 0.513088 0.248308 0.687388
O O16 0.698047 0.736661 0.849929
O O17 0.500000 0.500000 0.500000
#
# Coordination Sequence:
#
# PCOD9030374 Si02
#       8
#     2   2   2   2   2   2   2   2
#     4  11  23  45  68  98 141 186 238 292 358 424
#     4   9  21  42  62  97 133 181 229 290 350 419
#     4   9  22  41  68  94 139 181 227 284 351 416
#     4  11  27  45  70 106 143 182 238 292 350 428
#     4  10  22  42  70  96 137 183 230 289 354 425
#     4  10  24  43  71  99 136 188 230 286 357 420
#     4  11  22  41  67  95 135 179 233 289 353 425
#     4  11  27  46  69 104 144 183 235 295 351 423
#
# _framework density 28.399096
#
# number of rings (size 3 to 8) (size 9 to 14) (size 15 to 20)
#    0.000    1.750    1.250    0.750   14.000    2.500 
#    0.000    1.250    0.000    0.000    0.000    0.000 
#    0.000    0.000    0.000    0.000    0.000    0.000 
#
# Total GULP energy -89570.165932 kJ/mol
# GULP energy per Si atom -5598.135371 kJ/mol
# Density = 2.833446 g / cm^3
# Si number density = 28.399096 Si / 1000 Ang^3
#
#
#
# Elastic Constant Matrix: (Units=GPa)
#
#
# Indices 1 2 3 4 5 6 
#
# 1 117.2846 17.1635 12.1505 1.1960 -32.1859 -35.7181
# 2 17.1635 97.5326 19.4418 3.1583 -2.4510 -5.6272
# 3 12.1505 19.4418 130.9908 4.0119 -19.9396 -6.9585
# 4 1.1960 3.1583 4.0119 54.7330 -16.4489 2.6082
# 5 -32.1859 -2.4510 -19.9396 -16.4489 43.3968 12.5367
# 6 -35.7181 -5.6272 -6.9585 2.6082 12.5367 37.8105
#
#
#
# Elastic Compliance Matrix: (Units=1/GPa)
#
#
# Indices 1 2 3 4 5 6 
#
# 1 0.014165 -0.001892 0.000745 0.001790 0.008440 0.010315
# 2 -0.001892 0.010927 -0.001713 -0.001100 -0.002073 0.000287
# 3 0.000745 -0.001713 0.008510 0.000801 0.004538 0.000455
# 4 0.001790 -0.001100 0.000801 0.021652 0.010825 -0.003408
# 5 0.008440 -0.002073 0.004538 0.010825 0.036644 -0.004397
# 6 0.010315 0.000287 0.000455 -0.003408 -0.004397 0.038011
#
#
# Mechanical properties :
#
#
# Convention : Reuss Voigt Hill
#
# Bulk Modulus (GPa) = 35.86564 49.25772 42.56168
# Shear Modulus (GPa) = 34.50096 46.99153 40.74625
#
# Velocity S-wave (km/s) = 3.48927 4.07219 3.79195
# Velocity P-wave (km/s) = 5.37493 6.28433 5.84734
#
# Compressibility (1/GPa) = 0.02788184
#
# Stress axis : x y z
#
# Youngs Moduli (GPa) = 70.59586 91.51245 117.51357
#
# Poissons Ratio (x) = 0.17313 -0.08751
# Poissons Ratio (y) = 0.13356 0.20130
# Poissons Ratio (z) = -0.05257 0.15676
#
# Static dielectric constant tensor:
#      x y z
#    x 2.348390 0.027930 -0.012450 
#    y 0.027930 2.250100 -0.016290 
#    z -0.012450 -0.016290 2.155190 
# 
# From -- ./inp_files/488295.got.cif
#   From: 2010.05.17/outbox.cif.g08.bks.cpg/sg2_245_cif.got.tgz:488295.got - 2010.06.03 11:33:40.
