data_PCOD9030783
_publ_section_title
;
Structure prediction by ZEFSAII (Michael W. Deem and Ramdas Pophale) SiO2 
 PCOD9030783
Probable space group: P -1
;
_chemical_formula_sum "Si O2"
_cell_formula_units_Z 15
_cell_length_a 9.773554
_cell_length_b 9.281357
_cell_length_c 8.282040
_cell_angle_alpha 70.631811
_cell_angle_beta 81.466625
_cell_angle_gamma 62.884050
_cell_volume 630.855599
_symmetry_space_group_name_H-M "P -1"
_symmetry_group_IT_number 2
_symmetry_cell_setting 'triclinic'
loop_
_space_group_symop_operation_xyz
x,y,z
-x,-y,-z
loop_
_atom_site_type_symbol
_atom_site_label
_atom_site_fract_x
_atom_site_fract_y
_atom_site_fract_z
Si Si1 0.914791 0.881296 0.087123
Si Si2 0.533056 0.511854 0.802035
Si Si3 0.043068 0.298882 0.190669
Si Si4 0.165554 0.697697 0.353352
Si Si5 0.262177 0.455646 0.717893
Si Si6 0.347827 0.209897 0.329175
Si Si7 0.000000 0.000000 0.500000
Si Si8 0.374128 0.080731 0.731340
O O1 0.744271 0.983407 0.149368
O O2 0.012217 0.747768 0.257206
O O3 0.919452 0.782920 0.960881
O O4 0.000000 0.000000 0.000000
O O5 0.688709 0.356842 0.769802
O O6 0.389554 0.515673 0.727573
O O7 0.558790 0.678935 0.704566
O O8 0.500000 0.500000 0.000000
O O9 0.184094 0.320118 0.238140
O O10 0.882780 0.465916 0.166700
O O11 0.018120 0.160326 0.356540
O O12 0.201310 0.538597 0.523060
O O13 0.131879 0.864213 0.402727
O O14 0.340104 0.254093 0.764561
O O15 0.333603 0.129239 0.531721
O O16 0.451092 0.057461 0.248344
#
# Coordination Sequence:
#
# PCOD9030783 Si02
#       8
#     2   2   2   2   2   2   1   2
#     4  12  27  46  74 114 149 197 249 319 375 448
#     4  12  28  47  77 112 156 196 253 314 383 447
#     4  11  26  45  75 108 151 194 254 300 389 441
#     4  11  24  45  76 106 148 197 254 304 377 447
#     4  11  26  48  78 108 146 203 251 310 369 459
#     4  11  28  49  74 111 151 201 244 314 377 458
#     4  10  22  42  74 104 144 194 244 304 362 456
#     4  11  27  47  76 106 156 190 259 303 383 444
#
# _framework density 23.777228999999998
#
# number of rings (size 3 to 8) (size 9 to 14) (size 15 to 20)
#    0.000    0.800    2.667    2.800    9.333    4.267 
#    0.000    0.000    0.000    0.000    0.000    0.000 
#    0.000    0.000    0.000    0.000    0.000    0.000 
#
# Total GULP energy -83815.551205 kJ/mol
# GULP energy per Si atom -5587.703414 kJ/mol
# Density = 2.372311 g / cm^3
# Si number density = 23.777229 Si / 1000 Ang^3
#
#
#
# Elastic Constant Matrix: (Units=GPa)
#
#
# Indices 1 2 3 4 5 6 
#
# 1 76.5625 29.6115 9.7004 13.0357 -15.5210 -1.3354
# 2 29.6115 137.3636 6.4952 16.4751 -29.0511 -15.9544
# 3 9.7004 6.4952 83.1528 13.5812 -24.2532 3.9560
# 4 13.0357 16.4751 13.5812 42.2753 -9.1029 -20.6456
# 5 -15.5210 -29.0511 -24.2532 -9.1029 41.6470 4.4409
# 6 -1.3354 -15.9544 3.9560 -20.6456 4.4409 40.8378
#
#
#
# Elastic Compliance Matrix: (Units=1/GPa)
#
#
# Indices 1 2 3 4 5 6 
#
# 1 0.015422 -0.002388 0.000372 -0.004762 0.003606 -0.003264
# 2 -0.002388 0.009377 0.001326 -0.000912 0.005974 0.002346
# 3 0.000372 0.001326 0.015924 -0.006235 0.009529 -0.005201
# 4 -0.004762 -0.000912 -0.006235 0.036543 -0.000035 0.018570
# 5 0.003606 0.005974 0.009529 -0.000035 0.035312 -0.002329
# 6 -0.003264 0.002346 -0.005201 0.018570 -0.002329 0.035442
#
#
# Mechanical properties :
#
#
# Convention : Reuss Voigt Hill
#
# Bulk Modulus (GPa) = 25.41622 43.18812 34.30217
# Shear Modulus (GPa) = 30.76638 41.70347 36.23492
#
# Velocity S-wave (km/s) = 3.60104 4.19253 3.90799
# Velocity P-wave (km/s) = 5.29174 6.45287 5.90093
#
# Compressibility (1/GPa) = 0.03934495
#
# Stress axis : x y z
#
# Youngs Moduli (GPa) = 64.84067 106.64092 62.79771
#
# Poissons Ratio (x) = 0.25461 -0.02338
# Poissons Ratio (y) = 0.15481 -0.08326
# Poissons Ratio (z) = -0.02414 -0.14138
#
# Static dielectric constant tensor:
#      x y z
#    x 1.877970 -0.002880 0.001920 
#    y -0.002880 1.893950 0.006140 
#    z 0.001920 0.006140 1.933480 
# 
# From -- ./inp_files/157369.got.cif
#   From: 2010.05.17/outbox.cif.g08.bks.cpg/sg2_79_cif.got.tgz:157369.got - 2010.06.03 11:33:40.
