data_PCOD9030292
_publ_section_title
;
Structure prediction by ZEFSAII (Michael W. Deem and Ramdas Pophale) SiO2 
 PCOD9030292
Probable space group: P -1
;
_chemical_formula_sum "Si O2"
_cell_formula_units_Z 16
_cell_length_a 18.049167
_cell_length_b 6.122585
_cell_length_c 8.313767
_cell_angle_alpha 84.928528
_cell_angle_beta 130.234025
_cell_angle_gamma 108.214912
_cell_volume 658.016461
_symmetry_space_group_name_H-M "P -1"
_symmetry_group_IT_number 2
_symmetry_cell_setting 'triclinic'
loop_
_space_group_symop_operation_xyz
x,y,z
-x,-y,-z
loop_
_atom_site_type_symbol
_atom_site_label
_atom_site_fract_x
_atom_site_fract_y
_atom_site_fract_z
Si Si1 0.534271 0.766899 0.109074
Si Si2 0.109526 0.108226 0.565811
Si Si3 0.113143 0.531818 0.366747
Si Si4 0.759404 0.968175 0.492492
Si Si5 0.439937 0.787129 0.312572
Si Si6 0.708753 0.675076 0.762044
Si Si7 0.891083 0.512829 0.011942
Si Si8 0.745071 0.069845 0.001523
O O1 0.657313 0.857876 0.252094
O O2 0.506885 0.742142 0.263458
O O3 0.500000 0.500000 0.000000
O O4 0.500000 0.000000 0.000000
O O5 0.131854 0.381497 0.550918
O O6 0.133700 0.049510 0.422346
O O7 0.183537 0.996435 0.767802
O O8 0.000000 0.000000 0.500000
O O9 0.097587 0.438350 0.166419
O O10 0.213656 0.757604 0.474615
O O11 0.002971 0.564966 0.241826
O O12 0.732967 0.823105 0.626330
O O13 0.382101 0.568250 0.359133
O O14 0.500000 0.000000 0.500000
O O15 0.340751 0.819945 0.081290
O O16 0.817671 0.647312 0.967937
O O17 0.679866 0.828581 0.843986
O O18 0.823628 0.244326 0.973654
#
# Coordination Sequence:
#
# PCOD9030292 Si02
#       8
#     2   2   2   2   2   2   2   2
#     4  12  32  55  83 119 169 223 275 349 434 502
#     4  12  27  45  71 109 157 201 252 327 411 483
#     4  11  24  43  71 106 151 203 267 325 399 494
#     4  12  28  47  77 107 150 208 270 328 409 496
#     4  11  28  50  84 117 156 208 285 349 415 494
#     4  11  25  45  79 108 151 203 272 334 406 492
#     4  10  22  42  70 107 150 199 260 324 395 486
#     4  11  24  46  72 116 149 202 257 338 402 489
#
# _framework density 24.315501999999999
#
# number of rings (size 3 to 8) (size 9 to 14) (size 15 to 20)
#    0.000    0.750    3.750    1.500   10.500    4.000 
#    0.000    0.000    0.000    0.000    0.000    0.000 
#    0.000    0.000    0.000    0.000    0.000    0.000 
#
# Total GULP energy -89227.592599 kJ/mol
# GULP energy per Si atom -5576.724537 kJ/mol
# Density = 2.426016 g / cm^3
# Si number density = 24.315502 Si / 1000 Ang^3
#
#
#
# Elastic Constant Matrix: (Units=GPa)
#
#
# Indices 1 2 3 4 5 6 
#
# 1 128.0224 29.7152 16.2712 -3.8025 9.0081 14.0193
# 2 29.7152 160.4823 47.7601 -16.3860 4.7227 23.7528
# 3 16.2712 47.7601 54.7734 -11.7461 11.6762 2.6924
# 4 -3.8025 -16.3860 -11.7461 51.3243 -0.0203 -1.5940
# 5 9.0081 4.7227 11.6762 -0.0203 36.2981 -6.3038
# 6 14.0193 23.7528 2.6924 -1.5940 -6.3038 39.7154
#
#
#
# Elastic Compliance Matrix: (Units=1/GPa)
#
#
# Indices 1 2 3 4 5 6 
#
# 1 0.008608 -0.000706 -0.001349 0.000014 -0.002107 -0.002859
# 2 -0.000706 0.009443 -0.007692 0.001055 0.000599 -0.004740
# 3 -0.001349 -0.007692 0.027602 0.003827 -0.007155 0.002224
# 4 0.000014 0.001055 0.003827 0.020688 -0.001411 -0.000289
# 5 -0.002107 0.000599 -0.007155 -0.001411 0.031300 0.005782
# 6 -0.002859 -0.004740 0.002224 -0.000289 0.005782 0.029778
#
#
# Mechanical properties :
#
#
# Convention : Reuss Voigt Hill
#
# Bulk Modulus (GPa) = 38.22864 58.97455 48.60159
# Shear Modulus (GPa) = 32.12683 42.10299 37.11491
#
# Velocity S-wave (km/s) = 3.63884 4.16568 3.91114
# Velocity P-wave (km/s) = 5.78022 6.88794 6.35825
#
# Compressibility (1/GPa) = 0.02615840
#
# Stress axis : x y z
#
# Youngs Moduli (GPa) = 116.16889 105.90087 36.22933
#
# Poissons Ratio (x) = 0.07475 0.04887
# Poissons Ratio (y) = 0.08200 0.27869
# Poissons Ratio (z) = 0.15671 0.81463
#
# Static dielectric constant tensor:
#      x y z
#    x 1.981930 -0.084110 -0.058770 
#    y -0.084110 2.087060 -0.019200 
#    z -0.058770 -0.019200 1.985220 
# 
# From -- ./inp_files/340360.got.cif
#   From: 2010.05.17/outbox.cif.g08.bks.cpg/sg2_171_cif.got.tgz:340360.got - 2010.06.03 11:33:40.
