data_PCOD9030892
_publ_section_title
;
Structure prediction by ZEFSAII (Michael W. Deem and Ramdas Pophale) SiO2 
 PCOD9030892
Probable space group: P -1
;
_chemical_formula_sum "Si O2"
_cell_formula_units_Z 13
_cell_length_a 6.255796
_cell_length_b 20.908727
_cell_length_c 12.542677
_cell_angle_alpha 27.856929
_cell_angle_beta 53.344365
_cell_angle_gamma 45.852076
_cell_volume 549.198111
_symmetry_space_group_name_H-M "P -1"
_symmetry_group_IT_number 2
_symmetry_cell_setting 'triclinic'
loop_
_space_group_symop_operation_xyz
x,y,z
-x,-y,-z
loop_
_atom_site_type_symbol
_atom_site_label
_atom_site_fract_x
_atom_site_fract_y
_atom_site_fract_z
Si Si1 0.816381 0.379661 0.130732
Si Si2 0.500000 0.500000 0.500000
Si Si3 0.318488 0.883318 0.490115
Si Si4 0.301196 0.083533 0.835047
Si Si5 0.734926 0.159628 0.202554
Si Si6 0.664262 0.173646 0.962301
Si Si7 0.680149 0.508587 0.203937
O O1 0.865739 0.215104 0.318693
O O2 0.786959 0.386859 0.256672
O O3 0.500000 0.500000 0.000000
O O4 0.068795 0.431094 0.951727
O O5 0.428900 0.349061 0.760564
O O6 0.604705 0.448964 0.421411
O O7 0.575472 0.823439 0.413098
O O8 0.419282 0.868285 0.604952
O O9 0.084506 0.055028 0.274613
O O10 0.976617 0.182364 0.835641
O O11 0.500000 0.000000 0.000000
O O12 0.320739 0.951753 0.941262
O O13 0.665133 0.121568 0.160842
O O14 0.620243 0.341527 0.963201
#
# Coordination Sequence:
#
# PCOD9030892 Si02
#       7
#     2   1   2   2   2   2   2
#     4  11  24  44  66  98 130 177 219 275 314 413
#     4  10  24  42  68 100 128 184 202 278 338 376
#     4  11  24  40  72  93 130 174 228 265 344 376
#     4  11  24  44  66  98 130 177 219 275 314 413
#     4  10  22  43  61 100 123 172 217 277 323 390
#     4  10  24  45  66  93 140 167 226 265 334 392
#     4  10  24  45  66  93 140 167 226 265 334 392
#
# _framework density 23.670874999999999
#
# number of rings (size 3 to 8) (size 9 to 14) (size 15 to 20)
#    0.000    1.538    3.077    0.000    4.308    7.385 
#    0.000    1.538    0.000    0.000    0.000    0.000 
#    0.000    0.000    0.000    0.000    0.000    0.000 
#
# Total GULP energy -72385.796023 kJ/mol
# GULP energy per Si atom -5568.138156 kJ/mol
# Density = 2.361700 g / cm^3
# Si number density = 23.670875 Si / 1000 Ang^3
#
#
#
# Elastic Constant Matrix: (Units=GPa)
#
#
# Indices 1 2 3 4 5 6 
#
# 1 52.0560 30.4728 40.0195 23.6183 7.1151 18.1335
# 2 30.4728 103.7967 29.4027 41.8674 15.5918 27.0158
# 3 40.0195 29.4027 101.7449 33.7506 22.3173 14.8643
# 4 23.6183 41.8674 33.7506 66.0204 13.8820 15.3351
# 5 7.1151 15.5918 22.3173 13.8820 32.1546 3.8571
# 6 18.1335 27.0158 14.8643 15.3351 3.8571 40.4884
#
#
#
# Elastic Compliance Matrix: (Units=1/GPa)
#
#
# Indices 1 2 3 4 5 6 
#
# 1 0.033294 -0.004281 -0.010766 -0.002874 0.004313 -0.007425
# 2 -0.004281 0.015325 0.001118 -0.006620 -0.003699 -0.005859
# 3 -0.010766 0.001118 0.016757 -0.003728 -0.008195 0.000116
# 4 -0.002874 -0.006620 -0.003728 0.023343 -0.003472 -0.001437
# 5 0.004313 -0.003699 -0.008195 -0.003472 0.038989 0.001146
# 6 -0.007425 -0.005859 0.000116 -0.001437 0.001146 0.032326
#
#
# Mechanical properties :
#
#
# Convention : Reuss Voigt Hill
#
# Bulk Modulus (GPa) = 26.65296 50.82084 38.73690
# Shear Modulus (GPa) = 24.95049 38.24617 31.59833
#
# Velocity S-wave (km/s) = 3.25015 4.02400 3.65760
# Velocity P-wave (km/s) = 5.03675 6.56555 5.85130
#
# Compressibility (1/GPa) = 0.03751928
#
# Stress axis : x y z
#
# Youngs Moduli (GPa) = 30.03558 65.25235 59.67571
#
# Poissons Ratio (x) = 0.27932 0.64248
# Poissons Ratio (y) = 0.12857 -0.06674
# Poissons Ratio (z) = 0.32337 -0.07298
#
# Static dielectric constant tensor:
#      x y z
#    x 1.948410 -0.037910 0.014190 
#    y -0.037910 1.937710 -0.041900 
#    z 0.014190 -0.041900 1.885260 
# 
# From -- ./inp_files/369924.got.cif
#   From: 2010.05.17/outbox.cif.g08.bks.cpg/sg2_185_cif.got.tgz:369924.got - 2010.06.03 11:33:40.
