data_PCOD9030850
_publ_section_title
;
Structure prediction by ZEFSAII (Michael W. Deem and Ramdas Pophale) SiO2 
 PCOD9030850
Probable space group: P -1
;
_chemical_formula_sum "Si O2"
_cell_formula_units_Z 13
_cell_length_a 9.046212
_cell_length_b 8.501591
_cell_length_c 11.975528
_cell_angle_alpha 96.886716
_cell_angle_beta 139.332560
_cell_angle_gamma 91.973486
_cell_volume 584.560535
_symmetry_space_group_name_H-M "P -1"
_symmetry_group_IT_number 2
_symmetry_cell_setting 'triclinic'
loop_
_space_group_symop_operation_xyz
x,y,z
-x,-y,-z
loop_
_atom_site_type_symbol
_atom_site_label
_atom_site_fract_x
_atom_site_fract_y
_atom_site_fract_z
Si Si1 0.196777 0.165168 0.119972
Si Si2 0.596760 0.164221 0.500969
Si Si3 0.808651 0.571087 0.468207
Si Si4 0.500000 0.500000 0.500000
Si Si5 0.524912 0.656060 0.107042
Si Si6 0.118576 0.150376 0.832885
Si Si7 0.937972 0.223830 0.177442
O O1 0.446400 0.136167 0.297710
O O2 0.129493 0.272909 0.193176
O O3 0.183888 0.239197 0.997161
O O4 0.000000 0.000000 0.000000
O O5 0.544724 0.320374 0.550927
O O6 0.870449 0.175569 0.651065
O O7 0.500000 0.000000 0.500000
O O8 0.647859 0.473944 0.465256
O O9 0.640543 0.625524 0.286368
O O10 0.000000 0.500000 0.500000
O O11 0.966442 0.705909 0.644795
O O12 0.694613 0.793878 0.148601
O O13 0.500000 0.500000 0.000000
O O14 0.280640 0.707865 0.981395
O O15 0.114246 0.966309 0.848457
#
# Coordination Sequence:
#
# PCOD9030850 Si02
#       7
#     2   2   2   1   2   2   2
#     4  10  22  42  76 107 143 185 245 315 364 455
#     4  12  23  46  74 110 151 190 254 309 374 455
#     4  12  26  50  71 108 154 195 251 316 373 459
#     4  12  28  44  80 114 144 210 250 306 396 440
#     4  12  28  45  70 103 149 196 244 311 373 450
#     4  11  26  45  74 108 143 199 247 306 386 444
#     4  11  24  47  71 106 146 190 255 306 379 450
#
# _framework density 22.238927
#
# number of rings (size 3 to 8) (size 9 to 14) (size 15 to 20)
#    0.000    0.615    6.154    1.385    4.308    4.308 
#    0.000    3.846    0.000    0.000    0.000    0.000 
#    0.000    0.000    0.000    0.000    0.000    0.000 
#
# Total GULP energy -72403.750278 kJ/mol
# GULP energy per Si atom -5569.519252 kJ/mol
# Density = 2.218831 g / cm^3
# Si number density = 22.238927 Si / 1000 Ang^3
#
#
#
# Elastic Constant Matrix: (Units=GPa)
#
#
# Indices 1 2 3 4 5 6 
#
# 1 136.5958 12.4725 45.4373 -18.3672 -18.0792 -2.1021
# 2 12.4725 81.4985 11.5632 -16.4449 -6.5333 -12.8451
# 3 45.4373 11.5632 185.2788 -36.0734 -12.9432 -12.1976
# 4 -18.3672 -16.4449 -36.0734 29.4091 -18.1883 3.6290
# 5 -18.0792 -6.5333 -12.9432 -18.1883 38.8223 -4.7568
# 6 -2.1021 -12.8451 -12.1976 3.6290 -4.7568 31.4599
#
#
#
# Elastic Compliance Matrix: (Units=1/GPa)
#
#
# Indices 1 2 3 4 5 6 
#
# 1 0.012584 0.006367 0.004512 0.030868 0.023533 0.005187
# 2 0.006367 0.025735 0.010685 0.052785 0.037382 0.014639
# 3 0.004512 0.010685 0.015616 0.046593 0.032185 0.010211
# 4 0.030868 0.052785 0.046593 0.228265 0.150401 0.038090
# 5 0.023533 0.037382 0.032185 0.150401 0.128040 0.031325
# 6 0.005187 0.014639 0.010211 0.038090 0.031325 0.042412
#
#
# Mechanical properties :
#
#
# Convention : Reuss Voigt Hill
#
# Bulk Modulus (GPa) = 10.30274 60.25768 35.28021
# Shear Modulus (GPa) = 11.31533 42.19825 26.75679
#
# Velocity S-wave (km/s) = 2.25812 4.36075 3.47241
# Velocity P-wave (km/s) = 3.38255 7.24633 5.65468
#
# Compressibility (1/GPa) = 0.09706157
#
# Stress axis : x y z
#
# Youngs Moduli (GPa) = 79.46737 38.85776 64.03657
#
# Poissons Ratio (x) = -0.24739 -0.28893
# Poissons Ratio (y) = -0.50594 -0.68422
# Poissons Ratio (z) = -0.35855 -0.41519
#
# Static dielectric constant tensor:
#      x y z
#    x 1.486560 -0.172790 -0.429880 
#    y -0.172790 1.795870 -0.225310 
#    z -0.429880 -0.225310 1.440940 
# 
# From -- ./inp_files/382801.got.cif
#   From: 2010.05.17/outbox.cif.g08.bks.cpg/sg2_192_cif.got.tgz:382801.got - 2010.06.03 11:33:40.
