data_PCOD9030250
_publ_section_title
;
Structure prediction by ZEFSAII (Michael W. Deem and Ramdas Pophale) SiO2 
 PCOD9030250
Probable space group: P -1
;
_chemical_formula_sum "Si O2"
_cell_formula_units_Z 16
_cell_length_a 21.099475
_cell_length_b 9.282303
_cell_length_c 12.203951
_cell_angle_alpha 48.535599
_cell_angle_beta 142.167525
_cell_angle_gamma 152.838847
_cell_volume 662.171868
_symmetry_space_group_name_H-M "P -1"
_symmetry_group_IT_number 2
_symmetry_cell_setting 'triclinic'
loop_
_space_group_symop_operation_xyz
x,y,z
-x,-y,-z
loop_
_atom_site_type_symbol
_atom_site_label
_atom_site_fract_x
_atom_site_fract_y
_atom_site_fract_z
Si Si1 0.985176 0.467298 0.778085
Si Si2 0.194322 0.301866 0.839810
Si Si3 0.762937 0.823648 0.271955
Si Si4 0.252871 0.592666 0.440201
Si Si5 0.450590 0.738901 0.427031
Si Si6 0.902997 0.771236 0.879034
Si Si7 0.485424 0.408354 0.766037
Si Si8 0.821588 0.268788 0.434483
O O1 0.879403 0.432406 0.738843
O O2 0.856683 0.230454 0.621721
O O3 0.116615 0.814917 0.731277
O O4 0.080059 0.431420 0.978817
O O5 0.231915 0.223902 0.824791
O O6 0.203894 0.538900 0.698931
O O7 0.348308 0.473067 0.045801
O O8 0.013649 0.997597 0.809261
O O9 0.826962 0.722504 0.467107
O O10 0.591551 0.623973 0.206846
O O11 0.342784 0.679694 0.406452
O O12 0.398712 0.885634 0.576720
O O13 0.297547 0.470380 0.269956
O O14 0.523941 0.651974 0.621539
O O15 0.000000 0.000000 0.000000
O O16 0.334953 0.067461 0.671244
O O17 0.000000 0.500000 0.500000
#
# Coordination Sequence:
#
# PCOD9030250 Si02
#       8
#     2   2   2   2   2   2   2   2
#     4  12  24  42  72 100 137 184 232 282 350 409
#     4  12  26  45  72 103 140 185 237 285 348 417
#     4  11  24  43  74 104 143 176 237 288 349 408
#     4  10  22  42  70 103 134 181 229 289 344 411
#     4  10  23  44  69  96 146 177 228 285 351 404
#     4  12  28  46  67  99 143 185 234 286 349 415
#     4  11  24  44  72 105 140 184 232 289 344 414
#     4  12  24  45  70 101 141 183 228 286 347 412
#
# _framework density 24.162911000000001
#
# number of rings (size 3 to 8) (size 9 to 14) (size 15 to 20)
#    0.000    0.750    2.500    4.875    1.750    7.000 
#    0.000    2.500    0.000    0.000    0.000    0.000 
#    0.000    0.000    0.000    0.000    0.000    0.000 
#
# Total GULP energy -89547.264204 kJ/mol
# GULP energy per Si atom -5596.704013 kJ/mol
# Density = 2.410792 g / cm^3
# Si number density = 24.162911 Si / 1000 Ang^3
#
#
#
# Elastic Constant Matrix: (Units=GPa)
#
#
# Indices 1 2 3 4 5 6 
#
# 1 56.7411 20.3464 10.8600 -10.2845 -11.1691 2.2233
# 2 20.3464 107.4087 29.1468 -16.3027 -0.0759 -1.9700
# 3 10.8600 29.1468 105.3059 -3.6896 5.7787 1.5678
# 4 -10.2845 -16.3027 -3.6896 34.8955 -5.7270 -0.1745
# 5 -11.1691 -0.0759 5.7787 -5.7270 38.9956 4.0521
# 6 2.2233 -1.9700 1.5678 -0.1745 4.0521 26.2772
#
#
#
# Elastic Compliance Matrix: (Units=1/GPa)
#
#
# Indices 1 2 3 4 5 6 
#
# 1 0.021680 -0.002782 -0.001625 0.006162 0.007671 -0.003088
# 2 -0.002782 0.011224 -0.002698 0.004162 0.000106 0.001249
# 3 -0.001625 -0.002698 0.010499 -0.000981 -0.002132 -0.000369
# 4 0.006162 0.004162 -0.000981 0.033447 0.006934 -0.000998
# 5 0.007671 0.000106 -0.002132 0.006934 0.029700 -0.005048
# 6 -0.003088 0.001249 -0.000369 -0.000998 -0.005048 0.039205
#
#
# Mechanical properties :
#
#
# Convention : Reuss Voigt Hill
#
# Bulk Modulus (GPa) = 34.25516 43.35135 38.80326
# Shear Modulus (GPa) = 29.46447 33.97381 31.71914
#
# Velocity S-wave (km/s) = 3.49579 3.75378 3.62708
# Velocity P-wave (km/s) = 5.52283 6.06366 5.79955
#
# Compressibility (1/GPa) = 0.02919268
#
# Stress axis : x y z
#
# Youngs Moduli (GPa) = 46.12501 89.09318 95.24999
#
# Poissons Ratio (x) = 0.24785 0.15477
# Poissons Ratio (y) = 0.12832 0.25702
# Poissons Ratio (z) = 0.07495 0.24041
#
# Static dielectric constant tensor:
#      x y z
#    x 1.963570 -0.015880 -0.049130 
#    y -0.015880 1.951290 0.068620 
#    z -0.049130 0.068620 1.921410 
# 
# From -- ./inp_files/209552.got.cif
#   From: 2010.05.17/outbox.cif.g08.bks.cpg/sg2_105_cif.got.tgz:209552.got - 2010.06.03 11:33:40.
