data_PCOD9030891
_publ_section_title
;
Structure prediction by ZEFSAII (Michael W. Deem and Ramdas Pophale) SiO2 
 PCOD9030891
Probable space group: P -1
;
_chemical_formula_sum "Si O2"
_cell_formula_units_Z 16
_cell_length_a 14.871307
_cell_length_b 8.770873
_cell_length_c 15.040342
_cell_angle_alpha 69.505980
_cell_angle_beta 150.851053
_cell_angle_gamma 92.645090
_cell_volume 736.030284
_symmetry_space_group_name_H-M "P -1"
_symmetry_group_IT_number 2
_symmetry_cell_setting 'triclinic'
loop_
_space_group_symop_operation_xyz
x,y,z
-x,-y,-z
loop_
_atom_site_type_symbol
_atom_site_label
_atom_site_fract_x
_atom_site_fract_y
_atom_site_fract_z
Si Si1 0.250517 0.131948 0.972649
Si Si2 0.674129 0.730371 0.433250
Si Si3 0.002430 0.549441 0.596189
Si Si4 0.513960 0.513368 0.615159
Si Si5 0.898051 0.041069 0.267778
Si Si6 0.723054 0.277945 0.230686
Si Si7 0.968693 0.282169 0.140430
Si Si8 0.070855 0.929574 0.176332
O O1 0.509979 0.967482 0.247082
O O2 0.179236 0.349909 0.844146
O O3 0.099984 0.118638 0.920218
O O4 0.186445 0.063039 0.843670
O O5 0.779110 0.650919 0.442293
O O6 0.529645 0.644485 0.350523
O O7 0.865764 0.667642 0.685187
O O8 0.000000 0.500000 0.500000
O O9 0.083803 0.692238 0.636793
O O10 0.500000 0.500000 0.500000
O O11 0.315013 0.728601 0.430533
O O12 0.751418 0.458857 0.866217
O O13 0.729781 0.145813 0.184009
O O14 0.891539 0.209486 0.171497
O O15 0.157050 0.870443 0.552593
O O16 0.500000 0.500000 0.000000
O O17 0.067732 0.097600 0.195815
O O18 0.000000 0.000000 0.000000
#
# Coordination Sequence:
#
# PCOD9030891 Si02
#       8
#     2   2   2   2   2   2   2   2
#     4  11  24  42  69  94 138 184 224 287 351 398
#     4  12  26  46  69 103 144 178 238 289 338 420
#     4  12  26  42  63 102 133 184 240 277 344 410
#     4  12  24  47  77 101 141 184 224 290 359 417
#     4  10  22  43  60  96 133 177 229 280 340 403
#     4  11  25  40  65  94 136 178 237 284 342 403
#     4  11  25  43  70 103 136 183 229 284 351 407
#     4  11  22  46  72 101 136 175 229 281 355 421
#
# _framework density 21.738237999999999
#
# number of rings (size 3 to 8) (size 9 to 14) (size 15 to 20)
#    0.000    0.750    7.500    0.000    3.500    4.000 
#    0.000    1.250    0.000    0.000    0.000    0.000 
#    0.000    0.000    0.000    0.000    0.000    0.000 
#
# Total GULP energy -89411.511373 kJ/mol
# GULP energy per Si atom -5588.219461 kJ/mol
# Density = 2.168876 g / cm^3
# Si number density = 21.738238 Si / 1000 Ang^3
#
#
#
# Elastic Constant Matrix: (Units=GPa)
#
#
# Indices 1 2 3 4 5 6 
#
# 1 95.0328 17.0930 31.7205 -0.0173 -7.5281 -17.5290
# 2 17.0930 37.7612 11.7306 -3.4131 -3.9307 -10.0010
# 3 31.7205 11.7306 149.8012 -20.5699 -3.0598 -22.9393
# 4 -0.0173 -3.4131 -20.5699 47.5499 -7.6650 -2.7711
# 5 -7.5281 -3.9307 -3.0598 -7.6650 29.2950 -2.6950
# 6 -17.5290 -10.0010 -22.9393 -2.7711 -2.6950 31.7636
#
#
#
# Elastic Compliance Matrix: (Units=1/GPa)
#
#
# Indices 1 2 3 4 5 6 
#
# 1 0.012903 -0.003701 -0.001637 -0.000183 0.003062 0.005017
# 2 -0.003701 0.031244 0.000287 0.003688 0.005041 0.008751
# 3 -0.001637 0.000287 0.008564 0.004429 0.002218 0.005946
# 4 -0.000183 0.003688 0.004429 0.024930 0.008088 0.007120
# 5 0.003062 0.005041 0.002218 0.008088 0.038763 0.008873
# 6 0.005017 0.008751 0.005946 0.007120 0.008873 0.042675
#
#
# Mechanical properties :
#
#
# Convention : Reuss Voigt Hill
#
# Bulk Modulus (GPa) = 23.46984 44.85373 34.16179
# Shear Modulus (GPa) = 27.26534 36.52513 31.89524
#
# Velocity S-wave (km/s) = 3.54539 4.10350 3.83461
# Velocity P-wave (km/s) = 5.25164 6.56734 5.94600
#
# Compressibility (1/GPa) = 0.04260787
#
# Stress axis : x y z
#
# Youngs Moduli (GPa) = 77.50405 32.00576 116.77343
#
# Poissons Ratio (x) = 0.11846 0.19112
# Poissons Ratio (y) = 0.28686 -0.03346
# Poissons Ratio (z) = 0.12685 -0.00917
#
# Static dielectric constant tensor:
#      x y z
#    x 1.850620 -0.047970 0.048340 
#    y -0.047970 1.856780 -0.056590 
#    z 0.048340 -0.056590 1.935230 
# 
# From -- ./inp_files/504959.got.cif
#   From: 2010.05.17/outbox.cif.g08.bks.cpg/sg2_253_cif.got.tgz:504959.got - 2010.06.03 11:33:40.
