data_PCOD9030319
_publ_section_title
;
Structure prediction by ZEFSAII (Michael W. Deem and Ramdas Pophale) SiO2 
 PCOD9030319
Probable space group: P -1
;
_chemical_formula_sum "Si O2"
_cell_formula_units_Z 16
_cell_length_a 7.984562
_cell_length_b 10.831748
_cell_length_c 11.728252
_cell_angle_alpha 53.625070
_cell_angle_beta 119.795192
_cell_angle_gamma 125.474985
_cell_volume 646.802584
_symmetry_space_group_name_H-M "P -1"
_symmetry_group_IT_number 2
_symmetry_cell_setting 'triclinic'
loop_
_space_group_symop_operation_xyz
x,y,z
-x,-y,-z
loop_
_atom_site_type_symbol
_atom_site_label
_atom_site_fract_x
_atom_site_fract_y
_atom_site_fract_z
Si Si1 0.527017 0.687967 0.928617
Si Si2 0.893544 0.477664 0.698838
Si Si3 0.149488 0.272773 0.805339
Si Si4 0.248489 0.091498 0.526991
Si Si5 0.707623 0.270058 0.963740
Si Si6 0.595597 0.407876 0.429909
Si Si7 0.255085 0.053011 0.813461
Si Si8 0.693065 0.206584 0.393338
O O1 0.489225 0.771385 0.756093
O O2 0.500000 0.500000 0.000000
O O3 0.746749 0.776134 0.023097
O O4 0.342460 0.679505 0.957495
O O5 0.820088 0.419412 0.833069
O O6 0.705041 0.465543 0.557076
O O7 0.982061 0.343194 0.752645
O O8 0.083248 0.659651 0.654071
O O9 0.332293 0.434696 0.716160
O O10 0.097350 0.129531 0.769979
O O11 0.350061 0.285982 0.420042
O O12 0.314718 0.084938 0.683704
O O13 0.318376 0.977229 0.529873
O O14 0.000000 0.000000 0.500000
O O15 0.476195 0.155709 0.896244
O O16 0.822682 0.143852 0.081816
O O17 0.690320 0.282507 0.474885
#
# Coordination Sequence:
#
# PCOD9030319 Si02
#       8
#     2   2   2   2   2   2   2   2
#     4  11  20  43  65  94 136 171 221 276 331 388
#     4  11  23  42  71  99 131 177 229 270 334 403
#     4  10  23  40  70  99 131 179 228 267 331 412
#     4  12  27  44  65  99 137 177 225 280 337 398
#     4  10  22  42  70  92 131 179 218 277 337 387
#     4  11  24  45  68  94 136 182 220 274 339 400
#     4  10  22  44  62  93 137 175 219 277 327 401
#     4  11  24  46  67 100 136 176 222 282 338 393
#
# _framework density 24.737068000000001
#
# number of rings (size 3 to 8) (size 9 to 14) (size 15 to 20)
#    0.000    1.250    5.000    1.875    3.500    3.500 
#    4.500    0.000    0.000    0.000    0.000    0.000 
#    0.000    0.000    0.000    0.000    0.000    0.000 
#
# Total GULP energy -89562.184466 kJ/mol
# GULP energy per Si atom -5597.636529 kJ/mol
# Density = 2.468077 g / cm^3
# Si number density = 24.737068 Si / 1000 Ang^3
#
#
#
# Elastic Constant Matrix: (Units=GPa)
#
#
# Indices 1 2 3 4 5 6 
#
# 1 67.9082 24.2996 6.8272 -4.5114 6.2856 -21.9062
# 2 24.2996 79.1481 26.4221 -2.9652 2.3869 -22.3114
# 3 6.8272 26.4221 68.5878 -0.4247 -7.6444 0.5478
# 4 -4.5114 -2.9652 -0.4247 34.8265 -5.6885 -0.9054
# 5 6.2856 2.3869 -7.6444 -5.6885 35.9586 -1.4240
# 6 -21.9062 -22.3114 0.5478 -0.9054 -1.4240 52.9171
#
#
#
# Elastic Compliance Matrix: (Units=1/GPa)
#
#
# Indices 1 2 3 4 5 6 
#
# 1 0.018395 -0.003510 -0.000809 0.001804 -0.002627 0.006104
# 2 -0.003510 0.017744 -0.006709 0.000869 -0.001613 0.006069
# 3 -0.000809 -0.006709 0.017746 0.000151 0.004255 -0.003230
# 4 0.001804 0.000869 0.000151 0.029794 0.004441 0.001741
# 5 -0.002627 -0.001613 0.004255 0.004441 0.029947 -0.000930
# 6 0.006104 0.006069 -0.003230 0.001741 -0.000930 0.024021
#
#
# Mechanical properties :
#
#
# Convention : Reuss Voigt Hill
#
# Bulk Modulus (GPa) = 31.41847 36.74910 34.08378
# Shear Modulus (GPa) = 29.35776 35.28011 32.31894
#
# Velocity S-wave (km/s) = 3.44872 3.78061 3.61847
# Velocity P-wave (km/s) = 5.34666 5.82627 5.59161
#
# Compressibility (1/GPa) = 0.03182841
#
# Stress axis : x y z
#
# Youngs Moduli (GPa) = 54.36233 56.35750 56.35096
#
# Poissons Ratio (x) = 0.19781 0.04561
# Poissons Ratio (y) = 0.19081 0.37806
# Poissons Ratio (z) = 0.04400 0.37810
#
# Static dielectric constant tensor:
#      x y z
#    x 2.113830 -0.075440 -0.131600 
#    y -0.075440 2.031210 0.191180 
#    z -0.131600 0.191180 2.275870 
# 
# From -- ./inp_files/306842.got.cif
#   From: 2010.05.17/outbox.cif.g08.bks.cpg/sg2_154_cif.got.tgz:306842.got - 2010.06.03 11:33:40.
