data_PCOD9030668
_publ_section_title
;
Structure prediction by ZEFSAII (Michael W. Deem and Ramdas Pophale) SiO2 
 PCOD9030668
Probable space group: P -1
;
_chemical_formula_sum "Si O2"
_cell_formula_units_Z 12
_cell_length_a 9.138157
_cell_length_b 11.817188
_cell_length_c 7.004739
_cell_angle_alpha 111.375865
_cell_angle_beta 69.255362
_cell_angle_gamma 59.598034
_cell_volume 450.642416
_symmetry_space_group_name_H-M "P -1"
_symmetry_group_IT_number 2
_symmetry_cell_setting 'triclinic'
loop_
_space_group_symop_operation_xyz
x,y,z
-x,-y,-z
loop_
_atom_site_type_symbol
_atom_site_label
_atom_site_fract_x
_atom_site_fract_y
_atom_site_fract_z
Si Si1 0.298560 0.703729 0.079675
Si Si2 0.812391 0.971073 0.637473
Si Si3 0.274367 0.242554 0.379735
Si Si4 0.227376 0.477826 0.263534
Si Si5 0.168393 0.718926 0.749870
Si Si6 0.307362 0.904432 0.662538
O O1 0.084000 0.795131 0.368941
O O2 0.220938 0.883309 0.150720
O O3 0.550653 0.586530 0.974747
O O4 0.292088 0.630940 0.843526
O O5 0.708494 0.911815 0.742933
O O6 0.707547 0.054144 0.528331
O O7 0.293632 0.310749 0.221126
O O8 0.455668 0.187825 0.412999
O O9 0.007887 0.409214 0.669263
O O10 0.182927 0.591323 0.535585
O O11 0.269281 0.782995 0.643838
O O12 0.905315 0.901331 0.028792
#
# Coordination Sequence:
#
# PCOD9030668 Si02
#       6
#     2   2   2   2   2   2
#     4  10  22  44  67  99 124 175 219 260 319 384
#     4  10  24  43  68  96 129 168 221 265 320 378
#     4  11  25  42  64  99 137 165 210 272 328 375
#     4  11  25  41  66 100 131 172 209 267 326 382
#     4  10  22  42  72  96 122 173 229 256 309 393
#     4  10  22  43  69  97 123 174 219 266 314 378
#
# _framework density 26.628651000000001
#
# number of rings (size 3 to 8) (size 9 to 14) (size 15 to 20)
#    0.000    1.667    1.667    1.000    9.333    4.667 
#    0.000    4.167    0.000    0.000    0.000    0.000 
#    0.000    0.000    0.000    0.000    0.000    0.000 
#
# Total GULP energy -67312.573265 kJ/mol
# GULP energy per Si atom -5609.381105 kJ/mol
# Density = 2.656804 g / cm^3
# Si number density = 26.628651 Si / 1000 Ang^3
#
#
#
# Elastic Constant Matrix: (Units=GPa)
#
#
# Indices 1 2 3 4 5 6 
#
# 1 195.1699 55.4652 51.6380 -6.1936 -36.7838 -17.6511
# 2 55.4652 81.7567 21.2777 -5.1311 -5.4465 14.8580
# 3 51.6380 21.2777 105.5991 12.3052 -12.3054 1.2081
# 4 -6.1936 -5.1311 12.3052 40.9906 0.1929 -7.4872
# 5 -36.7838 -5.4465 -12.3054 0.1929 62.9722 9.9405
# 6 -17.6511 14.8580 1.2081 -7.4872 9.9405 76.5879
#
#
#
# Elastic Compliance Matrix: (Units=1/GPa)
#
#
# Indices 1 2 3 4 5 6 
#
# 1 0.008246 -0.004976 -0.002893 0.001962 0.003395 0.002663
# 2 -0.004976 0.016632 -0.001097 0.000909 -0.001033 -0.004133
# 3 -0.002893 -0.001097 0.011701 -0.004300 0.000696 -0.001149
# 4 0.001962 0.000909 -0.004300 0.026640 -0.000166 0.002969
# 5 0.003395 -0.001033 0.000696 -0.000166 0.018131 -0.001398
# 6 0.002663 -0.004133 -0.001149 0.002969 -0.001398 0.014962
#
#
# Mechanical properties :
#
#
# Convention : Reuss Voigt Hill
#
# Bulk Modulus (GPa) = 53.62872 71.03194 62.33033
# Shear Modulus (GPa) = 41.50721 53.05313 47.28017
#
# Velocity S-wave (km/s) = 3.95237 4.46840 4.21828
# Velocity P-wave (km/s) = 6.40403 7.30445 6.86901
#
# Compressibility (1/GPa) = 0.01864672
#
# Stress axis : x y z
#
# Youngs Moduli (GPa) = 121.26687 60.12455 85.46263
#
# Poissons Ratio (x) = 0.29918 0.24727
# Poissons Ratio (y) = 0.60343 0.09376
# Poissons Ratio (z) = 0.35086 0.06596
#
# Static dielectric constant tensor:
#      x y z
#    x 2.030910 -0.016870 -0.060190 
#    y -0.016870 2.149100 0.066770 
#    z -0.060190 0.066770 2.122740 
# 
# From -- ./inp_files/165936.got.cif
#   From: 2010.05.17/outbox.cif.g08.bks.cpg/sg2_83_cif.got.tgz:165936.got - 2010.06.03 11:33:40.
