data_PCOD9030961
_publ_section_title
;
Structure prediction by ZEFSAII (Michael W. Deem and Ramdas Pophale) SiO2 
 PCOD9030961
Probable space group: P -1
;
_chemical_formula_sum "Si O2"
_cell_formula_units_Z 16
_cell_length_a 13.560961
_cell_length_b 11.689343
_cell_length_c 8.417730
_cell_angle_alpha 100.868763
_cell_angle_beta 86.518369
_cell_angle_gamma 147.603203
_cell_volume 689.694398
_symmetry_space_group_name_H-M "P -1"
_symmetry_group_IT_number 2
_symmetry_cell_setting 'triclinic'
loop_
_space_group_symop_operation_xyz
x,y,z
-x,-y,-z
loop_
_atom_site_type_symbol
_atom_site_label
_atom_site_fract_x
_atom_site_fract_y
_atom_site_fract_z
Si Si1 0.611884 0.843315 0.869468
Si Si2 0.281110 0.119312 0.795684
Si Si3 0.996984 0.696318 0.526052
Si Si4 0.536856 0.505254 0.678923
Si Si5 0.190207 0.257701 0.016915
Si Si6 0.342391 0.776285 0.859831
Si Si7 0.286863 0.784713 0.524025
Si Si8 0.035735 0.305734 0.829483
O O1 0.552932 0.653454 0.784416
O O2 0.454912 0.771963 0.800457
O O3 0.628554 0.863585 0.065982
O O4 0.818918 0.082087 0.845585
O O5 0.391972 0.254183 0.659472
O O6 0.290067 0.260445 0.898979
O O7 0.085784 0.869585 0.694300
O O8 0.156431 0.760711 0.476461
O O9 0.825946 0.449428 0.549751
O O10 0.949636 0.708660 0.364794
O O11 0.500000 0.500000 0.500000
O O12 0.711271 0.626136 0.793495
O O13 0.146283 0.326013 0.935380
O O14 0.000000 0.000000 0.000000
O O15 0.291813 0.799167 0.717566
O O16 0.149657 0.541071 0.897552
O O17 0.500000 0.000000 0.000000
O O18 0.500000 0.000000 0.500000
#
# Coordination Sequence:
#
# PCOD9030961 Si02
#       8
#     2   2   2   2   2   2   2   2
#     4  11  22  42  63  92 130 171 211 267 327 378
#     4  11  22  39  64  91 130 168 215 267 321 388
#     4  10  23  41  63  95 128 170 217 273 328 385
#     4  11  23  41  65  94 130 172 216 266 326 391
#     4  11  22  43  63  95 133 168 216 266 323 393
#     4  11  24  40  64  93 123 168 220 265 324 390
#     4  10  22  43  63  89 130 167 216 276 329 383
#     4  11  22  42  65  90 132 169 213 269 323 388
#
# _framework density 23.198682000000002
#
# number of rings (size 3 to 8) (size 9 to 14) (size 15 to 20)
#    0.000    1.250    2.500    5.250    0.000    2.000 
#    6.750    0.000    0.000    0.000    0.000    0.000 
#    0.000    0.000    0.000    0.000    0.000    0.000 
#
# Total GULP energy -89229.342816 kJ/mol
# GULP energy per Si atom -5576.833926 kJ/mol
# Density = 2.314588 g / cm^3
# Si number density = 23.198682 Si / 1000 Ang^3
#
#
#
# Elastic Constant Matrix: (Units=GPa)
#
#
# Indices 1 2 3 4 5 6 
#
# 1 55.1596 19.2779 16.0602 -3.5246 17.5442 4.3813
# 2 19.2779 158.4742 35.5964 19.9837 -10.5051 -7.6755
# 3 16.0602 35.5964 147.8170 13.5030 33.4667 -24.1677
# 4 -3.5246 19.9837 13.5030 41.9416 -9.8651 8.2386
# 5 17.5442 -10.5051 33.4667 -9.8651 27.0564 2.1922
# 6 4.3813 -7.6755 -24.1677 8.2386 2.1922 21.7878
#
#
#
# Elastic Compliance Matrix: (Units=1/GPa)
#
#
# Indices 1 2 3 4 5 6 
#
# 1 0.027227 -0.005926 0.006513 -0.004990 -0.030202 0.004587
# 2 -0.005926 0.008976 -0.005957 0.001712 0.015684 -0.004480
# 3 0.006513 -0.005957 0.034095 -0.033476 -0.065260 0.053635
# 4 -0.004990 0.001712 -0.033476 0.064009 0.074090 -0.067185
# 5 -0.030202 0.015684 -0.065260 0.074090 0.179024 -0.106818
# 6 0.004587 -0.004480 0.053635 -0.067185 -0.106818 0.139042
#
#
# Mechanical properties :
#
#
# Convention : Reuss Voigt Hill
#
# Bulk Modulus (GPa) = 16.79071 55.92442 36.35756
# Shear Modulus (GPa) = 10.35270 37.52491 23.93880
#
# Velocity S-wave (km/s) = 2.11478 4.02623 3.21581
# Velocity P-wave (km/s) = 3.63546 6.76559 5.43092
#
# Compressibility (1/GPa) = 0.05955674
#
# Stress axis : x y z
#
# Youngs Moduli (GPa) = 36.72843 111.40939 29.33006
#
# Poissons Ratio (x) = 0.66016 -0.19102
# Poissons Ratio (y) = 0.21764 0.17473
# Poissons Ratio (z) = -0.23920 0.66372
#
# Static dielectric constant tensor:
#      x y z
#    x 1.758850 -0.019410 0.153720 
#    y -0.019410 1.921920 0.070660 
#    z 0.153720 0.070660 1.667380 
# 
# From -- ./inp_files/307603.got.cif
#   From: 2010.05.17/outbox.cif.g08.bks.cpg/sg2_154_cif.got.tgz:307603.got - 2010.06.03 11:33:40.
