data_PCOD9030423
_publ_section_title
;
Structure prediction by ZEFSAII (Michael W. Deem and Ramdas Pophale) SiO2 
 PCOD9030423
Probable space group: P -1
;
_chemical_formula_sum "Si O2"
_cell_formula_units_Z 16
_cell_length_a 25.125069
_cell_length_b 10.703290
_cell_length_c 11.664838
_cell_angle_alpha 53.631031
_cell_angle_beta 149.181661
_cell_angle_gamma 148.381494
_cell_volume 722.200554
_symmetry_space_group_name_H-M "P -1"
_symmetry_group_IT_number 2
_symmetry_cell_setting 'triclinic'
loop_
_space_group_symop_operation_xyz
x,y,z
-x,-y,-z
loop_
_atom_site_type_symbol
_atom_site_label
_atom_site_fract_x
_atom_site_fract_y
_atom_site_fract_z
Si Si1 0.287069 0.284645 0.524986
Si Si2 0.250815 0.611190 0.310383
Si Si3 0.306658 0.154904 0.963349
Si Si4 0.885743 0.111273 0.017557
Si Si5 0.648128 0.124607 0.876119
Si Si6 0.624426 0.256064 0.005727
Si Si7 0.992639 0.886526 0.379690
Si Si8 0.630971 0.775635 0.521081
O O1 0.265385 0.443926 0.405588
O O2 0.495547 0.515577 0.834846
O O3 0.281839 0.212812 0.427374
O O4 0.121248 0.006345 0.442933
O O5 0.224566 0.652278 0.113492
O O6 0.441247 0.899814 0.565892
O O7 0.088063 0.434359 0.197846
O O8 0.328013 0.031354 0.989457
O O9 0.242061 0.005370 0.047793
O O10 0.142824 0.061065 0.664701
O O11 0.915361 0.962572 0.170672
O O12 0.782865 0.019316 0.759331
O O13 0.667515 0.225718 0.980719
O O14 0.497809 0.248064 0.750176
O O15 0.820270 0.557608 0.255855
O O16 0.500000 0.000000 0.000000
O O17 0.500000 0.500000 0.500000
#
# Coordination Sequence:
#
# PCOD9030423 Si02
#       8
#     2   2   2   2   2   2   2   2
#     4  10  22  42  70  99 125 173 225 281 329 379
#     4   9  22  41  68  98 131 170 221 280 324 392
#     4  11  23  42  68  96 139 170 222 272 337 397
#     4  11  24  41  71 103 123 173 228 285 323 381
#     4  10  24  44  64  92 140 177 214 266 340 400
#     4  12  29  46  66  96 142 180 216 274 337 399
#     4  11  25  43  68  96 133 174 224 277 331 394
#     4  12  23  44  71  98 134 170 225 276 329 390
#
# _framework density 22.154509999999998
#
# number of rings (size 3 to 8) (size 9 to 14) (size 15 to 20)
#    0.000    1.250    2.500    1.500    8.750    3.000 
#    2.250    0.000    0.000    0.000    0.000    0.000 
#    0.000    0.000    0.000    0.000    0.000    0.000 
#
# Total GULP energy -89482.073501 kJ/mol
# GULP energy per Si atom -5592.629594 kJ/mol
# Density = 2.210409 g / cm^3
# Si number density = 22.154510 Si / 1000 Ang^3
#
#
#
# Elastic Constant Matrix: (Units=GPa)
#
#
# Indices 1 2 3 4 5 6 
#
# 1 87.2624 12.1488 -2.5479 -0.3366 3.8763 9.3403
# 2 12.1488 104.9192 23.0423 7.5021 8.0531 29.6458
# 3 -2.5479 23.0423 78.3677 -2.2021 5.6007 0.9020
# 4 -0.3366 7.5021 -2.2021 31.1697 5.9604 3.9473
# 5 3.8763 8.0531 5.6007 5.9604 22.8548 -0.1200
# 6 9.3403 29.6458 0.9020 3.9473 -0.1200 32.6060
#
#
#
# Elastic Compliance Matrix: (Units=1/GPa)
#
#
# Indices 1 2 3 4 5 6 
#
# 1 0.012003 -0.000606 0.000804 0.001167 -0.002340 -0.003060
# 2 -0.000606 0.014425 -0.003890 -0.001437 -0.003719 -0.012674
# 3 0.000804 -0.003890 0.014159 0.002142 -0.002780 0.002645
# 4 0.001167 -0.001437 0.002142 0.034794 -0.009308 -0.003333
# 5 -0.002340 -0.003719 -0.002780 -0.009308 0.048599 0.005434
# 6 -0.003060 -0.012674 0.002645 -0.003333 0.005434 0.043419
#
#
# Mechanical properties :
#
#
# Convention : Reuss Voigt Hill
#
# Bulk Modulus (GPa) = 30.11754 37.31510 33.71632
# Shear Modulus (GPa) = 26.90331 33.18651 30.04491
#
# Velocity S-wave (km/s) = 3.48853 3.87454 3.68659
# Velocity P-wave (km/s) = 5.46354 6.07419 5.77694
#
# Compressibility (1/GPa) = 0.03320325
#
# Stress axis : x y z
#
# Youngs Moduli (GPa) = 83.30946 69.32499 70.62847
#
# Poissons Ratio (x) = 0.04198 -0.05675
# Poissons Ratio (y) = 0.05045 0.27473
# Poissons Ratio (z) = -0.06694 0.26966
#
# Static dielectric constant tensor:
#      x y z
#    x 1.824590 0.014250 0.028790 
#    y 0.014250 1.813820 0.011490 
#    z 0.028790 0.011490 1.863170 
# 
# From -- ./inp_files/476642.got.cif
#   From: 2010.05.17/outbox.cif.g08.bks.cpg/sg2_239_cif.got.tgz:476642.got - 2010.06.03 11:33:40.
