data_PCOD9030750
_publ_section_title
;
Structure prediction by ZEFSAII (Michael W. Deem and Ramdas Pophale) SiO2 
 PCOD9030750
Probable space group: P -1
;
_chemical_formula_sum "Si O2"
_cell_formula_units_Z 14
_cell_length_a 17.961619
_cell_length_b 25.493320
_cell_length_c 8.604634
_cell_angle_alpha 138.256973
_cell_angle_beta 33.798360
_cell_angle_gamma 163.523631
_cell_volume 588.601321
_symmetry_space_group_name_H-M "P -1"
_symmetry_group_IT_number 2
_symmetry_cell_setting 'triclinic'
loop_
_space_group_symop_operation_xyz
x,y,z
-x,-y,-z
loop_
_atom_site_type_symbol
_atom_site_label
_atom_site_fract_x
_atom_site_fract_y
_atom_site_fract_z
Si Si1 0.717582 0.904283 0.843864
Si Si2 0.770526 0.504551 0.708739
Si Si3 0.724409 0.452723 0.327558
Si Si4 0.368296 0.850887 0.235699
Si Si5 0.664174 0.029945 0.656714
Si Si6 0.339043 0.145210 0.803932
Si Si7 0.428952 0.465931 0.366109
O O1 0.377700 0.679633 0.878335
O O2 0.703651 0.982950 0.964310
O O3 0.731370 0.911688 0.020399
O O4 0.000000 0.000000 0.500000
O O5 0.611423 0.393549 0.572832
O O6 0.633957 0.367488 0.763415
O O7 0.154215 0.718883 0.470378
O O8 0.655869 0.528314 0.015075
O O9 0.556431 0.436741 0.501714
O O10 0.117732 0.680386 0.161810
O O11 0.390628 0.953268 0.373627
O O12 0.054162 0.237065 0.474460
O O13 0.555439 0.880886 0.513641
O O14 0.500000 0.000000 0.000000
O O15 0.000000 0.000000 0.000000
O O16 0.500000 0.500000 0.500000
#
# Coordination Sequence:
#
# PCOD9030750 Si02
#       7
#     2   2   2   2   2   2   2
#     4  12  26  42  72 105 141 187 237 291 356 426
#     4  10  22  42  73  96 145 177 239 282 354 412
#     4   9  22  41  68  97 136 182 229 288 343 412
#     4   9  25  45  70  98 139 186 237 286 355 409
#     4  11  27  45  71  99 149 184 230 297 354 412
#     4  12  26  44  71 108 143 184 232 294 355 414
#     4  11  22  41  70 102 136 187 236 287 346 418
#
# _framework density 23.785201000000001
#
# number of rings (size 3 to 8) (size 9 to 14) (size 15 to 20)
#    0.857    0.571    1.429    2.571    4.000    3.429 
#    0.000    0.000    0.000    0.000    0.000    0.000 
#    0.000    0.000    0.000    0.000    0.000    0.000 
#
# Total GULP energy -78286.169092 kJ/mol
# GULP energy per Si atom -5591.869221 kJ/mol
# Density = 2.373106 g / cm^3
# Si number density = 23.785201 Si / 1000 Ang^3
#
#
#
# Elastic Constant Matrix: (Units=GPa)
#
#
# Indices 1 2 3 4 5 6 
#
# 1 120.2435 19.8626 43.3936 11.7922 -24.9982 2.1951
# 2 19.8626 58.7443 11.4367 11.7415 -12.0915 -2.6311
# 3 43.3936 11.4367 144.0492 11.0907 -18.0212 -4.7011
# 4 11.7922 11.7415 11.0907 34.8199 -4.3931 0.6422
# 5 -24.9982 -12.0915 -18.0212 -4.3931 42.8577 12.4269
# 6 2.1951 -2.6311 -4.7011 0.6422 12.4269 37.6911
#
#
#
# Elastic Compliance Matrix: (Units=1/GPa)
#
#
# Indices 1 2 3 4 5 6 
#
# 1 0.010829 -0.001897 -0.002407 -0.001524 0.005433 -0.002829
# 2 -0.001897 0.019552 -0.000084 -0.005461 0.003718 0.000332
# 3 -0.002407 -0.000084 0.008012 -0.001518 0.001603 0.000631
# 4 -0.001524 -0.005461 -0.001518 0.031648 0.000523 -0.001193
# 5 0.005433 0.003718 0.001603 0.000523 0.031225 -0.010161
# 6 -0.002829 0.000332 0.000631 -0.001193 -0.010161 0.030168
#
#
# Mechanical properties :
#
#
# Convention : Reuss Voigt Hill
#
# Bulk Modulus (GPa) = 33.76439 52.49140 43.12790
# Shear Modulus (GPa) = 33.31490 39.63002 36.47246
#
# Velocity S-wave (km/s) = 3.74659 4.08629 3.92013
# Velocity P-wave (km/s) = 5.73954 6.66187 6.21783
#
# Compressibility (1/GPa) = 0.02961700
#
# Stress axis : x y z
#
# Youngs Moduli (GPa) = 92.34508 51.14447 124.81657
#
# Poissons Ratio (x) = 0.09701 0.30041
# Poissons Ratio (y) = 0.17516 0.01055
# Poissons Ratio (z) = 0.22226 0.00432
#
# Static dielectric constant tensor:
#      x y z
#    x 1.956360 0.013350 -0.095530 
#    y 0.013350 1.979190 -0.047680 
#    z -0.095530 -0.047680 2.007870 
# 
# From -- ./inp_files/338682.got.cif
#   From: 2010.05.17/outbox.cif.g08.bks.cpg/sg2_170_cif.got.tgz:338682.got - 2010.06.03 11:33:40.
