data_PCOD9030977
_publ_section_title
;
Structure prediction by ZEFSAII (Michael W. Deem and Ramdas Pophale) SiO2 
 PCOD9030977
Probable space group: P -1
;
_chemical_formula_sum "Si O2"
_cell_formula_units_Z 16
_cell_length_a 16.137668
_cell_length_b 10.321220
_cell_length_c 9.315234
_cell_angle_alpha 97.488557
_cell_angle_beta 122.902891
_cell_angle_gamma 123.296998
_cell_volume 862.221154
_symmetry_space_group_name_H-M "P -1"
_symmetry_group_IT_number 2
_symmetry_cell_setting 'triclinic'
loop_
_space_group_symop_operation_xyz
x,y,z
-x,-y,-z
loop_
_atom_site_type_symbol
_atom_site_label
_atom_site_fract_x
_atom_site_fract_y
_atom_site_fract_z
Si Si1 0.916202 0.538526 0.991811
Si Si2 0.417288 0.808520 0.483078
Si Si3 0.077379 0.958264 0.147950
Si Si4 0.426892 0.304074 0.480662
Si Si5 0.911428 0.024795 0.495687
Si Si6 0.432300 0.306081 0.827336
Si Si7 0.949649 0.347355 0.549288
Si Si8 0.596753 0.032451 0.221074
O O1 0.745461 0.369470 0.763214
O O2 0.000000 0.500000 0.000000
O O3 0.991335 0.738121 0.017231
O O4 0.953577 0.560152 0.199616
O O5 0.503507 0.757254 0.534115
O O6 0.414975 0.874665 0.646193
O O7 0.500000 0.000000 0.500000
O O8 0.247973 0.119929 0.282051
O O9 0.063968 0.960022 0.307716
O O10 0.000000 0.000000 0.000000
O O11 0.500000 0.500000 0.500000
O O12 0.457292 0.347391 0.686118
O O13 0.735758 0.847523 0.299019
O O14 0.962007 0.208978 0.495760
O O15 0.000000 0.000000 0.500000
O O16 0.462090 0.177120 0.852095
O O17 0.500000 0.500000 0.000000
O O18 0.774700 0.196583 0.392035
O O19 0.000000 0.500000 0.500000
O O20 0.500000 0.000000 0.000000
#
# Coordination Sequence:
#
# PCOD9030977 Si02
#       8
#     2   2   2   2   2   2   2   2
#     4  11  22  41  67  92 128 170 214 266 325 379
#     4  12  24  43  69  96 133 172 221 276 327 394
#     4  10  22  43  63  92 130 165 211 267 318 384
#     4  11  24  42  66 101 130 168 222 266 326 388
#     4   9  21  41  62  86 124 164 207 256 310 374
#     4  10  23  43  64  89 130 169 209 263 317 385
#     4  10  23  42  63  96 128 165 217 264 318 390
#     4  11  25  45  64  96 134 172 215 269 333 387
#
# _framework density 18.556725
#
# number of rings (size 3 to 8) (size 9 to 14) (size 15 to 20)
#    0.000    1.500    2.500    2.250    3.500    5.000 
#    4.500    0.000    0.000    0.000    0.000    0.000 
#    0.000    0.000    0.000    0.000    0.000    0.000 
#
# Total GULP energy -89088.094536 kJ/mol
# GULP energy per Si atom -5568.005908 kJ/mol
# Density = 1.851449 g / cm^3
# Si number density = 18.556725 Si / 1000 Ang^3
#
#
#
# Elastic Constant Matrix: (Units=GPa)
#
#
# Indices 1 2 3 4 5 6 
#
# 1 167.0233 86.3186 59.1816 8.0206 3.6988 -31.6383
# 2 86.3186 217.2153 82.6267 7.1046 2.6181 -23.2587
# 3 59.1816 82.6267 129.7806 4.4982 6.7003 -14.3796
# 4 8.0206 7.1046 4.4982 25.8378 -9.6015 -0.5118
# 5 3.6988 2.6181 6.7003 -9.6015 22.8130 2.4553
# 6 -31.6383 -23.2587 -14.3796 -0.5118 2.4553 35.3517
#
#
#
# Elastic Compliance Matrix: (Units=1/GPa)
#
#
# Indices 1 2 3 4 5 6 
#
# 1 0.009098 -0.002120 -0.001901 -0.002707 -0.002470 0.006106
# 2 -0.002120 0.006826 -0.003225 -0.000586 0.000125 0.001265
# 3 -0.001901 -0.003225 0.010947 -0.001646 -0.003319 0.000836
# 4 -0.002707 -0.000586 -0.001646 0.047944 0.021629 -0.004286
# 5 -0.002470 0.000125 -0.003319 0.021629 0.055051 -0.006989
# 6 0.006106 0.001265 0.000836 -0.004286 -0.006989 0.035348
#
#
# Mechanical properties :
#
#
# Convention : Reuss Voigt Hill
#
# Bulk Modulus (GPa) = 80.78812 107.80811 94.29811
# Shear Modulus (GPa) = 27.19877 35.85997 31.52937
#
# Velocity S-wave (km/s) = 3.83261 4.40073 4.12646
# Velocity P-wave (km/s) = 7.95082 9.16758 8.58080
#
# Compressibility (1/GPa) = 0.01237806
#
# Stress axis : x y z
#
# Youngs Moduli (GPa) = 109.91592 146.49608 91.35232
#
# Poissons Ratio (x) = 0.31058 0.17366
# Poissons Ratio (y) = 0.23303 0.29463
# Poissons Ratio (z) = 0.20895 0.47248
#
# Static dielectric constant tensor:
#      x y z
#    x 1.725800 0.039060 -0.059680 
#    y 0.039060 1.644270 -0.023150 
#    z -0.059680 -0.023150 1.668060 
# 
# From -- ./inp_files/243555.got.cif
#   From: 2010.05.17/outbox.cif.g08.bks.cpg/sg2_122_cif.got.tgz:243555.got - 2010.06.03 11:33:40.
