data_PCOD9030841
_publ_section_title
;
Structure prediction by ZEFSAII (Michael W. Deem and Ramdas Pophale) SiO2 
 PCOD9030841
Probable space group: P -1
;
_chemical_formula_sum "Si O2"
_cell_formula_units_Z 12
_cell_length_a 9.453227
_cell_length_b 7.145130
_cell_length_c 9.277260
_cell_angle_alpha 98.732939
_cell_angle_beta 120.629701
_cell_angle_gamma 72.662984
_cell_volume 514.703153
_symmetry_space_group_name_H-M "P -1"
_symmetry_group_IT_number 2
_symmetry_cell_setting 'triclinic'
loop_
_space_group_symop_operation_xyz
x,y,z
-x,-y,-z
loop_
_atom_site_type_symbol
_atom_site_label
_atom_site_fract_x
_atom_site_fract_y
_atom_site_fract_z
Si Si1 0.365604 0.702479 0.638463
Si Si2 0.152869 0.045775 0.999996
Si Si3 0.454513 0.734715 0.999999
Si Si4 0.272868 0.297506 0.638461
Si Si5 0.958596 0.292457 0.664451
Si Si6 0.294139 0.292453 0.335545
O O1 0.322633 0.499991 0.645254
O O2 0.522661 0.676193 0.608114
O O3 0.184710 0.807248 0.485124
O O4 0.425575 0.789371 0.824307
O O5 0.074877 0.167674 0.833093
O O6 0.241783 0.167674 0.166900
O O7 0.281200 0.841180 0.999995
O O8 0.000000 0.000000 0.000000
O O9 0.601263 0.789379 0.175693
O O10 0.500000 0.500000 0.000000
O O11 0.085460 0.323795 0.608109
O O12 0.300420 0.192737 0.485120
O O13 0.850056 0.500006 0.700097
#
# Coordination Sequence:
#
# PCOD9030841 Si02
#       6
#     2   2   2   2   2   2
#     4  10  22  42  76 102 142 187 231 278 359 417
#     4  12  30  44  71 107 142 185 243 290 349 411
#     4  10  25  46  71  96 144 187 232 286 355 407
#     4  10  22  42  76 102 142 187 231 278 359 417
#     4  11  24  44  73 107 144 183 233 288 353 418
#     4  11  24  44  73 107 144 183 233 288 353 418
#
# _framework density 23.314406999999999
#
# number of rings (size 3 to 8) (size 9 to 14) (size 15 to 20)
#    0.000    1.333    0.000    5.500   14.000    4.000 
#    0.000    0.000    0.000    0.000    0.000    0.000 
#    0.000    0.000    0.000    0.000    0.000    0.000 
#
# Total GULP energy -67080.506360 kJ/mol
# GULP energy per Si atom -5590.042197 kJ/mol
# Density = 2.326134 g / cm^3
# Si number density = 23.314407 Si / 1000 Ang^3
#
#
#
# Elastic Constant Matrix: (Units=GPa)
#
#
# Indices 1 2 3 4 5 6 
#
# 1 263.4395 62.4773 74.2500 -0.0710 -0.0336 -21.8748
# 2 62.4773 114.6146 49.3049 -0.8840 0.1475 -12.7199
# 3 74.2500 49.3049 215.9399 0.6839 -0.1702 -9.4989
# 4 -0.0710 -0.8840 0.6839 327.5448 -56.7073 0.1155
# 5 -0.0336 0.1475 -0.1702 -56.7073 41.4820 0.0017
# 6 -21.8748 -12.7199 -9.4989 0.1155 0.0017 45.7895
#
#
#
# Elastic Compliance Matrix: (Units=1/GPa)
#
#
# Indices 1 2 3 4 5 6 
#
# 1 0.004685 -0.001913 -0.001109 -0.000002 0.000004 0.001477
# 2 -0.001913 0.010692 -0.001709 0.000031 -0.000005 0.001702
# 3 -0.001109 -0.001709 0.005408 -0.000015 0.000007 0.000117
# 4 -0.000002 0.000031 -0.000015 0.004000 0.005468 -0.000006
# 5 0.000004 -0.000005 0.000007 0.005468 0.031581 -0.000013
# 6 0.001477 0.001702 0.000117 -0.000006 -0.000013 0.023042
#
#
# Mechanical properties :
#
#
# Convention : Reuss Voigt Hill
#
# Bulk Modulus (GPa) = 88.31677 107.33981 97.82829
# Shear Modulus (GPa) = 53.97101 110.16072 82.06586
#
# Velocity S-wave (km/s) = 4.81658 6.88133 5.93936
# Velocity P-wave (km/s) = 8.30034 10.45356 9.43855
#
# Compressibility (1/GPa) = 0.01132288
#
# Stress axis : x y z
#
# Youngs Moduli (GPa) = 213.45707 93.53047 184.92266
#
# Poissons Ratio (x) = 0.17890 0.20511
# Poissons Ratio (y) = 0.40828 0.31599
# Poissons Ratio (z) = 0.23676 0.15982
#
# Static dielectric constant tensor:
#      x y z
#    x 1.647370 0.003670 0.000020 
#    y 0.003670 1.928960 -0.000020 
#    z 0.000020 -0.000020 1.947010 
# 
# From -- ./inp_files/155692.got.cif
#   From: 2010.05.17/outbox.cif.g08.bks.cpg/sg2_78_cif.got.tgz:155692.got - 2010.06.03 11:33:40.
