data_PCOD9030835
_publ_section_title
;
Structure prediction by ZEFSAII (Michael W. Deem and Ramdas Pophale) SiO2 
 PCOD9030835
Probable space group: P -1
;
_chemical_formula_sum "Si O2"
_cell_formula_units_Z 12
_cell_length_a 15.835268
_cell_length_b 28.655166
_cell_length_c 5.141688
_cell_angle_alpha 67.384211
_cell_angle_beta 63.785080
_cell_angle_gamma 14.085294
_cell_volume 498.989097
_symmetry_space_group_name_H-M "P -1"
_symmetry_group_IT_number 2
_symmetry_cell_setting 'triclinic'
loop_
_space_group_symop_operation_xyz
x,y,z
-x,-y,-z
loop_
_atom_site_type_symbol
_atom_site_label
_atom_site_fract_x
_atom_site_fract_y
_atom_site_fract_z
Si Si1 0.149077 0.452676 0.653087
Si Si2 0.325445 0.452914 0.717797
Si Si3 0.043522 0.839583 0.893782
Si Si4 0.703721 0.914764 0.153701
Si Si5 0.353278 0.531525 0.813355
Si Si6 0.205641 0.853819 0.860919
O O1 0.096781 0.539003 0.632318
O O2 0.583244 0.229500 0.485908
O O3 0.000000 0.500000 0.500000
O O4 0.000000 0.500000 0.000000
O O5 0.688703 0.285262 0.439304
O O6 0.151724 0.592495 0.787485
O O7 0.473714 0.338820 0.987977
O O8 0.942780 0.945316 0.928678
O O9 0.301788 0.676339 0.094328
O O10 0.738194 0.957400 0.998165
O O11 0.500000 0.000000 0.500000
O O12 0.106177 0.682093 0.057131
O O13 0.500000 0.000000 0.000000
O O14 0.500000 0.500000 0.500000
O O15 0.000000 0.000000 0.000000
#
# Coordination Sequence:
#
# PCOD9030835 Si02
#       6
#     2   2   2   2   2   2
#     4  11  22  44  67 100 137 172 224 288 340 401
#     4  10  22  42  75  98 131 184 245 264 335 427
#     4  10  23  43  72  98 132 190 242 265 337 436
#     4  12  27  44  66 107 147 172 220 300 353 389
#     4  11  22  44  76  96 134 191 238 272 333 433
#     4  10  23  45  73  98 134 181 232 285 340 409
#
# _framework density 24.048622000000002
#
# number of rings (size 3 to 8) (size 9 to 14) (size 15 to 20)
#    0.000    1.333    3.333    1.500    4.667    2.667 
#    6.000    0.000    0.000    0.000    0.000    0.000 
#    0.000    0.000    0.000    0.000    0.000    0.000 
#
# Total GULP energy -67072.308523 kJ/mol
# GULP energy per Si atom -5589.359044 kJ/mol
# Density = 2.399389 g / cm^3
# Si number density = 24.048622 Si / 1000 Ang^3
#
#
#
# Elastic Constant Matrix: (Units=GPa)
#
#
# Indices 1 2 3 4 5 6 
#
# 1 284.8785 31.9777 80.8971 18.9561 -8.7767 9.9519
# 2 31.9777 41.2350 24.5068 -0.1812 -5.0489 10.7900
# 3 80.8971 24.5068 199.5413 9.2034 -5.6810 10.4817
# 4 18.9561 -0.1812 9.2034 29.1763 -3.9282 9.0928
# 5 -8.7767 -5.0489 -5.6810 -3.9282 47.9836 5.0934
# 6 9.9519 10.7900 10.4817 9.0928 5.0934 47.7073
#
#
#
# Elastic Compliance Matrix: (Units=1/GPa)
#
#
# Indices 1 2 3 4 5 6 
#
# 1 0.004349 -0.002703 -0.001336 -0.002557 0.000093 0.000475
# 2 -0.002703 0.030086 -0.002371 0.005397 0.003589 -0.007132
# 3 -0.001336 -0.002371 0.005907 -0.000884 0.000168 -0.000332
# 4 -0.002557 0.005397 -0.000884 0.039436 0.004121 -0.008449
# 5 0.000093 0.003589 0.000168 0.004121 0.022018 -0.004004
# 6 0.000475 -0.007132 -0.000332 -0.008449 -0.004004 0.024586
#
#
# Mechanical properties :
#
#
# Convention : Reuss Voigt Hill
#
# Bulk Modulus (GPa) = 36.33383 88.93532 62.63457
# Shear Modulus (GPa) = 33.69796 50.85833 42.27814
#
# Velocity S-wave (km/s) = 3.74738 4.60370 4.19743
# Velocity P-wave (km/s) = 5.81937 8.08211 7.04221
#
# Compressibility (1/GPa) = 0.02752256
#
# Stress axis : x y z
#
# Youngs Moduli (GPa) = 229.91601 33.23783 169.28312
#
# Poissons Ratio (x) = 0.08985 0.22611
# Poissons Ratio (y) = 0.62151 0.40141
# Poissons Ratio (z) = 0.30710 0.07882
#
# Static dielectric constant tensor:
#      x y z
#    x 1.838740 -0.081520 0.301050 
#    y -0.081520 1.971270 0.060250 
#    z 0.301050 0.060250 1.449500 
# 
# From -- ./inp_files/101400.got.cif
#   From: 2010.05.17/outbox.cif.g08.bks.cpg/sg2_51_cif.got.tgz:101400.got - 2010.06.03 11:33:40.
