data_PCOD9030037
_publ_section_title
;
Structure prediction by ZEFSAII (Michael W. Deem and Ramdas Pophale) SiO2 
 PCOD9030037
Probable space group: P -1
;
_chemical_formula_sum "Si O2"
_cell_formula_units_Z 16
_cell_length_a 10.842827
_cell_length_b 5.806542
_cell_length_c 21.160616
_cell_angle_alpha 82.114053
_cell_angle_beta 138.680834
_cell_angle_gamma 74.469032
_cell_volume 717.730605
_symmetry_space_group_name_H-M "P -1"
_symmetry_group_IT_number 2
_symmetry_cell_setting 'triclinic'
loop_
_space_group_symop_operation_xyz
x,y,z
-x,-y,-z
loop_
_atom_site_type_symbol
_atom_site_label
_atom_site_fract_x
_atom_site_fract_y
_atom_site_fract_z
Si Si1 0.194336 0.665755 0.083200
Si Si2 0.599520 0.560527 0.440098
Si Si3 0.900480 0.600145 0.059902
Si Si4 0.886030 0.746969 0.498174
Si Si5 0.157785 0.673042 0.831490
Si Si6 0.657785 0.337682 0.331490
Si Si7 0.613969 0.131173 0.001826
Si Si8 0.305665 0.943290 0.416800
O O1 0.455156 0.539114 0.199188
O O2 0.130379 0.541322 0.122230
O O3 0.174799 0.534674 0.015945
O O4 0.000000 0.000000 0.000000
O O5 0.771814 0.657377 0.508163
O O6 0.592729 0.513445 0.365204
O O7 0.369621 0.793932 0.377770
O O8 0.674799 0.274583 0.515945
O O9 0.907271 0.471378 0.134797
O O10 0.728186 0.937354 0.991837
O O11 0.000000 0.500000 0.500000
O O12 0.098531 0.756480 0.599029
O O13 0.701075 0.041444 0.381732
O O14 0.401468 0.454040 0.900971
O O15 0.201076 0.875748 0.881732
O O16 0.955155 0.806543 0.699188
O O17 0.500000 0.000000 0.000000
O O18 0.500000 0.000000 0.500000
#
# Coordination Sequence:
#
# PCOD9030037 Si02
#       8
#     2   2   2   2   2   2   2   2
#     4  11  25  41  63 102 132 173 224 272 344 398
#     4  10  23  39  64  97 134 169 218 274 329 399
#     4  10  23  39  64  97 134 169 218 274 329 399
#     4   9  20  42  65  94 126 174 222 265 333 389
#     4  10  22  42  69  92 132 178 219 276 333 402
#     4  10  22  42  69  92 132 178 219 276 333 402
#     4   9  20  42  65  94 126 174 222 265 333 389
#     4  11  25  41  63 102 132 173 224 272 344 398
#
# _framework density 22.292487000000001
#
# number of rings (size 3 to 8) (size 9 to 14) (size 15 to 20)
#    0.000    2.000    0.000    1.500    7.000    6.000 
#    0.000   30.000    0.000    0.000    0.000    0.000 
#    0.000    0.000    0.000    0.000    0.000    0.000 
#
# Total GULP energy -89288.647261 kJ/mol
# GULP energy per Si atom -5580.540454 kJ/mol
# Density = 2.224175 g / cm^3
# Si number density = 22.292487 Si / 1000 Ang^3
#
#
#
# Elastic Constant Matrix: (Units=GPa)
#
#
# Indices 1 2 3 4 5 6 
#
# 1 90.6794 13.9754 19.1646 -0.3760 -4.3813 10.7844
# 2 13.9754 106.3990 45.5845 1.3555 3.8828 -6.9171
# 3 19.1646 45.5845 105.7247 -7.0033 27.4968 4.9754
# 4 -0.3760 1.3555 -7.0033 14.6464 -2.3508 -3.3186
# 5 -4.3813 3.8828 27.4968 -2.3508 20.9864 2.4153
# 6 10.7844 -6.9171 4.9754 -3.3186 2.4153 57.2069
#
#
#
# Elastic Compliance Matrix: (Units=1/GPa)
#
#
# Indices 1 2 3 4 5 6 
#
# 1 0.012697 -0.000255 -0.004376 -0.000918 0.008612 -0.002461
# 2 -0.000255 0.012511 -0.007405 -0.003226 0.006773 0.001732
# 3 -0.004376 -0.007405 0.020573 0.006182 -0.025758 -0.000413
# 4 -0.000918 -0.003226 0.006182 0.072287 0.000007 0.003439
# 5 0.008612 0.006773 -0.025758 0.000007 0.082178 -0.002033
# 6 -0.002461 0.001732 -0.000413 0.003439 -0.002033 0.018475
#
#
# Mechanical properties :
#
#
# Convention : Reuss Voigt Hill
#
# Bulk Modulus (GPa) = 46.06644 51.13913 48.60278
# Shear Modulus (GPa) = 19.99759 33.50651 26.75205
#
# Velocity S-wave (km/s) = 2.99834 3.88111 3.46793
# Velocity P-wave (km/s) = 5.71805 6.56307 6.15508
#
# Compressibility (1/GPa) = 0.02170778
#
# Stress axis : x y z
#
# Youngs Moduli (GPa) = 78.75808 79.92940 48.60835
#
# Poissons Ratio (x) = 0.02041 0.21273
# Poissons Ratio (y) = 0.02011 0.35993
# Poissons Ratio (z) = 0.34468 0.59186
#
# Static dielectric constant tensor:
#      x y z
#    x 1.847620 0.013210 0.003960 
#    y 0.013210 1.905210 0.002620 
#    z 0.003960 0.002620 1.792720 
# 
# From -- ./inp_files/592748.got.cif
#   From: 2010.05.17/outbox.cif.g08.bks.cpg/sg2_297_cif.got.tgz:592748.got - 2010.06.03 11:33:40.
