data_PCOD9030630
_publ_section_title
;
Structure prediction by ZEFSAII (Michael W. Deem and Ramdas Pophale) SiO2 
 PCOD9030630
Probable space group: P -1
;
_chemical_formula_sum "Si O2"
_cell_formula_units_Z 15
_cell_length_a 8.481091
_cell_length_b 22.270454
_cell_length_c 8.424794
_cell_angle_alpha 123.839452
_cell_angle_beta 53.186574
_cell_angle_gamma 148.175419
_cell_volume 667.468587
_symmetry_space_group_name_H-M "P -1"
_symmetry_group_IT_number 2
_symmetry_cell_setting 'triclinic'
loop_
_space_group_symop_operation_xyz
x,y,z
-x,-y,-z
loop_
_atom_site_type_symbol
_atom_site_label
_atom_site_fract_x
_atom_site_fract_y
_atom_site_fract_z
Si Si1 0.183843 0.272524 0.452296
Si Si2 0.872228 0.514060 0.457254
Si Si3 0.198879 0.085231 0.688101
Si Si4 0.208762 0.753070 0.601040
Si Si5 0.476155 0.760056 0.972146
Si Si6 0.000000 0.500000 0.000000
Si Si7 0.278613 0.940114 0.390978
Si Si8 0.507677 0.100256 0.068022
O O1 0.499406 0.403306 0.499417
O O2 0.287151 0.233575 0.226427
O O3 0.942136 0.251291 0.466641
O O4 0.017135 0.193884 0.590649
O O5 0.000000 0.500000 0.500000
O O6 0.976430 0.624065 0.598856
O O7 0.003616 0.529828 0.227337
O O8 0.452901 0.185433 0.554362
O O9 0.187395 0.997331 0.523594
O O10 0.365917 0.151038 0.849736
O O11 0.844061 0.006755 0.812303
O O12 0.259824 0.825208 0.814959
O O13 0.439370 0.809545 0.929401
O O14 0.181997 0.628714 0.017559
O O15 0.500000 0.000000 0.500000
O O16 0.434439 0.948960 0.157984
#
# Coordination Sequence:
#
# PCOD9030630 Si02
#       8
#     2   2   2   2   2   1   2   2
#     4  11  24  45  72 103 145 191 238 305 370 435
#     4  11  25  49  75 105 147 193 251 308 370 442
#     4  12  24  44  72 102 146 192 243 296 370 436
#     4  12  25  46  68 107 147 186 247 314 361 440
#     4  11  21  44  73  98 140 189 245 292 368 438
#     4  10  22  42  72 106 132 190 242 296 360 432
#     4  12  23  45  72 103 146 192 240 302 364 438
#     4  12  26  44  72 108 143 197 246 297 377 442
#
# _framework density 22.472968999999999
#
# number of rings (size 3 to 8) (size 9 to 14) (size 15 to 20)
#    0.000    0.533    5.333    3.600    0.000    0.533 
#    7.200    0.667    0.000    0.000    0.000    0.000 
#    0.000    0.000    0.000    0.000    0.000    0.000 
#
# Total GULP energy -83645.073638 kJ/mol
# GULP energy per Si atom -5576.338243 kJ/mol
# Density = 2.242182 g / cm^3
# Si number density = 22.472969 Si / 1000 Ang^3
#
#
#
# Elastic Constant Matrix: (Units=GPa)
#
#
# Indices 1 2 3 4 5 6 
#
# 1 75.3841 58.3481 31.5698 5.3997 0.1828 -1.0991
# 2 58.3481 146.4210 59.0068 13.7888 -2.4829 -3.7649
# 3 31.5698 59.0068 154.0612 5.8079 -3.4334 17.6337
# 4 5.3997 13.7888 5.8079 38.0637 0.3852 2.6649
# 5 0.1828 -2.4829 -3.4334 0.3852 35.7034 8.9621
# 6 -1.0991 -3.7649 17.6337 2.6649 8.9621 34.4987
#
#
#
# Elastic Compliance Matrix: (Units=1/GPa)
#
#
# Indices 1 2 3 4 5 6 
#
# 1 0.019402 -0.007194 -0.001327 0.000013 -0.000915 0.000748
# 2 -0.007194 0.011262 -0.003060 -0.002788 -0.000152 0.002819
# 3 -0.001327 -0.003060 0.008571 0.000340 0.001942 -0.005288
# 4 0.000013 -0.002788 0.000340 0.027411 0.000208 -0.002649
# 5 -0.000915 -0.000152 0.001942 0.000208 0.030437 -0.008961
# 6 0.000748 0.002819 -0.005288 -0.002649 -0.008961 0.034553
#
#
# Mechanical properties :
#
#
# Convention : Reuss Voigt Hill
#
# Bulk Modulus (GPa) = 62.22027 74.85731 68.53879
# Shear Modulus (GPa) = 31.21960 36.78260 34.00110
#
# Velocity S-wave (km/s) = 3.73125 4.05006 3.89392
# Velocity P-wave (km/s) = 6.80513 7.43323 7.12610
#
# Compressibility (1/GPa) = 0.01607193
#
# Stress axis : x y z
#
# Youngs Moduli (GPa) = 51.54183 88.79207 116.67822
#
# Poissons Ratio (x) = 0.63880 0.15480
# Poissons Ratio (y) = 0.37081 0.35706
# Poissons Ratio (z) = 0.06838 0.27172
#
# Static dielectric constant tensor:
#      x y z
#    x 1.856500 -0.019000 0.000220 
#    y -0.019000 1.854110 -0.022150 
#    z 0.000220 -0.022150 1.815250 
# 
# From -- ./inp_files/225571.got.cif
#   From: 2010.05.17/outbox.cif.g08.bks.cpg/sg2_113_cif.got.tgz:225571.got - 2010.06.03 11:33:40.
