data_PCOD9030503
_publ_section_title
;
Structure prediction by ZEFSAII (Michael W. Deem and Ramdas Pophale) SiO2 
 PCOD9030503
Probable space group: P -1
;
_chemical_formula_sum "Si O2"
_cell_formula_units_Z 15
_cell_length_a 16.890167
_cell_length_b 8.645091
_cell_length_c 19.274947
_cell_angle_alpha 140.026975
_cell_angle_beta 21.304688
_cell_angle_gamma 141.095470
_cell_volume 631.577214
_symmetry_space_group_name_H-M "P -1"
_symmetry_group_IT_number 2
_symmetry_cell_setting 'triclinic'
loop_
_space_group_symop_operation_xyz
x,y,z
-x,-y,-z
loop_
_atom_site_type_symbol
_atom_site_label
_atom_site_fract_x
_atom_site_fract_y
_atom_site_fract_z
Si Si1 0.183348 0.488592 0.632642
Si Si2 0.839699 0.541422 0.206448
Si Si3 0.545921 0.874892 0.683162
Si Si4 0.841810 0.971636 0.875202
Si Si5 0.108551 0.493704 0.255104
Si Si6 0.360544 0.696142 0.360191
Si Si7 0.500000 0.000000 0.500000
Si Si8 0.466674 0.220638 0.054752
O O1 0.089300 0.521678 0.796825
O O2 0.259396 0.232916 0.480395
O O3 0.394276 0.727507 0.528118
O O4 0.000462 0.491323 0.725153
O O5 0.594702 0.360586 0.329621
O O6 0.906957 0.842737 0.258556
O O7 0.000000 0.500000 0.000000
O O8 0.615538 0.121732 0.663478
O O9 0.352616 0.895028 0.902257
O O10 0.821555 0.758988 0.875398
O O11 0.772624 0.859410 0.817596
O O12 0.902323 0.458782 0.465003
O O13 0.338236 0.714127 0.141842
O O14 0.449966 0.858301 0.412441
O O15 0.483149 0.478097 0.170670
O O16 0.500000 0.000000 0.000000
#
# Coordination Sequence:
#
# PCOD9030503 Si02
#       8
#     2   2   2   2   2   2   1   2
#     4  11  23  42  70 109 151 190 253 307 383 457
#     4  10  22  42  71 109 145 203 250 312 380 454
#     4  11  23  44  76 108 153 198 245 320 380 450
#     4  11  25  48  72 107 152 197 260 308 381 454
#     4  11  26  47  73 111 146 199 256 305 384 455
#     4  11  25  48  76 112 152 195 253 309 386 453
#     4  10  24  42  70 112 152 192 234 320 370 450
#     4  12  28  51  76 107 154 201 255 322 376 451
#
# _framework density 23.750063999999998
#
# number of rings (size 3 to 8) (size 9 to 14) (size 15 to 20)
#    0.000    1.067    2.667    2.400    7.467    1.067 
#    2.400    5.333    0.000    0.000    0.000    0.000 
#    0.000    0.000    0.000    0.000    0.000    0.000 
#
# Total GULP energy -83513.876283 kJ/mol
# GULP energy per Si atom -5567.591752 kJ/mol
# Density = 2.369601 g / cm^3
# Si number density = 23.750064 Si / 1000 Ang^3
#
#
#
# Elastic Constant Matrix: (Units=GPa)
#
#
# Indices 1 2 3 4 5 6 
#
# 1 94.4633 38.1579 13.0280 19.2666 -14.2998 -10.7846
# 2 38.1579 160.5112 27.7375 -6.0354 -12.3454 -21.0964
# 3 13.0280 27.7375 80.2933 8.2144 0.7408 -6.9278
# 4 19.2666 -6.0354 8.2144 41.8498 -5.8006 5.7075
# 5 -14.2998 -12.3454 0.7408 -5.8006 36.6805 -5.3474
# 6 -10.7846 -21.0964 -6.9278 5.7075 -5.3474 50.0282
#
#
#
# Elastic Compliance Matrix: (Units=1/GPa)
#
#
# Indices 1 2 3 4 5 6 
#
# 1 0.014081 -0.002838 -0.000402 -0.006674 0.003919 0.002963
# 2 -0.002838 0.007920 -0.002398 0.002937 0.002410 0.002318
# 3 -0.000402 -0.002398 0.013780 -0.003225 -0.001605 0.001007
# 4 -0.006674 0.002937 -0.003225 0.028869 0.002482 -0.003675
# 5 0.003919 0.002410 -0.001605 0.002482 0.030702 0.004637
# 6 0.002963 0.002318 0.001007 -0.003675 0.004637 0.022659
#
#
# Mechanical properties :
#
#
# Convention : Reuss Voigt Hill
#
# Bulk Modulus (GPa) = 40.81003 54.79053 47.80028
# Shear Modulus (GPa) = 36.37560 42.80134 39.58847
#
# Velocity S-wave (km/s) = 3.91781 4.24979 4.08717
# Velocity P-wave (km/s) = 6.13890 6.87027 6.51486
#
# Compressibility (1/GPa) = 0.02450378
#
# Stress axis : x y z
#
# Youngs Moduli (GPa) = 71.01955 126.26796 72.57096
#
# Poissons Ratio (x) = 0.35834 0.02918
# Poissons Ratio (y) = 0.20155 0.17403
# Poissons Ratio (z) = 0.02855 0.30280
#
# Static dielectric constant tensor:
#      x y z
#    x 1.897840 0.061280 0.025930 
#    y 0.061280 1.949210 -0.023760 
#    z 0.025930 -0.023760 2.001010 
# 
# From -- ./inp_files/599619.got.cif
#   From: 2010.05.17/outbox.cif.g08.bks.cpg/sg2_300_cif.got.tgz:599619.got - 2010.06.03 11:33:40.
