data_PCOD9030040
_publ_section_title
;
Structure prediction by ZEFSAII (Michael W. Deem and Ramdas Pophale) SiO2 
 PCOD9030040
Probable space group: P -1
;
_chemical_formula_sum "Si O2"
_cell_formula_units_Z 14
_cell_length_a 8.024846
_cell_length_b 10.952445
_cell_length_c 11.273783
_cell_angle_alpha 140.600744
_cell_angle_beta 94.425490
_cell_angle_gamma 109.352567
_cell_volume 493.037085
_symmetry_space_group_name_H-M "P -1"
_symmetry_group_IT_number 2
_symmetry_cell_setting 'triclinic'
loop_
_space_group_symop_operation_xyz
x,y,z
-x,-y,-z
loop_
_atom_site_type_symbol
_atom_site_label
_atom_site_fract_x
_atom_site_fract_y
_atom_site_fract_z
Si Si1 0.691801 0.308353 0.808656
Si Si2 0.405652 0.101462 0.855584
Si Si3 0.204345 0.171016 0.293382
Si Si4 0.365687 0.350314 0.692385
Si Si5 0.345912 0.646518 0.575432
Si Si6 0.941031 0.222972 0.587948
Si Si7 0.920472 0.617149 0.857846
O O1 0.598817 0.181687 0.834976
O O2 0.506471 0.316491 0.756637
O O3 0.764239 0.174427 0.635312
O O4 0.888174 0.576838 0.968435
O O5 0.351026 0.878768 0.765729
O O6 0.192061 0.975881 0.671234
O O7 0.489090 0.358535 0.106755
O O8 0.267856 0.194933 0.451615
O O9 0.180694 0.381960 0.427856
O O10 0.419988 0.257623 0.305113
O O11 0.025116 0.892331 0.040579
O O12 0.148317 0.266491 0.681120
O O13 0.289719 0.566445 0.372418
O O14 0.032282 0.492146 0.742428
#
# Coordination Sequence:
#
# PCOD9030040 Si02
#       7
#     2   2   2   2   2   2   2
#     4  10  23  45  66  97 134 172 212 274 323 384
#     4  11  23  44  63  98 137 166 222 264 326 395
#     4  11  22  40  68  97 129 170 224 262 326 387
#     4  12  24  41  66 100 133 173 214 270 326 385
#     4  10  22  42  69  93 128 178 213 274 318 379
#     4   9  23  39  68  96 127 175 214 263 334 375
#     4   9  20  43  64  95 129 168 217 264 326 380
#
# _framework density 28.395430999999999
#
# number of rings (size 3 to 8) (size 9 to 14) (size 15 to 20)
#    0.857    0.857    1.429    2.143    2.000    1.714 
#    2.571    2.857    0.000    0.000    0.000    0.000 
#    0.000    0.000    0.000    0.000    0.000    0.000 
#
# Total GULP energy -78178.959769 kJ/mol
# GULP energy per Si atom -5584.211412 kJ/mol
# Density = 2.833080 g / cm^3
# Si number density = 28.395431 Si / 1000 Ang^3
#
#
#
# Elastic Constant Matrix: (Units=GPa)
#
#
# Indices 1 2 3 4 5 6 
#
# 1 92.0796 -9.8427 31.8836 -7.6164 13.1849 8.8775
# 2 -9.8427 74.9808 36.0304 27.8553 -10.2412 -8.6877
# 3 31.8836 36.0304 167.4021 42.0517 5.8609 -5.9718
# 4 -7.6164 27.8553 42.0517 63.1009 -2.9702 -9.5782
# 5 13.1849 -10.2412 5.8609 -2.9702 30.0119 0.2705
# 6 8.8775 -8.6877 -5.9718 -9.5782 0.2705 28.5813
#
#
#
# Elastic Compliance Matrix: (Units=1/GPa)
#
#
# Indices 1 2 3 4 5 6 
#
# 1 0.013409 0.001473 -0.003481 0.002541 -0.004425 -0.003551
# 2 0.001473 0.017898 -0.002951 -0.005102 0.005508 0.002604
# 3 -0.003481 -0.002951 0.008558 -0.004842 -0.001632 0.000365
# 4 0.002541 -0.005102 -0.004842 0.022269 0.000256 0.004109
# 5 -0.004425 0.005508 -0.001632 0.000256 0.037466 0.002439
# 6 -0.003551 0.002604 0.000365 0.004109 0.002439 0.038313
#
#
# Mechanical properties :
#
#
# Convention : Reuss Voigt Hill
#
# Bulk Modulus (GPa) = 33.39202 50.06720 41.72961
# Shear Modulus (GPa) = 31.68318 42.76490 37.22404
#
# Velocity S-wave (km/s) = 3.34396 3.88499 3.62459
# Velocity P-wave (km/s) = 5.16668 6.14774 5.67844
#
# Compressibility (1/GPa) = 0.02994727
#
# Stress axis : x y z
#
# Youngs Moduli (GPa) = 74.57618 55.87356 116.84508
#
# Poissons Ratio (x) = -0.08231 0.40673
# Poissons Ratio (y) = -0.10987 0.34483
# Poissons Ratio (z) = 0.25960 0.16489
#
# Static dielectric constant tensor:
#      x y z
#    x 2.289430 0.040960 -0.014910 
#    y 0.040960 2.329570 -0.017530 
#    z -0.014910 -0.017530 2.227800 
# 
# From -- ./inp_files/505840.got.cif
#   From: 2010.05.17/outbox.cif.g08.bks.cpg/sg2_253_cif.got.tgz:505840.got - 2010.06.03 11:33:40.
