data_PCOD9030316
_publ_section_title
;
Structure prediction by ZEFSAII (Michael W. Deem and Ramdas Pophale) SiO2 
 PCOD9030316
Probable space group: P -1
;
_chemical_formula_sum "Si O2"
_cell_formula_units_Z 14
_cell_length_a 10.973779
_cell_length_b 9.078652
_cell_length_c 8.598138
_cell_angle_alpha 127.800533
_cell_angle_beta 53.074793
_cell_angle_gamma 110.723758
_cell_volume 540.946303
_symmetry_space_group_name_H-M "P -1"
_symmetry_group_IT_number 2
_symmetry_cell_setting 'triclinic'
loop_
_space_group_symop_operation_xyz
x,y,z
-x,-y,-z
loop_
_atom_site_type_symbol
_atom_site_label
_atom_site_fract_x
_atom_site_fract_y
_atom_site_fract_z
Si Si1 0.291326 0.709322 0.064551
Si Si2 0.895210 0.218163 0.064926
Si Si3 0.070955 0.926656 0.561683
Si Si4 0.605649 0.019332 0.281266
Si Si5 0.441960 0.299065 0.355594
Si Si6 0.333525 0.413009 0.065743
Si Si7 0.138882 0.412444 0.507575
O O1 0.273406 0.501239 0.007907
O O2 0.236498 0.849145 0.333610
O O3 0.192183 0.741520 0.006036
O O4 0.463418 0.739535 0.899278
O O5 0.765615 0.129208 0.217039
O O6 0.937327 0.412164 0.234734
O O7 0.034095 0.080304 0.819964
O O8 0.975445 0.744492 0.557435
O O9 0.000000 0.000000 0.500000
O O10 0.498168 0.139107 0.324282
O O11 0.500000 0.000000 0.500000
O O12 0.657177 0.807690 0.071723
O O13 0.500000 0.500000 0.500000
O O14 0.264298 0.318524 0.467156
O O15 0.233358 0.480665 0.331663
O O16 0.500000 0.500000 0.000000
#
# Coordination Sequence:
#
# PCOD9030316 Si02
#       7
#     2   2   2   2   2   2   2
#     4  10  22  42  70  91 142 179 217 285 342 398
#     4  10  22  45  68  95 136 179 230 276 340 408
#     4  10  24  45  68  98 137 182 230 278 336 411
#     4  11  22  37  65  97 140 173 217 286 340 392
#     4  11  21  42  71 101 133 177 227 284 343 402
#     4  12  24  39  66 104 136 176 229 280 344 401
#     4  12  23  41  74  98 136 178 228 282 342 402
#
# _framework density 25.880572999999998
#
# number of rings (size 3 to 8) (size 9 to 14) (size 15 to 20)
#    0.000    1.143    5.714    1.714    0.000    5.714 
#    0.000    0.714    3.143    0.000    0.000    0.000 
#    0.000    0.000    0.000    0.000    0.000    0.000 
#
# Total GULP energy -78466.132741 kJ/mol
# GULP energy per Si atom -5604.723767 kJ/mol
# Density = 2.582167 g / cm^3
# Si number density = 25.880573 Si / 1000 Ang^3
#
#
#
# Elastic Constant Matrix: (Units=GPa)
#
#
# Indices 1 2 3 4 5 6 
#
# 1 67.1641 42.3760 25.7271 4.6745 -16.7115 -12.2347
# 2 42.3760 153.4312 59.4163 2.5085 -11.9388 -23.7094
# 3 25.7271 59.4163 214.4386 7.5468 -25.4510 1.9551
# 4 4.6745 2.5085 7.5468 55.6670 -1.7577 -1.9869
# 5 -16.7115 -11.9388 -25.4510 -1.7577 21.8509 -6.4804
# 6 -12.2347 -23.7094 1.9551 -1.9869 -6.4804 42.1396
#
#
#
# Elastic Compliance Matrix: (Units=1/GPa)
#
#
# Indices 1 2 3 4 5 6 
#
# 1 0.023125 -0.004038 0.000457 -0.000997 0.018052 0.007150
# 2 -0.004038 0.009112 -0.001991 0.000375 0.000845 0.004194
# 3 0.000457 -0.001991 0.005892 -0.000572 0.005969 -0.000370
# 4 -0.000997 0.000375 -0.000572 0.018155 0.000498 0.000881
# 5 0.018052 0.000845 0.005969 0.000498 0.071925 0.016524
# 6 0.007150 0.004194 -0.000370 0.000881 0.016524 0.030766
#
#
# Mechanical properties :
#
#
# Convention : Reuss Voigt Hill
#
# Bulk Modulus (GPa) = 37.05878 76.67476 56.86677
# Shear Modulus (GPa) = 27.91489 44.43246 36.17367
#
# Velocity S-wave (km/s) = 3.28777 4.14796 3.74266
# Velocity P-wave (km/s) = 5.36310 7.25475 6.37943
#
# Compressibility (1/GPa) = 0.02698416
#
# Stress axis : x y z
#
# Youngs Moduli (GPa) = 43.24291 109.74902 169.71621
#
# Poissons Ratio (x) = 0.44316 -0.07754
# Poissons Ratio (y) = 0.17461 0.33797
# Poissons Ratio (z) = -0.01976 0.21855
#
# Static dielectric constant tensor:
#      x y z
#    x 2.083750 -0.048800 -0.022620 
#    y -0.048800 2.005170 -0.005520 
#    z -0.022620 -0.005520 2.070110 
# 
# From -- ./inp_files/296581.got.cif
#   From: 2010.05.17/outbox.cif.g08.bks.cpg/sg2_149_cif.got.tgz:296581.got - 2010.06.03 11:33:40.
