data_PCOD9030901
_publ_section_title
;
Structure prediction by ZEFSAII (Michael W. Deem and Ramdas Pophale) SiO2 
 PCOD9030901
Probable space group: P -1
;
_chemical_formula_sum "Si O2"
_cell_formula_units_Z 13
_cell_length_a 17.387357
_cell_length_b 9.473989
_cell_length_c 16.032380
_cell_angle_alpha 46.050268
_cell_angle_beta 23.635783
_cell_angle_gamma 32.951040
_cell_volume 541.059041
_symmetry_space_group_name_H-M "P -1"
_symmetry_group_IT_number 2
_symmetry_cell_setting 'triclinic'
loop_
_space_group_symop_operation_xyz
x,y,z
-x,-y,-z
loop_
_atom_site_type_symbol
_atom_site_label
_atom_site_fract_x
_atom_site_fract_y
_atom_site_fract_z
Si Si1 0.880929 0.512917 0.702175
Si Si2 0.359678 0.889698 0.490153
Si Si3 0.676844 0.034348 0.133948
Si Si4 0.500000 0.500000 0.000000
Si Si5 0.374878 0.603345 0.442231
Si Si6 0.943338 0.259849 0.982114
Si Si7 0.844832 0.520678 0.414054
O O1 0.000000 0.500000 0.500000
O O2 0.929171 0.645991 0.668748
O O3 0.607827 0.599707 0.917140
O O4 0.091987 0.198211 0.655109
O O5 0.281310 0.824151 0.513342
O O6 0.488122 0.668683 0.526680
O O7 0.578983 0.899953 0.247686
O O8 0.655162 0.224074 0.013591
O O9 0.448318 0.249223 0.343790
O O10 0.963862 0.808165 0.985746
O O11 0.168775 0.655005 0.561726
O O12 0.625941 0.520797 0.178995
O O13 0.104237 0.323505 0.756006
O O14 0.000000 0.000000 0.000000
#
# Coordination Sequence:
#
# PCOD9030901 Si02
#       7
#     2   2   2   1   2   2   2
#     4  11  23  41  66  90 121 163 215 253 298 364
#     4  10  22  43  61  92 131 163 198 255 316 369
#     4  11  21  38  65  91 124 161 211 255 303 363
#     4  12  22  40  66  92 118 166 216 256 296 362
#     4  11  23  40  63  93 133 161 193 257 324 367
#     4  12  21  35  65  97 122 160 205 258 310 366
#     4  11  22  39  61  94 126 156 205 261 305 365
#
# _framework density 24.026951
#
# number of rings (size 3 to 8) (size 9 to 14) (size 15 to 20)
#    0.000    0.923    6.154    4.154    0.000    0.615 
#    2.769    0.769    0.000    2.769    0.000    0.000 
#    0.000    0.000    0.000    0.000    0.000    0.000 
#
# Total GULP energy -72426.816244 kJ/mol
# GULP energy per Si atom -5571.293557 kJ/mol
# Density = 2.397226 g / cm^3
# Si number density = 24.026951 Si / 1000 Ang^3
#
#
#
# Elastic Constant Matrix: (Units=GPa)
#
#
# Indices 1 2 3 4 5 6 
#
# 1 209.8060 16.0216 39.7397 -17.2500 -52.3076 9.1942
# 2 16.0216 21.7056 9.1223 -15.5925 1.5823 -1.6371
# 3 39.7397 9.1223 55.5924 -3.2086 -35.1128 4.2720
# 4 -17.2500 -15.5925 -3.2086 17.3747 7.9787 2.0517
# 5 -52.3076 1.5823 -35.1128 7.9787 39.7396 -5.3883
# 6 9.1942 -1.6371 4.2720 2.0517 -5.3883 37.4090
#
#
#
# Elastic Compliance Matrix: (Units=1/GPa)
#
#
# Indices 1 2 3 4 5 6 
#
# 1 0.005115 0.021419 -0.012103 0.027126 -0.010524 -0.001941
# 2 0.021419 -0.208973 0.132341 -0.236367 0.202614 0.012625
# 3 -0.012103 0.132341 -0.041126 0.139653 -0.086478 -0.006653
# 4 0.027126 -0.236367 0.139653 -0.199047 0.209578 0.008145
# 5 -0.010524 0.202614 -0.086478 0.209578 -0.116179 -0.006900
# 6 -0.001941 0.012625 -0.006653 0.008145 -0.006900 0.027080
#
#
# Mechanical properties :
#
#
# Convention : Reuss Voigt Hill
#
# Bulk Modulus (GPa) = 26.08981 46.31903 36.20442
# Shear Modulus (GPa) = -6.22148 33.71936 13.74894
#
# Velocity S-wave (km/s) = -1.61090 3.75026 2.39473
# Velocity P-wave (km/s) = 2.72436 6.17028 4.76941
#
# Compressibility (1/GPa) = 0.03832915
#
# Stress axis : x y z
#
# Youngs Moduli (GPa) = 195.51184 -4.78530 -24.31579
#
# Poissons Ratio (x) = 0.10249 -0.29430
# Poissons Ratio (y) = -4.18759 3.21798
# Poissons Ratio (z) = 2.36630 0.63329
#
# Static dielectric constant tensor:
#      x y z
#    x 1.958440 0.034600 0.009110 
#    y 0.034600 1.871810 -0.003140 
#    z 0.009110 -0.003140 2.000940 
# 
# From -- ./inp_files/233210.got.cif
#   From: 2010.05.17/outbox.cif.g08.bks.cpg/sg2_117_cif.got.tgz:233210.got - 2010.06.03 11:33:40.
