data_PCOD9030505
_publ_section_title
;
Structure prediction by ZEFSAII (Michael W. Deem and Ramdas Pophale) SiO2 
 PCOD9030505
Probable space group: P -1
;
_chemical_formula_sum "Si O2"
_cell_formula_units_Z 12
_cell_length_a 8.912292
_cell_length_b 9.088243
_cell_length_c 9.669358
_cell_angle_alpha 112.872722
_cell_angle_beta 57.701792
_cell_angle_gamma 136.435532
_cell_volume 456.238491
_symmetry_space_group_name_H-M "P -1"
_symmetry_group_IT_number 2
_symmetry_cell_setting 'triclinic'
loop_
_space_group_symop_operation_xyz
x,y,z
-x,-y,-z
loop_
_atom_site_type_symbol
_atom_site_label
_atom_site_fract_x
_atom_site_fract_y
_atom_site_fract_z
Si Si1 0.832833 0.739343 0.377278
Si Si2 0.994098 0.249571 0.135243
Si Si3 0.313840 0.026112 0.065297
Si Si4 0.139963 0.889067 0.532847
Si Si5 0.454368 0.491269 0.821776
Si Si6 0.787210 0.386719 0.673603
O O1 0.754429 0.876693 0.467144
O O2 0.644998 0.544274 0.298198
O O3 0.086250 0.885059 0.226656
O O4 0.904642 0.734643 0.494842
O O5 0.074712 0.482772 0.205958
O O6 0.928750 0.153924 0.287262
O O7 0.771883 0.676333 0.028818
O O8 0.786236 0.078736 0.073820
O O9 0.423880 0.269116 0.108544
O O10 0.500000 0.000000 0.000000
O O11 0.311548 0.849463 0.383647
O O12 0.610736 0.425178 0.741535
O O13 0.000000 0.500000 0.500000
#
# Coordination Sequence:
#
# PCOD9030505 Si02
#       6
#     2   2   2   2   2   2
#     4  10  25  49  73 104 152 188 239 302 354 443
#     4  10  24  46  75 103 147 188 244 301 347 441
#     4  11  26  46  73 109 145 189 247 300 363 429
#     4  10  23  49  71 105 150 187 236 300 362 422
#     4  11  25  46  78 105 140 198 241 297 367 422
#     4  10  22  42  71 110 141 183 240 295 356 432
#
# _framework density 26.302033999999999
#
# number of rings (size 3 to 8) (size 9 to 14) (size 15 to 20)
#    0.000    1.667    0.000    2.500    4.667    9.333 
#   12.000    8.333    0.000    0.000    0.000    0.000 
#    0.000    0.000    0.000    0.000    0.000    0.000 
#
# Total GULP energy -67193.464648 kJ/mol
# GULP energy per Si atom -5599.455387 kJ/mol
# Density = 2.624217 g / cm^3
# Si number density = 26.302034 Si / 1000 Ang^3
#
#
#
# Elastic Constant Matrix: (Units=GPa)
#
#
# Indices 1 2 3 4 5 6 
#
# 1 181.5813 96.1584 120.5889 30.0569 13.3399 6.5474
# 2 96.1584 108.9049 78.6974 14.6620 -4.6978 4.2656
# 3 120.5889 78.6974 185.5062 29.4245 12.1212 4.4282
# 4 30.0569 14.6620 29.4245 45.8935 -0.6204 3.7588
# 5 13.3399 -4.6978 12.1212 -0.6204 78.8313 10.8178
# 6 6.5474 4.2656 4.4282 3.7588 10.8178 43.9601
#
#
#
# Elastic Compliance Matrix: (Units=1/GPa)
#
#
# Indices 1 2 3 4 5 6 
#
# 1 0.013833 -0.008427 -0.004745 -0.003358 -0.002147 0.000051
# 2 -0.008427 0.018667 -0.002861 0.001529 0.003152 -0.001174
# 3 -0.004745 -0.002861 0.010146 -0.002532 -0.001006 0.000426
# 4 -0.003358 0.001529 -0.002532 0.025302 0.001512 -0.001929
# 5 -0.002147 0.003152 -0.001006 0.001512 0.013873 -0.003428
# 6 0.000051 -0.001174 0.000426 -0.001929 -0.003428 0.023820
#
#
# Mechanical properties :
#
#
# Convention : Reuss Voigt Hill
#
# Bulk Modulus (GPa) = 94.53202 118.54243 106.53722
# Shear Modulus (GPa) = 35.40152 45.77349 40.58750
#
# Velocity S-wave (km/s) = 3.67271 4.17622 3.93253
# Velocity P-wave (km/s) = 7.34875 8.27175 7.82387
#
# Compressibility (1/GPa) = 0.01057843
#
# Stress axis : x y z
#
# Youngs Moduli (GPa) = 72.28956 53.56992 98.55669
#
# Poissons Ratio (x) = 0.45146 0.46770
# Poissons Ratio (y) = 0.60922 0.28200
# Poissons Ratio (z) = 0.34305 0.15328
#
# Static dielectric constant tensor:
#      x y z
#    x 2.106350 -0.048130 -0.005080 
#    y -0.048130 2.197670 0.013010 
#    z -0.005080 0.013010 2.079620 
# 
# From -- ./inp_files/374923.got.cif
#   From: 2010.05.17/outbox.cif.g08.bks.cpg/sg2_188_cif.got.tgz:374923.got - 2010.06.03 11:33:40.
