data_PCOD9030256
_publ_section_title
;
Structure prediction by ZEFSAII (Michael W. Deem and Ramdas Pophale) SiO2 
 PCOD9030256
Probable space group: P -1
;
_chemical_formula_sum "Si O2"
_cell_formula_units_Z 11
_cell_length_a 9.062676
_cell_length_b 12.096919
_cell_length_c 7.911789
_cell_angle_alpha 90.485670
_cell_angle_beta 31.951174
_cell_angle_gamma 100.834332
_cell_volume 431.380245
_symmetry_space_group_name_H-M "P -1"
_symmetry_group_IT_number 2
_symmetry_cell_setting 'triclinic'
loop_
_space_group_symop_operation_xyz
x,y,z
-x,-y,-z
loop_
_atom_site_type_symbol
_atom_site_label
_atom_site_fract_x
_atom_site_fract_y
_atom_site_fract_z
Si Si1 0.528813 0.801914 0.190683
Si Si2 0.167921 0.944486 0.467178
Si Si3 0.000000 0.500000 0.000000
Si Si4 0.730835 0.892419 0.337823
Si Si5 0.297786 0.358642 0.622538
Si Si6 0.282594 0.529903 0.340468
O O1 0.382847 0.873111 0.210204
O O2 0.496473 0.843166 0.414272
O O3 0.399379 0.664768 0.281494
O O4 0.882725 0.845584 0.825955
O O5 0.349635 0.047899 0.419602
O O6 0.000000 0.000000 0.500000
O O7 0.652445 0.405385 0.291652
O O8 0.878905 0.608467 0.051968
O O9 0.810444 0.778087 0.314418
O O10 0.000000 0.000000 0.000000
O O11 0.206342 0.446961 0.581654
O O12 0.000000 0.500000 0.500000
O O13 0.500000 0.500000 0.000000
#
# Coordination Sequence:
#
# PCOD9030256 Si02
#       6
#     2   2   1   2   2   2
#     4  11  24  45  70 101 142 181 241 293 349 423
#     4  11  25  45  72 101 139 188 233 291 361 421
#     4  10  22  42  70 104 132 188 232 298 362 420
#     4  10  25  45  74 107 142 186 241 297 359 432
#     4  11  24  43  71 103 147 181 244 296 366 423
#     4  12  27  45  70 106 148 195 239 298 363 433
#
# _framework density 25.499542999999999
#
# number of rings (size 3 to 8) (size 9 to 14) (size 15 to 20)
#    0.000    1.091    0.000    5.455    5.091   10.182 
#    0.000    0.000    0.000    0.000    0.000    0.000 
#    0.000    0.000    0.000    0.000    0.000    0.000 
#
# Total GULP energy -61306.318855 kJ/mol
# GULP energy per Si atom -5573.301714 kJ/mol
# Density = 2.544151 g / cm^3
# Si number density = 25.499543 Si / 1000 Ang^3
#
#
#
# Elastic Constant Matrix: (Units=GPa)
#
#
# Indices 1 2 3 4 5 6 
#
# 1 126.4244 62.1052 23.7819 -17.4410 -14.0044 1.7056
# 2 62.1052 257.6348 53.6198 -23.3525 -11.9962 -6.6042
# 3 23.7819 53.6198 126.3563 2.6507 -40.1116 6.8175
# 4 -17.4410 -23.3525 2.6507 39.0520 -4.9683 -9.0701
# 5 -14.0044 -11.9962 -40.1116 -4.9683 39.8677 2.7593
# 6 1.7056 -6.6042 6.8175 -9.0701 2.7593 44.7297
#
#
#
# Elastic Compliance Matrix: (Units=1/GPa)
#
#
# Indices 1 2 3 4 5 6 
#
# 1 0.009688 -0.001841 -0.000094 0.003620 0.003213 -0.000091
# 2 -0.001841 0.005035 -0.002353 0.002597 -0.001298 0.001779
# 3 -0.000094 -0.002353 0.013115 -0.001545 0.012500 -0.003427
# 4 0.003620 0.002597 -0.001545 0.030888 0.003898 0.006504
# 5 0.003213 -0.001298 0.012500 0.003898 0.039149 -0.003844
# 6 -0.000091 0.001779 -0.003427 0.006504 -0.003844 0.024701
#
#
# Mechanical properties :
#
#
# Convention : Reuss Voigt Hill
#
# Bulk Modulus (GPa) = 51.90789 87.71437 69.81113
# Shear Modulus (GPa) = 36.34455 49.45710 42.90082
#
# Velocity S-wave (km/s) = 3.77941 4.40879 4.10618
# Velocity P-wave (km/s) = 6.28059 7.77108 7.06525
#
# Compressibility (1/GPa) = 0.01926490
#
# Stress axis : x y z
#
# Youngs Moduli (GPa) = 103.21884 198.59491 76.24567
#
# Poissons Ratio (x) = 0.36552 0.00713
# Poissons Ratio (y) = 0.18998 0.17940
# Poissons Ratio (z) = 0.00966 0.46728
#
# Static dielectric constant tensor:
#      x y z
#    x 2.015570 -0.147990 -0.055330 
#    y -0.147990 1.934860 -0.079170 
#    z -0.055330 -0.079170 1.961670 
# 
# From -- ./inp_files/178523.got.cif
#   From: 2010.05.17/outbox.cif.g08.bks.cpg/sg2_90_cif.got.tgz:178523.got - 2010.06.03 11:33:40.
