data_PCOD9030267
_publ_section_title
;
Structure prediction by ZEFSAII (Michael W. Deem and Ramdas Pophale) SiO2 
 PCOD9030267
Probable space group: P -1
;
_chemical_formula_sum "Si O2"
_cell_formula_units_Z 13
_cell_length_a 8.582923
_cell_length_b 9.167973
_cell_length_c 14.111764
_cell_angle_alpha 137.666331
_cell_angle_beta 117.779141
_cell_angle_gamma 87.626395
_cell_volume 569.614507
_symmetry_space_group_name_H-M "P -1"
_symmetry_group_IT_number 2
_symmetry_cell_setting 'triclinic'
loop_
_space_group_symop_operation_xyz
x,y,z
-x,-y,-z
loop_
_atom_site_type_symbol
_atom_site_label
_atom_site_fract_x
_atom_site_fract_y
_atom_site_fract_z
Si Si1 0.220043 0.999945 0.257262
Si Si2 0.612281 0.323235 0.761207
Si Si3 0.656175 0.432978 0.617629
Si Si4 0.825308 0.806116 0.168681
Si Si5 0.920142 0.338607 0.494670
Si Si6 0.000000 0.000000 0.000000
Si Si7 0.800207 0.731052 0.329161
O O1 0.415077 0.283482 0.452443
O O2 0.091441 0.942392 0.096853
O O3 0.308513 0.816755 0.215622
O O4 0.062252 0.944356 0.271634
O O5 0.663399 0.306864 0.658822
O O6 0.375334 0.227783 0.660873
O O7 0.709748 0.612129 0.959665
O O8 0.780047 0.394887 0.550089
O O9 0.781632 0.729045 0.815605
O O10 0.757245 0.638731 0.164428
O O11 0.794705 0.042447 0.290120
O O12 0.000000 0.500000 0.500000
O O13 0.123442 0.407210 0.646098
O O14 0.000000 0.000000 0.500000
#
# Coordination Sequence:
#
# PCOD9030267 Si02
#       7
#     2   2   2   2   2   1   2
#     4  12  25  47  78 109 151 192 248 307 373 428
#     4  12  25  46  79 111 144 194 258 306 357 442
#     4  12  26  48  78 108 147 199 247 307 370 436
#     4  11  23  46  71 110 147 191 245 305 361 441
#     4  11  25  46  71 103 151 196 237 301 379 436
#     4  12  28  46  72 112 146 192 248 306 360 450
#     4  10  22  42  70 104 147 187 239 301 365 428
#
# _framework density 22.822452999999999
#
# number of rings (size 3 to 8) (size 9 to 14) (size 15 to 20)
#    0.000    0.615    1.538    7.385    2.154    1.231 
#    0.000    0.769    0.000    0.000    0.000    0.000 
#    0.000    0.000    0.000    0.000    0.000    0.000 
#
# Total GULP energy -72396.678398 kJ/mol
# GULP energy per Si atom -5568.975261 kJ/mol
# Density = 2.277051 g / cm^3
# Si number density = 22.822453 Si / 1000 Ang^3
#
#
#
# Elastic Constant Matrix: (Units=GPa)
#
#
# Indices 1 2 3 4 5 6 
#
# 1 113.0827 53.4967 9.1538 -14.5596 -0.5709 32.9398
# 2 53.4967 163.6331 24.5195 -33.9549 -1.7578 27.0220
# 3 9.1538 24.5195 106.9720 -14.7976 9.0848 13.3939
# 4 -14.5596 -33.9549 -14.7976 36.9860 6.6050 2.8760
# 5 -0.5709 -1.7578 9.0848 6.6050 33.8774 -4.2069
# 6 32.9398 27.0220 13.3939 2.8760 -4.2069 26.1150
#
#
#
# Elastic Compliance Matrix: (Units=1/GPa)
#
#
# Indices 1 2 3 4 5 6 
#
# 1 0.017915 0.000704 0.004133 0.012724 -0.006719 -0.027928
# 2 0.000704 0.010629 0.001404 0.012459 -0.004059 -0.014631
# 3 0.004133 0.001404 0.012675 0.010481 -0.007223 -0.015484
# 4 0.012724 0.012459 0.010481 0.054227 -0.017883 -0.043168
# 5 -0.006719 -0.004059 -0.007223 -0.017883 0.037649 0.024413
# 6 -0.027928 -0.014631 -0.015484 -0.043168 0.024413 0.105287
#
#
# Mechanical properties :
#
#
# Convention : Reuss Voigt Hill
#
# Bulk Modulus (GPa) = 18.62207 62.00310 40.31258
# Shear Modulus (GPa) = 20.50860 39.16354 29.83607
#
# Velocity S-wave (km/s) = 3.00094 4.14697 3.61960
# Velocity P-wave (km/s) = 4.49275 7.08212 5.93048
#
# Compressibility (1/GPa) = 0.05369973
#
# Stress axis : x y z
#
# Youngs Moduli (GPa) = 55.81889 94.08513 78.89711
#
# Poissons Ratio (x) = -0.06621 -0.32610
# Poissons Ratio (y) = -0.03928 -0.11075
# Poissons Ratio (z) = -0.23071 -0.13206
#
# Static dielectric constant tensor:
#      x y z
#    x 1.845680 0.018330 -0.027670 
#    y 0.018330 1.968990 -0.066390 
#    z -0.027670 -0.066390 1.951030 
# 
# From -- ./inp_files/490241.got.cif
#   From: 2010.05.17/outbox.cif.g08.bks.cpg/sg2_246_cif.got.tgz:490241.got - 2010.06.03 11:33:40.
