data_PCOD9030782
_publ_section_title
;
Structure prediction by ZEFSAII (Michael W. Deem and Ramdas Pophale) SiO2 
 PCOD9030782
Probable space group: P -1
;
_chemical_formula_sum "Si O2"
_cell_formula_units_Z 16
_cell_length_a 5.032390
_cell_length_b 17.141551
_cell_length_c 9.338510
_cell_angle_alpha 109.624850
_cell_angle_beta 82.378698
_cell_angle_gamma 69.975457
_cell_volume 684.424387
_symmetry_space_group_name_H-M "P -1"
_symmetry_group_IT_number 2
_symmetry_cell_setting 'triclinic'
loop_
_space_group_symop_operation_xyz
x,y,z
-x,-y,-z
loop_
_atom_site_type_symbol
_atom_site_label
_atom_site_fract_x
_atom_site_fract_y
_atom_site_fract_z
Si Si1 0.732553 0.566944 0.962040
Si Si2 0.150374 0.992055 0.830377
Si Si3 0.880079 0.809603 0.061012
Si Si4 0.557045 0.723547 0.868323
Si Si5 0.330715 0.599495 0.265946
Si Si6 0.382171 0.717100 0.562168
Si Si7 0.252197 0.229135 0.641677
Si Si8 0.826743 0.882644 0.658221
O O1 0.772065 0.636119 0.891070
O O2 0.631972 0.501693 0.832761
O O3 0.497212 0.620919 0.133800
O O4 0.000000 0.500000 0.000000
O O5 0.969664 0.954059 0.715906
O O6 0.138409 0.089984 0.855552
O O7 0.505994 0.076033 0.235623
O O8 0.000000 0.000000 0.000000
O O9 0.222317 0.748502 0.960582
O O10 0.660611 0.801714 0.952067
O O11 0.764484 0.780990 0.195857
O O12 0.559185 0.705952 0.688387
O O13 0.425256 0.622308 0.427101
O O14 0.997350 0.672224 0.320754
O O15 0.047293 0.788439 0.659890
O O16 0.470537 0.768815 0.459807
O O17 0.189724 0.149195 0.521873
#
# Coordination Sequence:
#
# PCOD9030782 Si02
#       8
#     2   2   2   2   2   2   2   2
#     4  11  23  45  74 108 147 189 245 296 359 440
#     4  12  26  45  73 107 150 192 241 308 369 424
#     4  12  28  47  73 107 145 193 253 295 364 438
#     4  12  28  46  73 110 145 193 245 299 359 439
#     4  10  22  42  74 104 141 197 234 296 364 430
#     4  11  25  45  74 105 152 189 245 298 369 428
#     4  11  24  47  73 105 148 195 243 296 367 435
#     4  11  25  45  72 104 143 198 240 299 365 428
#
# _framework density 23.377310000000001
#
# number of rings (size 3 to 8) (size 9 to 14) (size 15 to 20)
#    0.000    0.750    2.500    4.125    8.750    1.500 
#    0.000    2.500    0.000    0.000    0.000    0.000 
#    0.000    0.000    0.000    0.000    0.000    0.000 
#
# Total GULP energy -89494.419230 kJ/mol
# GULP energy per Si atom -5593.401202 kJ/mol
# Density = 2.332410 g / cm^3
# Si number density = 23.377310 Si / 1000 Ang^3
#
#
#
# Elastic Constant Matrix: (Units=GPa)
#
#
# Indices 1 2 3 4 5 6 
#
# 1 124.1115 17.2792 59.0692 4.3741 -2.1203 7.3000
# 2 17.2792 60.5608 48.8285 5.6340 9.4577 11.7348
# 3 59.0692 48.8285 159.8722 9.4882 23.9396 11.5075
# 4 4.3741 5.6340 9.4882 35.6137 9.5913 4.2390
# 5 -2.1203 9.4577 23.9396 9.5913 51.3808 9.3884
# 6 7.3000 11.7348 11.5075 4.2390 9.3884 29.9023
#
#
#
# Elastic Compliance Matrix: (Units=1/GPa)
#
#
# Indices 1 2 3 4 5 6 
#
# 1 0.010131 0.000410 -0.004102 -0.000734 0.002721 -0.001806
# 2 0.000410 0.023147 -0.006726 -0.001228 0.000310 -0.006519
# 3 -0.004102 -0.006726 0.010355 -0.000256 -0.003874 0.000909
# 4 -0.000734 -0.001228 -0.000256 0.029990 -0.004928 -0.001945
# 5 0.002721 0.000310 -0.003874 -0.004928 0.023324 -0.005920
# 6 -0.001806 -0.006519 0.000909 -0.001945 -0.005920 0.038226
#
#
# Mechanical properties :
#
#
# Convention : Reuss Voigt Hill
#
# Bulk Modulus (GPa) = 43.86441 66.09981 54.98211
# Shear Modulus (GPa) = 30.56087 38.00387 34.28237
#
# Velocity S-wave (km/s) = 3.61957 4.03634 3.83362
# Velocity P-wave (km/s) = 6.02269 7.07526 6.57008
#
# Compressibility (1/GPa) = 0.02279753
#
# Stress axis : x y z
#
# Youngs Moduli (GPa) = 98.70458 43.20255 96.57363
#
# Poissons Ratio (x) = -0.01773 0.39619
# Poissons Ratio (y) = -0.04050 0.64951
# Poissons Ratio (z) = 0.40493 0.29056
#
# Static dielectric constant tensor:
#      x y z
#    x 2.013920 0.050380 0.011430 
#    y 0.050380 1.915720 0.020620 
#    z 0.011430 0.020620 1.890720 
# 
# From -- ./inp_files/139235.got.cif
#   From: 2010.05.17/outbox.cif.g08.bks.cpg/sg2_70_cif.got.tgz:139235.got - 2010.06.03 11:33:40.
