data_PCOD9030351
_publ_section_title
;
Structure prediction by ZEFSAII (Michael W. Deem and Ramdas Pophale) SiO2 
 PCOD9030351
Probable space group: P -1
;
_chemical_formula_sum "Si O2"
_cell_formula_units_Z 16
_cell_length_a 24.642025
_cell_length_b 5.363843
_cell_length_c 5.205150
_cell_angle_alpha 94.757247
_cell_angle_beta 108.631857
_cell_angle_gamma 77.968983
_cell_volume 637.519441
_symmetry_space_group_name_H-M "P -1"
_symmetry_group_IT_number 2
_symmetry_cell_setting 'triclinic'
loop_
_space_group_symop_operation_xyz
x,y,z
-x,-y,-z
loop_
_atom_site_type_symbol
_atom_site_label
_atom_site_fract_x
_atom_site_fract_y
_atom_site_fract_z
Si Si1 0.340595 0.733005 0.624095
Si Si2 0.931563 0.061920 0.832935
Si Si3 0.825809 0.203374 0.996659
Si Si4 0.231932 0.538449 0.588371
Si Si5 0.568901 0.437936 0.628708
Si Si6 0.737508 0.900279 0.786872
Si Si7 0.625963 0.889532 0.911829
Si Si8 0.041220 0.472952 0.313067
O O1 0.243703 0.260568 0.454690
O O2 0.398063 0.552485 0.592664
O O3 0.301018 0.827080 0.325729
O O4 0.359286 0.982896 0.790554
O O5 0.918757 0.805821 0.663877
O O6 0.894080 0.125377 0.038612
O O7 0.923990 0.300828 0.652142
O O8 0.000000 0.000000 0.000000
O O9 0.803006 0.294797 0.682900
O O10 0.795285 0.966364 0.004374
O O11 0.802783 0.411852 0.194750
O O12 0.295217 0.620125 0.719558
O O13 0.500000 0.500000 0.500000
O O14 0.589677 0.146645 0.738006
O O15 0.590963 0.660046 0.842376
O O16 0.689332 0.790969 0.865550
O O17 0.000000 0.500000 0.500000
O O18 0.000000 0.500000 0.000000
#
# Coordination Sequence:
#
# PCOD9030351 Si02
#       8
#     2   2   2   2   2   2   2   2
#     4  10  23  39  65  96 130 184 232 290 357 419
#     4  10  24  47  70 104 143 185 234 291 356 432
#     4  11  26  42  67 105 137 185 234 298 362 427
#     4  11  24  43  68  99 142 179 242 296 360 423
#     4  11  25  42  63 100 138 179 234 292 351 422
#     4  10  23  40  65  97 134 180 234 296 355 423
#     4  11  23  41  70  91 133 182 233 289 353 421
#     4  10  22  42  70  95 129 180 228 274 333 413
#
# _framework density 25.097273000000001
#
# number of rings (size 3 to 8) (size 9 to 14) (size 15 to 20)
#    0.000    1.500    2.500    0.750    5.250    5.000 
#    0.000    0.000    0.000    0.000    0.000    0.000 
#    0.000    0.000    0.000    0.000    0.000    0.000 
#
# Total GULP energy -89454.222210 kJ/mol
# GULP energy per Si atom -5590.888888 kJ/mol
# Density = 2.504015 g / cm^3
# Si number density = 25.097273 Si / 1000 Ang^3
#
#
#
# Elastic Constant Matrix: (Units=GPa)
#
#
# Indices 1 2 3 4 5 6 
#
# 1 163.8506 30.7448 33.3876 6.1457 -5.4435 -15.6437
# 2 30.7448 144.2965 29.3061 18.5356 -7.1400 13.6035
# 3 33.3876 29.3061 105.4182 17.2511 -12.0634 -0.6198
# 4 6.1457 18.5356 17.2511 36.4428 -3.1909 -12.8108
# 5 -5.4435 -7.1400 -12.0634 -3.1909 32.3027 4.7751
# 6 -15.6437 13.6035 -0.6198 -12.8108 4.7751 24.1387
#
#
#
# Elastic Compliance Matrix: (Units=1/GPa)
#
#
# Indices 1 2 3 4 5 6 
#
# 1 0.007746 -0.002570 -0.002498 0.004199 -0.001089 0.008848
# 2 -0.002570 0.009939 -0.000317 -0.008583 0.002623 -0.012349
# 3 -0.002498 -0.000317 0.011882 -0.006599 0.004100 -0.005449
# 4 0.004199 -0.008583 -0.006599 0.045176 -0.003943 0.032144
# 5 -0.001089 0.002623 0.004100 -0.003943 0.034109 -0.010919
# 6 0.008848 -0.012349 -0.005449 0.032144 -0.010919 0.073200
#
#
# Mechanical properties :
#
#
# Convention : Reuss Voigt Hill
#
# Bulk Modulus (GPa) = 53.20327 66.71582 59.95955
# Shear Modulus (GPa) = 25.11465 39.91863 32.51664
#
# Velocity S-wave (km/s) = 3.16680 3.99250 3.60338
# Velocity P-wave (km/s) = 5.88357 6.92055 6.42302
#
# Compressibility (1/GPa) = 0.01879584
#
# Stress axis : x y z
#
# Youngs Moduli (GPa) = 129.10630 100.61739 84.15863
#
# Poissons Ratio (x) = 0.25861 0.21025
# Poissons Ratio (y) = 0.33184 0.02666
# Poissons Ratio (z) = 0.32254 0.03187
#
# Static dielectric constant tensor:
#      x y z
#    x 1.921930 -0.069400 0.016660 
#    y -0.069400 2.016750 -0.064510 
#    z 0.016660 -0.064510 2.013430 
# 
# From -- ./inp_files/121753.got.cif
#   From: 2010.05.17/outbox.cif.g08.bks.cpg/sg2_61_cif.got.tgz:121753.got - 2010.06.03 11:33:40.
