data_PCOD9030101
_publ_section_title
;
Structure prediction by ZEFSAII (Michael W. Deem and Ramdas Pophale) SiO2 
 PCOD9030101
Probable space group: P -1
;
_chemical_formula_sum "Si O2"
_cell_formula_units_Z 16
_cell_length_a 11.230606
_cell_length_b 5.168980
_cell_length_c 18.092686
_cell_angle_alpha 127.522149
_cell_angle_beta 130.843146
_cell_angle_gamma 68.765984
_cell_volume 629.027806
_symmetry_space_group_name_H-M "P -1"
_symmetry_group_IT_number 2
_symmetry_cell_setting 'triclinic'
loop_
_space_group_symop_operation_xyz
x,y,z
-x,-y,-z
loop_
_atom_site_type_symbol
_atom_site_label
_atom_site_fract_x
_atom_site_fract_y
_atom_site_fract_z
Si Si1 0.775479 0.891974 0.218887
Si Si2 0.749826 0.081521 0.930642
Si Si3 0.328608 0.857170 0.929334
Si Si4 0.671838 0.238901 0.676538
Si Si5 0.369288 0.836800 0.515727
Si Si6 0.544440 0.204273 0.291110
Si Si7 0.034818 0.490767 0.098655
Si Si8 0.052625 0.133468 0.464184
O O1 0.689788 0.531840 0.131145
O O2 0.777892 0.050526 0.166580
O O3 0.673918 0.122783 0.270186
O O4 0.950583 0.908996 0.325944
O O5 0.706263 0.977659 0.978020
O O6 0.862306 0.406490 0.045450
O O7 0.591529 0.096086 0.821079
O O8 0.860964 0.818661 0.894531
O O9 0.500000 0.000000 0.000000
O O10 0.551922 0.925461 0.582842
O O11 0.565544 0.500048 0.719160
O O12 0.844427 0.216388 0.776667
O O13 0.690372 0.334801 0.614412
O O14 0.237989 0.106880 0.519096
O O15 0.382251 0.725040 0.586313
O O16 0.000000 0.500000 0.000000
O O17 0.000000 0.500000 0.500000
O O18 0.000000 0.000000 0.500000
#
# Coordination Sequence:
#
# PCOD9030101 Si02
#       8
#     2   2   2   2   2   2   2   2
#     4  12  27  45  73 107 149 198 241 303 374 438
#     4  10  24  41  67 103 137 187 240 300 367 438
#     4  12  27  46  70 110 146 189 245 304 369 441
#     4  10  24  43  67 105 136 184 247 303 373 429
#     4  11  24  42  71 100 140 189 245 305 367 436
#     4  11  22  43  70  96 142 184 246 294 365 443
#     4  10  22  42  69  96 140 186 238 296 371 438
#     4  12  26  48  73 108 146 194 249 301 367 443
#
# _framework density 25.436077000000001
#
# number of rings (size 3 to 8) (size 9 to 14) (size 15 to 20)
#    0.000    1.000    2.500    3.000    5.250    0.000 
#    0.000    1.250    0.000    0.000    0.000    0.000 
#    0.000    0.000    0.000    0.000    0.000    0.000 
#
# Total GULP energy -89417.275795 kJ/mol
# GULP energy per Si atom -5588.579737 kJ/mol
# Density = 2.537818 g / cm^3
# Si number density = 25.436077 Si / 1000 Ang^3
#
#
#
# Elastic Constant Matrix: (Units=GPa)
#
#
# Indices 1 2 3 4 5 6 
#
# 1 122.7670 24.5660 34.1256 -5.8971 -1.4477 2.5222
# 2 24.5660 80.8877 12.7853 -7.1452 -17.4530 6.5024
# 3 34.1256 12.7853 128.8243 -26.2873 7.1543 11.3711
# 4 -5.8971 -7.1452 -26.2873 40.7570 -0.8715 -9.7233
# 5 -1.4477 -17.4530 7.1543 -0.8715 57.1460 -4.6455
# 6 2.5222 6.5024 11.3711 -9.7233 -4.6455 39.3669
#
#
#
# Elastic Compliance Matrix: (Units=1/GPa)
#
#
# Indices 1 2 3 4 5 6 
#
# 1 0.009272 -0.002575 -0.002326 -0.000534 -0.000240 0.000343
# 2 -0.002575 0.014403 -0.000558 0.001612 0.004335 -0.001143
# 3 -0.002326 -0.000558 0.009761 0.005497 -0.001481 -0.001395
# 4 -0.000534 0.001612 0.005497 0.029633 0.000696 0.005581
# 5 -0.000240 0.004335 -0.001481 0.000696 0.019189 0.002164
# 6 0.000343 -0.001143 -0.001395 0.005581 0.002164 0.027606
#
#
# Mechanical properties :
#
#
# Convention : Reuss Voigt Hill
#
# Bulk Modulus (GPa) = 44.41076 52.82585 48.61831
# Shear Modulus (GPa) = 38.97488 44.85411 41.91450
#
# Velocity S-wave (km/s) = 3.91867 4.20385 4.06376
# Velocity P-wave (km/s) = 6.16216 6.66155 6.41672
#
# Compressibility (1/GPa) = 0.02251707
#
# Stress axis : x y z
#
# Youngs Moduli (GPa) = 107.85286 69.43136 102.44612
#
# Poissons Ratio (x) = 0.17877 0.23833
# Poissons Ratio (y) = 0.27770 0.05718
# Poissons Ratio (z) = 0.25091 0.03876
#
# Static dielectric constant tensor:
#      x y z
#    x 2.025620 0.024610 0.075080 
#    y 0.024610 2.012940 0.135780 
#    z 0.075080 0.135780 2.173660 
# 
# From -- ./inp_files/564590.got.cif
#   From: 2010.05.17/outbox.cif.g08.bks.cpg/sg2_283_cif.got.tgz:564590.got - 2010.06.03 11:33:40.
