data_PCOD9030689
_publ_section_title
;
Structure prediction by ZEFSAII (Michael W. Deem and Ramdas Pophale) SiO2 
 PCOD9030689
Probable space group: P -1
;
_chemical_formula_sum "Si O2"
_cell_formula_units_Z 15
_cell_length_a 9.940967
_cell_length_b 10.488365
_cell_length_c 9.646839
_cell_angle_alpha 98.515464
_cell_angle_beta 136.676054
_cell_angle_gamma 97.867635
_cell_volume 636.621810
_symmetry_space_group_name_H-M "P -1"
_symmetry_group_IT_number 2
_symmetry_cell_setting 'triclinic'
loop_
_space_group_symop_operation_xyz
x,y,z
-x,-y,-z
loop_
_atom_site_type_symbol
_atom_site_label
_atom_site_fract_x
_atom_site_fract_y
_atom_site_fract_z
Si Si1 0.000000 0.000000 0.000000
Si Si2 0.512713 0.672213 0.670216
Si Si3 0.434133 0.010482 0.294294
Si Si4 0.717353 0.378883 0.231976
Si Si5 0.777092 0.376657 0.794985
Si Si6 0.961697 0.786928 0.157225
Si Si7 0.459585 0.222785 0.773488
Si Si8 0.896216 0.691532 0.400619
O O1 0.997157 0.063641 0.852007
O O2 0.817478 0.061165 0.919621
O O3 0.355527 0.606096 0.665917
O O4 0.397254 0.600251 0.432217
O O5 0.535213 0.832603 0.694029
O O6 0.746332 0.689512 0.899889
O O7 0.555724 0.933342 0.284446
O O8 0.500000 0.000000 0.500000
O O9 0.782344 0.531317 0.241295
O O10 0.903205 0.319256 0.371921
O O11 0.529857 0.273627 0.988854
O O12 0.647210 0.313743 0.826444
O O13 0.855456 0.267525 0.756734
O O14 0.000000 0.500000 0.000000
O O15 0.943690 0.777515 0.307746
O O16 0.249491 0.255977 0.601726
#
# Coordination Sequence:
#
# PCOD9030689 Si02
#       8
#     1   2   2   2   2   2   2   2
#     4  10  22  42  72  98 136 184 236 276 346 420
#     4  11  24  44  72  98 138 191 232 286 357 416
#     4  11  23  45  70  98 144 183 232 293 351 409
#     4  11  25  45  70 101 144 191 234 284 362 424
#     4  12  26  43  69 106 141 181 242 294 349 422
#     4  11  22  45  71 101 139 194 227 288 358 414
#     4  12  25  44  71 108 137 184 244 296 345 424
#     4  11  25  45  72 101 148 186 231 293 360 420
#
# _framework density 23.561869000000002
#
# number of rings (size 3 to 8) (size 9 to 14) (size 15 to 20)
#    0.000    0.800    5.333    1.200    3.733    3.200 
#    0.000    0.667    0.000    0.000    0.000    0.000 
#    0.000    0.000    0.000    0.000    0.000    0.000 
#
# Total GULP energy -83551.440684 kJ/mol
# GULP energy per Si atom -5570.096046 kJ/mol
# Density = 2.350824 g / cm^3
# Si number density = 23.561869 Si / 1000 Ang^3
#
#
#
# Elastic Constant Matrix: (Units=GPa)
#
#
# Indices 1 2 3 4 5 6 
#
# 1 84.2960 28.5057 0.2277 -27.8745 26.5362 -8.7873
# 2 28.5057 50.4051 10.8950 -34.3103 0.0990 2.6625
# 3 0.2277 10.8950 56.3223 -12.4696 21.1666 -18.2854
# 4 -27.8745 -34.3103 -12.4696 34.6672 -5.5764 4.7537
# 5 26.5362 0.0990 21.1666 -5.5764 47.5929 -20.6372
# 6 -8.7873 2.6625 -18.2854 4.7537 -20.6372 38.3873
#
#
#
# Elastic Compliance Matrix: (Units=1/GPa)
#
#
# Indices 1 2 3 4 5 6 
#
# 1 0.023549 -0.005812 0.010273 0.014275 -0.015839 0.000404
# 2 -0.005812 0.068892 -0.006161 0.064307 0.007821 -0.012803
# 3 0.010273 -0.006161 0.028743 0.009174 -0.014049 0.007781
# 4 0.014275 0.064307 0.009174 0.108225 -0.005120 -0.012977
# 5 -0.015839 0.007821 -0.014049 -0.005120 0.040477 0.011534
# 6 0.000404 -0.012803 0.007781 -0.012977 0.011534 0.038545
#
#
# Mechanical properties :
#
#
# Convention : Reuss Voigt Hill
#
# Bulk Modulus (GPa) = 8.49006 30.03114 19.26060
# Shear Modulus (GPa) = 14.24136 34.22248 24.23192
#
# Velocity S-wave (km/s) = 2.46117 3.81524 3.21041
# Velocity P-wave (km/s) = 3.41871 5.67286 4.68343
#
# Compressibility (1/GPa) = 0.11778484
#
# Stress axis : x y z
#
# Youngs Moduli (GPa) = 42.46413 14.51553 34.79162
#
# Poissons Ratio (x) = 0.08436 -0.35743
# Poissons Ratio (y) = 0.24679 0.21435
# Poissons Ratio (z) = -0.43625 0.08943
#
# Static dielectric constant tensor:
#      x y z
#    x 1.854880 -0.008940 0.088050 
#    y -0.008940 1.832290 0.119970 
#    z 0.088050 0.119970 1.899250 
# 
# From -- ./inp_files/179625.got.cif
#   From: 2010.05.17/outbox.cif.g08.bks.cpg/sg2_90_cif.got.tgz:179625.got - 2010.06.03 11:33:40.
