data_PCOD9030045
_publ_section_title
;
Structure prediction by ZEFSAII (Michael W. Deem and Ramdas Pophale) SiO2 
 PCOD9030045
Probable space group: P -1
;
_chemical_formula_sum "Si O2"
_cell_formula_units_Z 15
_cell_length_a 21.355163
_cell_length_b 5.391346
_cell_length_c 9.169536
_cell_angle_alpha 88.919891
_cell_angle_beta 38.684958
_cell_angle_gamma 82.330657
_cell_volume 647.726670
_symmetry_space_group_name_H-M "P -1"
_symmetry_group_IT_number 2
_symmetry_cell_setting 'triclinic'
loop_
_space_group_symop_operation_xyz
x,y,z
-x,-y,-z
loop_
_atom_site_type_symbol
_atom_site_label
_atom_site_fract_x
_atom_site_fract_y
_atom_site_fract_z
Si Si1 0.280594 0.492558 0.048352
Si Si2 0.163766 0.175420 0.882402
Si Si3 0.088959 0.257545 0.328286
Si Si4 0.000000 0.000000 0.000000
Si Si5 0.846817 0.078033 0.526890
Si Si6 0.709424 0.379462 0.297655
Si Si7 0.463387 0.330796 0.191905
Si Si8 0.640542 0.894636 0.870856
O O1 0.201431 0.319428 0.144027
O O2 0.214733 0.688521 0.274738
O O3 0.364278 0.322113 0.998572
O O4 0.308230 0.612359 0.845489
O O5 0.212921 0.427920 0.803841
O O6 0.244740 0.908232 0.735313
O O7 0.099625 0.152686 0.147520
O O8 0.083258 0.174406 0.900300
O O9 0.000000 0.500000 0.500000
O O10 0.080040 0.080183 0.482934
O O11 0.085985 0.859997 0.728186
O O12 0.756304 0.933422 0.647065
O O13 0.605715 0.500036 0.566773
O O14 0.395210 0.169854 0.223707
O O15 0.500000 0.500000 0.000000
O O16 0.563438 0.140624 0.065853
#
# Coordination Sequence:
#
# PCOD9030045 Si02
#       8
#     2   2   2   1   2   2   2   2
#     4  10  22  43  69  97 137 184 233 297 346 415
#     4  11  26  47  67 110 142 188 239 292 354 419
#     4  10  22  42  69  93 139 186 240 288 348 411
#     4  12  28  38  70 100 146 188 236 286 352 428
#     4  11  23  45  65 103 138 182 234 293 348 417
#     4  11  26  47  76 102 144 185 238 296 354 420
#     4  11  25  45  73 102 141 186 230 290 364 431
#     4  10  24  44  70 101 141 180 236 292 359 421
#
# _framework density 23.157917999999999
#
# number of rings (size 3 to 8) (size 9 to 14) (size 15 to 20)
#    0.000    1.333    1.333    2.400   11.200    2.133 
#    0.000    2.667    0.000    0.000    0.000    0.000 
#    0.000    0.000    0.000    0.000    0.000    0.000 
#
# Total GULP energy -83580.605354 kJ/mol
# GULP energy per Si atom -5572.040357 kJ/mol
# Density = 2.310521 g / cm^3
# Si number density = 23.157918 Si / 1000 Ang^3
#
#
#
# Elastic Constant Matrix: (Units=GPa)
#
#
# Indices 1 2 3 4 5 6 
#
# 1 48.2628 2.2849 6.0872 1.9590 -1.6451 3.5909
# 2 2.2849 78.3643 2.4623 16.4333 -1.0586 -5.7117
# 3 6.0872 2.4623 123.6873 16.2892 16.0067 13.7909
# 4 1.9590 16.4333 16.2892 39.9373 6.9829 -6.1879
# 5 -1.6451 -1.0586 16.0067 6.9829 21.3707 7.0376
# 6 3.5909 -5.7117 13.7909 -6.1879 7.0376 29.5606
#
#
#
# Elastic Compliance Matrix: (Units=1/GPa)
#
#
# Indices 1 2 3 4 5 6 
#
# 1 0.021335 -0.000431 -0.000939 -0.001752 0.004074 -0.003573
# 2 -0.000431 0.014148 0.000153 -0.006119 0.002257 0.000896
# 3 -0.000939 0.000153 0.009689 -0.003760 -0.004767 -0.004029
# 4 -0.001752 -0.006119 -0.003760 0.032864 -0.011810 0.010476
# 5 0.004074 0.002257 -0.004767 -0.011810 0.059406 -0.014450
# 6 -0.003573 0.000896 -0.004029 0.010476 -0.014450 0.041949
#
#
# Mechanical properties :
#
#
# Convention : Reuss Voigt Hill
#
# Bulk Modulus (GPa) = 23.39826 30.22035 26.80931
# Shear Modulus (GPa) = 25.50106 34.13907 29.82007
#
# Velocity S-wave (km/s) = 3.32201 3.84368 3.59232
# Velocity P-wave (km/s) = 4.98398 5.72508 5.36733
#
# Compressibility (1/GPa) = 0.04273822
#
# Stress axis : x y z
#
# Youngs Moduli (GPa) = 46.87220 70.68361 103.20639
#
# Poissons Ratio (x) = 0.03043 0.09696
# Poissons Ratio (y) = 0.02018 -0.01582
# Poissons Ratio (z) = 0.04403 -0.01084
#
# Static dielectric constant tensor:
#      x y z
#    x 1.989450 0.081280 -0.041920 
#    y 0.081280 2.028040 -0.086720 
#    z -0.041920 -0.086720 1.876530 
# 
# From -- ./inp_files/126812.got.cif
#   From: 2010.05.17/outbox.cif.g08.bks.cpg/sg2_64_cif.got.tgz:126812.got - 2010.06.03 11:33:40.
