data_PCOD9030765
_publ_section_title
;
Structure prediction by ZEFSAII (Michael W. Deem and Ramdas Pophale) SiO2 
 PCOD9030765
Probable space group: P -1
;
_chemical_formula_sum "Si O2"
_cell_formula_units_Z 15
_cell_length_a 12.979670
_cell_length_b 9.265122
_cell_length_c 11.027489
_cell_angle_alpha 40.368479
_cell_angle_beta 138.729238
_cell_angle_gamma 125.004386
_cell_volume 566.574916
_symmetry_space_group_name_H-M "P -1"
_symmetry_group_IT_number 2
_symmetry_cell_setting 'triclinic'
loop_
_space_group_symop_operation_xyz
x,y,z
-x,-y,-z
loop_
_atom_site_type_symbol
_atom_site_label
_atom_site_fract_x
_atom_site_fract_y
_atom_site_fract_z
Si Si1 0.702796 0.255164 0.446083
Si Si2 0.959213 0.056675 0.628330
Si Si3 0.540752 0.067826 0.646818
Si Si4 0.960657 0.375836 0.918372
Si Si5 0.546921 0.275557 0.761167
Si Si6 0.500000 0.500000 0.000000
Si Si7 0.790095 0.776532 0.445323
Si Si8 0.701927 0.555472 0.905639
O O1 0.673228 0.121841 0.629896
O O2 0.851960 0.191465 0.541604
O O3 0.539141 0.178273 0.275834
O O4 0.649184 0.507027 0.237071
O O5 0.845816 0.916987 0.524655
O O6 0.054785 0.880046 0.904247
O O7 0.084440 0.171386 0.579745
O O8 0.589029 0.108394 0.799166
O O9 0.398302 0.237093 0.373096
O O10 0.815265 0.511887 0.655609
O O11 0.115133 0.395900 0.960485
O O12 0.000000 0.500000 0.000000
O O13 0.500000 0.500000 0.500000
O O14 0.392741 0.189510 0.747529
O O15 0.676884 0.349953 0.922897
O O16 0.634766 0.496771 0.012594
#
# Coordination Sequence:
#
# PCOD9030765 Si02
#       8
#     2   2   2   2   2   1   2   2
#     4  10  17  32  52  79 113 144 191 235 275 336
#     4  10  18  32  54  80 115 147 196 231 281 337
#     4   9  17  30  54  78 106 148 182 225 282 336
#     4  10  18  33  56  84 110 148 193 235 274 338
#     4  10  18  35  59  82 114 149 185 231 295 338
#     4  10  22  32  54  84 110 146 194 234 278 340
#     4  10  20  32  56  84 113 152 190 233 281 341
#     4  10  19  35  58  83 113 146 185 235 290 336
#
# _framework density 26.474875000000001
#
# number of rings (size 3 to 8) (size 9 to 14) (size 15 to 20)
#    0.000    2.133    2.667    3.200    0.000    0.000 
#    0.000    0.667    5.867   14.400    0.000   24.267 
#    0.000    0.000    0.000    0.000    0.000    0.000 
#
# Total GULP energy -83799.916601 kJ/mol
# GULP energy per Si atom -5586.661107 kJ/mol
# Density = 2.641462 g / cm^3
# Si number density = 26.474875 Si / 1000 Ang^3
#
#
#
# Elastic Constant Matrix: (Units=GPa)
#
#
# Indices 1 2 3 4 5 6 
#
# 1 226.7580 17.9799 43.9023 -2.7693 0.7279 13.5759
# 2 17.9799 64.9288 6.1894 1.6379 -3.2671 -3.8635
# 3 43.9023 6.1894 108.1468 -12.3710 11.8058 9.9947
# 4 -2.7693 1.6379 -12.3710 23.5772 0.5417 -0.1243
# 5 0.7279 -3.2671 11.8058 0.5417 46.2226 0.4852
# 6 13.5759 -3.8635 9.9947 -0.1243 0.4852 33.2584
#
#
#
# Elastic Compliance Matrix: (Units=1/GPa)
#
#
# Indices 1 2 3 4 5 6 
#
# 1 0.004964 -0.001268 -0.001866 -0.000324 0.000330 -0.001619
# 2 -0.001268 0.016126 -0.001017 -0.001821 0.001413 0.002669
# 3 -0.001866 -0.001017 0.011303 0.005836 -0.002970 -0.002688
# 4 -0.000324 -0.001821 0.005836 0.045605 -0.002132 -0.001632
# 5 0.000330 0.001413 -0.002970 -0.002132 0.022506 0.000586
# 6 -0.001619 0.002669 -0.002688 -0.001632 0.000586 0.031832
#
#
# Mechanical properties :
#
#
# Convention : Reuss Voigt Hill
#
# Bulk Modulus (GPa) = 41.51290 59.55299 50.53294
# Shear Modulus (GPa) = 33.63215 42.72909 38.18062
#
# Velocity S-wave (km/s) = 3.56805 4.02176 3.80168
# Velocity P-wave (km/s) = 5.71741 6.64146 6.19669
#
# Compressibility (1/GPa) = 0.02408890
#
# Stress axis : x y z
#
# Youngs Moduli (GPa) = 201.46274 62.01346 88.47566
#
# Poissons Ratio (x) = 0.07865 0.16508
# Poissons Ratio (y) = 0.25550 0.09001
# Poissons Ratio (z) = 0.37590 0.06309
#
# Static dielectric constant tensor:
#      x y z
#    x 2.056640 0.008290 -0.031120 
#    y 0.008290 2.373660 -0.341340 
#    z -0.031120 -0.341340 2.704880 
# 
# From -- ./inp_files/425144.got.cif
#   From: 2010.05.17/outbox.cif.g08.bks.cpg/sg2_213_cif.got.tgz:425144.got - 2010.06.03 11:33:40.
