data_PCOD9030206
_publ_section_title
;
Structure prediction by ZEFSAII (Michael W. Deem and Ramdas Pophale) SiO2 
 PCOD9030206
Probable space group: P -1
;
_chemical_formula_sum "Si O2"
_cell_formula_units_Z 14
_cell_length_a 11.714938
_cell_length_b 6.641968
_cell_length_c 11.944581
_cell_angle_alpha 58.163290
_cell_angle_beta 49.598750
_cell_angle_gamma 77.949584
_cell_volume 588.421924
_symmetry_space_group_name_H-M "P -1"
_symmetry_group_IT_number 2
_symmetry_cell_setting 'triclinic'
loop_
_space_group_symop_operation_xyz
x,y,z
-x,-y,-z
loop_
_atom_site_type_symbol
_atom_site_label
_atom_site_fract_x
_atom_site_fract_y
_atom_site_fract_z
Si Si1 0.360620 0.595827 0.118427
Si Si2 0.290174 0.011431 0.885082
Si Si3 0.891298 0.581520 0.136503
Si Si4 0.052070 0.224920 0.479780
Si Si5 0.885545 0.623416 0.377581
Si Si6 0.453069 0.600751 0.298325
Si Si7 0.640870 0.207020 0.314542
O O1 0.221184 0.370066 0.296584
O O2 0.412011 0.705068 0.175664
O O3 0.500000 0.500000 0.000000
O O4 0.297942 0.793158 0.027694
O O5 0.268691 0.905245 0.805216
O O6 0.172477 0.185311 0.931593
O O7 0.456613 0.193765 0.738215
O O8 0.951859 0.643507 0.205154
O O9 0.751195 0.345501 0.299343
O O10 0.000000 0.500000 0.000000
O O11 0.058754 0.172114 0.624036
O O12 0.934747 0.396598 0.473620
O O13 0.000000 0.000000 0.500000
O O14 0.701536 0.560076 0.505232
O O15 0.565273 0.420056 0.249925
O O16 0.500000 0.000000 0.500000
#
# Coordination Sequence:
#
# PCOD9030206 Si02
#       7
#     2   2   2   2   2   2   2
#     4  11  23  43  71 103 139 177 234 292 357 414
#     4  11  24  43  70 102 140 180 232 294 348 417
#     4  11  27  47  68 101 144 189 235 287 355 412
#     4  10  25  46  73 102 138 186 237 289 346 429
#     4  10  23  46  68 101 139 186 238 282 352 417
#     4  10  22  42  70 101 136 183 231 285 359 415
#     4  11  23  42  68 105 135 182 238 281 343 435
#
# _framework density 23.792452999999998
#
# number of rings (size 3 to 8) (size 9 to 14) (size 15 to 20)
#    0.000    1.429    1.429    2.143    4.000    6.286 
#   12.857    0.000    0.000    0.000    0.000    0.000 
#    0.000    0.000    0.000    0.000    0.000    0.000 
#
# Total GULP energy -78336.390945 kJ/mol
# GULP energy per Si atom -5595.456496 kJ/mol
# Density = 2.373830 g / cm^3
# Si number density = 23.792453 Si / 1000 Ang^3
#
#
#
# Elastic Constant Matrix: (Units=GPa)
#
#
# Indices 1 2 3 4 5 6 
#
# 1 107.0839 60.6886 35.4607 11.0837 9.8896 18.1799
# 2 60.6886 139.8004 48.8323 18.8074 8.0599 19.1567
# 3 35.4607 48.8323 94.8188 21.7065 6.1909 5.6043
# 4 11.0837 18.8074 21.7065 44.4086 0.5632 -5.1392
# 5 9.8896 8.0599 6.1909 0.5632 41.1539 4.7066
# 6 18.1799 19.1567 5.6043 -5.1392 4.7066 49.8823
#
#
#
# Elastic Compliance Matrix: (Units=1/GPa)
#
#
# Indices 1 2 3 4 5 6 
#
# 1 0.013285 -0.004405 -0.002279 -0.000639 -0.001658 -0.002803
# 2 -0.004405 0.010846 -0.003285 -0.002161 -0.000269 -0.002388
# 3 -0.002279 -0.003285 0.014292 -0.005008 -0.000897 0.000055
# 4 -0.000639 -0.002161 -0.005008 0.026534 0.000474 0.004315
# 5 -0.001658 -0.000269 -0.000897 0.000474 0.025051 -0.001507
# 6 -0.002803 -0.002388 0.000055 0.004315 -0.001507 0.022567
#
#
# Mechanical properties :
#
#
# Convention : Reuss Voigt Hill
#
# Bulk Modulus (GPa) = 54.09884 70.18513 62.14199
# Shear Modulus (GPa) = 36.05517 40.20372 38.12944
#
# Velocity S-wave (km/s) = 3.89704 4.11514 4.00757
# Velocity P-wave (km/s) = 6.56022 7.22095 6.89850
#
# Compressibility (1/GPa) = 0.01848468
#
# Stress axis : x y z
#
# Youngs Moduli (GPa) = 75.27208 92.19675 69.96703
#
# Poissons Ratio (x) = 0.40615 0.15948
# Poissons Ratio (y) = 0.33159 0.22984
# Poissons Ratio (z) = 0.17157 0.30286
#
# Static dielectric constant tensor:
#      x y z
#    x 1.926890 0.006670 -0.027470 
#    y 0.006670 1.888290 0.010950 
#    z -0.027470 0.010950 1.961730 
# 
# From -- ./inp_files/409965.got.cif
#   From: 2010.05.17/outbox.cif.g08.bks.cpg/sg2_205_cif.got.tgz:409965.got - 2010.06.03 11:33:40.
