data_PCOD9030002
_publ_section_title
;
Structure prediction by ZEFSAII (Michael W. Deem and Ramdas Pophale) SiO2 
 PCOD9030002
Probable space group: P -1
;
_chemical_formula_sum "Si O2"
_cell_formula_units_Z 14
_cell_length_a 24.144817
_cell_length_b 6.535153
_cell_length_c 10.885058
_cell_angle_alpha 135.105333
_cell_angle_beta 29.125675
_cell_angle_gamma 136.255924
_cell_volume 562.566604
_symmetry_space_group_name_H-M "P -1"
_symmetry_group_IT_number 2
_symmetry_cell_setting 'triclinic'
loop_
_space_group_symop_operation_xyz
x,y,z
-x,-y,-z
loop_
_atom_site_type_symbol
_atom_site_label
_atom_site_fract_x
_atom_site_fract_y
_atom_site_fract_z
Si Si1 0.214457 0.994443 0.369494
Si Si2 0.967896 0.799514 0.854852
Si Si3 0.380200 0.761600 0.078374
Si Si4 0.888866 0.100036 0.909786
Si Si5 0.147972 0.355261 0.434995
Si Si6 0.749509 0.484167 0.273281
Si Si7 0.506546 0.333013 0.555241
O O1 0.192809 0.139282 0.347456
O O2 0.232216 0.257739 0.549537
O O3 0.331282 0.885129 0.103662
O O4 0.087293 0.752225 0.547723
O O5 0.917623 0.991818 0.939033
O O6 0.856127 0.517862 0.983942
O O7 0.000000 0.000000 0.000000
O O8 0.257200 0.667810 0.355124
O O9 0.411441 0.453763 0.863289
O O10 0.500000 0.000000 0.000000
O O11 0.017283 0.350803 0.733872
O O12 0.870593 0.823701 0.733390
O O13 0.768146 0.197778 0.187986
O O14 0.638903 0.499123 0.415305
O O15 0.500000 0.500000 0.500000
O O16 0.500000 0.000000 0.500000
#
# Coordination Sequence:
#
# PCOD9030002 Si02
#       7
#     2   2   2   2   2   2   2
#     4  10  23  43  66 104 139 187 246 311 376 455
#     4   9  21  39  68 103 142 184 241 308 384 450
#     4  12  26  47  70 103 149 200 254 313 377 458
#     4  10  22  42  69 105 142 192 244 322 384 459
#     4  10  24  42  69 102 145 191 251 311 393 449
#     4  11  23  42  69 102 143 194 245 307 375 450
#     4  12  31  52  77 112 152 205 262 317 385 461
#
# _framework density 24.885942
#
# number of rings (size 3 to 8) (size 9 to 14) (size 15 to 20)
#    0.000    1.429    1.429    1.714    8.000    9.143 
#    0.000    4.286    0.000    0.000    0.000    0.000 
#    0.000    0.000    0.000    0.000    0.000    0.000 
#
# Total GULP energy -78005.382791 kJ/mol
# GULP energy per Si atom -5571.813056 kJ/mol
# Density = 2.482930 g / cm^3
# Si number density = 24.885942 Si / 1000 Ang^3
#
#
#
# Elastic Constant Matrix: (Units=GPa)
#
#
# Indices 1 2 3 4 5 6 
#
# 1 178.9008 36.5410 55.1276 1.3411 -25.9450 -13.9185
# 2 36.5410 84.8375 20.8171 9.3093 5.6112 -1.1286
# 3 55.1276 20.8171 89.9346 26.6818 -44.5272 -12.7545
# 4 1.3411 9.3093 26.6818 52.0581 -6.9879 -8.9128
# 5 -25.9450 5.6112 -44.5272 -6.9879 42.0981 -1.2389
# 6 -13.9185 -1.1286 -12.7545 -8.9128 -1.2389 27.1875
#
#
#
# Elastic Compliance Matrix: (Units=1/GPa)
#
#
# Indices 1 2 3 4 5 6 
#
# 1 0.007796 -0.002934 -0.003443 0.002944 0.002140 0.003317
# 2 -0.002934 0.016571 -0.010253 -0.000797 -0.015187 -0.006577
# 3 -0.003443 -0.010253 0.042281 -0.011318 0.042554 0.015876
# 4 0.002944 -0.000797 -0.011318 0.025003 -0.005780 0.004097
# 5 0.002140 -0.015187 0.042554 -0.005780 0.071789 0.021805
# 6 0.003317 -0.006577 0.015876 0.004097 0.021805 0.047991
#
#
# Mechanical properties :
#
#
# Convention : Reuss Voigt Hill
#
# Bulk Modulus (GPa) = 29.95001 64.29380 47.12191
# Shear Modulus (GPa) = 19.54488 40.34790 29.94639
#
# Velocity S-wave (km/s) = 2.80550 4.03092 3.47269
# Velocity P-wave (km/s) = 4.74926 6.89608 5.92079
#
# Compressibility (1/GPa) = 0.03338897
#
# Stress axis : x y z
#
# Youngs Moduli (GPa) = 128.26711 60.34592 23.65102
#
# Poissons Ratio (x) = 0.17703 0.08144
# Poissons Ratio (y) = 0.37627 0.24250
# Poissons Ratio (z) = 0.44166 0.61874
#
# Static dielectric constant tensor:
#      x y z
#    x 2.139950 -0.129420 -0.056970 
#    y -0.129420 2.247090 0.015420 
#    z -0.056970 0.015420 2.010040 
# 
# From -- ./inp_files/473515.got.cif
#   From: 2010.05.17/outbox.cif.g08.bks.cpg/sg2_237_cif.got.tgz:473515.got - 2010.06.03 11:33:40.
