data_PCOD9030605
_publ_section_title
;
Structure prediction by ZEFSAII (Michael W. Deem and Ramdas Pophale) SiO2 
 PCOD9030605
Probable space group: P -1
;
_chemical_formula_sum "Si O2"
_cell_formula_units_Z 16
_cell_length_a 11.383515
_cell_length_b 9.270079
_cell_length_c 10.642568
_cell_angle_alpha 51.331975
_cell_angle_beta 52.525801
_cell_angle_gamma 75.744243
_cell_volume 679.468804
_symmetry_space_group_name_H-M "P -1"
_symmetry_group_IT_number 2
_symmetry_cell_setting 'triclinic'
loop_
_space_group_symop_operation_xyz
x,y,z
-x,-y,-z
loop_
_atom_site_type_symbol
_atom_site_label
_atom_site_fract_x
_atom_site_fract_y
_atom_site_fract_z
Si Si1 0.708591 0.600922 0.186343
Si Si2 0.330988 0.222452 0.634385
Si Si3 0.058072 0.337046 0.632391
Si Si4 0.646577 0.532192 0.972728
Si Si5 0.063810 0.045363 0.232542
Si Si6 0.344882 0.812192 0.577010
Si Si7 0.184875 0.800391 0.943181
Si Si8 0.219426 0.049675 0.364196
O O1 0.626081 0.678875 0.312667
O O2 0.724251 0.391829 0.326145
O O3 0.633690 0.569326 0.111984
O O4 0.865137 0.754404 0.984407
O O5 0.234431 0.340289 0.548342
O O6 0.484963 0.190468 0.487630
O O7 0.229924 0.015087 0.845184
O O8 0.000000 0.500000 0.500000
O O9 0.997571 0.135778 0.712990
O O10 0.975112 0.305304 0.839211
O O11 0.759695 0.726476 0.751181
O O12 0.500000 0.500000 0.000000
O O13 0.712336 0.347157 0.009012
O O14 0.930963 0.059980 0.408119
O O15 0.199384 0.006121 0.254382
O O16 0.228366 0.833736 0.750856
O O17 0.354770 0.977712 0.380356
#
# Coordination Sequence:
#
# PCOD9030605 Si02
#       8
#     2   2   2   2   2   2   2   2
#     4  10  24  43  68  98 143 187 234 287 354 412
#     4  12  25  47  69 103 148 179 240 296 352 425
#     4  12  27  44  72 105 140 184 235 296 359 413
#     4  10  22  45  69 104 144 189 234 290 351 426
#     4  10  22  44  65 102 142 184 232 298 344 417
#     4  11  25  44  71 104 136 192 238 285 357 420
#     4  11  24  43  71 105 135 189 233 282 358 411
#     4  10  22  42  72 102 144 182 240 290 351 415
#
# _framework density 23.547806000000001
#
# number of rings (size 3 to 8) (size 9 to 14) (size 15 to 20)
#    0.000    1.250    1.250    3.375    3.500    6.500 
#    2.250    1.875    0.000    0.000    0.000    0.000 
#    0.000    0.000    0.000    0.000    0.000    0.000 
#
# Total GULP energy -89307.501662 kJ/mol
# GULP energy per Si atom -5581.718854 kJ/mol
# Density = 2.349421 g / cm^3
# Si number density = 23.547806 Si / 1000 Ang^3
#
#
#
# Elastic Constant Matrix: (Units=GPa)
#
#
# Indices 1 2 3 4 5 6 
#
# 1 132.4641 35.6313 30.7659 -0.8749 13.9382 -20.6960
# 2 35.6313 94.0799 10.0586 -8.6262 11.6752 5.6913
# 3 30.7659 10.0586 93.6682 -15.9383 4.6650 -0.7252
# 4 -0.8749 -8.6262 -15.9383 44.1956 -2.7145 5.9875
# 5 13.9382 11.6752 4.6650 -2.7145 26.4710 -11.1869
# 6 -20.6960 5.6913 -0.7252 5.9875 -11.1869 24.7938
#
#
#
# Elastic Compliance Matrix: (Units=1/GPa)
#
#
# Indices 1 2 3 4 5 6 
#
# 1 0.011629 -0.005323 -0.003888 -0.003800 0.001827 0.012557
# 2 -0.005323 0.014811 0.001259 0.004440 -0.008956 -0.012920
# 3 -0.003888 0.001259 0.012822 0.005397 -0.002595 -0.005634
# 4 -0.003800 0.004440 0.005397 0.026786 -0.003212 -0.011951
# 5 0.001827 -0.008956 -0.002595 -0.003212 0.052763 0.028088
# 6 0.012557 -0.012920 -0.005634 -0.011951 0.028088 0.069174
#
#
# Mechanical properties :
#
#
# Convention : Reuss Voigt Hill
#
# Bulk Modulus (GPa) = 42.81337 52.56929 47.69133
# Shear Modulus (GPa) = 23.62112 35.34250 29.48181
#
# Velocity S-wave (km/s) = 3.17063 3.87833 3.54220
# Velocity P-wave (km/s) = 5.62359 6.51369 6.08494
#
# Compressibility (1/GPa) = 0.02335719
#
# Stress axis : x y z
#
# Youngs Moduli (GPa) = 85.99383 67.51839 77.99241
#
# Poissons Ratio (x) = 0.35942 0.30325
# Poissons Ratio (y) = 0.45777 -0.09823
# Poissons Ratio (z) = 0.33437 -0.08504
#
# Static dielectric constant tensor:
#      x y z
#    x 1.999840 -0.003030 0.029720 
#    y -0.003030 1.904240 0.026380 
#    z 0.029720 0.026380 1.931710 
# 
# From -- ./inp_files/418833.got.cif
#   From: 2010.05.17/outbox.cif.g08.bks.cpg/sg2_210_cif.got.tgz:418833.got - 2010.06.03 11:33:40.
