data_PCOD9030974
_publ_section_title
;
Structure prediction by ZEFSAII (Michael W. Deem and Ramdas Pophale) SiO2 
 PCOD9030974
Probable space group: P -1
;
_chemical_formula_sum "Si O2"
_cell_formula_units_Z 16
_cell_length_a 13.241939
_cell_length_b 9.657605
_cell_length_c 7.919425
_cell_angle_alpha 72.222573
_cell_angle_beta 53.099669
_cell_angle_gamma 88.769429
_cell_volume 753.607170
_symmetry_space_group_name_H-M "P -1"
_symmetry_group_IT_number 2
_symmetry_cell_setting 'triclinic'
loop_
_space_group_symop_operation_xyz
x,y,z
-x,-y,-z
loop_
_atom_site_type_symbol
_atom_site_label
_atom_site_fract_x
_atom_site_fract_y
_atom_site_fract_z
Si Si1 0.969161 0.853045 0.972185
Si Si2 0.590591 0.439613 0.800654
Si Si3 0.236115 0.431777 0.715192
Si Si4 0.354122 0.247076 0.923282
Si Si5 0.501053 0.956976 0.321604
Si Si6 0.859712 0.989204 0.724365
Si Si7 0.768894 0.237770 0.285570
Si Si8 0.283881 0.781017 0.062093
O O1 0.889513 0.691226 0.170824
O O2 0.876059 0.901801 0.911514
O O3 0.104931 0.826187 0.778590
O O4 0.000000 0.000000 0.000000
O O5 0.661270 0.551985 0.545669
O O6 0.487652 0.316854 0.851701
O O7 0.697760 0.371310 0.816863
O O8 0.500000 0.500000 0.000000
O O9 0.293478 0.374434 0.850215
O O10 0.214022 0.595783 0.720616
O O11 0.400390 0.150900 0.764411
O O12 0.259602 0.132850 0.185842
O O13 0.356175 0.868464 0.464552
O O14 0.500000 0.000000 0.500000
O O15 0.575317 0.106844 0.100570
O O16 0.816393 0.140315 0.764620
O O17 0.000000 0.000000 0.500000
O O18 0.750270 0.234653 0.098912
#
# Coordination Sequence:
#
# PCOD9030974 Si02
#       8
#     2   2   2   2   2   2   2   2
#     4  11  24  44  68  94 121 171 225 258 317 389
#     4  12  26  40  63  95 133 169 208 267 331 383
#     4  11  25  42  66  93 127 171 217 264 320 389
#     4  10  22  43  63  92 128 170 216 258 319 384
#     4   9  20  35  68  94 120 166 209 270 313 374
#     4  10  23  41  66  94 132 165 213 271 316 376
#     4  11  21  42  67  92 129 170 217 266 313 385
#     4  10  23  41  61 101 131 163 219 262 322 380
#
# _framework density 21.231221000000001
#
# number of rings (size 3 to 8) (size 9 to 14) (size 15 to 20)
#    0.000    1.500    2.500    1.500    7.000    4.000 
#    0.000    0.625    0.000    0.000    0.000    0.000 
#    0.000    0.000    0.000    0.000    0.000    0.000 
#
# Total GULP energy -89200.573132 kJ/mol
# GULP energy per Si atom -5575.035821 kJ/mol
# Density = 2.118290 g / cm^3
# Si number density = 21.231221 Si / 1000 Ang^3
#
#
#
# Elastic Constant Matrix: (Units=GPa)
#
#
# Indices 1 2 3 4 5 6 
#
# 1 47.9325 15.3964 13.0473 0.3735 -15.9955 -7.5240
# 2 15.3964 108.0774 44.5251 15.0555 -10.0689 0.8081
# 3 13.0473 44.5251 117.8109 17.4344 -36.3164 10.1171
# 4 0.3735 15.0555 17.4344 32.0663 -0.5492 -9.8536
# 5 -15.9955 -10.0689 -36.3164 -0.5492 37.3436 -4.8708
# 6 -7.5240 0.8081 10.1171 -9.8536 -4.8708 37.1846
#
#
#
# Elastic Compliance Matrix: (Units=1/GPa)
#
#
# Indices 1 2 3 4 5 6 
#
# 1 0.027240 -0.003698 0.001171 0.003420 0.012886 0.007868
# 2 -0.003698 0.011787 -0.004269 -0.003571 -0.002760 -0.001151
# 3 0.001171 -0.004269 0.015788 -0.007627 0.014051 -0.004146
# 4 0.003420 -0.003571 -0.007627 0.040910 -0.004607 0.013082
# 5 0.012886 -0.002760 0.014051 -0.004607 0.045621 0.003599
# 6 0.007868 -0.001151 -0.004146 0.013082 0.003599 0.033576
#
#
# Mechanical properties :
#
#
# Convention : Reuss Voigt Hill
#
# Bulk Modulus (GPa) = 24.25717 46.63983 35.44850
# Shear Modulus (GPa) = 24.72142 34.70905 29.71523
#
# Velocity S-wave (km/s) = 3.41602 4.04767 3.74518
# Velocity P-wave (km/s) = 5.19701 6.62269 5.95269
#
# Compressibility (1/GPa) = 0.04122493
#
# Stress axis : x y z
#
# Youngs Moduli (GPa) = 36.71022 84.83978 63.33955
#
# Poissons Ratio (x) = 0.31373 -0.07419
# Poissons Ratio (y) = 0.13575 0.27037
# Poissons Ratio (z) = -0.04300 0.36214
#
# Static dielectric constant tensor:
#      x y z
#    x 1.679500 -0.012840 0.097480 
#    y -0.012840 1.724930 -0.019250 
#    z 0.097480 -0.019250 1.702580 
# 
# From -- ./inp_files/186072.got.cif
#   From: 2010.05.17/outbox.cif.g08.bks.cpg/sg2_94_cif.got.tgz:186072.got - 2010.06.03 11:33:40.
