data_PCOD9030043
_publ_section_title
;
Structure prediction by ZEFSAII (Michael W. Deem and Ramdas Pophale) SiO2 
 PCOD9030043
Probable space group: P -1
;
_chemical_formula_sum "Si O2"
_cell_formula_units_Z 16
_cell_length_a 8.038937
_cell_length_b 15.924443
_cell_length_c 15.221740
_cell_angle_alpha 147.613572
_cell_angle_beta 54.703875
_cell_angle_gamma 103.952295
_cell_volume 703.117040
_symmetry_space_group_name_H-M "P -1"
_symmetry_group_IT_number 2
_symmetry_cell_setting 'triclinic'
loop_
_space_group_symop_operation_xyz
x,y,z
-x,-y,-z
loop_
_atom_site_type_symbol
_atom_site_label
_atom_site_fract_x
_atom_site_fract_y
_atom_site_fract_z
Si Si1 0.250168 0.657410 0.391587
Si Si2 0.537664 0.171512 0.142569
Si Si3 0.410117 0.665634 0.891883
Si Si4 0.890712 0.887629 0.342924
Si Si5 0.070594 0.953940 0.838018
Si Si6 0.431608 0.271010 0.752056
Si Si7 0.042251 0.682287 0.295738
Si Si8 0.587442 0.687717 0.496718
O O1 0.410596 0.436139 0.168485
O O2 0.099791 0.770147 0.623256
O O3 0.442621 0.712390 0.358400
O O4 0.076720 0.733489 0.427776
O O5 0.464704 0.267886 0.154718
O O6 0.420673 0.283660 0.369387
O O7 0.500000 0.000000 0.000000
O O8 0.822786 0.116140 0.008538
O O9 0.418431 0.493297 0.686840
O O10 0.133914 0.816326 0.146615
O O11 0.766742 0.777344 0.250970
O O12 0.974610 0.825693 0.363141
O O13 0.660048 0.105224 0.592487
O O14 0.354390 0.884118 0.699278
O O15 0.000000 0.000000 0.000000
O O16 0.289420 0.478870 0.020098
O O17 0.826216 0.652274 0.347064
#
# Coordination Sequence:
#
# PCOD9030043 Si02
#       8
#     2   2   2   2   2   2   2   2
#     4  11  23  41  65  98 141 178 215 287 341 400
#     4  11  23  43  67 100 133 168 227 295 347 402
#     4  11  22  42  67  92 132 182 230 272 345 411
#     4  11  23  40  70  97 132 186 224 277 331 408
#     4   9  20  41  66  92 125 170 224 271 330 400
#     4  11  23  41  65 102 139 176 234 268 336 409
#     4  12  23  43  65 101 146 174 223 279 340 397
#     4  10  22  42  69  93 130 183 223 282 340 403
#
# _framework density 22.755813
#
# number of rings (size 3 to 8) (size 9 to 14) (size 15 to 20)
#    0.000    1.250    2.500    4.125    0.000    1.500 
#    4.500    8.125    0.000    0.000    0.000    0.000 
#    0.000    0.000    0.000    0.000    0.000    0.000 
#
# Total GULP energy -89172.889795 kJ/mol
# GULP energy per Si atom -5573.305612 kJ/mol
# Density = 2.270402 g / cm^3
# Si number density = 22.755813 Si / 1000 Ang^3
#
#
#
# Elastic Constant Matrix: (Units=GPa)
#
#
# Indices 1 2 3 4 5 6 
#
# 1 73.9572 34.7507 19.4743 -2.8625 5.0764 -21.1847
# 2 34.7507 148.0457 39.9686 0.4663 1.6855 -16.2122
# 3 19.4743 39.9686 111.1523 -4.0037 -7.9126 -20.3011
# 4 -2.8625 0.4663 -4.0037 27.1870 -5.1118 -0.8111
# 5 5.0764 1.6855 -7.9126 -5.1118 22.2590 -1.5206
# 6 -21.1847 -16.2122 -20.3011 -0.8111 -1.5206 41.8954
#
#
#
# Elastic Compliance Matrix: (Units=1/GPa)
#
#
# Indices 1 2 3 4 5 6 
#
# 1 0.017514 -0.003067 -0.000838 0.001375 -0.003254 0.007172
# 2 -0.003067 0.008191 -0.002446 -0.000999 -0.000994 0.000378
# 3 -0.000838 -0.002446 0.011295 0.002747 0.005319 0.004349
# 4 0.001375 -0.000999 0.002747 0.039303 0.009953 0.002762
# 5 -0.003254 -0.000994 0.005319 0.009953 0.050095 0.002558
# 6 0.007172 0.000378 0.004349 0.002762 0.002558 0.029896
#
#
# Mechanical properties :
#
#
# Convention : Reuss Voigt Hill
#
# Bulk Modulus (GPa) = 41.15424 57.94916 49.55170
# Shear Modulus (GPa) = 28.23385 34.19905 31.21645
#
# Velocity S-wave (km/s) = 3.52622 3.88089 3.70780
# Velocity P-wave (km/s) = 5.89096 6.75298 6.33664
#
# Compressibility (1/GPa) = 0.02429883
#
# Stress axis : x y z
#
# Youngs Moduli (GPa) = 57.09758 122.09037 88.53591
#
# Poissons Ratio (x) = 0.37441 0.07419
# Poissons Ratio (y) = 0.17510 0.21652
# Poissons Ratio (z) = 0.04785 0.29858
#
# Static dielectric constant tensor:
#      x y z
#    x 1.771460 0.020880 0.008060 
#    y 0.020880 1.827060 0.029470 
#    z 0.008060 0.029470 1.910950 
# 
# From -- ./inp_files/505555.got.cif
#   From: 2010.05.17/outbox.cif.g08.bks.cpg/sg2_253_cif.got.tgz:505555.got - 2010.06.03 11:33:40.
