data_PCOD9030291
_publ_section_title
;
Structure prediction by ZEFSAII (Michael W. Deem and Ramdas Pophale) SiO2 
 PCOD9030291
Probable space group: P -1
;
_chemical_formula_sum "Si O2"
_cell_formula_units_Z 16
_cell_length_a 5.712627
_cell_length_b 5.055282
_cell_length_c 24.930886
_cell_angle_alpha 100.287155
_cell_angle_beta 120.362509
_cell_angle_gamma 86.463739
_cell_volume 610.895943
_symmetry_space_group_name_H-M "P -1"
_symmetry_group_IT_number 2
_symmetry_cell_setting 'triclinic'
loop_
_space_group_symop_operation_xyz
x,y,z
-x,-y,-z
loop_
_atom_site_type_symbol
_atom_site_label
_atom_site_fract_x
_atom_site_fract_y
_atom_site_fract_z
Si Si1 0.825863 0.238124 0.512121
Si Si2 0.820282 0.395984 0.368175
Si Si3 0.730654 0.940374 0.717095
Si Si4 0.452658 0.919005 0.190048
Si Si5 0.840055 0.861060 0.927092
Si Si6 0.296038 0.994791 0.397666
Si Si7 0.404244 0.714324 0.953665
Si Si8 0.787302 0.463942 0.250090
O O1 0.548887 0.205023 0.445449
O O2 0.060855 0.463225 0.559799
O O3 0.712531 0.195353 0.558597
O O4 0.000000 0.000000 0.500000
O O5 0.530141 0.253831 0.330644
O O6 0.824396 0.564994 0.319577
O O7 0.029275 0.163863 0.374494
O O8 0.968343 0.729003 0.743007
O O9 0.713724 0.121452 0.667623
O O10 0.705493 0.116972 0.773652
O O11 0.272757 0.908082 0.116049
O O12 0.546083 0.234619 0.213872
O O13 0.700163 0.716607 0.213983
O O14 0.579189 0.703766 0.918366
O O15 0.073928 0.709178 0.915210
O O16 0.000000 0.000000 0.000000
O O17 0.500000 0.500000 0.000000
O O18 0.500000 0.000000 0.000000
#
# Coordination Sequence:
#
# PCOD9030291 Si02
#       8
#     2   2   2   2   2   2   2   2
#     4  11  24  38  65  98 131 174 227 296 370 438
#     4  10  23  43  62  93 131 180 230 295 362 431
#     4  10  24  47  71  97 137 194 241 304 363 440
#     4  11  26  48  72 110 147 191 252 301 373 444
#     4  10  24  47  76 116 154 201 246 317 380 457
#     4  10  23  42  62  95 133 177 230 297 366 439
#     4  10  22  42  70 107 149 196 240 292 368 446
#     4  10  26  45  72 102 145 193 246 303 364 442
#
# _framework density 26.191040000000001
#
# number of rings (size 3 to 8) (size 9 to 14) (size 15 to 20)
#    0.000    1.750    0.000    1.500    8.750   12.000 
#    2.250    0.000    0.000    0.000    0.000    0.000 
#    0.000    0.000    0.000    0.000    0.000    0.000 
#
# Total GULP energy -89441.289082 kJ/mol
# GULP energy per Si atom -5590.080568 kJ/mol
# Density = 2.613143 g / cm^3
# Si number density = 26.191040 Si / 1000 Ang^3
#
#
#
# Elastic Constant Matrix: (Units=GPa)
#
#
# Indices 1 2 3 4 5 6 
#
# 1 146.5042 9.1816 19.6933 -21.1059 -2.8861 -12.1577
# 2 9.1816 90.8448 15.1882 -12.5797 2.3023 -8.7163
# 3 19.6933 15.1882 157.7251 -27.5429 -12.2781 -11.0966
# 4 -21.1059 -12.5797 -27.5429 48.7872 -4.0073 5.5695
# 5 -2.8861 2.3023 -12.2781 -4.0073 31.8900 -10.7444
# 6 -12.1577 -8.7163 -11.0966 5.5695 -10.7444 29.9805
#
#
#
# Elastic Compliance Matrix: (Units=1/GPa)
#
#
# Indices 1 2 3 4 5 6 
#
# 1 0.007586 -0.000084 -0.000006 0.003064 0.002174 0.003260
# 2 -0.000084 0.011694 -0.000481 0.002403 0.000215 0.002818
# 3 -0.000006 -0.000481 0.007755 0.004227 0.004783 0.003657
# 4 0.003064 0.002403 0.004227 0.025173 0.005118 0.000663
# 5 0.002174 0.000215 0.004783 0.005118 0.039372 0.015874
# 6 0.003260 0.002818 0.003657 0.000663 0.015874 0.042416
#
#
# Mechanical properties :
#
#
# Convention : Reuss Voigt Hill
#
# Bulk Modulus (GPa) = 38.61756 53.68890 46.15323
# Shear Modulus (GPa) = 34.77791 45.53228 40.15510
#
# Velocity S-wave (km/s) = 3.64793 4.17402 3.91981
# Velocity P-wave (km/s) = 5.70261 6.61614 6.17629
#
# Compressibility (1/GPa) = 0.02589496
#
# Stress axis : x y z
#
# Youngs Moduli (GPa) = 131.81388 85.51052 128.94965
#
# Poissons Ratio (x) = 0.00717 0.00072
# Poissons Ratio (y) = 0.01106 0.06202
# Poissons Ratio (z) = 0.00074 0.04113
#
# Static dielectric constant tensor:
#      x y z
#    x 2.217050 0.136360 -0.021120 
#    y 0.136360 2.099670 0.029400 
#    z -0.021120 0.029400 2.137010 
# 
# From -- ./inp_files/614731.got.cif
#   From: 2010.05.17/outbox.cif.g08.bks.cpg/sg2_308_cif.got.tgz:614731.got - 2010.06.03 11:33:40.
