data_PCOD9030380
_publ_section_title
;
Structure prediction by ZEFSAII (Michael W. Deem and Ramdas Pophale) SiO2 
 PCOD9030380
Probable space group: P -1
;
_chemical_formula_sum "Si O2"
_cell_formula_units_Z 16
_cell_length_a 28.326187
_cell_length_b 8.985405
_cell_length_c 28.321087
_cell_angle_alpha 33.615803
_cell_angle_beta 9.887261
_cell_angle_gamma 33.604870
_cell_volume 679.317071
_symmetry_space_group_name_H-M "P -1"
_symmetry_group_IT_number 2
_symmetry_cell_setting 'triclinic'
loop_
_space_group_symop_operation_xyz
x,y,z
-x,-y,-z
loop_
_atom_site_type_symbol
_atom_site_label
_atom_site_fract_x
_atom_site_fract_y
_atom_site_fract_z
Si Si1 0.311361 0.339847 0.342904
Si Si2 0.718405 0.123930 0.720787
Si Si3 0.732796 0.032847 0.621279
Si Si4 0.785235 0.017730 0.101690
Si Si5 0.236196 0.760302 0.142583
Si Si6 0.231853 0.350426 0.599363
Si Si7 0.155217 0.427739 0.762085
Si Si8 0.631518 0.787840 0.213539
O O1 0.311489 0.553885 0.327874
O O2 0.999827 0.284615 0.652147
O O3 0.478185 0.055690 0.269491
O O4 0.496424 0.439206 0.090430
O O5 0.702883 0.044578 0.703220
O O6 0.000000 0.000000 0.500000
O O7 0.500000 0.000000 0.000000
O O8 0.788524 0.326961 0.470778
O O9 0.999588 0.813536 0.403155
O O10 0.441654 0.975995 0.900236
O O11 0.522384 0.195638 0.337011
O O12 0.899135 0.788443 0.087758
O O13 0.714066 0.871103 0.162582
O O14 0.008403 0.223631 0.821463
O O15 0.187684 0.301506 0.711473
O O16 0.428056 0.558720 0.473329
O O17 0.902043 0.669123 0.949135
#
# Coordination Sequence:
#
# PCOD9030380 Si02
#       8
#     2   2   2   2   2   2   2   2
#     4  11  23  44  68  99 130 172 227 268 327 395
#     4  12  27  47  71 102 141 175 207 268 338 400
#     4  11  23  45  69 101 132 175 228 268 326 395
#     4  12  25  41  61  97 135 177 224 276 336 390
#     4  10  22  42  70  97 131 166 221 281 312 380
#     4  12  24  41  67  94 131 178 223 278 325 389
#     4  12  24  43  65  95 133 176 224 278 336 384
#     4  12  24  41  67  93 129 177 223 279 325 389
#
# _framework density 23.553066000000001
#
# number of rings (size 3 to 8) (size 9 to 14) (size 15 to 20)
#    0.000    0.500    0.000    9.750    0.000    2.000 
#    0.000   12.500    0.000    0.000    0.000    0.000 
#    0.000    0.000    0.000    0.000    0.000    0.000 
#
# Total GULP energy -89385.245504 kJ/mol
# GULP energy per Si atom -5586.577844 kJ/mol
# Density = 2.349946 g / cm^3
# Si number density = 23.553066 Si / 1000 Ang^3
#
#
#
# Elastic Constant Matrix: (Units=GPa)
#
#
# Indices 1 2 3 4 5 6 
#
# 1 297.5410 127.1359 136.4700 43.0000 -31.9418 166.5759
# 2 127.1359 28.8590 129.7167 73.0733 36.4976 251.0027
# 3 136.4700 129.7167 218.9260 23.5008 -57.6107 40.2425
# 4 43.0000 73.0733 23.5008 42.6923 -22.2192 -15.9222
# 5 -31.9418 36.4976 -57.6107 -22.2192 4.2954 -104.8742
# 6 166.5759 251.0027 40.2425 -15.9222 -104.8742 -95.1854
#
#
#
# Elastic Compliance Matrix: (Units=1/GPa)
#
#
# Indices 1 2 3 4 5 6 
#
# 1 0.008795 -0.005762 -0.000302 0.001546 0.004074 -0.004678
# 2 -0.005762 0.008903 -0.000699 -0.003224 0.006753 0.006197
# 3 -0.000302 -0.000699 0.007036 -0.001611 0.003978 -0.003512
# 4 0.001546 -0.003224 -0.001611 0.023913 -0.004116 -0.005943
# 5 0.004074 0.006753 0.003978 -0.004116 0.032419 -0.008412
# 6 -0.004678 0.006197 -0.003512 -0.005943 -0.008412 0.006426
#
#
# Mechanical properties :
#
#
# Convention : Reuss Voigt Hill
#
# Bulk Modulus (GPa) = 89.23168 147.99681 118.61425
# Shear Modulus (GPa) = 47.73123 0.49403 24.11263
#
# Velocity S-wave (km/s) = 4.50659 0.45848 3.20309
# Velocity P-wave (km/s) = 8.06516 7.95312 8.00934
#
# Compressibility (1/GPa) = 0.01120678
#
# Stress axis : x y z
#
# Youngs Moduli (GPa) = 113.70695 112.32384 142.12777
#
# Poissons Ratio (x) = 0.64719 0.04293
# Poissons Ratio (y) = 0.65515 0.09941
# Poissons Ratio (z) = 0.03435 0.07856
#
# Static dielectric constant tensor:
#      x y z
#    x 1.879330 -0.036110 0.066960 
#    y -0.036110 1.890230 -0.070590 
#    z 0.066960 -0.070590 1.857520 
# 
# From -- ./inp_files/621137.got.cif
#   From: 2010.05.17/outbox.cif.g08.bks.cpg/sg2_311_cif.got.tgz:621137.got - 2010.06.03 11:33:40.
