data_PCOD9030635
_publ_section_title
;
Structure prediction by ZEFSAII (Michael W. Deem and Ramdas Pophale) SiO2 
 PCOD9030635
Probable space group: P -1
;
_chemical_formula_sum "Si O2"
_cell_formula_units_Z 16
_cell_length_a 12.559103
_cell_length_b 9.094864
_cell_length_c 18.862284
_cell_angle_alpha 133.248971
_cell_angle_beta 152.212877
_cell_angle_gamma 59.680592
_cell_volume 698.253396
_symmetry_space_group_name_H-M "P -1"
_symmetry_group_IT_number 2
_symmetry_cell_setting 'triclinic'
loop_
_space_group_symop_operation_xyz
x,y,z
-x,-y,-z
loop_
_atom_site_type_symbol
_atom_site_label
_atom_site_fract_x
_atom_site_fract_y
_atom_site_fract_z
Si Si1 0.356085 0.218838 0.247068
Si Si2 0.839889 0.127706 0.353258
Si Si3 0.658843 0.943129 0.338057
Si Si4 0.304550 0.536912 0.950523
Si Si5 0.030984 0.211808 0.179127
Si Si6 0.287439 0.091778 0.424888
Si Si7 0.190553 0.180642 0.878650
Si Si8 0.433490 0.558491 0.698273
O O1 0.457607 0.379169 0.295904
O O2 0.207698 0.295135 0.244697
O O3 0.566415 0.133088 0.375850
O O4 0.167311 0.007308 0.032618
O O5 0.797678 0.355792 0.404601
O O6 0.104331 0.106181 0.512337
O O7 0.697444 0.004434 0.297171
O O8 0.745708 0.013138 0.186192
O O9 0.445497 0.727959 0.147387
O O10 0.500000 0.500000 0.000000
O O11 0.103709 0.619395 0.822505
O O12 0.191952 0.335540 0.865303
O O13 0.178044 0.159093 0.312018
O O14 0.374864 0.309205 0.592630
O O15 0.500000 0.000000 0.500000
O O16 0.071864 0.915102 0.275769
O O17 0.375013 0.304654 0.087526
#
# Coordination Sequence:
#
# PCOD9030635 Si02
#       8
#     2   2   2   2   2   2   2   2
#     4   9  20  43  74 104 139 192 245 302 354 435
#     4  10  22  42  72 106 145 189 242 306 357 437
#     4   9  20  40  69 108 143 179 252 302 350 430
#     4  11  24  42  74 108 142 193 239 299 367 432
#     4  10  23  45  74 103 143 189 246 297 362 432
#     4  12  31  49  72 109 149 192 248 302 365 440
#     4  12  27  47  72 107 153 189 239 304 374 433
#     4  11  26  47  72 106 147 197 244 300 374 433
#
# _framework density 22.914318000000002
#
# number of rings (size 3 to 8) (size 9 to 14) (size 15 to 20)
#    0.000    1.500    2.500    0.375    7.000    5.500 
#    0.000    0.000    0.000    0.000    0.000    0.000 
#    0.000    0.000    0.000    0.000    0.000    0.000 
#
# Total GULP energy -89521.145204 kJ/mol
# GULP energy per Si atom -5595.071575 kJ/mol
# Density = 2.286216 g / cm^3
# Si number density = 22.914318 Si / 1000 Ang^3
#
#
#
# Elastic Constant Matrix: (Units=GPa)
#
#
# Indices 1 2 3 4 5 6 
#
# 1 103.6049 60.5584 42.1219 -19.6895 4.0029 -5.1971
# 2 60.5584 131.5950 52.3466 -16.5570 14.6100 -22.0320
# 3 42.1219 52.3466 96.8810 -8.7849 10.7774 -10.7373
# 4 -19.6895 -16.5570 -8.7849 37.9857 -2.7936 8.1919
# 5 4.0029 14.6100 10.7774 -2.7936 23.6585 0.8715
# 6 -5.1971 -22.0320 -10.7373 8.1919 0.8715 35.0350
#
#
#
# Elastic Compliance Matrix: (Units=1/GPa)
#
#
# Indices 1 2 3 4 5 6 
#
# 1 0.015409 -0.005933 -0.003831 0.005651 0.003617 -0.004030
# 2 -0.005933 0.013430 -0.003252 0.000141 -0.006038 0.006686
# 3 -0.003831 -0.003252 0.014351 -0.000831 -0.004056 0.002080
# 4 0.005651 0.000141 -0.000831 0.030785 0.003214 -0.006606
# 5 0.003617 -0.006038 -0.004056 0.003214 0.047850 -0.006445
# 6 -0.004030 0.006686 0.002080 -0.006606 -0.006445 0.034492
#
#
# Mechanical properties :
#
#
# Convention : Reuss Voigt Hill
#
# Bulk Modulus (GPa) = 58.27496 71.34829 64.81163
# Shear Modulus (GPa) = 26.58626 31.13942 28.86284
#
# Velocity S-wave (km/s) = 3.40993 3.69039 3.55293
# Velocity P-wave (km/s) = 6.40238 7.02590 6.72137
#
# Compressibility (1/GPa) = 0.01716003
#
# Stress axis : x y z
#
# Youngs Moduli (GPa) = 64.89647 74.45888 69.68251
#
# Poissons Ratio (x) = 0.44174 0.26693
# Poissons Ratio (y) = 0.38501 0.22658
# Poissons Ratio (z) = 0.24860 0.24211
#
# Static dielectric constant tensor:
#      x y z
#    x 1.843570 -0.018020 -0.025150 
#    y -0.018020 1.877690 0.014180 
#    z -0.025150 0.014180 1.895380 
# 
# From -- ./inp_files/567002.got.cif
#   From: 2010.05.17/outbox.cif.g08.bks.cpg/sg2_284_cif.got.tgz:567002.got - 2010.06.03 11:33:40.
