data_PCOD9030597
_publ_section_title
;
Structure prediction by ZEFSAII (Michael W. Deem and Ramdas Pophale) SiO2 
 PCOD9030597
Probable space group: P -1
;
_chemical_formula_sum "Si O2"
_cell_formula_units_Z 14
_cell_length_a 8.280452
_cell_length_b 14.098696
_cell_length_c 6.450945
_cell_angle_alpha 79.803515
_cell_angle_beta 102.932914
_cell_angle_gamma 53.331839
_cell_volume 540.260156
_symmetry_space_group_name_H-M "P -1"
_symmetry_group_IT_number 2
_symmetry_cell_setting 'triclinic'
loop_
_space_group_symop_operation_xyz
x,y,z
-x,-y,-z
loop_
_atom_site_type_symbol
_atom_site_label
_atom_site_fract_x
_atom_site_fract_y
_atom_site_fract_z
Si Si1 0.128714 0.234499 0.088879
Si Si2 0.546421 0.826679 0.163920
Si Si3 0.294759 0.526496 0.549533
Si Si4 0.912831 0.929905 0.070607
Si Si5 0.227755 0.369766 0.316632
Si Si6 0.004763 0.797721 0.553550
Si Si7 0.540983 0.320422 0.057909
O O1 0.066776 0.362419 0.132082
O O2 0.179339 0.156162 0.346634
O O3 0.295050 0.198478 0.965925
O O4 0.980218 0.208160 0.945925
O O5 0.661071 0.742113 0.435195
O O6 0.426787 0.781586 0.044361
O O7 0.346935 0.975209 0.098609
O O8 0.500000 0.500000 0.500000
O O9 0.185569 0.481977 0.399607
O O10 0.092144 0.672507 0.497779
O O11 0.404813 0.446371 0.825729
O O12 0.934997 0.906454 0.331754
O O13 0.000000 0.000000 0.000000
O O14 0.399755 0.340928 0.206562
O O15 0.228275 0.736941 0.760883
#
# Coordination Sequence:
#
# PCOD9030597 Si02
#       7
#     2   2   2   2   2   2   2
#     4  11  26  44  69  98 142 179 226 273 339 404
#     4  10  23  45  69  99 140 182 221 271 341 398
#     4  11  24  42  75 100 134 176 225 282 338 398
#     4  12  27  44  69 102 136 177 230 285 326 400
#     4  10  22  45  70 100 134 182 222 272 339 400
#     4  12  26  42  68 105 137 174 231 279 335 396
#     4  10  22  42  72 102 132 177 227 278 335 399
#
# _framework density 25.913440000000001
#
# number of rings (size 3 to 8) (size 9 to 14) (size 15 to 20)
#    0.000    1.143    1.429    3.429    4.000    6.286 
#    0.000    7.143    0.000    0.000    0.000    0.000 
#    0.000    0.000    0.000    0.000    0.000    0.000 
#
# Total GULP energy -78143.493840 kJ/mol
# GULP energy per Si atom -5581.678131 kJ/mol
# Density = 2.585446 g / cm^3
# Si number density = 25.913440 Si / 1000 Ang^3
#
#
#
# Elastic Constant Matrix: (Units=GPa)
#
#
# Indices 1 2 3 4 5 6 
#
# 1 126.7867 62.0756 83.3609 9.6647 -20.3957 16.6080
# 2 62.0756 65.1309 61.7208 4.5248 5.5258 13.6728
# 3 83.3609 61.7208 223.6062 -0.7562 -36.1990 -1.7348
# 4 9.6647 4.5248 -0.7562 36.1682 9.1571 8.3269
# 5 -20.3957 5.5258 -36.1990 9.1571 66.6596 23.1955
# 6 16.6080 13.6728 -1.7348 8.3269 23.1955 55.5028
#
#
#
# Elastic Compliance Matrix: (Units=1/GPa)
#
#
# Indices 1 2 3 4 5 6 
#
# 1 0.019146 -0.016589 -0.001182 -0.004208 0.008816 -0.004732
# 2 -0.016589 0.037853 -0.006189 0.002581 -0.011947 0.000051
# 3 -0.001182 -0.006189 0.007259 0.000147 0.003918 0.000446
# 4 -0.004208 0.002581 0.000147 0.030121 -0.004921 -0.001835
# 5 0.008816 -0.011947 0.003918 -0.004921 0.024676 -0.009147
# 6 -0.004732 0.000051 0.000446 -0.001835 -0.009147 0.023532
#
#
# Mechanical properties :
#
#
# Convention : Reuss Voigt Hill
#
# Bulk Modulus (GPa) = 61.20917 92.20428 76.70672
# Shear Modulus (GPa) = 25.51623 45.55724 35.53674
#
# Velocity S-wave (km/s) = 3.14135 4.19746 3.70721
# Velocity P-wave (km/s) = 6.06872 7.69094 6.92748
#
# Compressibility (1/GPa) = 0.01633742
#
# Stress axis : x y z
#
# Youngs Moduli (GPa) = 52.23128 26.41794 137.75287
#
# Poissons Ratio (x) = 0.43826 0.16286
# Poissons Ratio (y) = 0.86648 0.85251
# Poissons Ratio (z) = 0.06175 0.16349
#
# Static dielectric constant tensor:
#      x y z
#    x 2.076320 0.061180 0.019850 
#    y 0.061180 2.122210 0.006810 
#    z 0.019850 0.006810 2.042150 
# 
# From -- ./inp_files/37356.got.cif
#   From: 2010.05.17/outbox.cif.g08.bks.cpg/sg2_19_cif.got.tgz:37356.got - 2010.06.03 11:33:40.
