data_PCOD9030416
_publ_section_title
;
Structure prediction by ZEFSAII (Michael W. Deem and Ramdas Pophale) SiO2 
 PCOD9030416
Probable space group: P -1
;
_chemical_formula_sum "Si O2"
_cell_formula_units_Z 16
_cell_length_a 8.564726
_cell_length_b 11.311767
_cell_length_c 9.020413
_cell_angle_alpha 85.464327
_cell_angle_beta 131.867387
_cell_angle_gamma 86.913500
_cell_volume 642.034418
_symmetry_space_group_name_H-M "P -1"
_symmetry_group_IT_number 2
_symmetry_cell_setting 'triclinic'
loop_
_space_group_symop_operation_xyz
x,y,z
-x,-y,-z
loop_
_atom_site_type_symbol
_atom_site_label
_atom_site_fract_x
_atom_site_fract_y
_atom_site_fract_z
Si Si1 0.823093 0.306041 0.470961
Si Si2 0.497201 0.780783 0.183308
Si Si3 0.234592 0.091778 0.245563
Si Si4 0.584243 0.618486 0.985693
Si Si5 0.643344 0.162489 0.611561
Si Si6 0.130694 0.105910 0.526165
Si Si7 0.941186 0.473136 0.763303
Si Si8 0.928799 0.309404 0.032218
O O1 0.597370 0.321876 0.244874
O O2 0.802889 0.223526 0.609755
O O3 0.863962 0.431533 0.559163
O O4 0.995798 0.231110 0.482200
O O5 0.491693 0.756003 0.359348
O O6 0.631399 0.893462 0.255753
O O7 0.613228 0.696420 0.140540
O O8 0.254150 0.756272 0.002199
O O9 0.475220 0.117544 0.398479
O O10 0.159608 0.096129 0.369107
O O11 0.087980 0.202189 0.069814
O O12 0.244159 0.954583 0.217080
O O13 0.500000 0.500000 0.000000
O O14 0.811837 0.581859 0.063173
O O15 0.000000 0.000000 0.500000
O O16 0.945308 0.612907 0.784973
O O17 0.837995 0.407737 0.840336
#
# Coordination Sequence:
#
# PCOD9030416 Si02
#       8
#     2   2   2   2   2   2   2   2
#     4  12  24  45  72  99 142 189 227 291 354 407
#     4  11  23  44  69 102 144 177 238 290 340 420
#     4  10  22  42  70  98 138 184 229 289 346 418
#     4  12  26  45  68 106 142 181 237 288 347 419
#     4  10  22  43  70  99 135 182 236 282 347 416
#     4  11  23  42  70 104 141 181 233 288 351 423
#     4  11  25  46  70 105 143 183 239 288 340 420
#     4  11  23  45  69 103 141 183 236 291 346 405
#
# _framework density 24.920784000000001
#
# number of rings (size 3 to 8) (size 9 to 14) (size 15 to 20)
#    0.000    1.000    5.000    1.500    0.000    3.000 
#    0.000    5.000    0.000    0.000    0.000    0.000 
#    0.000    0.000    0.000    0.000    0.000    0.000 
#
# Total GULP energy -89287.290630 kJ/mol
# GULP energy per Si atom -5580.455664 kJ/mol
# Density = 2.486406 g / cm^3
# Si number density = 24.920784 Si / 1000 Ang^3
#
#
#
# Elastic Constant Matrix: (Units=GPa)
#
#
# Indices 1 2 3 4 5 6 
#
# 1 87.9156 31.9733 23.1605 9.7171 3.5135 7.0144
# 2 31.9733 121.7788 54.2500 31.2406 1.3393 16.6824
# 3 23.1605 54.2500 62.5493 10.7413 -0.4882 -1.4230
# 4 9.7171 31.2406 10.7413 43.1673 -4.1451 0.5635
# 5 3.5135 1.3393 -0.4882 -4.1451 38.0619 8.6312
# 6 7.0144 16.6824 -1.4230 0.5635 8.6312 52.1258
#
#
#
# Elastic Compliance Matrix: (Units=1/GPa)
#
#
# Indices 1 2 3 4 5 6 
#
# 1 0.013064 -0.001431 -0.003437 -0.001135 -0.001049 -0.001208
# 2 -0.001431 0.017641 -0.013342 -0.009086 -0.000366 -0.005659
# 3 -0.003437 -0.013342 0.028387 0.003322 0.000282 0.005425
# 4 -0.001135 -0.009086 0.003322 0.029443 0.003149 0.002312
# 5 -0.001049 -0.000366 0.000282 0.003149 0.027717 -0.004358
# 6 -0.001208 -0.005659 0.005425 0.002312 -0.004358 0.022003
#
#
# Mechanical properties :
#
#
# Convention : Reuss Voigt Hill
#
# Bulk Modulus (GPa) = 44.10623 54.55682 49.33153
# Shear Modulus (GPa) = 27.43769 37.52834 32.48301
#
# Velocity S-wave (km/s) = 3.32173 3.88481 3.61425
# Velocity P-wave (km/s) = 5.69639 6.48552 6.10372
#
# Compressibility (1/GPa) = 0.02267253
#
# Stress axis : x y z
#
# Youngs Moduli (GPa) = 76.54555 56.68668 35.22769
#
# Poissons Ratio (x) = 0.08109 0.12109
# Poissons Ratio (y) = 0.10950 0.47000
# Poissons Ratio (z) = 0.26311 0.75630
#
# Static dielectric constant tensor:
#      x y z
#    x 1.959760 0.019190 0.021690 
#    y 0.019190 2.050820 -0.020270 
#    z 0.021690 -0.020270 2.108980 
# 
# From -- ./inp_files/187050.got.cif
#   From: 2010.05.17/outbox.cif.g08.bks.cpg/sg2_94_cif.got.tgz:187050.got - 2010.06.03 11:33:40.
