data_PCOD9030626
_publ_section_title
;
Structure prediction by ZEFSAII (Michael W. Deem and Ramdas Pophale) SiO2 
 PCOD9030626
Probable space group: P -1
;
_chemical_formula_sum "Si O2"
_cell_formula_units_Z 11
_cell_length_a 5.246010
_cell_length_b 16.798961
_cell_length_c 9.080339
_cell_angle_alpha 125.339860
_cell_angle_beta 70.390734
_cell_angle_gamma 67.691271
_cell_volume 409.075388
_symmetry_space_group_name_H-M "P -1"
_symmetry_group_IT_number 2
_symmetry_cell_setting 'triclinic'
loop_
_space_group_symop_operation_xyz
x,y,z
-x,-y,-z
loop_
_atom_site_type_symbol
_atom_site_label
_atom_site_fract_x
_atom_site_fract_y
_atom_site_fract_z
Si Si1 0.396033 0.745391 0.387238
Si Si2 0.088823 0.655123 0.816423
Si Si3 0.594248 0.911680 0.532259
Si Si4 0.269682 0.437682 0.232769
Si Si5 0.500000 0.500000 0.000000
Si Si6 0.870036 0.881653 0.909014
O O1 0.640315 0.782130 0.363671
O O2 0.566573 0.592487 0.153301
O O3 0.983630 0.853028 0.479770
O O4 0.265699 0.780621 0.623198
O O5 0.500000 0.500000 0.500000
O O6 0.265685 0.680254 0.930457
O O7 0.825660 0.637845 0.907724
O O8 0.853302 0.779124 0.873656
O O9 0.500000 0.000000 0.500000
O O10 0.204920 0.026795 0.841102
O O11 0.233615 0.538977 0.242191
O O12 0.000000 0.500000 0.500000
O O13 0.500000 0.000000 0.000000
#
# Coordination Sequence:
#
# PCOD9030626 Si02
#       6
#     2   2   2   2   1   2
#     4  11  26  46  70 109 142 193 243 309 374 449
#     4  10  22  42  72 105 145 187 250 304 381 444
#     4  11  26  46  72 102 145 194 249 301 369 451
#     4  10  24  43  67 105 146 194 238 306 373 452
#     4  12  28  46  78 112 160 190 258 314 396 452
#     4  10  24  47  76 107 148 200 253 314 381 457
#
# _framework density 26.889911000000001
#
# number of rings (size 3 to 8) (size 9 to 14) (size 15 to 20)
#    0.000    1.455    0.000    3.273    5.091   11.636 
#    0.000    0.000    0.000    0.000    0.000    0.000 
#    0.000    0.000    0.000    0.000    0.000    0.000 
#
# Total GULP energy -61304.559511 kJ/mol
# GULP energy per Si atom -5573.141774 kJ/mol
# Density = 2.682871 g / cm^3
# Si number density = 26.889911 Si / 1000 Ang^3
#
#
#
# Elastic Constant Matrix: (Units=GPa)
#
#
# Indices 1 2 3 4 5 6 
#
# 1 152.9509 86.3636 -1.3268 -13.5887 -10.1620 26.5788
# 2 86.3636 181.8309 46.5168 -10.4427 0.1330 45.0041
# 3 -1.3268 46.5168 131.5443 -28.2207 22.6328 7.1894
# 4 -13.5887 -10.4427 -28.2207 55.2195 3.8208 -5.1126
# 5 -10.1620 0.1330 22.6328 3.8208 36.0654 0.0292
# 6 26.5788 45.0041 7.1894 -5.1126 0.0292 56.8094
#
#
#
# Elastic Compliance Matrix: (Units=1/GPa)
#
#
# Indices 1 2 3 4 5 6 
#
# 1 0.009718 -0.004845 0.002183 0.002442 0.001128 -0.000765
# 2 -0.004845 0.010017 -0.003920 -0.001883 0.001262 -0.005343
# 3 0.002183 -0.003920 0.011555 0.006316 -0.007292 0.001194
# 4 0.002442 -0.001883 0.006316 0.022113 -0.005613 0.001543
# 5 0.001128 0.001262 -0.007292 -0.005613 0.033212 -0.001127
# 6 -0.000765 -0.005343 0.001194 0.001543 -0.001127 0.022181
#
#
# Mechanical properties :
#
#
# Convention : Reuss Voigt Hill
#
# Bulk Modulus (GPa) = 55.17448 81.04814 68.11131
# Shear Modulus (GPa) = 39.06165 51.93702 45.49933
#
# Velocity S-wave (km/s) = 3.81550 4.39962 4.11793
# Velocity P-wave (km/s) = 6.32249 7.48432 6.92780
#
# Compressibility (1/GPa) = 0.01812432
#
# Stress axis : x y z
#
# Youngs Moduli (GPa) = 102.90498 99.82938 86.54541
#
# Poissons Ratio (x) = 0.48370 -0.18893
# Poissons Ratio (y) = 0.49860 0.33929
# Poissons Ratio (z) = -0.22464 0.39136
#
# Static dielectric constant tensor:
#      x y z
#    x 2.176510 -0.145780 0.177650 
#    y -0.145780 2.165360 -0.186940 
#    z 0.177650 -0.186940 2.890340 
# 
# From -- ./inp_files/133561.got.cif
#   From: 2010.05.17/outbox.cif.g08.bks.cpg/sg2_67_cif.got.tgz:133561.got - 2010.06.03 11:33:40.
