data_PCOD9030495
_publ_section_title
;
Structure prediction by ZEFSAII (Michael W. Deem and Ramdas Pophale) SiO2 
 PCOD9030495
Probable space group: P -1
;
_chemical_formula_sum "Si O2"
_cell_formula_units_Z 12
_cell_length_a 9.732921
_cell_length_b 9.269278
_cell_length_c 11.082536
_cell_angle_alpha 141.981520
_cell_angle_beta 138.172724
_cell_angle_gamma 45.983165
_cell_volume 396.275728
_symmetry_space_group_name_H-M "P -1"
_symmetry_group_IT_number 2
_symmetry_cell_setting 'triclinic'
loop_
_space_group_symop_operation_xyz
x,y,z
-x,-y,-z
loop_
_atom_site_type_symbol
_atom_site_label
_atom_site_fract_x
_atom_site_fract_y
_atom_site_fract_z
Si Si1 0.041263 0.262444 0.633174
Si Si2 0.099595 0.203383 0.145690
Si Si3 0.563571 0.101871 0.485442
Si Si4 0.226834 0.000550 0.868219
Si Si5 0.532132 0.575528 0.929619
Si Si6 0.661727 0.518729 0.725568
O O1 0.332144 0.768739 0.871814
O O2 0.888503 0.376969 0.733826
O O3 0.854888 0.107130 0.372069
O O4 0.257836 0.340531 0.882758
O O5 0.355402 0.128034 0.286254
O O6 0.031334 0.477906 0.326988
O O7 0.048120 0.165761 0.948064
O O8 0.000000 0.000000 0.000000
O O9 0.777289 0.939653 0.468611
O O10 0.582089 0.384419 0.709573
O O11 0.500000 0.000000 0.500000
O O12 0.365799 0.200212 0.082422
O O13 0.500000 0.500000 0.000000
O O14 0.500000 0.500000 0.500000
#
# Coordination Sequence:
#
# PCOD9030495 Si02
#       6
#     2   2   2   2   2   2
#     4  11  22  46  71 108 143 182 232 292 349 418
#     4  11  25  47  71  99 144 188 234 289 354 421
#     4  10  22  45  70  98 139 189 233 282 345 416
#     4  11  24  45  72 107 140 181 233 297 351 414
#     4  10  22  42  71 106 141 182 232 284 354 409
#     4   9  23  42  73 103 143 185 231 286 354 412
#
# _framework density 30.281946000000001
#
# number of rings (size 3 to 8) (size 9 to 14) (size 15 to 20)
#    1.000    0.667    1.667    2.000    0.000    8.667 
#    9.000    1.667    0.000    0.000    0.000    0.000 
#    0.000    0.000    0.000    0.000    0.000    0.000 
#
# Total GULP energy -66857.632896 kJ/mol
# GULP energy per Si atom -5571.469408 kJ/mol
# Density = 3.021302 g / cm^3
# Si number density = 30.281946 Si / 1000 Ang^3
#
#
#
# Elastic Constant Matrix: (Units=GPa)
#
#
# Indices 1 2 3 4 5 6 
#
# 1 248.9907 108.8069 106.8602 25.0073 -4.7413 14.2441
# 2 108.8069 178.6311 87.3028 37.0549 -8.4727 -18.8267
# 3 106.8602 87.3028 276.9278 43.5861 -29.6599 -0.8114
# 4 25.0073 37.0549 43.5861 92.5142 0.3011 -3.3500
# 5 -4.7413 -8.4727 -29.6599 0.3011 70.6192 5.5396
# 6 14.2441 -18.8267 -0.8114 -3.3500 5.5396 81.6855
#
#
#
# Elastic Compliance Matrix: (Units=1/GPa)
#
#
# Indices 1 2 3 4 5 6 
#
# 1 0.006142 -0.003315 -0.001421 0.000273 -0.000441 -0.001808
# 2 -0.003315 0.008886 -0.001180 -0.002016 0.000159 0.002521
# 3 -0.001421 -0.001180 0.004966 -0.001495 0.001868 -0.000163
# 4 0.000273 -0.002016 -0.001495 0.012252 -0.000907 0.000037
# 5 -0.000441 0.000159 0.001868 -0.000907 0.015011 -0.000923
# 6 -0.001808 0.002521 -0.000163 0.000037 -0.000923 0.013201
#
#
# Mechanical properties :
#
#
# Convention : Reuss Voigt Hill
#
# Bulk Modulus (GPa) = 122.51729 145.60994 134.06361
# Shear Modulus (GPa) = 66.65797 75.73577 71.19687
#
# Velocity S-wave (km/s) = 4.69683 5.00645 4.85411
# Velocity P-wave (km/s) = 8.36423 9.03374 8.70542
#
# Compressibility (1/GPa) = 0.00816211
#
# Stress axis : x y z
#
# Youngs Moduli (GPa) = 162.80864 112.54024 201.36184
#
# Poissons Ratio (x) = 0.37308 0.28604
# Poissons Ratio (y) = 0.53973 0.23768
# Poissons Ratio (z) = 0.23127 0.13284
#
# Static dielectric constant tensor:
#      x y z
#    x 2.782860 0.167910 -0.011090 
#    y 0.167910 2.547400 0.056850 
#    z -0.011090 0.056850 2.653120 
# 
# From -- ./inp_files/393335.got.cif
#   From: 2010.05.17/outbox.cif.g08.bks.cpg/sg2_197_cif.got.tgz:393335.got - 2010.06.03 11:33:40.
