data_PCOD9030112
_publ_section_title
;
Structure prediction by ZEFSAII (Michael W. Deem and Ramdas Pophale) SiO2 
 PCOD9030112
Probable space group: P -1
;
_chemical_formula_sum "Si O2"
_cell_formula_units_Z 14
_cell_length_a 8.431945
_cell_length_b 8.338398
_cell_length_c 13.966331
_cell_angle_alpha 42.546878
_cell_angle_beta 74.918894
_cell_angle_gamma 93.312719
_cell_volume 592.477677
_symmetry_space_group_name_H-M "P -1"
_symmetry_group_IT_number 2
_symmetry_cell_setting 'triclinic'
loop_
_space_group_symop_operation_xyz
x,y,z
-x,-y,-z
loop_
_atom_site_type_symbol
_atom_site_label
_atom_site_fract_x
_atom_site_fract_y
_atom_site_fract_z
Si Si1 0.295437 0.341426 0.086251
Si Si2 0.184746 0.774536 0.811748
Si Si3 0.920442 0.618129 0.745426
Si Si4 0.659683 0.020964 0.038435
Si Si5 0.088349 0.571833 0.558062
Si Si6 0.496246 0.780394 0.372760
Si Si7 0.066032 0.013008 0.120693
O O1 0.201461 0.254858 0.240694
O O2 0.223740 0.092679 0.140564
O O3 0.500000 0.500000 0.000000
O O4 0.231033 0.548080 0.951782
O O5 0.082044 0.682247 0.768176
O O6 0.065100 0.861710 0.868142
O O7 0.364809 0.022535 0.663280
O O8 0.987820 0.687008 0.597483
O O9 0.785233 0.320168 0.897619
O O10 0.566530 0.897835 0.205719
O O11 0.805702 0.906892 0.027997
O O12 0.500000 0.000000 0.000000
O O13 0.294816 0.738705 0.443653
O O14 0.000000 0.500000 0.500000
O O15 0.049701 0.288440 0.732312
O O16 0.500000 0.500000 0.500000
#
# Coordination Sequence:
#
# PCOD9030112 Si02
#       7
#     2   2   2   2   2   2   2
#     4  11  23  40  70 101 131 171 234 294 334 399
#     4  11  24  44  67  99 141 176 228 287 353 408
#     4  10  22  44  71  96 134 182 228 278 343 413
#     4  11  23  42  74 105 135 182 239 286 337 405
#     4  11  25  44  69  97 139 182 226 282 349 412
#     4  12  25  41  69 101 143 176 229 287 345 421
#     4  10  22  42  69  97 132 180 229 276 342 409
#
# _framework density 23.629583
#
# number of rings (size 3 to 8) (size 9 to 14) (size 15 to 20)
#    0.000    1.143    2.857    4.286    2.000    3.429 
#    0.000    2.857    0.000    0.000    0.000    0.000 
#    0.000    0.000    0.000    0.000    0.000    0.000 
#
# Total GULP energy -78225.743267 kJ/mol
# GULP energy per Si atom -5587.553091 kJ/mol
# Density = 2.357580 g / cm^3
# Si number density = 23.629583 Si / 1000 Ang^3
#
#
#
# Elastic Constant Matrix: (Units=GPa)
#
#
# Indices 1 2 3 4 5 6 
#
# 1 110.5299 24.0095 45.9780 -0.7354 -32.0037 23.1435
# 2 24.0095 91.1405 47.0739 7.1747 -22.7445 21.5364
# 3 45.9780 47.0739 147.9520 3.0689 -40.0968 15.5237
# 4 -0.7354 7.1747 3.0689 60.6946 -0.4910 -12.7770
# 5 -32.0037 -22.7445 -40.0968 -0.4910 50.7927 -10.0197
# 6 23.1435 21.5364 15.5237 -12.7770 -10.0197 46.4591
#
#
#
# Elastic Compliance Matrix: (Units=1/GPa)
#
#
# Indices 1 2 3 4 5 6 
#
# 1 0.012340 0.000264 -0.001943 -0.000717 0.005436 -0.004645
# 2 0.000264 0.015065 -0.003351 -0.002875 0.003029 -0.006132
# 3 -0.001943 -0.003351 0.009761 -0.000007 0.005049 0.000347
# 4 -0.000717 -0.002875 -0.000007 0.018204 -0.000258 0.006643
# 5 0.005436 0.003029 0.005049 -0.000258 0.028508 0.000278
# 6 -0.004645 -0.006132 0.000347 0.006643 0.000278 0.028452
#
#
# Mechanical properties :
#
#
# Convention : Reuss Voigt Hill
#
# Bulk Modulus (GPa) = 36.89426 64.86057 50.87741
# Shear Modulus (GPa) = 38.04436 47.09336 42.56886
#
# Velocity S-wave (km/s) = 4.01687 4.46913 4.24902
# Velocity P-wave (km/s) = 6.09600 7.35794 6.75649
#
# Compressibility (1/GPa) = 0.02710449
#
# Stress axis : x y z
#
# Youngs Moduli (GPa) = 81.03536 66.38037 102.44696
#
# Poissons Ratio (x) = -0.01749 0.19908
# Poissons Ratio (y) = -0.02135 0.34331
# Poissons Ratio (z) = 0.15747 0.22245
#
# Static dielectric constant tensor:
#      x y z
#    x 1.982000 -0.035860 0.029170 
#    y -0.035860 2.015100 0.018270 
#    z 0.029170 0.018270 1.893910 
# 
# From -- ./inp_files/494359.got.cif
#   From: 2010.05.17/outbox.cif.g08.bks.cpg/sg2_248_cif.got.tgz:494359.got - 2010.06.03 11:33:40.
