data_PCOD9030317
_publ_section_title
;
Structure prediction by ZEFSAII (Michael W. Deem and Ramdas Pophale) SiO2 
 PCOD9030317
Probable space group: P -1
;
_chemical_formula_sum "Si O2"
_cell_formula_units_Z 16
_cell_length_a 11.096955
_cell_length_b 7.651745
_cell_length_c 13.651771
_cell_angle_alpha 117.542563
_cell_angle_beta 116.059995
_cell_angle_gamma 111.579781
_cell_volume 643.824455
_symmetry_space_group_name_H-M "P -1"
_symmetry_group_IT_number 2
_symmetry_cell_setting 'triclinic'
loop_
_space_group_symop_operation_xyz
x,y,z
-x,-y,-z
loop_
_atom_site_type_symbol
_atom_site_label
_atom_site_fract_x
_atom_site_fract_y
_atom_site_fract_z
Si Si1 0.178075 0.910617 0.974325
Si Si2 0.856335 0.462832 0.871645
Si Si3 0.221145 0.663212 0.614923
Si Si4 0.432262 0.810651 0.024418
Si Si5 0.595350 0.484221 0.734659
Si Si6 0.143248 0.314080 0.677146
Si Si7 0.164070 0.324664 0.332317
Si Si8 0.189977 0.960584 0.377972
O O1 0.345236 0.241717 0.134676
O O2 0.270895 0.796301 0.000112
O O3 0.010151 0.771424 0.956666
O O4 0.049991 0.818034 0.808058
O O5 0.682785 0.419607 0.825892
O O6 0.770338 0.202275 0.704484
O O7 0.000000 0.500000 0.000000
O O8 0.226960 0.508744 0.663160
O O9 0.254415 0.582377 0.504550
O O10 0.000000 0.500000 0.500000
O O11 0.383608 0.994310 0.787800
O O12 0.322484 0.498323 0.866150
O O13 0.500000 0.000000 0.000000
O O14 0.697235 0.556688 0.682435
O O15 0.372780 0.218971 0.571736
O O16 0.985980 0.267915 0.672165
O O17 0.000000 0.000000 0.500000
O O18 0.146115 0.095659 0.322879
#
# Coordination Sequence:
#
# PCOD9030317 Si02
#       8
#     2   2   2   2   2   2   2   2
#     4  11  22  43  67  93 130 172 223 266 320 401
#     4  11  23  42  64  92 131 168 218 273 329 385
#     4  11  24  43  70  96 128 174 226 273 323 398
#     4  10  22  42  70  92 126 174 219 264 327 390
#     4  11  25  41  65  98 130 180 220 264 331 394
#     4  11  23  45  66  95 134 171 216 273 337 380
#     4  11  22  41  68  94 132 176 226 265 326 395
#     4  12  23  42  64  97 136 167 215 280 326 389
#
# _framework density 24.851496000000001
#
# number of rings (size 3 to 8) (size 9 to 14) (size 15 to 20)
#    0.000    1.000    2.500    6.000    3.500    1.000 
#    2.250    0.625    0.000    0.000    0.000    0.000 
#    0.000    0.000    0.000    0.000    0.000    0.000 
#
# Total GULP energy -89310.863551 kJ/mol
# GULP energy per Si atom -5581.928972 kJ/mol
# Density = 2.479493 g / cm^3
# Si number density = 24.851496 Si / 1000 Ang^3
#
#
#
# Elastic Constant Matrix: (Units=GPa)
#
#
# Indices 1 2 3 4 5 6 
#
# 1 54.2458 8.3072 27.7620 0.8009 7.6680 -1.4910
# 2 8.3072 43.7507 24.5857 1.1302 4.3121 -9.4000
# 3 27.7620 24.5857 227.8107 33.9356 -2.3060 -16.1174
# 4 0.8009 1.1302 33.9356 38.5057 -11.4144 -1.4392
# 5 7.6680 4.3121 -2.3060 -11.4144 41.5804 6.8156
# 6 -1.4910 -9.4000 -16.1174 -1.4392 6.8156 40.5416
#
#
#
# Elastic Compliance Matrix: (Units=1/GPa)
#
#
# Indices 1 2 3 4 5 6 
#
# 1 0.020484 -0.002240 -0.002407 0.000731 -0.003459 -0.000115
# 2 -0.002240 0.026056 -0.002253 0.000532 -0.003189 0.005618
# 3 -0.002407 -0.002253 0.005799 -0.005135 -0.000677 0.001626
# 4 0.000731 0.000532 -0.005135 0.033037 0.008959 -0.002224
# 5 -0.003459 -0.003189 -0.000677 0.008959 0.028356 -0.005585
# 6 -0.000115 0.005618 0.001626 -0.002224 -0.005585 0.027471
#
#
# Mechanical properties :
#
#
# Convention : Reuss Voigt Hill
#
# Bulk Modulus (GPa) = 25.94695 49.67968 37.81332
# Shear Modulus (GPa) = 29.78877 41.80237 35.79557
#
# Velocity S-wave (km/s) = 3.46594 4.10577 3.79935
# Velocity P-wave (km/s) = 5.14592 6.52001 5.87329
#
# Compressibility (1/GPa) = 0.03854017
#
# Stress axis : x y z
#
# Youngs Moduli (GPa) = 48.81787 38.37912 172.44039
#
# Poissons Ratio (x) = 0.08596 0.41500
# Poissons Ratio (y) = 0.10934 0.38853
# Poissons Ratio (z) = 0.11749 0.08647
#
# Static dielectric constant tensor:
#      x y z
#    x 1.467020 -0.199830 0.071330 
#    y -0.199830 1.800730 -0.078820 
#    z 0.071330 -0.078820 2.003390 
# 
# From -- ./inp_files/347192.got.cif
#   From: 2010.05.17/outbox.cif.g08.bks.cpg/sg2_174_cif.got.tgz:347192.got - 2010.06.03 11:33:40.
