data_PCOD9030513
_publ_section_title
;
Structure prediction by ZEFSAII (Michael W. Deem and Ramdas Pophale) SiO2 
 PCOD9030513
Probable space group: P -1
;
_chemical_formula_sum "Si O2"
_cell_formula_units_Z 14
_cell_length_a 9.101973
_cell_length_b 11.241146
_cell_length_c 11.797295
_cell_angle_alpha 142.662488
_cell_angle_beta 57.944116
_cell_angle_gamma 98.221402
_cell_volume 521.135678
_symmetry_space_group_name_H-M "P -1"
_symmetry_group_IT_number 2
_symmetry_cell_setting 'triclinic'
loop_
_space_group_symop_operation_xyz
x,y,z
-x,-y,-z
loop_
_atom_site_type_symbol
_atom_site_label
_atom_site_fract_x
_atom_site_fract_y
_atom_site_fract_z
Si Si1 0.056942 0.745123 0.745095
Si Si2 0.217336 0.665263 0.988324
Si Si3 0.724399 0.952190 0.844241
Si Si4 0.906826 0.576259 0.302361
Si Si5 0.334463 0.206845 0.861544
Si Si6 0.235488 0.949826 0.543958
Si Si7 0.359246 0.494534 0.242053
O O1 0.066104 0.598242 0.738095
O O2 0.275414 0.582244 0.468263
O O3 0.891070 0.793109 0.751382
O O4 0.000000 0.000000 0.000000
O O5 0.263037 0.819717 0.999857
O O6 0.224677 0.452822 0.761044
O O7 0.408272 0.575882 0.924626
O O8 0.981727 0.842602 0.257449
O O9 0.796806 0.823535 0.595066
O O10 0.500000 0.000000 0.000000
O O11 0.143627 0.444966 0.063267
O O12 0.562861 0.110577 0.651423
O O13 0.275195 0.024855 0.708562
O O14 0.339349 0.287844 0.047671
O O15 0.226479 0.724634 0.394781
#
# Coordination Sequence:
#
# PCOD9030513 Si02
#       7
#     2   2   2   2   2   2   2
#     4  12  23  42  66  92 134 173 211 261 322 380
#     4  11  25  43  63  99 129 167 214 266 315 380
#     4  12  25  39  61  95 130 168 215 262 309 382
#     4  11  23  43  63  91 132 172 213 255 325 377
#     4  10  22  42  71  93 124 173 214 263 319 385
#     4  10  22  47  67  93 132 164 214 269 321 374
#     4  12  24  41  69  95 127 173 213 261 327 372
#
# _framework density 26.864404
#
# number of rings (size 3 to 8) (size 9 to 14) (size 15 to 20)
#    0.000    0.857    4.286    2.571    4.000    2.857 
#    0.000    6.429    0.000    0.000    0.000    0.000 
#    0.000    0.000    0.000    0.000    0.000    0.000 
#
# Total GULP energy -78407.505987 kJ/mol
# GULP energy per Si atom -5600.536142 kJ/mol
# Density = 2.680326 g / cm^3
# Si number density = 26.864404 Si / 1000 Ang^3
#
#
#
# Elastic Constant Matrix: (Units=GPa)
#
#
# Indices 1 2 3 4 5 6 
#
# 1 131.1832 -2.6532 62.2004 2.9352 2.8061 25.3844
# 2 -2.6532 62.3656 27.4438 -2.7114 -2.4574 7.2437
# 3 62.2004 27.4438 138.8265 -17.2432 -4.2145 16.8304
# 4 2.9352 -2.7114 -17.2432 37.3513 7.7807 -15.6551
# 5 2.8061 -2.4574 -4.2145 7.7807 63.0894 -0.2625
# 6 25.3844 7.2437 16.8304 -15.6551 -0.2625 37.9759
#
#
#
# Elastic Compliance Matrix: (Units=1/GPa)
#
#
# Indices 1 2 3 4 5 6 
#
# 1 0.012731 0.004104 -0.006294 -0.007677 0.000080 -0.009667
# 2 0.004104 0.019092 -0.005400 -0.003914 0.000660 -0.005601
# 3 -0.006294 -0.005400 0.011571 0.006628 0.000037 0.002842
# 4 -0.007677 -0.003914 0.006628 0.038956 -0.004094 0.018972
# 5 0.000080 0.000660 0.000037 -0.004094 0.016373 -0.001770
# 6 -0.009667 -0.005601 0.002842 0.018972 -0.001770 0.040412
#
#
# Mechanical properties :
#
#
# Convention : Reuss Voigt Hill
#
# Bulk Modulus (GPa) = 35.44581 56.26190 45.85386
# Shear Modulus (GPa) = 30.54007 44.04226 37.29116
#
# Velocity S-wave (km/s) = 3.37534 4.05338 3.72980
# Velocity P-wave (km/s) = 5.33043 6.54942 5.97111
#
# Compressibility (1/GPa) = 0.02821208
#
# Stress axis : x y z
#
# Youngs Moduli (GPa) = 78.54763 52.37906 86.42526
#
# Poissons Ratio (x) = -0.21495 0.54400
# Poissons Ratio (y) = -0.32233 0.46669
# Poissons Ratio (z) = 0.49441 0.28284
#
# Static dielectric constant tensor:
#      x y z
#    x 2.060310 -0.030520 -0.018760 
#    y -0.030520 2.151750 -0.047130 
#    z -0.018760 -0.047130 2.147420 
# 
# From -- ./inp_files/176940.got.cif
#   From: 2010.05.17/outbox.cif.g08.bks.cpg/sg2_89_cif.got.tgz:176940.got - 2010.06.03 11:33:40.
