data_PCOD9030199
_publ_section_title
;
Structure prediction by ZEFSAII (Michael W. Deem and Ramdas Pophale) SiO2 
 PCOD9030199
Probable space group: P -1
;
_chemical_formula_sum "Si O2"
_cell_formula_units_Z 16
_cell_length_a 11.825356
_cell_length_b 15.698898
_cell_length_c 9.812921
_cell_angle_alpha 120.967279
_cell_angle_beta 42.703100
_cell_angle_gamma 140.320987
_cell_volume 783.344226
_symmetry_space_group_name_H-M "P -1"
_symmetry_group_IT_number 2
_symmetry_cell_setting 'triclinic'
loop_
_space_group_symop_operation_xyz
x,y,z
-x,-y,-z
loop_
_atom_site_type_symbol
_atom_site_label
_atom_site_fract_x
_atom_site_fract_y
_atom_site_fract_z
Si Si1 0.746744 0.615890 0.435855
Si Si2 0.258624 0.515064 0.148513
Si Si3 0.186116 0.530231 0.529515
Si Si4 0.257028 0.239017 0.197984
Si Si5 0.890291 0.017378 0.987337
Si Si6 0.777639 0.099880 0.389164
Si Si7 0.962505 0.730486 0.052361
Si Si8 0.382604 0.818983 0.601890
O O1 0.500000 0.500000 0.500000
O O2 0.805943 0.545568 0.419435
O O3 0.742358 0.710660 0.613829
O O4 0.905046 0.689918 0.225868
O O5 0.241248 0.497345 0.311743
O O6 0.060250 0.515936 0.293397
O O7 0.509357 0.646669 0.991896
O O8 0.196809 0.394473 0.013009
O O9 0.365841 0.693207 0.517888
O O10 0.035379 0.194945 0.283287
O O11 0.220592 0.105970 0.115245
O O12 0.048228 0.157752 0.884806
O O13 0.733007 0.025572 0.223130
O O14 0.000000 0.000000 0.000000
O O15 0.720875 0.187948 0.460523
O O16 0.621677 0.972130 0.522616
O O17 0.210784 0.788375 0.844142
#
# Coordination Sequence:
#
# PCOD9030199 Si02
#       8
#     2   2   2   2   2   2   2   2
#     4  12  27  44  61  96 141 179 212 269 331 399
#     4  10  22  42  70 101 125 167 227 281 322 380
#     4  10  24  40  69  98 129 171 228 270 330 391
#     4  11  23  40  66  99 131 173 217 272 327 388
#     4   9  20  37  65  93 126 162 216 272 322 378
#     4   9  19  37  66 101 133 161 214 284 332 376
#     4  10  22  43  62  91 135 175 210 267 333 387
#     4   9  19  39  65  95 134 169 215 272 336 379
#
# _framework density 20.425248
#
# number of rings (size 3 to 8) (size 9 to 14) (size 15 to 20)
#    0.000    2.000    1.250    0.750    8.750    8.000 
#    0.000    0.625    0.000    0.000    0.000    0.000 
#    0.000    0.000    0.000    0.000    0.000    0.000 
#
# Total GULP energy -89227.622539 kJ/mol
# GULP energy per Si atom -5576.726409 kJ/mol
# Density = 2.037876 g / cm^3
# Si number density = 20.425248 Si / 1000 Ang^3
#
#
#
# Elastic Constant Matrix: (Units=GPa)
#
#
# Indices 1 2 3 4 5 6 
#
# 1 77.7255 52.5106 50.6077 -12.3714 20.5719 -6.8146
# 2 52.5106 168.2311 82.5371 1.9321 16.6208 -8.9161
# 3 50.6077 82.5371 143.4566 -18.0609 28.6190 3.8689
# 4 -12.3714 1.9321 -18.0609 37.3649 5.2857 1.6052
# 5 20.5719 16.6208 28.6190 5.2857 31.0016 -13.0007
# 6 -6.8146 -8.9161 3.8689 1.6052 -13.0007 32.1303
#
#
#
# Elastic Compliance Matrix: (Units=1/GPa)
#
#
# Indices 1 2 3 4 5 6 
#
# 1 0.021775 -0.005415 -0.000562 0.009296 -0.013816 -0.002871
# 2 -0.005415 0.010618 -0.006864 -0.007068 0.008059 0.006238
# 3 -0.000562 -0.006864 0.016430 0.011163 -0.017981 -0.011836
# 4 0.009296 -0.007068 0.011163 0.039733 -0.025111 -0.013480
# 5 -0.013816 0.008059 -0.017981 -0.025111 0.071210 0.031539
# 6 -0.002871 0.006238 -0.011836 -0.013480 0.031539 0.047106
#
#
# Mechanical properties :
#
#
# Convention : Reuss Voigt Hill
#
# Bulk Modulus (GPa) = 43.21565 84.52488 63.87026
# Shear Modulus (GPa) = 20.81014 33.68322 27.24668
#
# Velocity S-wave (km/s) = 3.19540 4.06531 3.65632
# Velocity P-wave (km/s) = 5.90068 7.96920 7.01163
#
# Compressibility (1/GPa) = 0.02313977
#
# Stress axis : x y z
#
# Youngs Moduli (GPa) = 45.92525 94.18170 60.86376
#
# Poissons Ratio (x) = 0.50997 0.03421
# Poissons Ratio (y) = 0.24867 0.41780
# Poissons Ratio (z) = 0.02582 0.64651
#
# Static dielectric constant tensor:
#      x y z
#    x 1.372480 0.172640 0.026970 
#    y 0.172640 1.703340 -0.033650 
#    z 0.026970 -0.033650 1.747300 
# 
# From -- ./inp_files/273585.got.cif
#   From: 2010.05.17/outbox.cif.g08.bks.cpg/sg2_137_cif.got.tgz:273585.got - 2010.06.03 11:33:40.
