data_PCOD9030027
_publ_section_title
;
Structure prediction by ZEFSAII (Michael W. Deem and Ramdas Pophale) SiO2 
 PCOD9030027
Probable space group: P -1
;
_chemical_formula_sum "Si O2"
_cell_formula_units_Z 14
_cell_length_a 15.777955
_cell_length_b 9.909912
_cell_length_c 13.309856
_cell_angle_alpha 55.550996
_cell_angle_beta 25.844961
_cell_angle_gamma 43.118084
_cell_volume 590.294280
_symmetry_space_group_name_H-M "P -1"
_symmetry_group_IT_number 2
_symmetry_cell_setting 'triclinic'
loop_
_space_group_symop_operation_xyz
x,y,z
-x,-y,-z
loop_
_atom_site_type_symbol
_atom_site_label
_atom_site_fract_x
_atom_site_fract_y
_atom_site_fract_z
Si Si1 0.262645 0.692907 0.732132
Si Si2 0.104342 0.403840 0.321681
Si Si3 0.469010 0.407237 0.809400
Si Si4 0.073871 0.032814 0.515916
Si Si5 0.479986 0.117232 0.572382
Si Si6 0.173104 0.091335 0.051867
Si Si7 0.145263 0.512847 0.642964
O O1 0.500000 0.500000 0.500000
O O2 0.266681 0.579755 0.875113
O O3 0.308232 0.859440 0.641739
O O4 0.023496 0.798547 0.875476
O O5 0.000000 0.500000 0.500000
O O6 0.929567 0.537809 0.357406
O O7 0.119166 0.200196 0.390231
O O8 0.353761 0.369428 0.040792
O O9 0.668002 0.185835 0.636952
O O10 0.633289 0.480213 0.628073
O O11 0.861264 0.073650 0.798973
O O12 0.000000 0.000000 0.500000
O O13 0.247700 0.353666 0.692441
O O14 0.500000 0.000000 0.500000
O O15 0.422711 0.030724 0.764172
O O16 0.077196 0.263163 0.169194
#
# Coordination Sequence:
#
# PCOD9030027 Si02
#       7
#     2   2   2   2   2   2   2
#     4  11  21  40  71  98 117 165 217 253 318 376
#     4  12  26  42  63  94 128 171 212 258 321 370
#     4  10  22  42  69  89 127 162 215 265 303 373
#     4  11  22  43  63  93 124 168 217 255 302 375
#     4  11  25  40  64 102 131 160 203 265 329 367
#     4  11  22  41  71  91 129 167 211 262 305 379
#     4  10  22  43  63  93 128 165 215 259 313 376
#
# _framework density 23.716985000000001
#
# number of rings (size 3 to 8) (size 9 to 14) (size 15 to 20)
#    0.000    1.143    7.143    1.714    2.000    4.571 
#    5.143    0.000    0.000    0.000    0.000    0.000 
#    0.000    0.000    0.000    0.000    0.000    0.000 
#
# Total GULP energy -78291.730849 kJ/mol
# GULP energy per Si atom -5592.266489 kJ/mol
# Density = 2.366300 g / cm^3
# Si number density = 23.716985 Si / 1000 Ang^3
#
#
#
# Elastic Constant Matrix: (Units=GPa)
#
#
# Indices 1 2 3 4 5 6 
#
# 1 100.8265 13.5926 25.1720 -4.4809 6.7001 15.1009
# 2 13.5926 53.1033 53.5705 -31.1764 -0.8976 12.8073
# 3 25.1720 53.5705 148.7028 -57.2716 30.5065 14.2136
# 4 -4.4809 -31.1764 -57.2716 37.7055 -5.7204 3.2489
# 5 6.7001 -0.8976 30.5065 -5.7204 23.9067 2.8516
# 6 15.1009 12.8073 14.2136 3.2489 2.8516 37.4331
#
#
#
# Elastic Compliance Matrix: (Units=1/GPa)
#
#
# Indices 1 2 3 4 5 6 
#
# 1 0.011009 -0.002454 -0.001714 -0.003329 -0.001483 -0.002549
# 2 -0.002454 0.055740 -0.006802 0.040861 0.023725 -0.020852
# 3 -0.001714 -0.006802 0.030540 0.037027 -0.028741 -0.009602
# 4 -0.003329 0.040861 0.037027 0.117366 -0.012411 -0.035937
# 5 -0.001483 0.023725 -0.028741 -0.012411 0.077007 -0.001395
# 6 -0.002549 -0.020852 -0.009602 -0.035937 -0.001395 0.041748
#
#
# Mechanical properties :
#
#
# Convention : Reuss Voigt Hill
#
# Bulk Modulus (GPa) = 13.27144 54.14475 33.70810
# Shear Modulus (GPa) = 13.14178 33.82889 23.48533
#
# Velocity S-wave (km/s) = 2.35650 3.78081 3.15021
# Velocity P-wave (km/s) = 3.60722 6.47599 5.24168
#
# Compressibility (1/GPa) = 0.07534976
#
# Stress axis : x y z
#
# Youngs Moduli (GPa) = 90.83414 17.94041 32.74403
#
# Poissons Ratio (x) = 0.04402 0.05612
# Poissons Ratio (y) = 0.22289 0.22272
# Poissons Ratio (z) = 0.15569 0.12203
#
# Static dielectric constant tensor:
#      x y z
#    x 1.915130 -0.037200 -0.019960 
#    y -0.037200 1.955470 -0.012190 
#    z -0.019960 -0.012190 1.922090 
# 
# From -- ./inp_files/446118.got.cif
#   From: 2010.05.17/outbox.cif.g08.bks.cpg/sg2_224_cif.got.tgz:446118.got - 2010.06.03 11:33:40.
