data_PCOD9030692
_publ_section_title
;
Structure prediction by ZEFSAII (Michael W. Deem and Ramdas Pophale) SiO2 
 PCOD9030692
Probable space group: P -1
;
_chemical_formula_sum "Si O2"
_cell_formula_units_Z 16
_cell_length_a 11.451809
_cell_length_b 11.426691
_cell_length_c 11.414402
_cell_angle_alpha 68.681607
_cell_angle_beta 41.750882
_cell_angle_gamma 100.815279
_cell_volume 623.492277
_symmetry_space_group_name_H-M "P -1"
_symmetry_group_IT_number 2
_symmetry_cell_setting 'triclinic'
loop_
_space_group_symop_operation_xyz
x,y,z
-x,-y,-z
loop_
_atom_site_type_symbol
_atom_site_label
_atom_site_fract_x
_atom_site_fract_y
_atom_site_fract_z
Si Si1 0.314290 0.932451 0.896189
Si Si2 0.377425 0.646146 0.242069
Si Si3 0.260311 0.279515 0.228634
Si Si4 0.500947 0.294920 0.614085
Si Si5 0.537349 0.787447 0.706255
Si Si6 0.835134 0.531337 0.066857
Si Si7 0.948192 0.119840 0.118064
Si Si8 0.110980 0.757672 0.356816
O O1 0.424456 0.851342 0.827994
O O2 0.114722 0.846739 0.969628
O O3 0.519920 0.153862 0.642373
O O4 0.193833 0.877715 0.135506
O O5 0.363133 0.598655 0.404666
O O6 0.326702 0.768187 0.223425
O O7 0.144062 0.456136 0.415465
O O8 0.648697 0.741761 0.949424
O O9 0.278295 0.187042 0.352186
O O10 0.990153 0.209736 0.472978
O O11 0.500000 0.500000 0.000000
O O12 0.617866 0.429460 0.368222
O O13 0.196365 0.163495 0.901844
O O14 0.301937 0.574990 0.913589
O O15 0.697841 0.912907 0.426137
O O16 0.994136 0.743062 0.878530
O O17 0.000000 0.500000 0.000000
#
# Coordination Sequence:
#
# PCOD9030692 Si02
#       8
#     2   2   2   2   2   2   2   2
#     4  12  23  45  70 102 152 192 238 303 370 432
#     4  10  23  46  66 105 141 185 253 295 363 434
#     4  10  23  43  74 101 139 196 241 303 367 429
#     4  12  27  44  71 106 149 192 246 305 362 442
#     4  12  25  48  72 107 150 189 250 300 370 440
#     4  12  26  44  73 107 141 194 240 302 368 439
#     4  12  26  46  71 108 148 196 242 300 370 436
#     4  10  22  42  72  98 139 195 235 309 364 425
#
# _framework density 25.661905999999998
#
# number of rings (size 3 to 8) (size 9 to 14) (size 15 to 20)
#    0.000    0.750    3.750    3.375    5.250    0.500 
#    2.250    1.250    0.000    0.000    0.000    0.000 
#    0.000    0.000    0.000    0.000    0.000    0.000 
#
# Total GULP energy -89734.161099 kJ/mol
# GULP energy per Si atom -5608.385069 kJ/mol
# Density = 2.560350 g / cm^3
# Si number density = 25.661906 Si / 1000 Ang^3
#
#
#
# Elastic Constant Matrix: (Units=GPa)
#
#
# Indices 1 2 3 4 5 6 
#
# 1 70.7386 25.4194 14.9424 9.5618 5.7294 -8.6629
# 2 25.4194 102.8369 25.3107 12.9914 -16.4776 -1.4691
# 3 14.9424 25.3107 71.2435 21.4564 4.6265 -4.6044
# 4 9.5618 12.9914 21.4564 44.2111 -5.2746 -4.9812
# 5 5.7294 -16.4776 4.6265 -5.2746 33.3217 -1.8868
# 6 -8.6629 -1.4691 -4.6044 -4.9812 -1.8868 32.8976
#
#
#
# Elastic Compliance Matrix: (Units=1/GPa)
#
#
# Indices 1 2 3 4 5 6 
#
# 1 0.017087 -0.004552 -0.000725 -0.002231 -0.005240 0.003557
# 2 -0.004552 0.013144 -0.004290 0.000055 0.007844 -0.000754
# 3 -0.000725 -0.004290 0.018616 -0.008243 -0.005850 0.000640
# 4 -0.002231 0.000055 -0.008243 0.028147 0.006174 0.002877
# 5 -0.005240 0.007844 -0.005850 0.006174 0.036647 0.001188
# 6 0.003557 -0.000754 0.000640 0.002877 0.001188 0.031894
#
#
# Mechanical properties :
#
#
# Convention : Reuss Voigt Hill
#
# Bulk Modulus (GPa) = 33.65350 41.79600 37.72475
# Shear Modulus (GPa) = 28.64137 34.02915 31.33526
#
# Velocity S-wave (km/s) = 3.34444 3.64546 3.49819
# Velocity P-wave (km/s) = 5.29683 5.83452 5.57216
#
# Compressibility (1/GPa) = 0.02971459
#
# Stress axis : x y z
#
# Youngs Moduli (GPa) = 58.52428 76.07827 53.71653
#
# Poissons Ratio (x) = 0.34633 0.03892
# Poissons Ratio (y) = 0.26642 0.23043
# Poissons Ratio (z) = 0.04240 0.32635
#
# Static dielectric constant tensor:
#      x y z
#    x 1.933420 -0.000430 -0.009920 
#    y -0.000430 2.040810 0.007270 
#    z -0.009920 0.007270 2.003400 
# 
# From -- ./inp_files/391661.got.cif
#   From: 2010.05.17/outbox.cif.g08.bks.cpg/sg2_196_cif.got.tgz:391661.got - 2010.06.03 11:33:40.
