data_PCOD9030227
_publ_section_title
;
Structure prediction by ZEFSAII (Michael W. Deem and Ramdas Pophale) SiO2 
 PCOD9030227
Probable space group: P -1
;
_chemical_formula_sum "Si O2"
_cell_formula_units_Z 15
_cell_length_a 5.203619
_cell_length_b 7.219233
_cell_length_c 15.954732
_cell_angle_alpha 79.209277
_cell_angle_beta 81.765662
_cell_angle_gamma 92.061317
_cell_volume 581.473476
_symmetry_space_group_name_H-M "P -1"
_symmetry_group_IT_number 2
_symmetry_cell_setting 'triclinic'
loop_
_space_group_symop_operation_xyz
x,y,z
-x,-y,-z
loop_
_atom_site_type_symbol
_atom_site_label
_atom_site_fract_x
_atom_site_fract_y
_atom_site_fract_z
Si Si1 0.807983 0.715019 0.877996
Si Si2 0.518130 0.230562 0.485643
Si Si3 0.871699 0.532589 0.215546
Si Si4 0.927909 0.680692 0.626838
Si Si5 0.972457 0.223115 0.967096
Si Si6 0.500000 0.500000 0.000000
Si Si7 0.089350 0.977111 0.270842
Si Si8 0.551467 0.737733 0.321484
O O1 0.569918 0.563971 0.891646
O O2 0.065594 0.644512 0.830372
O O3 0.791305 0.921140 0.827056
O O4 0.814688 0.681269 0.982560
O O5 0.810766 0.297635 0.441994
O O6 0.448499 0.294783 0.576556
O O7 0.314555 0.311424 0.423787
O O8 0.500000 0.000000 0.500000
O O9 0.039715 0.488335 0.294638
O O10 0.603648 0.569722 0.269452
O O11 0.952786 0.705058 0.134701
O O12 0.920534 0.862986 0.671537
O O13 0.702770 0.310201 0.996548
O O14 0.000000 0.000000 0.000000
O O15 0.291896 0.835620 0.305136
O O16 0.801984 0.883725 0.280976
#
# Coordination Sequence:
#
# PCOD9030227 Si02
#       8
#     2   2   2   2   2   1   2   2
#     4  10  24  46  70  97 144 191 233 300 360 439
#     4  12  22  42  75  99 139 181 250 287 368 428
#     4  10  25  45  64 106 144 180 242 292 375 420
#     4  11  23  44  69 102 137 190 226 309 356 432
#     4  11  24  49  74 105 144 192 247 300 366 446
#     4  10  22  42  70 102 136 190 234 296 362 430
#     4  11  23  42  70 102 141 181 245 292 358 420
#     4  12  25  43  68 107 137 184 238 305 346 445
#
# _framework density 25.796531999999999
#
# number of rings (size 3 to 8) (size 9 to 14) (size 15 to 20)
#    0.000    1.067    2.667    3.600    3.733    2.667 
#   26.400    0.000    0.000    0.000    0.000    0.000 
#    0.000    0.000    0.000    0.000    0.000    0.000 
#
# Total GULP energy -83743.583248 kJ/mol
# GULP energy per Si atom -5582.905550 kJ/mol
# Density = 2.573782 g / cm^3
# Si number density = 25.796532 Si / 1000 Ang^3
#
#
#
# Elastic Constant Matrix: (Units=GPa)
#
#
# Indices 1 2 3 4 5 6 
#
# 1 99.5092 26.4802 24.7209 2.8483 -15.4957 -10.7763
# 2 26.4802 112.5226 46.4095 5.4142 8.5362 -14.2105
# 3 24.7209 46.4095 193.0205 -3.6968 -10.0392 -1.3419
# 4 2.8483 5.4142 -3.6968 48.4819 -8.9184 -8.7632
# 5 -15.4957 8.5362 -10.0392 -8.9184 24.0142 4.5938
# 6 -10.7763 -14.2105 -1.3419 -8.7632 4.5938 36.2565
#
#
#
# Elastic Compliance Matrix: (Units=1/GPa)
#
#
# Indices 1 2 3 4 5 6 
#
# 1 0.012661 -0.003496 -0.000236 0.001686 0.009640 0.001570
# 2 -0.003496 0.012358 -0.003041 -0.002396 -0.009639 0.004334
# 3 -0.000236 -0.003041 0.006182 0.001385 0.004264 -0.001239
# 4 0.001686 -0.002396 0.001385 0.023551 0.010505 0.003974
# 5 0.009640 -0.009639 0.004264 0.010505 0.058038 -0.005570
# 6 0.001570 0.004334 -0.001239 0.003974 -0.005570 0.031367
#
#
# Mechanical properties :
#
#
# Convention : Reuss Voigt Hill
#
# Bulk Modulus (GPa) = 56.64257 66.69705 61.66981
# Shear Modulus (GPa) = 30.56447 42.24661 36.40554
#
# Velocity S-wave (km/s) = 3.44587 4.05122 3.76075
# Velocity P-wave (km/s) = 6.15119 6.91335 6.54337
#
# Compressibility (1/GPa) = 0.01765457
#
# Stress axis : x y z
#
# Youngs Moduli (GPa) = 78.98084 80.92027 161.76374
#
# Poissons Ratio (x) = 0.28291 0.03824
# Poissons Ratio (y) = 0.27613 0.49186
# Poissons Ratio (z) = 0.01867 0.24605
#
# Static dielectric constant tensor:
#      x y z
#    x 3.178710 0.498820 -0.115650 
#    y 0.498820 2.236240 -0.058350 
#    z -0.115650 -0.058350 2.044900 
# 
# From -- ./inp_files/479668.got.cif
#   From: 2010.05.17/outbox.cif.g08.bks.cpg/sg2_240_cif.got.tgz:479668.got - 2010.06.03 11:33:40.
