data_PCOD9030367
_publ_section_title
;
Structure prediction by ZEFSAII (Michael W. Deem and Ramdas Pophale) SiO2 
 PCOD9030367
Probable space group: P -1
;
_chemical_formula_sum "Si O2"
_cell_formula_units_Z 11
_cell_length_a 8.269247
_cell_length_b 11.274664
_cell_length_c 8.214688
_cell_angle_alpha 93.189910
_cell_angle_beta 48.807636
_cell_angle_gamma 117.778593
_cell_volume 472.191651
_symmetry_space_group_name_H-M "P -1"
_symmetry_group_IT_number 2
_symmetry_cell_setting 'triclinic'
loop_
_space_group_symop_operation_xyz
x,y,z
-x,-y,-z
loop_
_atom_site_type_symbol
_atom_site_label
_atom_site_fract_x
_atom_site_fract_y
_atom_site_fract_z
Si Si1 0.338903 0.360507 0.710253
Si Si2 0.465795 0.817842 0.989376
Si Si3 0.244741 0.702336 0.464841
Si Si4 0.500000 0.000000 0.500000
Si Si5 0.290396 0.509487 0.041019
Si Si6 0.819210 0.066226 0.985787
O O1 0.500000 0.500000 0.500000
O O2 0.538798 0.331704 0.658201
O O3 0.214309 0.410707 0.926661
O O4 0.104529 0.209468 0.778992
O O5 0.266211 0.756366 0.270318
O O6 0.425931 0.677667 0.925400
O O7 0.739628 0.935473 0.905137
O O8 0.390674 0.895795 0.918468
O O9 0.310245 0.833430 0.548575
O O10 0.967438 0.560735 0.685818
O O11 0.257879 0.980123 0.779814
O O12 0.500000 0.500000 0.000000
#
# Coordination Sequence:
#
# PCOD9030367 Si02
#       6
#     2   2   2   1   2   2
#     4  12  27  43  71 102 134 176 226 276 335 397
#     4  10  23  43  71  96 137 173 224 275 329 399
#     4  11  24  44  68  99 137 177 221 279 328 404
#     4  10  22  42  70  96 132 178 220 272 332 386
#     4  12  25  43  69 101 135 181 218 277 339 394
#     4  10  23  45  68 101 133 179 223 276 330 396
#
# _framework density 23.295627
#
# number of rings (size 3 to 8) (size 9 to 14) (size 15 to 20)
#    0.000    1.091    3.636    1.636    5.091    5.818 
#    0.000    0.909    0.000    0.000    0.000    0.000 
#    0.000    0.000    0.000    0.000    0.000    0.000 
#
# Total GULP energy -61265.021839 kJ/mol
# GULP energy per Si atom -5569.547440 kJ/mol
# Density = 2.324261 g / cm^3
# Si number density = 23.295627 Si / 1000 Ang^3
#
#
#
# Elastic Constant Matrix: (Units=GPa)
#
#
# Indices 1 2 3 4 5 6 
#
# 1 26.0099 10.0213 -5.3979 -6.2190 -11.3702 -1.2123
# 2 10.0213 156.0835 13.7386 -17.0161 -13.4274 12.2448
# 3 -5.3979 13.7386 71.1992 -25.3184 -11.1646 16.7553
# 4 -6.2190 -17.0161 -25.3184 48.6073 6.3287 -5.1624
# 5 -11.3702 -13.4274 -11.1646 6.3287 23.5529 -7.5713
# 6 -1.2123 12.2448 16.7553 -5.1624 -7.5713 32.9930
#
#
#
# Elastic Compliance Matrix: (Units=1/GPa)
#
#
# Indices 1 2 3 4 5 6 
#
# 1 0.057906 -0.001403 0.011739 0.009457 0.031945 0.005497
# 2 -0.001403 0.007032 -0.000049 0.001769 0.002239 -0.001846
# 3 0.011739 -0.000049 0.022075 0.010847 0.011094 -0.006518
# 4 0.009457 0.001769 0.010847 0.027570 0.003049 -0.000804
# 5 0.031945 0.002239 0.011094 0.003049 0.066989 0.010559
# 6 0.005497 -0.001846 -0.006518 -0.000804 0.010559 0.036804
#
#
# Mechanical properties :
#
#
# Convention : Reuss Voigt Hill
#
# Bulk Modulus (GPa) = 9.29479 32.22407 20.75943
# Shear Modulus (GPa) = 21.39830 36.69269 29.04549
#
# Velocity S-wave (km/s) = 3.03405 3.97304 3.53487
# Velocity P-wave (km/s) = 4.03393 5.90842 5.05876
#
# Compressibility (1/GPa) = 0.10758718
#
# Stress axis : x y z
#
# Youngs Moduli (GPa) = 17.26938 142.21668 45.30001
#
# Poissons Ratio (x) = 0.19957 -0.53179
# Poissons Ratio (y) = 0.02423 0.00220
# Poissons Ratio (z) = -0.20273 0.00691
#
# Static dielectric constant tensor:
#      x y z
#    x 1.879410 0.013820 0.025990 
#    y 0.013820 1.900010 0.010940 
#    z 0.025990 0.010940 1.906650 
# 
# From -- ./inp_files/17383.got.cif
#   From: 2010.05.17/outbox.cif.g08.bks.cpg/sg2_9_cif.got.tgz:17383.got - 2010.06.03 11:33:40.
