data_PCOD9030200
_publ_section_title
;
Structure prediction by ZEFSAII (Michael W. Deem and Ramdas Pophale) SiO2 
 PCOD9030200
Probable space group: P -1
;
_chemical_formula_sum "Si O2"
_cell_formula_units_Z 16
_cell_length_a 7.979473
_cell_length_b 8.374721
_cell_length_c 21.525703
_cell_angle_alpha 138.261153
_cell_angle_beta 49.117420
_cell_angle_gamma 132.366316
_cell_volume 673.076162
_symmetry_space_group_name_H-M "P -1"
_symmetry_group_IT_number 2
_symmetry_cell_setting 'triclinic'
loop_
_space_group_symop_operation_xyz
x,y,z
-x,-y,-z
loop_
_atom_site_type_symbol
_atom_site_label
_atom_site_fract_x
_atom_site_fract_y
_atom_site_fract_z
Si Si1 0.827147 0.250469 0.107276
Si Si2 0.006118 0.191333 0.293361
Si Si3 0.783449 0.527801 0.306614
Si Si4 0.519721 0.250030 0.388562
Si Si5 0.152109 0.360511 0.884531
Si Si6 0.219190 0.946926 0.562484
Si Si7 0.319894 0.252282 0.937963
Si Si8 0.149967 0.730779 0.384528
O O1 0.924365 0.408518 0.192972
O O2 0.737051 0.426444 0.134889
O O3 0.644409 0.987011 0.104741
O O4 0.045075 0.208062 0.007938
O O5 0.765688 0.207417 0.327461
O O6 0.944721 0.199595 0.383288
O O7 0.202239 0.466714 0.304522
O O8 0.006788 0.917373 0.188882
O O9 0.535684 0.320887 0.332246
O O10 0.933883 0.658949 0.368229
O O11 0.755869 0.762396 0.346560
O O12 0.500000 0.500000 0.500000
O O13 0.337644 0.985968 0.382966
O O14 0.323823 0.298111 0.875706
O O15 0.000000 0.500000 0.000000
O O16 0.097746 0.812421 0.489258
O O17 0.500000 0.000000 0.500000
O O18 0.500000 0.500000 0.000000
#
# Coordination Sequence:
#
# PCOD9030200 Si02
#       8
#     2   2   2   2   2   2   2   2
#     4  10  22  43  67  96 136 178 216 284 343 403
#     4  11  23  41  68  94 133 175 223 276 339 402
#     4  11  23  40  64  89 130 174 221 260 332 396
#     4  11  22  40  61  92 131 173 224 275 332 397
#     4  10  22  45  70  96 136 178 222 281 343 403
#     4  12  22  42  61  94 132 171 214 272 327 395
#     4  10  22  42  70 101 131 169 228 280 342 408
#     4  11  24  40  65  93 128 178 221 273 330 401
#
# _framework density 23.771453999999999
#
# number of rings (size 3 to 8) (size 9 to 14) (size 15 to 20)
#    0.000    1.250    3.750    2.250    1.750    2.500 
#    2.250    5.000    0.000    0.000    0.000    0.000 
#    0.000    0.000    0.000    0.000    0.000    0.000 
#
# Total GULP energy -89106.639774 kJ/mol
# GULP energy per Si atom -5569.164986 kJ/mol
# Density = 2.371735 g / cm^3
# Si number density = 23.771454 Si / 1000 Ang^3
#
#
#
# Elastic Constant Matrix: (Units=GPa)
#
#
# Indices 1 2 3 4 5 6 
#
# 1 32.9795 35.0781 11.4456 6.0863 11.5409 -13.7878
# 2 35.0781 186.6531 33.8313 34.2456 3.8995 -44.4583
# 3 11.4456 33.8313 112.2714 18.7123 2.9996 -12.0332
# 4 6.0863 34.2456 18.7123 27.0602 -2.1526 -4.7245
# 5 11.5409 3.8995 2.9996 -2.1526 33.3750 0.3492
# 6 -13.7878 -44.4583 -12.0332 -4.7245 0.3492 30.9647
#
#
#
# Elastic Compliance Matrix: (Units=1/GPa)
#
#
# Indices 1 2 3 4 5 6 
#
# 1 0.047569 -0.004501 -0.001037 -0.003125 -0.016178 0.014022
# 2 -0.004501 0.011197 0.000314 -0.011246 -0.000636 0.012486
# 3 -0.001037 0.000314 0.010424 -0.006937 -0.001094 0.002994
# 4 -0.003125 -0.011246 -0.006937 0.055143 0.006699 -0.011896
# 5 -0.016178 -0.000636 -0.001094 0.006699 0.036245 -0.007929
# 6 0.014022 0.012486 0.002994 -0.011896 -0.007929 0.055903
#
#
# Mechanical properties :
#
#
# Convention : Reuss Voigt Hill
#
# Bulk Modulus (GPa) = 17.02319 54.73490 35.87904
# Shear Modulus (GPa) = 20.28324 35.04992 27.66658
#
# Velocity S-wave (km/s) = 2.92423 3.84403 3.41524
# Velocity P-wave (km/s) = 4.31025 6.54045 5.53876
#
# Compressibility (1/GPa) = 0.05874341
#
# Stress axis : x y z
#
# Youngs Moduli (GPa) = 21.02199 89.31081 95.92871
#
# Poissons Ratio (x) = 0.40195 0.09951
# Poissons Ratio (y) = 0.09461 -0.03016
# Poissons Ratio (z) = 0.02181 -0.02808
#
# Static dielectric constant tensor:
#      x y z
#    x 1.952100 0.036750 -0.047620 
#    y 0.036750 2.118560 -0.077450 
#    z -0.047620 -0.077450 2.024020 
# 
# From -- ./inp_files/588209.got.cif
#   From: 2010.05.17/outbox.cif.g08.bks.cpg/sg2_295_cif.got.tgz:588209.got - 2010.06.03 11:33:40.
