data_PCOD9030044
_publ_section_title
;
Structure prediction by ZEFSAII (Michael W. Deem and Ramdas Pophale) SiO2 
 PCOD9030044
Probable space group: P -1
;
_chemical_formula_sum "Si O2"
_cell_formula_units_Z 14
_cell_length_a 11.304478
_cell_length_b 8.239541
_cell_length_c 11.941916
_cell_angle_alpha 137.488267
_cell_angle_beta 50.854944
_cell_angle_gamma 118.049326
_cell_volume 582.906602
_symmetry_space_group_name_H-M "P -1"
_symmetry_group_IT_number 2
_symmetry_cell_setting 'triclinic'
loop_
_space_group_symop_operation_xyz
x,y,z
-x,-y,-z
loop_
_atom_site_type_symbol
_atom_site_label
_atom_site_fract_x
_atom_site_fract_y
_atom_site_fract_z
Si Si1 0.281111 0.504196 0.106421
Si Si2 0.278552 0.810345 0.478917
Si Si3 0.360520 0.617758 0.706213
Si Si4 0.566777 0.993951 0.294791
Si Si5 0.359707 0.827026 0.022724
Si Si6 0.044578 0.048278 0.320170
Si Si7 0.053932 0.392424 0.685999
O O1 0.286831 0.575862 0.271908
O O2 0.103627 0.465841 0.160440
O O3 0.376111 0.279179 0.891637
O O4 0.334564 0.736102 0.118047
O O5 0.388788 0.991601 0.434091
O O6 0.100982 0.879220 0.628497
O O7 0.348904 0.845533 0.578012
O O8 0.500000 0.500000 0.500000
O O9 0.377736 0.593067 0.815636
O O10 0.197110 0.531507 0.718971
O O11 0.388474 0.889917 0.789711
O O12 0.500000 0.000000 0.000000
O O13 0.203395 0.945941 0.132000
O O14 0.087481 0.277236 0.486992
O O15 0.979870 0.834074 0.328546
#
# Coordination Sequence:
#
# PCOD9030044 Si02
#       7
#     2   2   2   2   2   2   2
#     4  10  23  44  70  95 131 178 220 268 330 396
#     4  10  22  42  69  93 132 177 217 266 326 397
#     4  12  26  42  64  98 133 166 220 282 327 388
#     4  11  25  42  68  96 132 179 219 267 333 400
#     4  11  24  41  69  99 129 173 222 275 325 386
#     4   9  19  41  65  94 128 172 218 265 329 392
#     4   9  20  39  66  94 129 169 216 270 325 387
#
# _framework density 24.017568000000001
#
# number of rings (size 3 to 8) (size 9 to 14) (size 15 to 20)
#    0.000    1.714    0.000    3.857    8.000    1.714 
#    2.571    1.429    0.000    0.000    0.000    0.000 
#    0.000    0.000    0.000    0.000    0.000    0.000 
#
# Total GULP energy -78202.564376 kJ/mol
# GULP energy per Si atom -5585.897455 kJ/mol
# Density = 2.396290 g / cm^3
# Si number density = 24.017568 Si / 1000 Ang^3
#
#
#
# Elastic Constant Matrix: (Units=GPa)
#
#
# Indices 1 2 3 4 5 6 
#
# 1 113.7913 23.6137 54.8327 1.2527 11.3571 24.1155
# 2 23.6137 59.4743 21.6245 -1.3786 -1.6200 12.7120
# 3 54.8327 21.6245 111.1637 -16.1793 -8.0943 5.3967
# 4 1.2527 -1.3786 -16.1793 28.2664 -3.7447 3.8643
# 5 11.3571 -1.6200 -8.0943 -3.7447 42.4862 -4.5286
# 6 24.1155 12.7120 5.3967 3.8643 -4.5286 31.8641
#
#
#
# Elastic Compliance Matrix: (Units=1/GPa)
#
#
# Indices 1 2 3 4 5 6 
#
# 1 0.016319 -0.001383 -0.008576 -0.005238 -0.007662 -0.010800
# 2 -0.001383 0.019760 -0.002815 0.000279 -0.000071 -0.006404
# 3 -0.008576 -0.002815 0.015352 0.009225 0.006436 0.004810
# 4 -0.005238 0.000279 0.009225 0.042042 0.006676 -0.001859
# 5 -0.007662 -0.000071 0.006436 0.006676 0.028243 0.007941
# 6 -0.010800 -0.006404 0.004810 -0.001859 0.007941 0.042651
#
#
# Mechanical properties :
#
#
# Convention : Reuss Voigt Hill
#
# Bulk Modulus (GPa) = 38.63809 53.84123 46.23966
# Shear Modulus (GPa) = 25.18340 32.81391 28.99865
#
# Velocity S-wave (km/s) = 3.24163 3.70029 3.47853
# Velocity P-wave (km/s) = 5.48938 6.38140 5.95212
#
# Compressibility (1/GPa) = 0.02588119
#
# Stress axis : x y z
#
# Youngs Moduli (GPa) = 61.27883 50.60751 65.13986
#
# Poissons Ratio (x) = 0.06997 0.55867
# Poissons Ratio (y) = 0.08473 0.18340
# Poissons Ratio (z) = 0.52555 0.14248
#
# Static dielectric constant tensor:
#      x y z
#    x 1.954870 -0.053940 -0.012780 
#    y -0.053940 1.933640 0.049280 
#    z -0.012780 0.049280 1.955770 
# 
# From -- ./inp_files/157412.got.cif
#   From: 2010.05.17/outbox.cif.g08.bks.cpg/sg2_79_cif.got.tgz:157412.got - 2010.06.03 11:33:40.
