data_PCOD9030686
_publ_section_title
;
Structure prediction by ZEFSAII (Michael W. Deem and Ramdas Pophale) SiO2 
 PCOD9030686
Probable space group: P -1
;
_chemical_formula_sum "Si O2"
_cell_formula_units_Z 15
_cell_length_a 16.973932
_cell_length_b 11.206298
_cell_length_c 7.967958
_cell_angle_alpha 49.362457
_cell_angle_beta 117.636916
_cell_angle_gamma 147.620566
_cell_volume 601.920907
_symmetry_space_group_name_H-M "P -1"
_symmetry_group_IT_number 2
_symmetry_cell_setting 'triclinic'
loop_
_space_group_symop_operation_xyz
x,y,z
-x,-y,-z
loop_
_atom_site_type_symbol
_atom_site_label
_atom_site_fract_x
_atom_site_fract_y
_atom_site_fract_z
Si Si1 0.988797 0.250603 0.881097
Si Si2 0.285500 0.631853 0.627294
Si Si3 0.158766 0.029268 0.514047
Si Si4 0.197280 0.721160 0.911872
Si Si5 0.713067 0.061285 0.824345
Si Si6 0.500000 0.000000 0.000000
Si Si7 0.854875 0.779984 0.360770
Si Si8 0.406977 0.574241 0.083094
O O1 0.849159 0.162893 0.783839
O O2 0.114929 0.428802 0.701615
O O3 0.070072 0.428944 0.970089
O O4 0.921704 0.983873 0.093273
O O5 0.350673 0.892662 0.400857
O O6 0.279631 0.522310 0.552296
O O7 0.344046 0.599055 0.855171
O O8 0.165634 0.852292 0.698968
O O9 0.992787 0.863242 0.470984
O O10 0.196957 0.170909 0.596302
O O11 0.282373 0.269112 0.285889
O O12 0.219318 0.762787 0.098480
O O13 0.355700 0.874672 0.873349
O O14 0.572042 0.753326 0.021904
O O15 0.443178 0.742994 0.117949
#
# Coordination Sequence:
#
# PCOD9030686 Si02
#       8
#     2   2   2   2   2   1   2   2
#     4  12  23  47  70 104 138 181 239 287 342 414
#     4  12  25  45  70  98 144 186 228 286 352 411
#     4  11  24  44  73 104 139 181 235 290 342 409
#     4  11  23  44  74 102 135 177 238 289 342 404
#     4  11  26  42  69 103 138 181 234 281 348 415
#     4  10  22  42  72  98 130 180 224 282 340 408
#     4  11  25  42  72 106 138 183 234 287 347 409
#     4  11  25  47  69 102 140 184 228 289 349 416
#
# _framework density 24.920217999999998
#
# number of rings (size 3 to 8) (size 9 to 14) (size 15 to 20)
#    0.000    0.800    4.000    2.400    7.467    2.133 
#    0.000    0.667    0.000    0.000    0.000    0.000 
#    0.000    0.000    0.000    0.000    0.000    0.000 
#
# Total GULP energy -83703.062325 kJ/mol
# GULP energy per Si atom -5580.204155 kJ/mol
# Density = 2.486350 g / cm^3
# Si number density = 24.920218 Si / 1000 Ang^3
#
#
#
# Elastic Constant Matrix: (Units=GPa)
#
#
# Indices 1 2 3 4 5 6 
#
# 1 63.1167 24.7698 11.5614 -8.2813 5.7909 9.6623
# 2 24.7698 61.7536 7.5848 0.3354 10.2654 7.1993
# 3 11.5614 7.5848 88.0274 -10.5400 14.9442 13.1402
# 4 -8.2813 0.3354 -10.5400 25.1481 -0.2923 -3.5154
# 5 5.7909 10.2654 14.9442 -0.2923 39.7745 6.4185
# 6 9.6623 7.1993 13.1402 -3.5154 6.4185 13.3949
#
#
#
# Elastic Compliance Matrix: (Units=1/GPa)
#
#
# Indices 1 2 3 4 5 6 
#
# 1 0.020939 -0.007356 -0.000059 0.005595 0.000505 -0.009866
# 2 -0.007356 0.020297 0.000141 -0.003369 -0.003442 -0.004976
# 3 -0.000059 0.000141 0.014121 0.004309 -0.003515 -0.011070
# 4 0.005595 -0.003369 0.004309 0.044306 -0.002247 0.006253
# 5 0.000505 -0.003442 -0.003515 -0.002247 0.028786 -0.009449
# 6 -0.009866 -0.004976 -0.011070 0.006253 -0.009449 0.101475
#
#
# Mechanical properties :
#
#
# Convention : Reuss Voigt Hill
#
# Bulk Modulus (GPa) = 24.50442 33.41440 28.95941
# Shear Modulus (GPa) = 19.37417 26.92895 23.15156
#
# Velocity S-wave (km/s) = 2.79130 3.29082 3.05130
# Velocity P-wave (km/s) = 4.49922 5.27987 4.90510
#
# Compressibility (1/GPa) = 0.04080896
#
# Stress axis : x y z
#
# Youngs Moduli (GPa) = 47.75666 49.26790 70.81707
#
# Poissons Ratio (x) = 0.36241 0.00421
# Poissons Ratio (y) = 0.35129 -0.00998
# Poissons Ratio (z) = 0.00284 -0.00694
#
# Static dielectric constant tensor:
#      x y z
#    x 1.990180 -0.002640 -0.094240 
#    y -0.002640 1.967960 0.050850 
#    z -0.094240 0.050850 1.959190 
# 
# From -- ./inp_files/332932.got.cif
#   From: 2010.05.17/outbox.cif.g08.bks.cpg/sg2_167_cif.got.tgz:332932.got - 2010.06.03 11:33:40.
