data_PCOD9030541
_publ_section_title
;
Structure prediction by ZEFSAII (Michael W. Deem and Ramdas Pophale) SiO2 
 PCOD9030541
Probable space group: P -1
;
_chemical_formula_sum "Si O2"
_cell_formula_units_Z 16
_cell_length_a 8.128944
_cell_length_b 9.491828
_cell_length_c 16.132249
_cell_angle_alpha 142.466499
_cell_angle_beta 78.897785
_cell_angle_gamma 113.437335
_cell_volume 678.749544
_symmetry_space_group_name_H-M "P -1"
_symmetry_group_IT_number 2
_symmetry_cell_setting 'triclinic'
loop_
_space_group_symop_operation_xyz
x,y,z
-x,-y,-z
loop_
_atom_site_type_symbol
_atom_site_label
_atom_site_fract_x
_atom_site_fract_y
_atom_site_fract_z
Si Si1 0.416262 0.516944 0.388700
Si Si2 0.636617 0.061139 0.340948
Si Si3 0.991407 0.270164 0.141404
Si Si4 0.784557 0.328745 0.821776
Si Si5 0.785627 0.822184 0.599567
Si Si6 0.918110 0.440889 0.389331
Si Si7 0.325252 0.419096 0.914781
Si Si8 0.610712 0.298811 0.134616
O O1 0.340561 0.740864 0.494171
O O2 0.595723 0.682288 0.502936
O O3 0.276977 0.287422 0.352275
O O4 0.497000 0.415340 0.257553
O O5 0.709955 0.234734 0.332470
O O6 0.428022 0.860422 0.259507
O O7 0.741182 0.875154 0.240661
O O8 0.010783 0.324759 0.262305
O O9 0.807457 0.314222 0.156332
O O10 0.148366 0.483256 0.173516
O O11 0.000000 0.000000 0.000000
O O12 0.870038 0.123422 0.727262
O O13 0.809791 0.500480 0.980226
O O14 0.912781 0.704121 0.487964
O O15 0.000000 0.500000 0.500000
O O16 0.372513 0.577971 0.900047
O O17 0.500000 0.500000 0.000000
O O18 0.500000 0.000000 0.000000
#
# Coordination Sequence:
#
# PCOD9030541 Si02
#       8
#     2   2   2   2   2   2   2   2
#     4   9  18  39  67 104 128 181 233 286 345 431
#     4   9  21  42  71  96 139 187 227 287 360 427
#     4  12  29  47  70 105 151 186 247 308 358 430
#     4  10  22  42  71  97 136 188 232 294 361 420
#     4   9  18  39  69  94 140 173 229 287 352 420
#     4  11  24  44  69 103 142 192 234 294 365 430
#     4  10  23  43  69 103 143 185 238 296 360 430
#     4  12  27  42  74 104 140 192 245 294 365 432
#
# _framework density 23.572759999999999
#
# number of rings (size 3 to 8) (size 9 to 14) (size 15 to 20)
#    0.000    1.750    1.250    2.250    7.000    5.500 
#    4.500    0.000    0.000    0.000    0.000    0.000 
#    0.000    0.000    0.000    0.000    0.000    0.000 
#
# Total GULP energy -89280.040435 kJ/mol
# GULP energy per Si atom -5580.002527 kJ/mol
# Density = 2.351911 g / cm^3
# Si number density = 23.572760 Si / 1000 Ang^3
#
#
#
# Elastic Constant Matrix: (Units=GPa)
#
#
# Indices 1 2 3 4 5 6 
#
# 1 51.4865 18.6452 56.1773 -1.3774 -14.2103 -8.4714
# 2 18.6452 131.8074 92.3992 1.2346 -21.0003 0.3236
# 3 56.1773 92.3992 210.8957 5.7653 -54.7199 3.7888
# 4 -1.3774 1.2346 5.7653 49.9777 -7.0318 -9.6456
# 5 -14.2103 -21.0003 -54.7199 -7.0318 48.4153 -0.6809
# 6 -8.4714 0.3236 3.7888 -9.6456 -0.6809 30.3102
#
#
#
# Elastic Compliance Matrix: (Units=1/GPa)
#
#
# Indices 1 2 3 4 5 6 
#
# 1 0.030952 0.002241 -0.009529 0.004045 0.000031 0.011106
# 2 0.002241 0.011155 -0.005762 0.000592 -0.000910 0.001396
# 3 -0.009529 -0.005762 0.011998 -0.001206 0.008028 -0.004305
# 4 0.004045 0.000592 -0.001206 0.022365 0.003449 0.008469
# 5 0.000031 -0.000910 0.008028 0.003449 0.029855 0.000783
# 6 0.011106 0.001396 -0.004305 0.008469 0.000783 0.039332
#
#
# Mechanical properties :
#
#
# Convention : Reuss Voigt Hill
#
# Bulk Modulus (GPa) = 35.70677 80.95922 58.33300
# Shear Modulus (GPa) = 27.61060 40.87181 34.24121
#
# Velocity S-wave (km/s) = 3.42613 4.16848 3.81540
# Velocity P-wave (km/s) = 5.55261 7.58863 6.64901
#
# Compressibility (1/GPa) = 0.02800590
#
# Stress axis : x y z
#
# Youngs Moduli (GPa) = 32.30808 89.64736 83.34963
#
# Poissons Ratio (x) = -0.20092 0.79423
# Poissons Ratio (y) = -0.07241 0.48023
# Poissons Ratio (z) = 0.30786 0.51651
#
# Static dielectric constant tensor:
#      x y z
#    x 2.070020 -0.002520 -0.008110 
#    y -0.002520 1.851360 0.008150 
#    z -0.008110 0.008150 1.889210 
# 
# From -- ./inp_files/495825.got.cif
#   From: 2010.05.17/outbox.cif.g08.bks.cpg/sg2_248_cif.got.tgz:495825.got - 2010.06.03 11:33:40.
