data_PCOD9030727
_publ_section_title
;
Structure prediction by ZEFSAII (Michael W. Deem and Ramdas Pophale) SiO2 
 PCOD9030727
Probable space group: P -1
;
_chemical_formula_sum "Si O2"
_cell_formula_units_Z 12
_cell_length_a 7.539598
_cell_length_b 14.605849
_cell_length_c 11.102907
_cell_angle_alpha 29.050268
_cell_angle_beta 83.037729
_cell_angle_gamma 100.930159
_cell_volume 465.507290
_symmetry_space_group_name_H-M "P -1"
_symmetry_group_IT_number 2
_symmetry_cell_setting 'triclinic'
loop_
_space_group_symop_operation_xyz
x,y,z
-x,-y,-z
loop_
_atom_site_type_symbol
_atom_site_label
_atom_site_fract_x
_atom_site_fract_y
_atom_site_fract_z
Si Si1 0.547050 0.481803 0.708828
Si Si2 0.985463 0.713966 0.735191
Si Si3 0.731454 0.996231 0.839324
Si Si4 0.402887 0.100342 0.655876
Si Si5 0.367740 0.199864 0.278868
Si Si6 0.021569 0.735552 0.251558
O O1 0.498998 0.660498 0.552742
O O2 0.781823 0.636207 0.441349
O O3 0.542846 0.353480 0.979772
O O4 0.356103 0.267266 0.886298
O O5 0.057337 0.808831 0.484459
O O6 0.757355 0.682219 0.817952
O O7 0.176424 0.937880 0.543186
O O8 0.000000 0.500000 0.000000
O O9 0.525559 0.994454 0.814912
O O10 0.799424 0.089121 0.861539
O O11 0.445444 0.159527 0.443518
O O12 0.134898 0.906090 0.929355
O O13 0.000000 0.500000 0.500000
#
# Coordination Sequence:
#
# PCOD9030727 Si02
#       6
#     2   2   2   2   2   2
#     4  11  25  48  72 101 144 183 235 294 345 427
#     4  10  22  42  73 104 146 183 227 293 348 422
#     4  11  26  46  69 105 140 187 239 287 352 414
#     4  12  25  45  75 104 142 189 230 295 351 414
#     4  10  24  44  70 111 139 181 239 283 354 417
#     4  12  27  49  71 101 145 189 238 292 350 419
#
# _framework density 25.77833
#
# number of rings (size 3 to 8) (size 9 to 14) (size 15 to 20)
#    0.000    1.000    1.667    3.500    2.333    6.000 
#    3.000    0.000    0.000    0.000    0.000    0.000 
#    0.000    0.000    0.000    0.000    0.000    0.000 
#
# Total GULP energy -67326.655100 kJ/mol
# GULP energy per Si atom -5610.554592 kJ/mol
# Density = 2.571966 g / cm^3
# Si number density = 25.778330 Si / 1000 Ang^3
#
#
#
# Elastic Constant Matrix: (Units=GPa)
#
#
# Indices 1 2 3 4 5 6 
#
# 1 83.1170 26.7605 41.5034 14.7640 -6.5904 -1.7428
# 2 26.7605 136.3518 49.3050 2.3908 10.8151 4.5255
# 3 41.5034 49.3050 152.4276 11.2743 -2.6638 8.4911
# 4 14.7640 2.3908 11.2743 57.2654 -12.2737 -1.1306
# 5 -6.5904 10.8151 -2.6638 -12.2737 43.0206 -1.1288
# 6 -1.7428 4.5255 8.4911 -1.1306 -1.1288 38.2782
#
#
#
# Elastic Compliance Matrix: (Units=1/GPa)
#
#
# Indices 1 2 3 4 5 6 
#
# 1 0.014955 -0.001886 -0.003320 -0.002699 0.001832 0.001615
# 2 -0.001886 0.008782 -0.002335 -0.000004 -0.002661 -0.000685
# 3 -0.003320 -0.002335 0.008371 -0.000651 0.000365 -0.001741
# 4 -0.002699 -0.000004 -0.000651 0.019394 0.005100 0.000745
# 5 0.001832 -0.002661 0.000365 0.005100 0.025704 0.001226
# 6 0.001615 -0.000685 -0.001741 0.000745 0.001226 0.026723
#
#
# Mechanical properties :
#
#
# Convention : Reuss Voigt Hill
#
# Bulk Modulus (GPa) = 58.73519 67.44823 63.09171
# Shear Modulus (GPa) = 40.09992 44.66803 42.38398
#
# Velocity S-wave (km/s) = 3.94835 4.16718 4.05924
# Velocity P-wave (km/s) = 6.60455 7.02676 6.81892
#
# Compressibility (1/GPa) = 0.01702557
#
# Stress axis : x y z
#
# Youngs Moduli (GPa) = 66.86794 113.86411 119.45469
#
# Poissons Ratio (x) = 0.21475 0.39661
# Poissons Ratio (y) = 0.12612 0.27896
# Poissons Ratio (z) = 0.22202 0.26591
#
# Static dielectric constant tensor:
#      x y z
#    x 2.077970 0.011040 -0.023800 
#    y 0.011040 2.002220 0.017360 
#    z -0.023800 0.017360 2.015980 
# 
# From -- ./inp_files/396857.got.cif
#   From: 2010.05.17/outbox.cif.g08.bks.cpg/sg2_199_cif.got.tgz:396857.got - 2010.06.03 11:33:40.
