data_PCOD9030151
_publ_section_title
;
Structure prediction by ZEFSAII (Michael W. Deem and Ramdas Pophale) SiO2 
 PCOD9030151
Probable space group: P -1
;
_chemical_formula_sum "Si O2"
_cell_formula_units_Z 14
_cell_length_a 9.557468
_cell_length_b 17.721036
_cell_length_c 5.423256
_cell_angle_alpha 111.835804
_cell_angle_beta 121.504410
_cell_angle_gamma 46.721621
_cell_volume 570.008877
_symmetry_space_group_name_H-M "P -1"
_symmetry_group_IT_number 2
_symmetry_cell_setting 'triclinic'
loop_
_space_group_symop_operation_xyz
x,y,z
-x,-y,-z
loop_
_atom_site_type_symbol
_atom_site_label
_atom_site_fract_x
_atom_site_fract_y
_atom_site_fract_z
Si Si1 0.848033 0.266138 0.489470
Si Si2 0.905026 0.114997 0.993881
Si Si3 0.513672 0.843509 0.356612
Si Si4 0.181224 0.449173 0.411967
Si Si5 0.596419 0.382582 0.899042
Si Si6 0.116343 0.332572 0.828952
Si Si7 0.322858 0.053926 0.114963
O O1 0.897330 0.160484 0.313038
O O2 0.714908 0.329024 0.685238
O O3 0.050924 0.259260 0.704625
O O4 0.732171 0.325644 0.197388
O O5 0.070591 0.112063 0.965107
O O6 0.674432 0.159323 0.734980
O O7 0.000000 0.000000 0.000000
O O8 0.681100 0.736478 0.240068
O O9 0.653179 0.859078 0.676688
O O10 0.405826 0.951252 0.231554
O O11 0.389966 0.394637 0.687331
O O12 0.000000 0.500000 0.500000
O O13 0.099917 0.552886 0.307688
O O14 0.187974 0.365466 0.160487
O O15 0.500000 0.500000 0.000000
O O16 0.500000 0.000000 0.000000
#
# Coordination Sequence:
#
# PCOD9030151 Si02
#       7
#     2   2   2   2   2   2   2
#     4  12  26  48  74 108 146 201 247 308 377 445
#     4  10  23  47  70 104 147 191 248 306 375 444
#     4  10  22  43  66  97 138 183 239 296 367 439
#     4  11  26  42  67 101 142 191 240 306 366 436
#     4  12  26  46  74 106 147 192 249 305 370 445
#     4  11  24  43  70  99 143 188 245 300 367 443
#     4  10  22  42  69  99 136 182 238 302 368 438
#
# _framework density 24.561019000000002
#
# number of rings (size 3 to 8) (size 9 to 14) (size 15 to 20)
#    0.000    1.143    2.857    2.143    6.000    2.857 
#    5.143    0.000    0.000    0.000    0.000    0.000 
#    0.000    0.000    0.000    0.000    0.000    0.000 
#
# Total GULP energy -78029.940155 kJ/mol
# GULP energy per Si atom -5573.567154 kJ/mol
# Density = 2.450512 g / cm^3
# Si number density = 24.561019 Si / 1000 Ang^3
#
#
#
# Elastic Constant Matrix: (Units=GPa)
#
#
# Indices 1 2 3 4 5 6 
#
# 1 192.1227 28.4366 80.8861 16.1895 27.7063 -39.8386
# 2 28.4366 95.8321 66.2402 41.9958 -3.8497 -7.7877
# 3 80.8861 66.2402 174.0521 46.0826 14.4868 -2.6014
# 4 16.1895 41.9958 46.0826 55.2668 -6.1720 -0.2592
# 5 27.7063 -3.8497 14.4868 -6.1720 53.1486 5.1436
# 6 -39.8386 -7.7877 -2.6014 -0.2592 5.1436 36.1255
#
#
#
# Elastic Compliance Matrix: (Units=1/GPa)
#
#
# Indices 1 2 3 4 5 6 
#
# 1 0.010135 0.001016 -0.004300 -0.000688 -0.005263 0.011830
# 2 0.001016 0.018212 -0.004681 -0.010162 0.000443 0.004573
# 3 -0.004300 -0.004681 0.010649 -0.004199 -0.001017 -0.004869
# 4 -0.000688 -0.010162 -0.004199 0.030016 0.004610 -0.003693
# 5 -0.005263 0.000443 -0.001017 0.004610 0.023280 -0.009063
# 6 0.011830 0.004573 -0.004869 -0.003693 -0.009063 0.042627
#
#
# Mechanical properties :
#
#
# Convention : Reuss Voigt Hill
#
# Bulk Modulus (GPa) = 43.35382 90.34806 66.85094
# Shear Modulus (GPa) = 31.53855 48.00444 39.77149
#
# Velocity S-wave (km/s) = 3.58731 4.42577 4.02841
# Velocity P-wave (km/s) = 5.90323 7.93609 6.99391
#
# Compressibility (1/GPa) = 0.02306602
#
# Stress axis : x y z
#
# Youngs Moduli (GPa) = 98.66967 54.90950 93.90935
#
# Poissons Ratio (x) = -0.05579 0.40377
# Poissons Ratio (y) = -0.10025 0.43960
# Poissons Ratio (z) = 0.42424 0.25703
#
# Static dielectric constant tensor:
#      x y z
#    x 2.201420 -0.537200 -0.166460 
#    y -0.537200 3.476390 0.475740 
#    z -0.166460 0.475740 2.077150 
# 
# From -- ./inp_files/49110.got.cif
#   From: 2010.05.17/outbox.cif.g08.bks.cpg/sg2_25_cif.got.tgz:49110.got - 2010.06.03 11:33:40.
