data_PCOD9030952
_publ_section_title
;
Structure prediction by ZEFSAII (Michael W. Deem and Ramdas Pophale) SiO2 
 PCOD9030952
Probable space group: P -1
;
_chemical_formula_sum "Si O2"
_cell_formula_units_Z 13
_cell_length_a 5.331601
_cell_length_b 8.029523
_cell_length_c 19.112214
_cell_angle_alpha 50.079774
_cell_angle_beta 49.195856
_cell_angle_gamma 64.118866
_cell_volume 474.783043
_symmetry_space_group_name_H-M "P -1"
_symmetry_group_IT_number 2
_symmetry_cell_setting 'triclinic'
loop_
_space_group_symop_operation_xyz
x,y,z
-x,-y,-z
loop_
_atom_site_type_symbol
_atom_site_label
_atom_site_fract_x
_atom_site_fract_y
_atom_site_fract_z
Si Si1 0.827398 0.165602 0.245089
Si Si2 0.206577 0.675393 0.497363
Si Si3 0.195539 0.733992 0.329385
Si Si4 0.000000 0.500000 0.000000
Si Si5 0.344772 0.728976 0.161522
Si Si6 0.983310 0.874101 0.964130
Si Si7 0.937756 0.722684 0.674197
O O1 0.015728 0.319687 0.114640
O O2 0.439401 0.199248 0.291272
O O3 0.907496 0.232470 0.291779
O O4 0.925090 0.907245 0.301072
O O5 0.500000 0.500000 0.500000
O O6 0.249868 0.792511 0.383927
O O7 0.891522 0.519530 0.586211
O O8 0.157606 0.792427 0.548851
O O9 0.463908 0.753542 0.213594
O O10 0.247048 0.693014 0.942828
O O11 0.681092 0.692698 0.064434
O O12 0.095862 0.537474 0.254025
O O13 0.158260 0.941462 0.110350
O O14 0.000000 0.000000 0.000000
#
# Coordination Sequence:
#
# PCOD9030952 Si02
#       7
#     2   2   2   1   2   2   2
#     4  12  27  47  71 110 149 192 243 309 370 441
#     4  10  25  46  75 102 136 194 246 303 376 456
#     4  10  24  44  71 103 141 188 244 307 367 450
#     4  12  24  46  70 112 150 200 250 302 368 452
#     4  10  22  43  63 101 139 192 243 301 367 437
#     4  11  23  41  68 100 146 198 249 303 367 445
#     4  11  27  46  73 102 150 190 244 310 374 438
#
# _framework density 27.380928000000001
#
# number of rings (size 3 to 8) (size 9 to 14) (size 15 to 20)
#    0.000    1.231    3.077    0.923    8.615    4.308 
#    0.000    0.000    0.000    0.000    0.000    0.000 
#    0.000    0.000    0.000    0.000    0.000    0.000 
#
# Total GULP energy -72434.133642 kJ/mol
# GULP energy per Si atom -5571.856434 kJ/mol
# Density = 2.731861 g / cm^3
# Si number density = 27.380928 Si / 1000 Ang^3
#
#
#
# Elastic Constant Matrix: (Units=GPa)
#
#
# Indices 1 2 3 4 5 6 
#
# 1 112.4437 38.6337 67.2245 19.0424 39.0037 9.8686
# 2 38.6337 118.5236 43.4460 -22.8992 25.8143 17.8535
# 3 67.2245 43.4460 159.1420 21.4967 49.5821 15.7065
# 4 19.0424 -22.8992 21.4967 68.5394 3.6158 16.4493
# 5 39.0037 25.8143 49.5821 3.6158 46.7319 4.6171
# 6 9.8686 17.8535 15.7065 16.4493 4.6171 52.9793
#
#
#
# Elastic Compliance Matrix: (Units=1/GPa)
#
#
# Indices 1 2 3 4 5 6 
#
# 1 0.014785 -0.003204 -0.002508 -0.004239 -0.007685 0.001055
# 2 -0.003204 0.012863 -0.001818 0.007139 -0.002542 -0.005194
# 3 -0.002508 -0.001818 0.010779 -0.002730 -0.008072 -0.000565
# 4 -0.004239 0.007139 -0.002730 0.020693 0.001619 -0.007373
# 5 -0.007685 -0.002542 -0.008072 0.001619 0.037567 0.000904
# 6 0.001055 -0.005194 -0.000565 -0.007373 0.000904 0.022807
#
#
# Mechanical properties :
#
#
# Convention : Reuss Voigt Hill
#
# Bulk Modulus (GPa) = 42.79573 76.52419 59.65996
# Shear Modulus (GPa) = 35.12692 49.70379 42.41536
#
# Velocity S-wave (km/s) = 3.58564 4.26522 3.94011
# Velocity P-wave (km/s) = 5.72766 7.22944 6.52192
#
# Compressibility (1/GPa) = 0.02336682
#
# Stress axis : x y z
#
# Youngs Moduli (GPa) = 67.63804 77.74216 92.77646
#
# Poissons Ratio (x) = 0.24910 0.23264
# Poissons Ratio (y) = 0.21672 0.16867
# Poissons Ratio (z) = 0.16961 0.14133
#
# Static dielectric constant tensor:
#      x y z
#    x 2.036100 0.583250 0.075360 
#    y 0.583250 -1.452870 -0.709770 
#    z 0.075360 -0.709770 2.056560 
# 
# From -- ./inp_files/23903.got.cif
#   From: 2010.05.17/outbox.cif.g08.bks.cpg/sg2_12_cif.got.tgz:23903.got - 2010.06.03 11:33:40.
