data_PCOD9030829
_publ_section_title
;
Structure prediction by ZEFSAII (Michael W. Deem and Ramdas Pophale) SiO2 
 PCOD9030829
Probable space group: P -1
;
_chemical_formula_sum "Si O2"
_cell_formula_units_Z 12
_cell_length_a 9.455115
_cell_length_b 6.630187
_cell_length_c 10.612997
_cell_angle_alpha 108.073251
_cell_angle_beta 99.525360
_cell_angle_gamma 49.385434
_cell_volume 479.516200
_symmetry_space_group_name_H-M "P -1"
_symmetry_group_IT_number 2
_symmetry_cell_setting 'triclinic'
loop_
_space_group_symop_operation_xyz
x,y,z
-x,-y,-z
loop_
_atom_site_type_symbol
_atom_site_label
_atom_site_fract_x
_atom_site_fract_y
_atom_site_fract_z
Si Si1 0.557513 0.218666 0.075502
Si Si2 0.922636 0.692650 0.904797
Si Si3 0.326738 0.421115 0.849894
Si Si4 0.738951 0.655758 0.437980
Si Si5 0.311583 0.425769 0.303899
Si Si6 0.899787 0.954402 0.583118
O O1 0.563943 0.465136 0.127676
O O2 0.497286 0.219134 0.208533
O O3 0.598529 0.726747 0.031613
O O4 0.751909 0.985163 0.991666
O O5 0.839281 0.606698 0.772966
O O6 0.103379 0.647959 0.875433
O O7 0.000000 0.500000 0.000000
O O8 0.366893 0.266407 0.694314
O O9 0.661312 0.633782 0.554028
O O10 0.780709 0.865292 0.502831
O O11 0.926854 0.335114 0.385067
O O12 0.227554 0.739085 0.316926
O O13 0.000000 0.000000 0.500000
#
# Coordination Sequence:
#
# PCOD9030829 Si02
#       6
#     2   2   2   2   2   2
#     4  11  27  48  71 110 148 185 252 300 358 442
#     4  12  25  46  77 103 142 198 240 297 368 429
#     4  11  25  46  76 106 141 197 241 304 362 433
#     4  10  22  42  75 107 146 193 239 300 368 431
#     4  11  24  46  73 112 148 187 245 306 358 444
#     4   9  19  40  70 108 146 188 246 293 357 441
#
# _framework density 25.025221999999999
#
# number of rings (size 3 to 8) (size 9 to 14) (size 15 to 20)
#    0.000    1.333    1.667    4.000    2.333    6.000 
#    0.000    3.333    3.667    0.000    0.000    0.000 
#    0.000    0.000    0.000    0.000    0.000    0.000 
#
# Total GULP energy -67011.992154 kJ/mol
# GULP energy per Si atom -5584.332679 kJ/mol
# Density = 2.496826 g / cm^3
# Si number density = 25.025222 Si / 1000 Ang^3
#
#
#
# Elastic Constant Matrix: (Units=GPa)
#
#
# Indices 1 2 3 4 5 6 
#
# 1 97.9148 28.3618 58.8311 -6.0107 -28.2541 1.3547
# 2 28.3618 86.1646 62.0895 11.7168 -1.0699 1.9218
# 3 58.8311 62.0895 185.5246 -19.1891 -18.5480 -3.6706
# 4 -6.0107 11.7168 -19.1891 48.8676 -3.3676 -0.6831
# 5 -28.2541 -1.0699 -18.5480 -3.3676 32.1427 6.4989
# 6 1.3547 1.9218 -3.6706 -0.6831 6.4989 41.6681
#
#
#
# Elastic Compliance Matrix: (Units=1/GPa)
#
#
# Indices 1 2 3 4 5 6 
#
# 1 0.017280 -0.004184 -0.002347 0.003174 0.014594 -0.002800
# 2 -0.004184 0.018706 -0.006538 -0.008096 -0.007627 -0.000246
# 3 -0.002347 -0.006538 0.009211 0.005142 0.003424 0.000740
# 4 0.003174 -0.008096 0.005142 0.025376 0.008174 -0.000136
# 5 0.014594 -0.007627 0.003424 0.008174 0.047968 -0.007169
# 6 -0.002800 -0.000246 0.000740 -0.000136 -0.007169 0.025283
#
#
# Mechanical properties :
#
#
# Convention : Reuss Voigt Hill
#
# Bulk Modulus (GPa) = 52.47166 74.24099 63.35632
# Shear Modulus (GPa) = 28.35812 39.22381 33.79096
#
# Velocity S-wave (km/s) = 3.36993 3.96330 3.67860
# Velocity P-wave (km/s) = 6.01290 7.11860 6.58898
#
# Compressibility (1/GPa) = 0.01905791
#
# Stress axis : x y z
#
# Youngs Moduli (GPa) = 57.86940 53.45828 108.56037
#
# Poissons Ratio (x) = 0.22369 0.25483
# Poissons Ratio (y) = 0.24215 0.70980
# Poissons Ratio (z) = 0.13584 0.34953
#
# Static dielectric constant tensor:
#      x y z
#    x 1.850350 0.094710 0.056700 
#    y 0.094710 1.927250 -0.082970 
#    z 0.056700 -0.082970 1.905080 
# 
# From -- ./inp_files/31356.got.cif
#   From: 2010.05.17/outbox.cif.g08.bks.cpg/sg2_16_cif.got.tgz:31356.got - 2010.06.03 11:33:40.
