data_PCOD9030873
_publ_section_title
;
Structure prediction by ZEFSAII (Michael W. Deem and Ramdas Pophale) SiO2 
 PCOD9030873
Probable space group: P -1
;
_chemical_formula_sum "Si O2"
_cell_formula_units_Z 11
_cell_length_a 9.384258
_cell_length_b 7.704379
_cell_length_c 8.451301
_cell_angle_alpha 89.881988
_cell_angle_beta 50.921063
_cell_angle_gamma 102.806570
_cell_volume 454.341451
_symmetry_space_group_name_H-M "P -1"
_symmetry_group_IT_number 2
_symmetry_cell_setting 'triclinic'
loop_
_space_group_symop_operation_xyz
x,y,z
-x,-y,-z
loop_
_atom_site_type_symbol
_atom_site_label
_atom_site_fract_x
_atom_site_fract_y
_atom_site_fract_z
Si Si1 0.379237 0.320355 0.670591
Si Si2 0.695213 0.510700 0.956011
Si Si3 0.000000 0.500000 0.500000
Si Si4 0.946712 0.983182 0.219493
Si Si5 0.237926 0.730550 0.509610
Si Si6 0.711486 0.136031 0.879200
O O1 0.500000 0.500000 0.500000
O O2 0.231419 0.195809 0.654239
O O3 0.538623 0.222458 0.613697
O O4 0.289777 0.374603 0.894748
O O5 0.696841 0.304080 0.996906
O O6 0.853013 0.583123 0.710565
O O7 0.500000 0.500000 0.000000
O O8 0.132716 0.518078 0.576740
O O9 0.133981 0.963703 0.178146
O O10 0.860468 0.143460 0.329210
O O11 0.000000 0.000000 0.000000
O O12 0.203204 0.754830 0.343428
O O13 0.500000 0.000000 0.000000
#
# Coordination Sequence:
#
# PCOD9030873 Si02
#       6
#     2   2   1   2   2   2
#     4  12  28  45  74 110 151 190 239 314 375 433
#     4  11  24  47  75 101 144 188 250 297 364 440
#     4  10  22  42  80 100 130 190 254 294 350 426
#     4  12  28  46  70 106 151 191 241 305 372 437
#     4  11  25  47  72 100 145 192 245 290 368 440
#     4  11  26  44  74 100 136 193 244 298 354 437
#
# _framework density 24.210865999999999
#
# number of rings (size 3 to 8) (size 9 to 14) (size 15 to 20)
#    0.000    0.727    3.636    3.273   12.727    0.727 
#    0.000    0.000    0.000    0.000    0.000    0.000 
#    0.000    0.000    0.000    0.000    0.000    0.000 
#
# Total GULP energy -61297.926411 kJ/mol
# GULP energy per Si atom -5572.538765 kJ/mol
# Density = 2.415576 g / cm^3
# Si number density = 24.210866 Si / 1000 Ang^3
#
#
#
# Elastic Constant Matrix: (Units=GPa)
#
#
# Indices 1 2 3 4 5 6 
#
# 1 96.7662 33.8927 46.6439 12.1551 -31.8045 5.2834
# 2 33.8927 122.2073 56.9321 28.7985 -10.3014 22.5062
# 3 46.6439 56.9321 151.2319 43.6426 -25.2311 5.9202
# 4 12.1551 28.7985 43.6426 52.7883 6.8013 -3.7354
# 5 -31.8045 -10.3014 -25.2311 6.8013 43.4543 -5.7473
# 6 5.2834 22.5062 5.9202 -3.7354 -5.7473 48.1377
#
#
#
# Elastic Compliance Matrix: (Units=1/GPa)
#
#
# Indices 1 2 3 4 5 6 
#
# 1 0.015558 -0.002271 -0.001553 -0.002356 0.010396 0.000603
# 2 -0.002271 0.011915 -0.002343 -0.004393 -0.000225 -0.005401
# 3 -0.001553 -0.002343 0.011569 -0.008756 0.006386 -0.000074
# 4 -0.002356 -0.004393 -0.008756 0.030992 -0.012126 0.004347
# 5 0.010396 -0.000225 0.006386 -0.012126 0.036383 0.001582
# 6 0.000603 -0.005401 -0.000074 0.004347 0.001582 0.023768
#
#
# Mechanical properties :
#
#
# Convention : Reuss Voigt Hill
#
# Bulk Modulus (GPa) = 37.44259 71.68254 54.56257
# Shear Modulus (GPa) = 33.02029 44.39184 38.70607
#
# Velocity S-wave (km/s) = 3.69706 4.28664 4.00272
# Velocity P-wave (km/s) = 5.80716 7.36018 6.62930
#
# Compressibility (1/GPa) = 0.02670755
#
# Stress axis : x y z
#
# Youngs Moduli (GPa) = 64.27606 83.92492 86.44022
#
# Poissons Ratio (x) = 0.19059 0.13422
# Poissons Ratio (y) = 0.14597 0.20257
# Poissons Ratio (z) = 0.09981 0.19668
#
# Static dielectric constant tensor:
#      x y z
#    x 2.078470 -0.120840 -0.116510 
#    y -0.120840 1.455960 0.166880 
#    z -0.116510 0.166880 1.953370 
# 
# From -- ./inp_files/17458.got.cif
#   From: 2010.05.17/outbox.cif.g08.bks.cpg/sg2_9_cif.got.tgz:17458.got - 2010.06.03 11:33:40.
