data_PCOD9030515
_publ_section_title
;
Structure prediction by ZEFSAII (Michael W. Deem and Ramdas Pophale) SiO2 
 PCOD9030515
Probable space group: P -1
;
_chemical_formula_sum "Si O2"
_cell_formula_units_Z 16
_cell_length_a 8.234090
_cell_length_b 5.649097
_cell_length_c 20.262088
_cell_angle_alpha 78.028771
_cell_angle_beta 113.438118
_cell_angle_gamma 126.978110
_cell_volume 690.150544
_symmetry_space_group_name_H-M "P -1"
_symmetry_group_IT_number 2
_symmetry_cell_setting 'triclinic'
loop_
_space_group_symop_operation_xyz
x,y,z
-x,-y,-z
loop_
_atom_site_type_symbol
_atom_site_label
_atom_site_fract_x
_atom_site_fract_y
_atom_site_fract_z
Si Si1 0.128228 0.792196 0.846593
Si Si2 0.629006 0.272023 0.589106
Si Si3 0.484687 0.703590 0.934123
Si Si4 0.758893 0.417509 0.460439
Si Si5 0.074674 0.826923 0.978454
Si Si6 0.068900 0.592043 0.708585
Si Si7 0.585661 0.551894 0.197266
Si Si8 0.375564 0.272401 0.667664
O O1 0.251050 0.643155 0.896387
O O2 0.024475 0.825621 0.892828
O O3 0.001024 0.636258 0.767856
O O4 0.315307 0.125690 0.835352
O O5 0.688725 0.453455 0.519983
O O6 0.859779 0.352834 0.646689
O O7 0.543479 0.357859 0.631417
O O8 0.432799 0.926906 0.566144
O O9 0.543043 0.669803 0.870777
O O10 0.500000 0.500000 0.000000
O O11 0.671422 0.014490 0.974890
O O12 0.762637 0.618710 0.392075
O O13 0.000000 0.500000 0.500000
O O14 0.000000 0.500000 0.000000
O O15 0.000000 0.000000 0.000000
O O16 0.221998 0.484607 0.753007
O O17 0.217423 0.919879 0.679496
O O18 0.500724 0.553020 0.255576
#
# Coordination Sequence:
#
# PCOD9030515 Si02
#       8
#     2   2   2   2   2   2   2   2
#     4  10  23  44  68  95 131 187 232 284 360 426
#     4  11  24  42  68 101 135 181 226 286 341 419
#     4  11  22  43  74  93 133 187 242 281 357 441
#     4  11  25  44  69 100 141 177 227 280 350 418
#     4  12  27  42  65 106 143 176 235 313 365 425
#     4  10  24  45  68  95 138 182 233 286 348 423
#     4  10  22  42  71  93 131 184 234 288 345 429
#     4  11  23  43  67 102 135 177 231 280 354 413
#
# _framework density 23.183347999999999
#
# number of rings (size 3 to 8) (size 9 to 14) (size 15 to 20)
#    0.000    1.250    1.250    3.750    3.500    7.000 
#    6.750    0.000    0.000    0.000    0.000    0.000 
#    0.000    0.000    0.000    0.000    0.000    0.000 
#
# Total GULP energy -89328.837472 kJ/mol
# GULP energy per Si atom -5583.052342 kJ/mol
# Density = 2.313058 g / cm^3
# Si number density = 23.183348 Si / 1000 Ang^3
#
#
#
# Elastic Constant Matrix: (Units=GPa)
#
#
# Indices 1 2 3 4 5 6 
#
# 1 109.1153 12.0570 48.6928 -6.7467 -33.7879 -1.8284
# 2 12.0570 70.4951 35.0143 1.6090 6.9534 5.0076
# 3 48.6928 35.0143 145.8757 -9.5554 -27.6850 5.5799
# 4 -6.7467 1.6090 -9.5554 40.4412 -6.3826 8.0027
# 5 -33.7879 6.9534 -27.6850 -6.3826 62.1961 6.5214
# 6 -1.8284 5.0076 5.5799 8.0027 6.5214 24.0839
#
#
#
# Elastic Compliance Matrix: (Units=1/GPa)
#
#
# Indices 1 2 3 4 5 6 
#
# 1 0.012503 -0.001571 -0.002401 0.002720 0.006259 -0.000767
# 2 -0.001571 0.017455 -0.004835 -0.002872 -0.005225 -0.000259
# 3 -0.002401 -0.004835 0.010063 0.003661 0.004505 -0.003945
# 4 0.002720 -0.002872 0.003661 0.029763 0.007744 -0.012031
# 5 0.006259 -0.005225 0.004505 0.007744 0.023752 -0.008487
# 6 -0.000767 -0.000259 -0.003945 -0.012031 -0.008487 0.048727
#
#
# Mechanical properties :
#
#
# Convention : Reuss Voigt Hill
#
# Bulk Modulus (GPa) = 44.62950 57.44602 51.03776
# Shear Modulus (GPa) = 29.87816 40.65903 35.26859
#
# Velocity S-wave (km/s) = 3.59385 4.19239 3.90460
# Velocity P-wave (km/s) = 6.04264 6.94749 6.51080
#
# Compressibility (1/GPa) = 0.02240671
#
# Stress axis : x y z
#
# Youngs Moduli (GPa) = 79.98051 57.29051 99.37587
#
# Poissons Ratio (x) = 0.08999 0.23861
# Poissons Ratio (y) = 0.12563 0.48049
# Poissons Ratio (z) = 0.19204 0.27701
#
# Static dielectric constant tensor:
#      x y z
#    x 1.941080 0.013320 -0.028050 
#    y 0.013320 1.602230 -0.095810 
#    z -0.028050 -0.095810 1.844430 
# 
# From -- ./inp_files/585616.got.cif
#   From: 2010.05.17/outbox.cif.g08.bks.cpg/sg2_293_cif.got.tgz:585616.got - 2010.06.03 11:33:40.
