data_PCOD9030556
_publ_section_title
;
Structure prediction by ZEFSAII (Michael W. Deem and Ramdas Pophale) SiO2 
 PCOD9030556
Probable space group: P -1
;
_chemical_formula_sum "Si O2"
_cell_formula_units_Z 16
_cell_length_a 9.520496
_cell_length_b 9.136200
_cell_length_c 11.707191
_cell_angle_alpha 116.820828
_cell_angle_beta 51.877821
_cell_angle_gamma 112.687718
_cell_volume 706.538633
_symmetry_space_group_name_H-M "P -1"
_symmetry_group_IT_number 2
_symmetry_cell_setting 'triclinic'
loop_
_space_group_symop_operation_xyz
x,y,z
-x,-y,-z
loop_
_atom_site_type_symbol
_atom_site_label
_atom_site_fract_x
_atom_site_fract_y
_atom_site_fract_z
Si Si1 0.106132 0.896297 0.088485
Si Si2 0.770875 0.758052 0.061839
Si Si3 0.392717 0.393656 0.116615
Si Si4 0.731800 0.397422 0.067102
Si Si5 0.848596 0.927247 0.641090
Si Si6 0.357302 0.625416 0.632701
Si Si7 0.818882 0.534681 0.547058
Si Si8 0.541188 0.016194 0.217510
O O1 0.944275 0.869723 0.069163
O O2 0.086722 0.016976 0.244878
O O3 0.117512 0.715462 0.074839
O O4 0.297699 0.945375 0.944212
O O5 0.759357 0.581713 0.068491
O O6 0.598299 0.855280 0.193980
O O7 0.767730 0.714449 0.912073
O O8 0.543611 0.305718 0.073183
O O9 0.325714 0.497842 0.289244
O O10 0.500000 0.500000 0.000000
O O11 0.718673 0.405754 0.212839
O O12 0.817637 0.727029 0.582056
O O13 0.660121 0.996296 0.735318
O O14 0.000000 0.000000 0.500000
O O15 0.500000 0.500000 0.500000
O O16 0.218507 0.577970 0.584510
O O17 0.437517 0.819285 0.656984
O O18 0.000000 0.500000 0.500000
#
# Coordination Sequence:
#
# PCOD9030556 Si02
#       8
#     2   2   2   2   2   2   2   2
#     4  11  24  43  70 101 139 185 239 285 354 415
#     4  11  24  39  72 106 140 174 242 288 347 413
#     4  10  22  43  69 104 135 185 236 286 346 416
#     4  10  22  42  71  98 142 187 228 289 340 427
#     4  12  28  48  69 105 146 189 234 294 362 420
#     4  11  22  45  72  97 138 189 234 273 367 413
#     4  12  27  44  73 102 145 181 234 296 350 424
#     4  11  24  46  72 100 140 187 233 295 344 426
#
# _framework density 22.645610999999999
#
# number of rings (size 3 to 8) (size 9 to 14) (size 15 to 20)
#    0.000    1.000    2.500    3.375    7.000    4.000 
#    0.000    1.250    0.000    0.000    0.000    0.000 
#    0.000    0.000    0.000    0.000    0.000    0.000 
#
# Total GULP energy -89388.869444 kJ/mol
# GULP energy per Si atom -5586.804340 kJ/mol
# Density = 2.259407 g / cm^3
# Si number density = 22.645611 Si / 1000 Ang^3
#
#
#
# Elastic Constant Matrix: (Units=GPa)
#
#
# Indices 1 2 3 4 5 6 
#
# 1 178.2077 16.1594 27.1007 -7.9808 26.3178 12.1036
# 2 16.1594 104.7333 32.0898 3.5110 4.5517 -12.0316
# 3 27.1007 32.0898 82.8425 -4.1885 28.2339 10.5622
# 4 -7.9808 3.5110 -4.1885 36.2907 2.9837 -4.8501
# 5 26.3178 4.5517 28.2339 2.9837 54.0155 12.3061
# 6 12.1036 -12.0316 10.5622 -4.8501 12.3061 36.2810
#
#
#
# Elastic Compliance Matrix: (Units=1/GPa)
#
#
# Indices 1 2 3 4 5 6 
#
# 1 0.006296 -0.000838 -0.000677 0.001435 -0.002459 -0.001155
# 2 -0.000838 0.011962 -0.005491 -0.001364 0.001144 0.005274
# 3 -0.000677 -0.005491 0.017661 0.002550 -0.007719 -0.003777
# 4 0.001435 -0.001364 0.002550 0.029152 -0.004372 0.003706
# 5 -0.002459 0.001144 -0.007719 -0.004372 0.025185 -0.005680
# 6 -0.001155 0.005274 -0.003777 0.003706 -0.005680 0.033219
#
#
# Mechanical properties :
#
#
# Convention : Reuss Voigt Hill
#
# Bulk Modulus (GPa) = 45.64714 57.38704 51.51709
# Shear Modulus (GPa) = 34.53308 44.67968 39.60638
#
# Velocity S-wave (km/s) = 3.90928 4.44666 4.18660
# Velocity P-wave (km/s) = 6.37005 7.19445 6.79476
#
# Compressibility (1/GPa) = 0.02190718
#
# Stress axis : x y z
#
# Youngs Moduli (GPa) = 158.82298 83.60089 56.62265
#
# Poissons Ratio (x) = 0.07005 0.03834
# Poissons Ratio (y) = 0.13308 0.31090
# Poissons Ratio (z) = 0.10755 0.45902
#
# Static dielectric constant tensor:
#      x y z
#    x 1.924930 0.039010 0.027170 
#    y 0.039010 1.961140 -0.001380 
#    z 0.027170 -0.001380 1.903080 
# 
# From -- ./inp_files/383144.got.cif
#   From: 2010.05.17/outbox.cif.g08.bks.cpg/sg2_192_cif.got.tgz:383144.got - 2010.06.03 11:33:40.
