data_PCOD9030230
_publ_section_title
;
Structure prediction by ZEFSAII (Michael W. Deem and Ramdas Pophale) SiO2 
 PCOD9030230
Probable space group: P -1
;
_chemical_formula_sum "Si O2"
_cell_formula_units_Z 15
_cell_length_a 12.684127
_cell_length_b 12.842860
_cell_length_c 6.725224
_cell_angle_alpha 99.566907
_cell_angle_beta 114.588624
_cell_angle_gamma 45.544747
_cell_volume 697.725226
_symmetry_space_group_name_H-M "P -1"
_symmetry_group_IT_number 2
_symmetry_cell_setting 'triclinic'
loop_
_space_group_symop_operation_xyz
x,y,z
-x,-y,-z
loop_
_atom_site_type_symbol
_atom_site_label
_atom_site_fract_x
_atom_site_fract_y
_atom_site_fract_z
Si Si1 0.417358 0.167058 0.482505
Si Si2 0.930237 0.648893 0.594465
Si Si3 0.360061 0.882470 0.040760
Si Si4 0.211482 0.826084 0.227504
Si Si5 0.000000 0.000000 0.500000
Si Si6 0.492617 0.705450 0.691181
Si Si7 0.844014 0.378080 0.930421
Si Si8 0.096017 0.179751 0.727016
O O1 0.223675 0.280892 0.367324
O O2 0.478647 0.187222 0.736824
O O3 0.479721 0.198692 0.360102
O O4 0.500000 0.000000 0.500000
O O5 0.869040 0.766348 0.411016
O O6 0.000000 0.500000 0.500000
O O7 0.067923 0.619277 0.819978
O O8 0.249856 0.886612 0.107941
O O9 0.400356 0.784404 0.851385
O O10 0.257373 0.048553 0.938567
O O11 0.076261 0.949862 0.316161
O O12 0.375617 0.714618 0.456449
O O13 0.171604 0.737157 0.081528
O O14 0.967076 0.892907 0.422353
O O15 0.665536 0.539945 0.805711
O O16 0.957598 0.316483 0.804997
#
# Coordination Sequence:
#
# PCOD9030230 Si02
#       8
#     2   2   2   2   1   2   2   2
#     4  11  25  42  67  96 134 175 233 283 325 402
#     4  12  27  45  66 100 139 183 231 277 332 407
#     4  11  24  42  72  98 133 182 221 284 345 394
#     4  10  24  43  70 105 136 171 229 280 344 407
#     4  10  22  42  70 102 138 162 216 292 330 398
#     4  11  23  45  65  98 138 176 225 279 337 407
#     4  11  26  42  69  97 138 186 218 279 344 404
#     4  11  25  42  69 102 134 177 228 280 338 400
#
# _framework density 21.498435000000001
#
# number of rings (size 3 to 8) (size 9 to 14) (size 15 to 20)
#    0.000    1.067    1.333    3.600    5.600    9.067 
#    0.000    0.000    0.000    0.000    0.000    0.000 
#    0.000    0.000    0.000    0.000    0.000    0.000 
#
# Total GULP energy -83732.218729 kJ/mol
# GULP energy per Si atom -5582.147915 kJ/mol
# Density = 2.144950 g / cm^3
# Si number density = 21.498435 Si / 1000 Ang^3
#
#
#
# Elastic Constant Matrix: (Units=GPa)
#
#
# Indices 1 2 3 4 5 6 
#
# 1 64.8532 12.8910 39.8790 0.5832 -0.2474 5.8772
# 2 12.8910 89.8536 46.6450 14.4921 2.1712 -10.8244
# 3 39.8790 46.6450 116.5884 1.1087 14.8822 4.9238
# 4 0.5832 14.4921 1.1087 29.6164 -3.0913 5.7874
# 5 -0.2474 2.1712 14.8822 -3.0913 34.5078 -3.8832
# 6 5.8772 -10.8244 4.9238 5.7874 -3.8832 36.0156
#
#
#
# Elastic Compliance Matrix: (Units=1/GPa)
#
#
# Indices 1 2 3 4 5 6 
#
# 1 0.020036 0.000671 -0.007450 0.000225 0.003138 -0.001747
# 2 0.000671 0.017540 -0.007788 -0.009632 0.002300 0.008023
# 3 -0.007450 -0.007788 0.015199 0.003603 -0.006298 -0.004461
# 4 0.000225 -0.009632 0.003603 0.040408 0.001577 -0.009747
# 5 0.003138 0.002300 -0.006298 0.001577 0.032193 0.004258
# 6 -0.001747 0.008023 -0.004461 -0.009747 0.004258 0.033097
#
#
# Mechanical properties :
#
#
# Convention : Reuss Voigt Hill
#
# Bulk Modulus (GPa) = 42.30078 52.23614 47.26846
# Shear Modulus (GPa) = 25.57685 31.48664 28.53174
#
# Velocity S-wave (km/s) = 3.45296 3.83116 3.64697
# Velocity P-wave (km/s) = 5.96793 6.62728 6.30622
#
# Compressibility (1/GPa) = 0.02364022
#
# Stress axis : x y z
#
# Youngs Moduli (GPa) = 49.91060 57.01195 65.79243
#
# Poissons Ratio (x) = -0.03823 0.49018
# Poissons Ratio (y) = -0.03347 0.51237
# Poissons Ratio (z) = 0.37186 0.44399
#
# Static dielectric constant tensor:
#      x y z
#    x 1.762820 -0.018900 0.031370 
#    y -0.018900 1.743750 -0.027000 
#    z 0.031370 -0.027000 1.788360 
# 
# From -- ./inp_files/48336.got.cif
#   From: 2010.05.17/outbox.cif.g08.bks.cpg/sg2_25_cif.got.tgz:48336.got - 2010.06.03 11:33:40.
