data_PCOD9030441
_publ_section_title
;
Structure prediction by ZEFSAII (Michael W. Deem and Ramdas Pophale) SiO2 
 PCOD9030441
Probable space group: P -1
;
_chemical_formula_sum "Si O2"
_cell_formula_units_Z 16
_cell_length_a 9.264773
_cell_length_b 14.992466
_cell_length_c 11.311476
_cell_angle_alpha 53.900300
_cell_angle_beta 71.912170
_cell_angle_gamma 115.485608
_cell_volume 726.645936
_symmetry_space_group_name_H-M "P -1"
_symmetry_group_IT_number 2
_symmetry_cell_setting 'triclinic'
loop_
_space_group_symop_operation_xyz
x,y,z
-x,-y,-z
loop_
_atom_site_type_symbol
_atom_site_label
_atom_site_fract_x
_atom_site_fract_y
_atom_site_fract_z
Si Si1 0.869803 0.508053 0.654768
Si Si2 0.755499 0.638752 0.166642
Si Si3 0.360026 0.806431 0.915495
Si Si4 0.370654 0.440040 0.205346
Si Si5 0.798484 0.161963 0.261690
Si Si6 0.533986 0.346368 0.638138
Si Si7 0.456698 0.897427 0.204772
Si Si8 0.914085 0.068420 0.518140
O O1 0.725725 0.492454 0.804370
O O2 0.738900 0.461875 0.601472
O O3 0.158163 0.705527 0.437487
O O4 0.810357 0.347372 0.821955
O O5 0.565627 0.528520 0.189970
O O6 0.674308 0.484556 0.383992
O O7 0.686575 0.701618 0.219761
O O8 0.032292 0.803443 0.908910
O O9 0.201597 0.720355 0.900907
O O10 0.443468 0.975986 0.807486
O O11 0.626382 0.898007 0.766795
O O12 0.119368 0.219823 0.445577
O O13 0.500000 0.500000 0.000000
O O14 0.911555 0.167848 0.344890
O O15 0.500000 0.000000 0.500000
O O16 0.439492 0.166806 0.781337
O O17 0.500000 0.000000 0.000000
O O18 0.000000 0.000000 0.500000
#
# Coordination Sequence:
#
# PCOD9030441 Si02
#       8
#     2   2   2   2   2   2   2   2
#     4  11  23  43  68  97 141 181 228 284 344 420
#     4  10  22  42  70  99 142 180 235 289 350 420
#     4  11  24  43  67 101 138 181 226 292 347 414
#     4  11  21  40  70  99 129 178 232 283 346 409
#     4  10  23  42  65  97 140 180 224 288 349 412
#     4  10  23  41  68 101 135 188 227 287 354 404
#     4  12  24  39  66 100 135 177 237 277 341 420
#     4  11  23  42  67  99 138 177 233 286 353 416
#
# _framework density 22.018977
#
# number of rings (size 3 to 8) (size 9 to 14) (size 15 to 20)
#    0.000    1.250    3.750    1.875    3.500    1.000 
#    0.000    2.500    0.000    0.000    0.000    0.000 
#    0.000    0.000    0.000    0.000    0.000    0.000 
#
# Total GULP energy -89123.874534 kJ/mol
# GULP energy per Si atom -5570.242158 kJ/mol
# Density = 2.196886 g / cm^3
# Si number density = 22.018977 Si / 1000 Ang^3
#
#
#
# Elastic Constant Matrix: (Units=GPa)
#
#
# Indices 1 2 3 4 5 6 
#
# 1 105.4034 33.1339 45.6566 -1.6504 -14.5842 -8.6552
# 2 33.1339 83.1233 34.5009 -3.1486 -8.2675 -21.9761
# 3 45.6566 34.5009 126.1974 12.3806 -6.7914 -8.7541
# 4 -1.6504 -3.1486 12.3806 41.9324 -3.0744 -1.1852
# 5 -14.5842 -8.2675 -6.7914 -3.0744 37.4066 2.4688
# 6 -8.6552 -21.9761 -8.7541 -1.1852 2.4688 38.5563
#
#
#
# Elastic Compliance Matrix: (Units=1/GPa)
#
#
# Indices 1 2 3 4 5 6 
#
# 1 0.012577 -0.003041 -0.003675 0.001624 0.003693 0.000069
# 2 -0.003041 0.016975 -0.003117 0.002430 0.001655 0.008254
# 3 -0.003675 -0.003117 0.010400 -0.003495 -0.000500 -0.000316
# 4 0.001624 0.002430 -0.003495 0.025355 0.002516 0.001574
# 5 0.003693 0.001655 -0.000500 0.002516 0.028662 -0.000099
# 6 0.000069 0.008254 -0.000316 0.001574 -0.000099 0.030639
#
#
# Mechanical properties :
#
#
# Convention : Reuss Voigt Hill
#
# Bulk Modulus (GPa) = 49.29514 60.14520 54.72017
# Shear Modulus (GPa) = 33.10466 37.00790 35.05628
#
# Velocity S-wave (km/s) = 3.88165 4.10412 3.99443
# Velocity P-wave (km/s) = 6.52118 7.05924 6.79554
#
# Compressibility (1/GPa) = 0.02028598
#
# Stress axis : x y z
#
# Youngs Moduli (GPa) = 79.50900 58.90956 96.15524
#
# Poissons Ratio (x) = 0.17915 0.35334
# Poissons Ratio (y) = 0.24179 0.29975
# Poissons Ratio (z) = 0.29217 0.18364
#
# Static dielectric constant tensor:
#      x y z
#    x 1.859540 -0.026630 -0.003460 
#    y -0.026630 1.855950 0.019410 
#    z -0.003460 0.019410 1.820840 
# 
# From -- ./inp_files/398576.got.cif
#   From: 2010.05.17/outbox.cif.g08.bks.cpg/sg2_200_cif.got.tgz:398576.got - 2010.06.03 11:33:40.
