data_PCOD9030796
_publ_section_title
;
Structure prediction by ZEFSAII (Michael W. Deem and Ramdas Pophale) SiO2 
 PCOD9030796
Probable space group: P -1
;
_chemical_formula_sum "Si O2"
_cell_formula_units_Z 14
_cell_length_a 9.418656
_cell_length_b 12.776132
_cell_length_c 11.458252
_cell_angle_alpha 33.326757
_cell_angle_beta 130.180231
_cell_angle_gamma 135.964929
_cell_volume 522.977357
_symmetry_space_group_name_H-M "P -1"
_symmetry_group_IT_number 2
_symmetry_cell_setting 'triclinic'
loop_
_space_group_symop_operation_xyz
x,y,z
-x,-y,-z
loop_
_atom_site_type_symbol
_atom_site_label
_atom_site_fract_x
_atom_site_fract_y
_atom_site_fract_z
Si Si1 0.826700 0.239574 0.922236
Si Si2 0.436095 0.402402 0.782473
Si Si3 0.614824 0.782449 0.298297
Si Si4 0.775850 0.399028 0.097523
Si Si5 0.812499 0.066970 0.836652
Si Si6 0.227980 0.041574 0.543973
Si Si7 0.601859 0.277522 0.372491
O O1 0.359852 0.139677 0.404528
O O2 0.005352 0.426724 0.907389
O O3 0.853497 0.241375 0.796016
O O4 0.604459 0.227237 0.844718
O O5 0.195830 0.992793 0.840405
O O6 0.335800 0.511681 0.713110
O O7 0.367441 0.385492 0.625998
O O8 0.675227 0.493356 0.861139
O O9 0.624571 0.801150 0.425160
O O10 0.632772 0.843280 0.989325
O O11 0.641401 0.336196 0.203875
O O12 0.786196 0.192799 0.244642
O O13 0.733856 0.153574 0.603444
O O14 0.000000 0.000000 0.000000
O O15 0.000000 0.000000 0.500000
#
# Coordination Sequence:
#
# PCOD9030796 Si02
#       7
#     2   2   2   2   2   2   2
#     4  10  22  42  74 108 145 199 254 313 380 460
#     4  11  26  47  78 108 151 209 254 320 380 461
#     4  10  23  48  72 107 158 195 256 321 376 461
#     4  12  26  47  77 114 155 205 258 318 395 453
#     4  11  24  47  73 107 151 206 252 310 392 456
#     4  12  28  48  75 113 153 207 255 321 389 457
#     4  12  27  50  76 113 163 193 258 327 380 465
#
# _framework density 26.7698
#
# number of rings (size 3 to 8) (size 9 to 14) (size 15 to 20)
#    0.000    0.857    2.857    3.429    4.000    7.429 
#    0.000    0.000    0.000    0.000    0.000    0.000 
#    0.000    0.000    0.000    0.000    0.000    0.000 
#
# Total GULP energy -78370.238335 kJ/mol
# GULP energy per Si atom -5597.874167 kJ/mol
# Density = 2.670887 g / cm^3
# Si number density = 26.769800 Si / 1000 Ang^3
#
#
#
# Elastic Constant Matrix: (Units=GPa)
#
#
# Indices 1 2 3 4 5 6 
#
# 1 153.7677 56.9909 46.1605 11.6221 6.8510 -2.3960
# 2 56.9909 193.5419 55.8965 -0.9752 12.4203 -19.7015
# 3 46.1605 55.8965 95.0899 -1.3124 -3.2366 -14.9776
# 4 11.6221 -0.9752 -1.3124 36.8606 -11.7659 5.3604
# 5 6.8510 12.4203 -3.2366 -11.7659 49.9053 5.2263
# 6 -2.3960 -19.7015 -14.9776 5.3604 5.2263 66.9375
#
#
#
# Elastic Compliance Matrix: (Units=1/GPa)
#
#
# Indices 1 2 3 4 5 6 
#
# 1 0.008375 -0.001439 -0.003401 -0.003283 -0.001735 -0.000486
# 2 -0.001439 0.006756 -0.003119 -0.000291 -0.001903 0.001411
# 3 -0.003401 -0.003119 0.014401 0.002023 0.002463 0.001828
# 4 -0.003283 -0.000291 0.002023 0.031315 0.008342 -0.002910
# 5 -0.001735 -0.001903 0.002463 0.008342 0.023143 -0.002546
# 6 -0.000486 0.001411 0.001828 -0.002910 -0.002546 0.016178
#
#
# Mechanical properties :
#
#
# Convention : Reuss Voigt Hill
#
# Bulk Modulus (GPa) = 73.45573 84.49946 78.97760
# Shear Modulus (GPa) = 41.45150 49.63078 45.54114
#
# Velocity S-wave (km/s) = 3.93929 4.31046 4.12905
# Velocity P-wave (km/s) = 6.94191 7.51047 7.23178
#
# Compressibility (1/GPa) = 0.01361364
#
# Stress axis : x y z
#
# Youngs Moduli (GPa) = 119.39729 148.02566 69.44124
#
# Poissons Ratio (x) = 0.21296 0.23617
# Poissons Ratio (y) = 0.17177 0.21661
# Poissons Ratio (z) = 0.40607 0.46174
#
# Static dielectric constant tensor:
#      x y z
#    x 2.117580 0.037710 -0.049700 
#    y 0.037710 2.111740 -0.028750 
#    z -0.049700 -0.028750 2.156570 
# 
# From -- ./inp_files/427466.got.cif
#   From: 2010.05.17/outbox.cif.g08.bks.cpg/sg2_214_cif.got.tgz:427466.got - 2010.06.03 11:33:40.
