data_PCOD9030364
_publ_section_title
;
Structure prediction by ZEFSAII (Michael W. Deem and Ramdas Pophale) SiO2 
 PCOD9030364
Probable space group: P -1
;
_chemical_formula_sum "Si O2"
_cell_formula_units_Z 14
_cell_length_a 7.669451
_cell_length_b 14.798662
_cell_length_c 10.115822
_cell_angle_alpha 141.127872
_cell_angle_beta 122.565315
_cell_angle_gamma 70.889363
_cell_volume 598.068314
_symmetry_space_group_name_H-M "P -1"
_symmetry_group_IT_number 2
_symmetry_cell_setting 'triclinic'
loop_
_space_group_symop_operation_xyz
x,y,z
-x,-y,-z
loop_
_atom_site_type_symbol
_atom_site_label
_atom_site_fract_x
_atom_site_fract_y
_atom_site_fract_z
Si Si1 0.831548 0.137348 0.792980
Si Si2 0.180403 0.811837 0.850555
Si Si3 0.984637 0.649064 0.085617
Si Si4 0.244940 0.053321 0.927247
Si Si5 0.495656 0.406071 0.257660
Si Si6 0.635164 0.123239 0.446593
Si Si7 0.700352 0.697594 0.560843
O O1 0.785293 0.128715 0.918073
O O2 0.898640 0.306075 0.958037
O O3 0.664999 0.061997 0.533457
O O4 0.037827 0.067030 0.776709
O O5 0.183689 0.938706 0.889585
O O6 0.603826 0.008404 0.184276
O O7 0.942461 0.723148 0.648289
O O8 0.138242 0.773411 0.373583
O O9 0.000000 0.500000 0.000000
O O10 0.739587 0.651780 0.958978
O O11 0.645237 0.288863 0.211046
O O12 0.307302 0.212322 0.201014
O O13 0.500000 0.500000 0.500000
O O14 0.607603 0.528176 0.340063
O O15 0.455399 0.221226 0.494326
#
# Coordination Sequence:
#
# PCOD9030364 Si02
#       7
#     2   2   2   2   2   2   2
#     4   9  21  43  66  96 132 168 218 271 324 383
#     4  11  25  43  65  96 136 175 218 265 328 390
#     4  10  22  43  67  94 135 164 218 271 328 384
#     4  11  22  44  67  96 134 178 223 260 319 394
#     4  12  23  42  68  97 127 172 220 270 324 391
#     4  10  22  42  70  96 128 173 220 269 322 381
#     4  11  22  41  66  97 133 170 217 273 321 391
#
# _framework density 23.408698000000001
#
# number of rings (size 3 to 8) (size 9 to 14) (size 15 to 20)
#    0.857    0.571    1.429    5.571    0.000    1.143 
#    2.571    2.857    0.000    0.000    0.000    0.000 
#    0.000    0.000    0.000    0.000    0.000    0.000 
#
# Total GULP energy -78148.683443 kJ/mol
# GULP energy per Si atom -5582.048817 kJ/mol
# Density = 2.335542 g / cm^3
# Si number density = 23.408698 Si / 1000 Ang^3
#
#
#
# Elastic Constant Matrix: (Units=GPa)
#
#
# Indices 1 2 3 4 5 6 
#
# 1 72.2034 34.9631 28.0713 8.8520 16.8638 -8.1826
# 2 34.9631 148.7037 35.0872 -0.4689 9.3178 0.1396
# 3 28.0713 35.0872 125.1499 -9.1137 28.0235 -13.1470
# 4 8.8520 -0.4689 -9.1137 40.1149 -13.2086 2.6900
# 5 16.8638 9.3178 28.0235 -13.2086 27.1705 -7.0236
# 6 -8.1826 0.1396 -13.1470 2.6900 -7.0236 44.0116
#
#
#
# Elastic Compliance Matrix: (Units=1/GPa)
#
#
# Indices 1 2 3 4 5 6 
#
# 1 0.021028 -0.003841 -0.000732 -0.010040 -0.015379 0.001863
# 2 -0.003841 0.007942 -0.001798 0.001204 0.001826 -0.001058
# 3 -0.000732 -0.001798 0.011084 -0.000863 -0.010373 0.001578
# 4 -0.010040 0.001204 -0.000863 0.034719 0.023455 -0.000507
# 5 -0.015379 0.001826 -0.010373 0.023455 0.068749 0.003574
# 6 0.001863 -0.001058 0.001578 -0.000507 0.003574 0.024144
#
#
# Mechanical properties :
#
#
# Convention : Reuss Voigt Hill
#
# Bulk Modulus (GPa) = 36.61123 60.25556 48.43340
# Shear Modulus (GPa) = 26.38360 38.78843 32.58602
#
# Velocity S-wave (km/s) = 3.36085 4.07505 3.73506
# Velocity P-wave (km/s) = 5.54386 6.92373 6.27186
#
# Compressibility (1/GPa) = 0.02731402
#
# Stress axis : x y z
#
# Youngs Moduli (GPa) = 47.55543 125.90590 90.21874
#
# Poissons Ratio (x) = 0.48364 0.06600
# Poissons Ratio (y) = 0.18267 0.16218
# Poissons Ratio (z) = 0.03479 0.22633
#
# Static dielectric constant tensor:
#      x y z
#    x 1.886390 0.030930 0.030270 
#    y 0.030930 1.912870 -0.007060 
#    z 0.030270 -0.007060 1.933830 
# 
# From -- ./inp_files/573739.got.cif
#   From: 2010.05.17/outbox.cif.g08.bks.cpg/sg2_287_cif.got.tgz:573739.got - 2010.06.03 11:33:40.
