data_PCOD9030968
_publ_section_title
;
Structure prediction by ZEFSAII (Michael W. Deem and Ramdas Pophale) SiO2 
 PCOD9030968
Probable space group: P -1
;
_chemical_formula_sum "Si O2"
_cell_formula_units_Z 16
_cell_length_a 21.139282
_cell_length_b 17.189988
_cell_length_c 6.025656
_cell_angle_alpha 104.573908
_cell_angle_beta 74.276088
_cell_angle_gamma 162.357488
_cell_volume 638.627133
_symmetry_space_group_name_H-M "P -1"
_symmetry_group_IT_number 2
_symmetry_cell_setting 'triclinic'
loop_
_space_group_symop_operation_xyz
x,y,z
-x,-y,-z
loop_
_atom_site_type_symbol
_atom_site_label
_atom_site_fract_x
_atom_site_fract_y
_atom_site_fract_z
Si Si1 0.637207 0.257492 0.630248
Si Si2 0.737402 0.866070 0.362248
Si Si3 0.594407 0.051067 0.760316
Si Si4 0.034057 0.762015 0.888971
Si Si5 0.000813 0.126523 0.672732
Si Si6 0.443828 0.600816 0.795557
Si Si7 0.228102 0.241314 0.053439
Si Si8 0.278669 0.922473 0.013304
O O1 0.680630 0.214027 0.615208
O O2 0.422806 0.041379 0.788211
O O3 0.823936 0.517961 0.768408
O O4 0.595934 0.216146 0.377185
O O5 0.577639 0.694694 0.589041
O O6 0.685680 0.734974 0.149349
O O7 0.781214 0.999308 0.285572
O O8 0.953643 0.090835 0.438722
O O9 0.500000 0.000000 0.000000
O O10 0.749248 0.168897 0.816399
O O11 0.079529 0.731266 0.947239
O O12 0.034742 0.834395 0.119320
O O13 0.234197 0.372966 0.691246
O O14 0.836055 0.866654 0.723234
O O15 0.375820 0.485893 0.016515
O O16 0.581247 0.839521 0.869561
O O17 0.000000 0.000000 0.000000
#
# Coordination Sequence:
#
# PCOD9030968 Si02
#       8
#     2   2   2   2   2   2   2   2
#     4  10  22  44  70  93 132 171 207 268 327 382
#     4  11  24  40  61  98 131 171 225 266 324 388
#     4   9  22  44  68  99 127 167 216 260 323 393
#     4  11  24  40  64  99 133 169 215 267 320 391
#     4  10  22  43  63  91 129 172 217 270 327 383
#     4  11  22  41  65  92 128 172 218 276 321 377
#     4   9  22  43  61  92 129 172 227 269 324 384
#     4  11  23  40  66  98 130 168 221 264 325 389
#
# _framework density 25.053742
#
# number of rings (size 3 to 8) (size 9 to 14) (size 15 to 20)
#    0.000    1.750    2.500    0.375    3.500    3.000 
#    2.250    5.625    0.000    0.000    0.000    0.000 
#    0.000    0.000    0.000    0.000    0.000    0.000 
#
# Total GULP energy -89526.245962 kJ/mol
# GULP energy per Si atom -5595.390373 kJ/mol
# Density = 2.499672 g / cm^3
# Si number density = 25.053742 Si / 1000 Ang^3
#
#
#
# Elastic Constant Matrix: (Units=GPa)
#
#
# Indices 1 2 3 4 5 6 
#
# 1 104.0406 -6.3813 18.5059 -2.8525 16.0173 14.1020
# 2 -6.3813 27.5221 16.6819 9.1592 -5.4947 18.0624
# 3 18.5059 16.6819 84.4363 25.7478 -1.6272 7.3241
# 4 -2.8525 9.1592 25.7478 37.1757 3.9129 3.8652
# 5 16.0173 -5.4947 -1.6272 3.9129 43.1336 6.7105
# 6 14.1020 18.0624 7.3241 3.8652 6.7105 38.0124
#
#
#
# Elastic Compliance Matrix: (Units=1/GPa)
#
#
# Indices 1 2 3 4 5 6 
#
# 1 0.012734 0.009859 -0.005041 0.003182 -0.002662 -0.008291
# 2 0.009859 0.075997 -0.011303 -0.007381 0.012333 -0.039018
# 3 -0.005041 -0.011303 0.018087 -0.010753 0.001373 0.004607
# 4 0.003182 -0.007381 -0.010753 0.036875 -0.006142 0.001733
# 5 -0.002662 0.012333 0.001373 -0.006142 0.027818 -0.009424
# 6 -0.008291 -0.039018 0.004607 0.001733 -0.009424 0.048523
#
#
# Mechanical properties :
#
#
# Convention : Reuss Voigt Hill
#
# Bulk Modulus (GPa) = 10.65542 30.40135 20.52838
# Shear Modulus (GPa) = 18.91883 36.14383 27.53133
#
# Velocity S-wave (km/s) = 2.75094 3.80235 3.31855
# Velocity P-wave (km/s) = 3.78847 5.60695 4.78489
#
# Compressibility (1/GPa) = 0.09384896
#
# Stress axis : x y z
#
# Youngs Moduli (GPa) = 78.53111 13.15836 55.28872
#
# Poissons Ratio (x) = -0.12973 0.27871
# Poissons Ratio (y) = -0.77426 0.62491
# Poissons Ratio (z) = 0.39588 0.14873
#
# Static dielectric constant tensor:
#      x y z
#    x 1.995940 -0.018270 0.030650 
#    y -0.018270 2.018960 0.027940 
#    z 0.030650 0.027940 1.971220 
# 
# From -- ./inp_files/120077.got.cif
#   From: 2010.05.17/outbox.cif.g08.bks.cpg/sg2_61_cif.got.tgz:120077.got - 2010.06.03 11:33:40.
