data_PCOD9030421
_publ_section_title
;
Structure prediction by ZEFSAII (Michael W. Deem and Ramdas Pophale) SiO2 
 PCOD9030421
Probable space group: P -1
;
_chemical_formula_sum "Si O2"
_cell_formula_units_Z 13
_cell_length_a 11.113819
_cell_length_b 5.015868
_cell_length_c 9.645089
_cell_angle_alpha 66.523822
_cell_angle_beta 56.248896
_cell_angle_gamma 88.328080
_cell_volume 396.817397
_symmetry_space_group_name_H-M "P -1"
_symmetry_group_IT_number 2
_symmetry_cell_setting 'triclinic'
loop_
_space_group_symop_operation_xyz
x,y,z
-x,-y,-z
loop_
_atom_site_type_symbol
_atom_site_label
_atom_site_fract_x
_atom_site_fract_y
_atom_site_fract_z
Si Si1 0.500000 0.500000 0.000000
Si Si2 0.000000 0.000000 0.500000
Si Si3 0.588598 0.105138 0.611805
Si Si4 0.000000 0.000000 0.000000
Si Si5 0.294147 0.450534 0.321546
Si Si6 0.235083 0.233277 0.027537
Si Si7 0.917174 0.270819 0.293400
Si Si8 0.259280 0.906285 0.781180
O O1 0.651877 0.364350 0.888014
O O2 0.386615 0.258304 0.005741
O O3 0.867617 0.755720 0.538472
O O4 0.105782 0.759831 0.517477
O O5 0.636838 0.390183 0.618194
O O6 0.720674 0.138998 0.406227
O O7 0.586883 0.774400 0.744813
O O8 0.429556 0.100867 0.651047
O O9 0.809731 0.954511 0.052310
O O10 0.951235 0.625305 0.164714
O O11 0.254264 0.569309 0.893376
O O12 0.087920 0.168010 0.237533
O O13 0.913034 0.107260 0.170622
#
# Coordination Sequence:
#
# PCOD9030421 Si02
#       8
#     1   1   2   1   2   2   2   2
#     4  12  22  46  74 108 144 196 242 308 372 426
#     4  10  22  46  64 104 136 190 236 288 356 442
#     4  11  25  48  69 107 143 188 243 301 366 443
#     4  10  22  42  70  98 144 178 246 294 368 424
#     4  11  25  46  73 101 148 187 240 303 364 439
#     4  11  23  46  69 106 142 189 248 304 365 438
#     4  10  22  43  69  99 143 192 237 297 368 433
#     4  11  23  45  70 103 139 188 244 303 361 440
#
# _framework density 32.760660000000001
#
# number of rings (size 3 to 8) (size 9 to 14) (size 15 to 20)
#    0.000    1.231    3.077    3.231    0.000    3.077 
#   24.923    3.846    0.000    0.000    0.000    0.000 
#    0.000    0.000    0.000    0.000    0.000    0.000 
#
# Total GULP energy -72541.050718 kJ/mol
# GULP energy per Si atom -5580.080824 kJ/mol
# Density = 3.268609 g / cm^3
# Si number density = 32.760660 Si / 1000 Ang^3
#
#
#
# Elastic Constant Matrix: (Units=GPa)
#
#
# Indices 1 2 3 4 5 6 
#
# 1 295.9834 111.6445 107.0961 -16.7894 -4.8593 72.6127
# 2 111.6445 300.1164 83.2435 -28.1467 0.7765 52.8412
# 3 107.0961 83.2435 242.5160 -6.7448 -35.4850 15.6074
# 4 -16.7894 -28.1467 -6.7448 50.1573 8.5615 -12.3948
# 5 -4.8593 0.7765 -35.4850 8.5615 99.9008 -1.0439
# 6 72.6127 52.8412 15.6074 -12.3948 -1.0439 80.5260
#
#
#
# Elastic Compliance Matrix: (Units=1/GPa)
#
#
# Indices 1 2 3 4 5 6 
#
# 1 0.005308 -0.000737 -0.001903 0.000223 -0.000472 -0.003906
# 2 -0.000737 0.004386 -0.001112 0.001743 -0.000633 -0.001738
# 3 -0.001903 -0.001112 0.005530 -0.000523 0.001939 0.001318
# 4 0.000223 0.001743 -0.000523 0.021782 -0.002033 0.002083
# 5 -0.000472 -0.000633 0.001939 -0.002033 0.010858 0.000293
# 6 -0.003906 -0.001738 0.001318 0.002083 0.000293 0.017149
#
#
# Mechanical properties :
#
#
# Convention : Reuss Voigt Hill
#
# Bulk Modulus (GPa) = 129.53434 160.28711 144.91072
# Shear Modulus (GPa) = 66.58718 81.89228 74.23973
#
# Velocity S-wave (km/s) = 4.51326 5.00514 4.76555
# Velocity P-wave (km/s) = 8.17219 9.07936 8.63769
#
# Compressibility (1/GPa) = 0.00771996
#
# Stress axis : x y z
#
# Youngs Moduli (GPa) = 188.39106 228.00779 180.84282
#
# Poissons Ratio (x) = 0.16807 0.34406
# Poissons Ratio (y) = 0.13887 0.20113
# Poissons Ratio (z) = 0.35842 0.25358
#
# Static dielectric constant tensor:
#      x y z
#    x 2.866010 -0.185760 0.176950 
#    y -0.185760 2.756460 0.217370 
#    z 0.176950 0.217370 3.143810 
# 
# From -- ./inp_files/408244.got.cif
#   From: 2010.05.17/outbox.cif.g08.bks.cpg/sg2_205_cif.got.tgz:408244.got - 2010.06.03 11:33:40.
