data_PCOD9030574
_publ_section_title
;
Structure prediction by ZEFSAII (Michael W. Deem and Ramdas Pophale) SiO2 
 PCOD9030574
Probable space group: P -1
;
_chemical_formula_sum "Si O2"
_cell_formula_units_Z 14
_cell_length_a 11.745421
_cell_length_b 9.099764
_cell_length_c 7.957563
_cell_angle_alpha 77.395736
_cell_angle_beta 107.932265
_cell_angle_gamma 139.980078
_cell_volume 520.139406
_symmetry_space_group_name_H-M "P -1"
_symmetry_group_IT_number 2
_symmetry_cell_setting 'triclinic'
loop_
_space_group_symop_operation_xyz
x,y,z
-x,-y,-z
loop_
_atom_site_type_symbol
_atom_site_label
_atom_site_fract_x
_atom_site_fract_y
_atom_site_fract_z
Si Si1 0.684319 0.037265 0.816739
Si Si2 0.900882 0.723804 0.649925
Si Si3 0.934176 0.763892 0.026261
Si Si4 0.391881 0.508872 0.827342
Si Si5 0.666647 0.746050 0.434283
Si Si6 0.296673 0.931710 0.783690
Si Si7 0.209502 0.649830 0.519121
O O1 0.701517 0.175573 0.641095
O O2 0.886991 0.161306 0.877037
O O3 0.541175 0.770896 0.769684
O O4 0.658330 0.050175 0.003254
O O5 0.847573 0.852244 0.582477
O O6 0.798762 0.528540 0.510390
O O7 0.103881 0.843239 0.707271
O O8 0.850508 0.641525 0.838915
O O9 0.777317 0.582614 0.130268
O O10 0.000000 0.000000 0.000000
O O11 0.307495 0.305501 0.719243
O O12 0.500000 0.500000 0.000000
O O13 0.500000 0.500000 0.500000
O O14 0.596958 0.846428 0.337397
O O15 0.298832 0.788339 0.700998
O O16 0.000000 0.500000 0.500000
#
# Coordination Sequence:
#
# PCOD9030574 Si02
#       7
#     2   2   2   2   2   2   2
#     4  11  24  45  71 102 141 181 237 285 345 416
#     4  10  24  43  65 102 135 177 236 274 351 415
#     4  11  23  39  71 104 135 179 225 289 348 409
#     4  12  22  41  66 104 139 175 228 288 353 402
#     4  12  24  40  69  99 139 177 224 299 342 408
#     4  10  22  42  72 100 133 181 230 287 348 405
#     4  10  24  45  72  99 140 189 228 285 346 421
#
# _framework density 26.915859999999999
#
# number of rings (size 3 to 8) (size 9 to 14) (size 15 to 20)
#    0.000    1.143    2.857    3.000    6.000    5.143 
#    0.000    3.571    0.000    0.000    0.000    0.000 
#    0.000    0.000    0.000    0.000    0.000    0.000 
#
# Total GULP energy -78224.303524 kJ/mol
# GULP energy per Si atom -5587.450252 kJ/mol
# Density = 2.685460 g / cm^3
# Si number density = 26.915860 Si / 1000 Ang^3
#
#
#
# Elastic Constant Matrix: (Units=GPa)
#
#
# Indices 1 2 3 4 5 6 
#
# 1 108.7664 26.5935 26.3265 -3.3496 -5.3405 -4.6936
# 2 26.5935 116.3669 45.4315 -10.4754 -6.9769 -8.9215
# 3 26.3265 45.4315 125.3336 14.0674 -15.9909 -18.0998
# 4 -3.3496 -10.4754 14.0674 54.3640 -4.6312 -0.8722
# 5 -5.3405 -6.9769 -15.9909 -4.6312 40.2932 0.9198
# 6 -4.6936 -8.9215 -18.0998 -0.8722 0.9198 58.5593
#
#
#
# Elastic Compliance Matrix: (Units=1/GPa)
#
#
# Indices 1 2 3 4 5 6 
#
# 1 0.010005 -0.001582 -0.001532 0.000755 0.000529 0.000090
# 2 -0.001582 0.010763 -0.003790 0.003005 0.000487 0.000379
# 3 -0.001532 -0.003790 0.010795 -0.003323 0.002985 0.002540
# 4 0.000755 0.003005 -0.003323 0.020013 0.001607 -0.000236
# 5 0.000529 0.000487 0.002985 0.001607 0.026327 0.000650
# 6 0.000090 0.000379 0.002540 -0.000236 0.000650 0.017913
#
#
# Mechanical properties :
#
#
# Convention : Reuss Voigt Hill
#
# Bulk Modulus (GPa) = 56.32087 60.79666 58.55876
# Shear Modulus (GPa) = 43.27442 47.45102 45.36272
#
# Velocity S-wave (km/s) = 4.01405 4.20329 4.10976
# Velocity P-wave (km/s) = 6.51565 6.79659 6.65760
#
# Compressibility (1/GPa) = 0.01775541
#
# Stress axis : x y z
#
# Youngs Moduli (GPa) = 99.95284 92.90895 92.63609
#
# Poissons Ratio (x) = 0.14694 0.14196
# Poissons Ratio (y) = 0.15808 0.35107
# Poissons Ratio (z) = 0.15317 0.35210
#
# Static dielectric constant tensor:
#      x y z
#    x 2.154320 -0.086030 0.048830 
#    y -0.086030 2.431130 0.019900 
#    z 0.048830 0.019900 2.219410 
# 
# From -- ./inp_files/243597.got.cif
#   From: 2010.05.17/outbox.cif.g08.bks.cpg/sg2_122_cif.got.tgz:243597.got - 2010.06.03 11:33:40.
