data_PCOD9030781
_publ_section_title
;
Structure prediction by ZEFSAII (Michael W. Deem and Ramdas Pophale) SiO2 
 PCOD9030781
Probable space group: P -1
;
_chemical_formula_sum "Si O2"
_cell_formula_units_Z 13
_cell_length_a 9.303726
_cell_length_b 12.883749
_cell_length_c 12.389840
_cell_angle_alpha 59.779973
_cell_angle_beta 132.180599
_cell_angle_gamma 80.625994
_cell_volume 592.512508
_symmetry_space_group_name_H-M "P -1"
_symmetry_group_IT_number 2
_symmetry_cell_setting 'triclinic'
loop_
_space_group_symop_operation_xyz
x,y,z
-x,-y,-z
loop_
_atom_site_type_symbol
_atom_site_label
_atom_site_fract_x
_atom_site_fract_y
_atom_site_fract_z
Si Si1 0.395767 0.963570 0.869882
Si Si2 0.664121 0.605163 0.293132
Si Si3 0.681015 0.372500 0.265660
Si Si4 0.500000 0.000000 0.500000
Si Si5 0.439977 0.712714 0.362808
Si Si6 0.635386 0.659186 0.724409
Si Si7 0.216289 0.096528 0.078226
O O1 0.649937 0.871541 0.955454
O O2 0.417961 0.819325 0.006042
O O3 0.048118 0.163051 0.548001
O O4 0.500000 0.000000 0.000000
O O5 0.653808 0.491025 0.277471
O O6 0.616277 0.607603 0.394521
O O7 0.000000 0.500000 0.500000
O O8 0.502686 0.349199 0.242881
O O9 0.500000 0.500000 0.000000
O O10 0.479732 0.864345 0.543028
O O11 0.693806 0.891670 0.767956
O O12 0.579470 0.625292 0.597379
O O13 0.374444 0.889566 0.238188
O O14 0.140375 0.771477 0.175680
O O15 0.000000 0.500000 0.000000
#
# Coordination Sequence:
#
# PCOD9030781 Si02
#       7
#     2   2   2   1   2   2   2
#     4  12  24  47  76 104 148 190 244 308 365 438
#     4  12  27  46  78 109 146 196 246 304 378 442
#     4  12  31  49  71 114 154 195 249 305 373 445
#     4  10  26  44  74 102 142 188 242 290 386 414
#     4  10  23  44  73 106 142 183 252 304 361 438
#     4  11  28  48  72 104 151 193 246 308 362 443
#     4  10  22  42  74 104 139 186 243 300 361 442
#
# _framework density 21.940463000000001
#
# number of rings (size 3 to 8) (size 9 to 14) (size 15 to 20)
#    0.000    0.923    3.077    0.923   15.077    1.231 
#    0.000    0.000    0.000    0.000    0.000    0.000 
#    0.000    0.000    0.000    0.000    0.000    0.000 
#
# Total GULP energy -72435.430411 kJ/mol
# GULP energy per Si atom -5571.956185 kJ/mol
# Density = 2.189053 g / cm^3
# Si number density = 21.940463 Si / 1000 Ang^3
#
#
#
# Elastic Constant Matrix: (Units=GPa)
#
#
# Indices 1 2 3 4 5 6 
#
# 1 147.5394 25.1140 56.5117 5.9665 -4.9906 -12.7591
# 2 25.1140 92.6614 15.9443 13.3921 -7.5050 -4.5587
# 3 56.5117 15.9443 96.5386 18.9569 -12.7299 -30.3179
# 4 5.9665 13.3921 18.9569 47.7032 0.0601 -18.5444
# 5 -4.9906 -7.5050 -12.7299 0.0601 34.6701 1.4213
# 6 -12.7591 -4.5587 -30.3179 -18.5444 1.4213 33.6410
#
#
#
# Elastic Compliance Matrix: (Units=1/GPa)
#
#
# Indices 1 2 3 4 5 6 
#
# 1 0.009121 -0.001794 -0.005856 0.001157 -0.001171 -0.001374
# 2 -0.001794 0.011970 -0.000392 -0.003553 0.002255 -0.001465
# 3 -0.005856 -0.000392 0.019289 -0.001333 0.005577 0.014139
# 4 0.001157 -0.003553 -0.001333 0.027863 -0.001722 0.014188
# 5 -0.001171 0.002255 0.005577 -0.001722 0.031106 0.002624
# 6 -0.001374 -0.001465 0.014139 0.014188 0.002624 0.049458
#
#
# Mechanical properties :
#
#
# Convention : Reuss Voigt Hill
#
# Bulk Modulus (GPa) = 41.16017 59.09772 50.12895
# Shear Modulus (GPa) = 28.90343 39.14749 34.02546
#
# Velocity S-wave (km/s) = 3.63348 4.22863 3.94230
# Velocity P-wave (km/s) = 6.03354 7.12992 6.60452
#
# Compressibility (1/GPa) = 0.02429533
#
# Stress axis : x y z
#
# Youngs Moduli (GPa) = 109.63601 83.54424 51.84336
#
# Poissons Ratio (x) = 0.14989 0.30361
# Poissons Ratio (y) = 0.19670 0.02031
# Poissons Ratio (z) = 0.64205 0.03273
#
# Static dielectric constant tensor:
#      x y z
#    x 1.735860 -0.035270 -0.017180 
#    y -0.035270 1.827400 -0.057760 
#    z -0.017180 -0.057760 1.835160 
# 
# From -- ./inp_files/189271.got.cif
#   From: 2010.05.17/outbox.cif.g08.bks.cpg/sg2_95_cif.got.tgz:189271.got - 2010.06.03 11:33:40.
