data_PCOD9030489
_publ_section_title
;
Structure prediction by ZEFSAII (Michael W. Deem and Ramdas Pophale) SiO2 
 PCOD9030489
Probable space group: P -1
;
_chemical_formula_sum "Si O2"
_cell_formula_units_Z 14
_cell_length_a 17.580205
_cell_length_b 10.549201
_cell_length_c 9.845797
_cell_angle_alpha 44.061900
_cell_angle_beta 49.609238
_cell_angle_gamma 28.364177
_cell_volume 602.591286
_symmetry_space_group_name_H-M "P -1"
_symmetry_group_IT_number 2
_symmetry_cell_setting 'triclinic'
loop_
_space_group_symop_operation_xyz
x,y,z
-x,-y,-z
loop_
_atom_site_type_symbol
_atom_site_label
_atom_site_fract_x
_atom_site_fract_y
_atom_site_fract_z
Si Si1 0.210298 0.052956 0.540812
Si Si2 0.458756 0.332586 0.686767
Si Si3 0.189456 0.512841 0.241769
Si Si4 0.489032 0.874417 0.926247
Si Si5 0.077357 0.060973 0.957593
Si Si6 0.866587 0.062412 0.528863
Si Si7 0.164693 0.169433 0.023840
O O1 0.391494 0.782790 0.475822
O O2 0.168407 0.987485 0.769217
O O3 0.099013 0.137324 0.478796
O O4 0.181876 0.304219 0.430924
O O5 0.281624 0.615971 0.612904
O O6 0.499034 0.065442 0.817371
O O7 0.472866 0.315327 0.847132
O O8 0.369076 0.329230 0.189276
O O9 0.098242 0.823257 0.165506
O O10 0.111220 0.635405 0.086296
O O11 0.313989 0.089199 0.908152
O O12 0.141191 0.104664 0.960363
O O13 0.000000 0.000000 0.500000
O O14 0.800635 0.031918 0.749024
O O15 0.000000 0.500000 0.000000
#
# Coordination Sequence:
#
# PCOD9030489 Si02
#       7
#     2   2   2   2   2   2   2
#     4  11  23  47  72  99 142 190 236 289 352 430
#     4  10  22  42  71 105 135 189 234 286 356 426
#     4  10  24  44  70 102 135 193 237 282 353 429
#     4  10  22  44  73  99 143 182 237 293 350 427
#     4  11  26  44  71 100 149 183 239 287 355 431
#     4  12  26  41  71 107 144 180 243 297 348 418
#     4  12  27  46  68 107 144 183 232 303 361 409
#
# _framework density 23.232994999999999
#
# number of rings (size 3 to 8) (size 9 to 14) (size 15 to 20)
#    0.000    1.143    1.429    3.429   12.000    0.571 
#    2.571    1.429    0.000    0.000    0.000    0.000 
#    0.000    0.000    0.000    0.000    0.000    0.000 
#
# Total GULP energy -78006.705554 kJ/mol
# GULP energy per Si atom -5571.907540 kJ/mol
# Density = 2.318012 g / cm^3
# Si number density = 23.232995 Si / 1000 Ang^3
#
#
#
# Elastic Constant Matrix: (Units=GPa)
#
#
# Indices 1 2 3 4 5 6 
#
# 1 119.5135 31.7814 22.4378 33.9237 1.3550 -16.2679
# 2 31.7814 91.4970 29.9971 1.1170 -11.8599 -26.8764
# 3 22.4378 29.9971 58.0485 6.3448 -17.9194 -5.6521
# 4 33.9237 1.1170 6.3448 37.2866 -7.1032 -4.6843
# 5 1.3550 -11.8599 -17.9194 -7.1032 39.1706 6.5294
# 6 -16.2679 -26.8764 -5.6521 -4.6843 6.5294 41.5360
#
#
#
# Elastic Compliance Matrix: (Units=1/GPa)
#
#
# Indices 1 2 3 4 5 6 
#
# 1 0.014079 -0.003643 -0.003799 -0.012934 -0.006029 0.002129
# 2 -0.003643 0.017224 -0.006652 0.005414 0.001755 0.009148
# 3 -0.003799 -0.006652 0.024830 0.000898 0.010294 -0.003930
# 4 -0.012934 0.005414 0.000898 0.040290 0.009536 0.001604
# 5 -0.006029 0.001755 0.010294 0.009536 0.033374 -0.003996
# 6 0.002129 0.009148 -0.003930 0.001604 -0.003996 0.031103
#
#
# Mechanical properties :
#
#
# Convention : Reuss Voigt Hill
#
# Bulk Modulus (GPa) = 35.78520 48.61017 42.19769
# Shear Modulus (GPa) = 25.20128 35.92149 30.56139
#
# Velocity S-wave (km/s) = 3.29708 3.93637 3.63082
# Velocity P-wave (km/s) = 5.47088 6.45200 5.98159
#
# Compressibility (1/GPa) = 0.02794451
#
# Stress axis : x y z
#
# Youngs Moduli (GPa) = 71.02867 58.05898 40.27387
#
# Poissons Ratio (x) = 0.21150 0.15302
# Poissons Ratio (y) = 0.25874 0.26789
# Poissons Ratio (z) = 0.26987 0.38620
#
# Static dielectric constant tensor:
#      x y z
#    x 1.854080 -0.100650 -0.047300 
#    y -0.100650 1.593700 0.026260 
#    z -0.047300 0.026260 1.900540 
# 
# From -- ./inp_files/463482.got.cif
#   From: 2010.05.17/outbox.cif.g08.bks.cpg/sg2_232_cif.got.tgz:463482.got - 2010.06.03 11:33:40.
