data_PCOD9030973
_publ_section_title
;
Structure prediction by ZEFSAII (Michael W. Deem and Ramdas Pophale) SiO2 
 PCOD9030973
Probable space group: P -1
;
_chemical_formula_sum "Si O2"
_cell_formula_units_Z 16
_cell_length_a 5.451679
_cell_length_b 20.671879
_cell_length_c 8.993033
_cell_angle_alpha 134.797760
_cell_angle_beta 72.805021
_cell_angle_gamma 120.532851
_cell_volume 616.214439
_symmetry_space_group_name_H-M "P -1"
_symmetry_group_IT_number 2
_symmetry_cell_setting 'triclinic'
loop_
_space_group_symop_operation_xyz
x,y,z
-x,-y,-z
loop_
_atom_site_type_symbol
_atom_site_label
_atom_site_fract_x
_atom_site_fract_y
_atom_site_fract_z
Si Si1 0.339015 0.748736 0.348238
Si Si2 0.634801 0.254074 0.312802
Si Si3 0.702819 0.677146 0.732741
Si Si4 0.272941 0.566863 0.878579
Si Si5 0.198729 0.139703 0.772034
Si Si6 0.321698 0.022054 0.942491
Si Si7 0.199553 0.941511 0.534027
Si Si8 0.807490 0.588488 0.119490
O O1 0.423967 0.768194 0.536061
O O2 0.406420 0.654480 0.125558
O O3 0.508500 0.829309 0.322051
O O4 0.996401 0.706329 0.316648
O O5 0.469570 0.314756 0.369172
O O6 0.509081 0.142950 0.074780
O O7 0.979988 0.314577 0.331004
O O8 0.483278 0.589554 0.740374
O O9 0.761704 0.778887 0.979776
O O10 0.985793 0.581352 0.929701
O O11 0.153281 0.459342 0.806617
O O12 0.077010 0.028014 0.684980
O O13 0.996437 0.142810 0.680858
O O14 0.262893 0.939042 0.690043
O O15 0.500000 0.000000 0.000000
O O16 0.000000 0.000000 0.000000
O O17 0.500000 0.000000 0.500000
O O18 0.500000 0.500000 0.000000
#
# Coordination Sequence:
#
# PCOD9030973 Si02
#       8
#     2   2   2   2   2   2   2   2
#     4   9  21  41  62  95 122 169 214 265 324 385
#     4  12  25  43  63  95 135 169 216 266 331 390
#     4  11  24  43  65  93 131 175 211 268 327 387
#     4   8  20  40  64  94 120 166 214 256 321 378
#     4  10  22  43  63  92 127 170 224 272 318 383
#     4  12  27  44  66  91 134 180 216 270 338 386
#     4  11  24  40  65  94 125 169 227 277 314 382
#     4   9  18  38  69  94 125 160 219 266 317 387
#
# _framework density 25.964988999999999
#
# number of rings (size 3 to 8) (size 9 to 14) (size 15 to 20)
#    0.750    1.000    1.250    2.250    7.000    1.000 
#    2.250    1.250    0.000    0.000    0.000    0.000 
#    0.000    0.000    0.000    0.000    0.000    0.000 
#
# Total GULP energy -89177.167713 kJ/mol
# GULP energy per Si atom -5573.572982 kJ/mol
# Density = 2.590589 g / cm^3
# Si number density = 25.964989 Si / 1000 Ang^3
#
#
#
# Elastic Constant Matrix: (Units=GPa)
#
#
# Indices 1 2 3 4 5 6 
#
# 1 116.6904 38.5412 32.0781 -10.9295 29.5156 22.4844
# 2 38.5412 100.8885 -1.4311 -1.0401 9.8160 10.1593
# 3 32.0781 -1.4311 104.7339 -10.0675 22.5807 5.5451
# 4 -10.9295 -1.0401 -10.0675 32.2728 3.6679 5.5195
# 5 29.5156 9.8160 22.5807 3.6679 44.6991 -0.9435
# 6 22.4844 10.1593 5.5451 5.5195 -0.9435 55.8053
#
#
#
# Elastic Compliance Matrix: (Units=1/GPa)
#
#
# Indices 1 2 3 4 5 6 
#
# 1 0.014026 -0.003981 -0.001741 0.005938 -0.008111 -0.005478
# 2 -0.003981 0.011581 0.001526 -0.000314 -0.000673 -0.000636
# 3 -0.001741 0.001526 0.011723 0.003946 -0.005457 -0.001224
# 4 0.005938 -0.000314 0.003946 0.036343 -0.008964 -0.006473
# 5 -0.008111 -0.000673 -0.005457 -0.008964 0.031481 0.005352
# 6 -0.005478 -0.000636 -0.001224 -0.006473 0.005352 0.021095
#
#
# Mechanical properties :
#
#
# Convention : Reuss Voigt Hill
#
# Bulk Modulus (GPa) = 34.55609 51.18769 42.87189
# Shear Modulus (GPa) = 34.65327 43.43041 39.04184
#
# Velocity S-wave (km/s) = 3.65720 4.09424 3.88188
# Velocity P-wave (km/s) = 5.58311 6.48902 6.05304
#
# Compressibility (1/GPa) = 0.02893846
#
# Stress axis : x y z
#
# Youngs Moduli (GPa) = 71.29418 86.35028 85.30420
#
# Poissons Ratio (x) = 0.34376 0.14851
# Poissons Ratio (y) = 0.28382 -0.13019
# Poissons Ratio (z) = 0.12412 -0.13179
#
# Static dielectric constant tensor:
#      x y z
#    x 2.334380 -0.048730 -0.024110 
#    y -0.048730 1.999840 -0.055320 
#    z -0.024110 -0.055320 1.869660 
# 
# From -- ./inp_files/142983.got.cif
#   From: 2010.05.17/outbox.cif.g08.bks.cpg/sg2_72_cif.got.tgz:142983.got - 2010.06.03 11:33:40.
