data_PCOD9030536
_publ_section_title
;
Structure prediction by ZEFSAII (Michael W. Deem and Ramdas Pophale) SiO2 
 PCOD9030536
Probable space group: P -1
;
_chemical_formula_sum "Si O2"
_cell_formula_units_Z 16
_cell_length_a 14.212941
_cell_length_b 23.970938
_cell_length_c 9.375736
_cell_angle_alpha 150.800788
_cell_angle_beta 51.222147
_cell_angle_gamma 148.651030
_cell_volume 715.756722
_symmetry_space_group_name_H-M "P -1"
_symmetry_group_IT_number 2
_symmetry_cell_setting 'triclinic'
loop_
_space_group_symop_operation_xyz
x,y,z
-x,-y,-z
loop_
_atom_site_type_symbol
_atom_site_label
_atom_site_fract_x
_atom_site_fract_y
_atom_site_fract_z
Si Si1 0.362602 0.622578 0.094946
Si Si2 0.283297 0.550269 0.500274
Si Si3 0.003706 0.004502 0.179618
Si Si4 0.692354 0.957737 0.038469
Si Si5 0.599482 0.586567 0.755201
Si Si6 0.250557 0.973018 0.523538
Si Si7 0.050179 0.429080 0.198609
Si Si8 0.037520 0.405741 0.685332
O O1 0.227581 0.578506 0.245899
O O2 0.550027 0.841091 0.342649
O O3 0.468120 0.583919 0.952696
O O4 0.200352 0.471535 0.785164
O O5 0.385476 0.517793 0.404121
O O6 0.146135 0.416341 0.196405
O O7 0.143385 0.497333 0.637424
O O8 0.463338 0.775966 0.793071
O O9 0.939639 0.085324 0.452942
O O10 0.825645 0.801558 0.980101
O O11 0.202209 0.081084 0.195206
O O12 0.000000 0.000000 0.000000
O O13 0.685825 0.961546 0.226037
O O14 0.837131 0.174129 0.342652
O O15 0.500000 0.500000 0.500000
O O16 0.151565 0.776055 0.142229
O O17 0.000000 0.500000 0.500000
O O18 0.000000 0.500000 0.000000
#
# Coordination Sequence:
#
# PCOD9030536 Si02
#       8
#     2   2   2   2   2   2   2   2
#     4  11  23  45  70  97 133 186 223 280 345 399
#     4  12  26  42  68 109 134 176 231 288 341 398
#     4   9  18  34  64 102 132 167 217 278 341 399
#     4  11  21  40  70 103 133 172 227 287 339 401
#     4  11  19  39  69 103 140 163 226 293 338 402
#     4  10  22  42  71  97 131 183 227 273 344 408
#     4  12  29  48  65  96 146 188 228 274 341 412
#     4  12  24  41  69 101 135 179 235 282 327 405
#
# _framework density 22.353961999999999
#
# number of rings (size 3 to 8) (size 9 to 14) (size 15 to 20)
#    0.000    1.000    5.000    2.250    3.500    3.500 
#    0.000    1.250    0.000    0.000    0.000    0.000 
#    0.000    0.000    0.000    0.000    0.000    0.000 
#
# Total GULP energy -89399.455239 kJ/mol
# GULP energy per Si atom -5587.465952 kJ/mol
# Density = 2.230308 g / cm^3
# Si number density = 22.353962 Si / 1000 Ang^3
#
#
#
# Elastic Constant Matrix: (Units=GPa)
#
#
# Indices 1 2 3 4 5 6 
#
# 1 46.9928 0.9421 1.6675 3.0385 0.6687 2.4008
# 2 0.9421 128.9797 32.5140 -2.2178 -6.7500 16.2928
# 3 1.6675 32.5140 72.3451 2.4038 -4.9708 9.5994
# 4 3.0385 -2.2178 2.4038 28.7634 -3.5857 -3.1654
# 5 0.6687 -6.7500 -4.9708 -3.5857 32.0406 -6.2970
# 6 2.4008 16.2928 9.5994 -3.1654 -6.2970 17.0508
#
#
#
# Elastic Compliance Matrix: (Units=1/GPa)
#
#
# Indices 1 2 3 4 5 6 
#
# 1 0.021717 0.000280 -0.000049 -0.002957 -0.001605 -0.004439
# 2 0.000280 0.009505 -0.003326 0.000203 0.000093 -0.007177
# 3 -0.000049 -0.003326 0.016247 -0.002255 0.000339 -0.006255
# 4 -0.002957 0.000203 -0.002255 0.037200 0.006004 0.010615
# 5 -0.001605 0.000093 0.000339 0.006004 0.034716 0.013882
# 6 -0.004439 -0.007177 -0.006255 0.010615 0.013882 0.076750
#
#
# Mechanical properties :
#
#
# Convention : Reuss Voigt Hill
#
# Bulk Modulus (GPa) = 24.22670 35.39609 29.81140
# Shear Modulus (GPa) = 23.13907 29.78389 26.46148
#
# Velocity S-wave (km/s) = 3.22082 3.65413 3.44430
# Velocity P-wave (km/s) = 4.96919 5.80279 5.40209
#
# Compressibility (1/GPa) = 0.04127678
#
# Stress axis : x y z
#
# Youngs Moduli (GPa) = 46.04718 105.21311 61.55044
#
# Poissons Ratio (x) = -0.02943 0.00303
# Poissons Ratio (y) = -0.01288 0.20473
# Poissons Ratio (z) = 0.00227 0.34995
#
# Static dielectric constant tensor:
#      x y z
#    x 1.926900 0.023330 -0.055650 
#    y 0.023330 1.800020 -0.004720 
#    z -0.055650 -0.004720 1.810710 
# 
# From -- ./inp_files/207177.got.cif
#   From: 2010.05.17/outbox.cif.g08.bks.cpg/sg2_104_cif.got.tgz:207177.got - 2010.06.03 11:33:40.
