data_PCOD9030338
_publ_section_title
;
Structure prediction by ZEFSAII (Michael W. Deem and Ramdas Pophale) SiO2 
 PCOD9030338
Probable space group: P -1
;
_chemical_formula_sum "Si O2"
_cell_formula_units_Z 16
_cell_length_a 14.532073
_cell_length_b 9.060779
_cell_length_c 11.730022
_cell_angle_alpha 85.460064
_cell_angle_beta 146.983694
_cell_angle_gamma 84.070076
_cell_volume 796.943888
_symmetry_space_group_name_H-M "P -1"
_symmetry_group_IT_number 2
_symmetry_cell_setting 'triclinic'
loop_
_space_group_symop_operation_xyz
x,y,z
-x,-y,-z
loop_
_atom_site_type_symbol
_atom_site_label
_atom_site_fract_x
_atom_site_fract_y
_atom_site_fract_z
Si Si1 0.719929 0.174970 0.012156
Si Si2 0.938423 0.565767 0.058592
Si Si3 0.669695 0.399743 0.748972
Si Si4 0.859760 0.314319 0.352799
Si Si5 0.935867 0.167904 0.864427
Si Si6 0.837183 0.589317 0.477619
Si Si7 0.890047 0.056750 0.584373
Si Si8 0.429625 0.073538 0.801434
O O1 0.632252 0.292095 0.813946
O O2 0.608579 0.055271 0.917627
O O3 0.727487 0.272155 0.128794
O O4 0.926607 0.084988 0.204046
O O5 0.915512 0.748488 0.014740
O O6 0.077452 0.488065 0.308780
O O7 0.766285 0.512736 0.901810
O O8 0.000000 0.500000 0.000000
O O9 0.500000 0.500000 0.500000
O O10 0.800073 0.285271 0.800939
O O11 0.792820 0.461512 0.358890
O O12 0.921792 0.163154 0.508004
O O13 0.016008 0.349865 0.439823
O O14 0.854471 0.150415 0.659244
O O15 0.000000 0.000000 0.000000
O O16 0.669570 0.741171 0.310369
O O17 0.721069 0.999373 0.389935
O O18 0.500000 0.000000 0.000000
#
# Coordination Sequence:
#
# PCOD9030338 Si02
#       8
#     2   2   2   2   2   2   2   2
#     4  12  24  43  71  96 135 181 218 279 339 404
#     4  10  22  42  70  94 125 182 223 266 341 404
#     4  11  25  45  66 100 135 172 229 285 333 395
#     4  11  22  41  70  97 132 175 223 278 333 395
#     4  11  24  45  71  95 132 182 224 276 343 401
#     4  11  23  42  68 101 130 176 230 274 333 408
#     4  12  23  47  68  97 138 175 224 274 338 410
#     4  12  26  42  66 100 136 178 221 269 342 402
#
# _framework density 20.076695000000001
#
# number of rings (size 3 to 8) (size 9 to 14) (size 15 to 20)
#    0.000    0.750    6.250    1.125    5.250    0.500 
#    4.500    1.250    0.000    0.000    0.000    0.000 
#    0.000    0.000    0.000    0.000    0.000    0.000 
#
# Total GULP energy -89329.649688 kJ/mol
# GULP energy per Si atom -5583.103105 kJ/mol
# Density = 2.003100 g / cm^3
# Si number density = 20.076695 Si / 1000 Ang^3
#
#
#
# Elastic Constant Matrix: (Units=GPa)
#
#
# Indices 1 2 3 4 5 6 
#
# 1 83.2838 27.1349 35.9231 5.0689 -23.9688 21.5425
# 2 27.1349 107.7849 45.6527 9.0700 -4.4125 10.8928
# 3 35.9231 45.6527 101.8258 -0.8298 -13.6332 8.6713
# 4 5.0689 9.0700 -0.8298 28.6162 11.4046 -5.4933
# 5 -23.9688 -4.4125 -13.6332 11.4046 38.2371 1.8163
# 6 21.5425 10.8928 8.6713 -5.4933 1.8163 40.0223
#
#
#
# Elastic Compliance Matrix: (Units=1/GPa)
#
#
# Indices 1 2 3 4 5 6 
#
# 1 0.024180 -0.000688 -0.004630 -0.014340 0.018399 -0.014628
# 2 -0.000688 0.012237 -0.004966 -0.004682 0.000728 -0.002560
# 3 -0.004630 -0.004966 0.013663 0.002834 0.000491 0.001250
# 4 -0.014340 -0.004682 0.002834 0.052162 -0.024868 0.016667
# 5 0.018399 0.000728 0.000491 -0.024868 0.046109 -0.015714
# 6 -0.014628 -0.002560 0.001250 0.016667 -0.015714 0.036286
#
#
# Mechanical properties :
#
#
# Convention : Reuss Voigt Hill
#
# Bulk Modulus (GPa) = 33.88480 56.70175 45.29328
# Shear Modulus (GPa) = 23.25122 33.65404 28.45263
#
# Velocity S-wave (km/s) = 3.40681 4.09867 3.76865
# Velocity P-wave (km/s) = 5.69117 7.12058 6.44563
#
# Compressibility (1/GPa) = 0.02951176
#
# Stress axis : x y z
#
# Youngs Moduli (GPa) = 41.35660 81.71965 73.19032
#
# Poissons Ratio (x) = 0.05624 0.33885
# Poissons Ratio (y) = 0.02846 0.36348
# Poissons Ratio (z) = 0.19147 0.40584
#
# Static dielectric constant tensor:
#      x y z
#    x 1.764830 0.021580 0.018040 
#    y 0.021580 1.730630 0.018950 
#    z 0.018040 0.018950 1.692790 
# 
# From -- ./inp_files/350161.got.cif
#   From: 2010.05.17/outbox.cif.g08.bks.cpg/sg2_176_cif.got.tgz:350161.got - 2010.06.03 11:33:40.
