data_PCOD9030664
_publ_section_title
;
Structure prediction by ZEFSAII (Michael W. Deem and Ramdas Pophale) SiO2 
 PCOD9030664
Probable space group: P -1
;
_chemical_formula_sum "Si O2"
_cell_formula_units_Z 15
_cell_length_a 14.082947
_cell_length_b 10.841415
_cell_length_c 11.837603
_cell_angle_alpha 144.326482
_cell_angle_beta 43.162668
_cell_angle_gamma 111.439975
_cell_volume 592.875159
_symmetry_space_group_name_H-M "P -1"
_symmetry_group_IT_number 2
_symmetry_cell_setting 'triclinic'
loop_
_space_group_symop_operation_xyz
x,y,z
-x,-y,-z
loop_
_atom_site_type_symbol
_atom_site_label
_atom_site_fract_x
_atom_site_fract_y
_atom_site_fract_z
Si Si1 0.499271 0.994402 0.275604
Si Si2 0.737481 0.611918 0.611335
Si Si3 0.874890 0.784796 0.272685
Si Si4 0.599746 0.579817 0.051996
Si Si5 0.000000 0.500000 0.500000
Si Si6 0.243581 0.969022 0.207288
Si Si7 0.984669 0.097874 0.330577
Si Si8 0.452518 0.597171 0.436760
O O1 0.298075 0.166980 0.585436
O O2 0.564709 0.165954 0.309723
O O3 0.576803 0.827844 0.197862
O O4 0.567395 0.779792 0.960095
O O5 0.725803 0.808319 0.676576
O O6 0.715046 0.397493 0.422147
O O7 0.888574 0.530890 0.505528
O O8 0.824670 0.974874 0.564076
O O9 0.949675 0.878034 0.183473
O O10 0.000000 0.500000 0.000000
O O11 0.520304 0.621360 0.274457
O O12 0.500000 0.500000 0.000000
O O13 0.798156 0.360102 0.712533
O O14 0.954215 0.792757 0.736311
O O15 0.105183 0.015875 0.272690
O O16 0.403092 0.677337 0.842142
#
# Coordination Sequence:
#
# PCOD9030664 Si02
#       8
#     2   2   2   2   1   2   2   2
#     4  12  25  42  71 102 128 182 225 274 336 402
#     4  11  23  46  68  96 140 174 225 275 337 401
#     4  12  25  43  67 101 139 173 229 279 332 404
#     4  12  20  42  69  93 132 177 218 276 335 393
#     4  10  22  42  72  94 126 188 212 274 346 388
#     4  11  24  43  67  98 132 186 217 278 342 392
#     4  11  21  40  70  90 134 175 223 273 338 393
#     4  12  24  42  69  98 138 173 225 276 333 404
#
# _framework density 25.300436000000001
#
# number of rings (size 3 to 8) (size 9 to 14) (size 15 to 20)
#    0.000    0.533    6.667    2.000    1.867    0.533 
#    4.800    0.667    0.000    0.000    0.000    0.000 
#    0.000    0.000    0.000    0.000    0.000    0.000 
#
# Total GULP energy -83781.525441 kJ/mol
# GULP energy per Si atom -5585.435029 kJ/mol
# Density = 2.524285 g / cm^3
# Si number density = 25.300436 Si / 1000 Ang^3
#
#
#
# Elastic Constant Matrix: (Units=GPa)
#
#
# Indices 1 2 3 4 5 6 
#
# 1 84.9032 37.1854 29.8848 16.6535 -34.1209 10.8379
# 2 37.1854 162.3252 48.2794 50.4288 -17.6790 15.8944
# 3 29.8848 48.2794 98.3618 21.9090 -33.0557 -0.0526
# 4 16.6535 50.4288 21.9090 55.6309 -3.1239 3.5810
# 5 -34.1209 -17.6790 -33.0557 -3.1239 42.7643 5.0276
# 6 10.8379 15.8944 -0.0526 3.5810 5.0276 49.9634
#
#
#
# Elastic Compliance Matrix: (Units=1/GPa)
#
#
# Indices 1 2 3 4 5 6 
#
# 1 0.020156 -0.001367 0.001007 -0.003914 0.016636 -0.005330
# 2 -0.001367 0.009803 -0.002517 -0.007290 0.000763 -0.002379
# 3 0.001007 -0.002517 0.015859 -0.003581 0.011798 -0.000331
# 4 -0.003914 -0.007290 -0.003581 0.026634 -0.007191 0.001979
# 5 0.016636 0.000763 0.011798 -0.007191 0.046508 -0.008003
# 6 -0.005330 -0.002379 -0.000331 0.001979 -0.008003 0.022591
#
#
# Mechanical properties :
#
#
# Convention : Reuss Voigt Hill
#
# Bulk Modulus (GPa) = 24.96116 64.03216 44.49666
# Shear Modulus (GPa) = 31.12129 45.02109 38.07119
#
# Velocity S-wave (km/s) = 3.51104 4.22294 3.88334
# Velocity P-wave (km/s) = 5.13068 7.01008 6.14268
#
# Compressibility (1/GPa) = 0.04006224
#
# Stress axis : x y z
#
# Youngs Moduli (GPa) = 49.61237 102.00811 63.05655
#
# Poissons Ratio (x) = 0.13947 -0.06348
# Poissons Ratio (y) = 0.06783 0.15874
# Poissons Ratio (z) = -0.04995 0.25680
#
# Static dielectric constant tensor:
#      x y z
#    x 1.962260 0.011740 0.048660 
#    y 0.011740 2.068360 -0.064020 
#    z 0.048660 -0.064020 2.005890 
# 
# From -- ./inp_files/422996.got.cif
#   From: 2010.05.17/outbox.cif.g08.bks.cpg/sg2_212_cif.got.tgz:422996.got - 2010.06.03 11:33:40.
