data_PCOD9030826
_publ_section_title
;
Structure prediction by ZEFSAII (Michael W. Deem and Ramdas Pophale) SiO2 
 PCOD9030826
Probable space group: P -1
;
_chemical_formula_sum "Si O2"
_cell_formula_units_Z 13
_cell_length_a 11.576703
_cell_length_b 8.022936
_cell_length_c 13.893620
_cell_angle_alpha 130.544403
_cell_angle_beta 147.398366
_cell_angle_gamma 41.901208
_cell_volume 463.388022
_symmetry_space_group_name_H-M "P -1"
_symmetry_group_IT_number 2
_symmetry_cell_setting 'triclinic'
loop_
_space_group_symop_operation_xyz
x,y,z
-x,-y,-z
loop_
_atom_site_type_symbol
_atom_site_label
_atom_site_fract_x
_atom_site_fract_y
_atom_site_fract_z
Si Si1 0.500000 0.000000 0.000000
Si Si2 0.788020 0.759320 0.912063
Si Si3 0.200754 0.890794 0.198202
Si Si4 0.664342 0.599769 0.310789
Si Si5 0.029079 0.537732 0.705388
Si Si6 0.394921 0.847058 0.520953
Si Si7 0.057268 0.101999 0.672032
O O1 0.391893 0.108444 0.075395
O O2 0.698369 0.103402 0.184668
O O3 0.632975 0.718352 0.704575
O O4 0.000000 0.500000 0.000000
O O5 0.948996 0.885578 0.035386
O O6 0.378694 0.701625 0.171242
O O7 0.383955 0.793733 0.381911
O O8 0.118964 0.186628 0.249704
O O9 0.769815 0.475037 0.234650
O O10 0.849189 0.485451 0.488537
O O11 0.671649 0.864413 0.406988
O O12 0.129790 0.318665 0.775812
O O13 0.177078 0.810135 0.396082
O O14 0.000000 0.000000 0.500000
#
# Coordination Sequence:
#
# PCOD9030826 Si02
#       7
#     1   2   2   2   2   2   2
#     4  12  26  48  72 112 142 184 250 286 366 426
#     4  12  29  46  72 111 142 189 244 296 360 424
#     4  11  26  48  71 106 147 185 240 299 350 441
#     4  10  22  43  72 105 144 186 241 285 360 429
#     4  10  22  42  75 106 136 196 236 287 369 414
#     4  11  23  48  75 105 146 189 241 298 356 426
#     4  12  23  45  81 105 145 190 242 302 350 430
#
# _framework density 28.054241999999999
#
# number of rings (size 3 to 8) (size 9 to 14) (size 15 to 20)
#    0.000    0.923    4.615    1.846    2.154    4.923 
#    0.000    6.154    0.000    0.000    0.000    0.000 
#    0.000    0.000    0.000    0.000    0.000    0.000 
#
# Total GULP energy -72643.264275 kJ/mol
# GULP energy per Si atom -5587.943406 kJ/mol
# Density = 2.799039 g / cm^3
# Si number density = 28.054242 Si / 1000 Ang^3
#
#
#
# Elastic Constant Matrix: (Units=GPa)
#
#
# Indices 1 2 3 4 5 6 
#
# 1 170.4708 25.5921 33.0381 -14.2700 31.6495 -42.2013
# 2 25.5921 54.8201 -17.4919 -15.0486 15.0101 -18.7162
# 3 33.0381 -17.4919 164.2196 -9.9830 22.0650 -27.5727
# 4 -14.2700 -15.0486 -9.9830 30.3233 -0.4773 8.6651
# 5 31.6495 15.0101 22.0650 -0.4773 52.0620 1.3579
# 6 -42.2013 -18.7162 -27.5727 8.6651 1.3579 34.9848
#
#
#
# Elastic Compliance Matrix: (Units=1/GPa)
#
#
# Indices 1 2 3 4 5 6 
#
# 1 0.011218 0.006021 0.003143 0.003798 -0.010340 0.018690
# 2 0.006021 0.044734 0.014350 0.018275 -0.023486 0.038889
# 3 0.003143 0.014350 0.012324 0.006769 -0.011730 0.019960
# 4 0.003798 0.018275 0.006769 0.043218 -0.010296 0.009389
# 5 -0.010340 -0.023486 -0.011730 -0.010296 0.038008 -0.033207
# 6 0.018690 0.038889 0.019960 0.009389 -0.033207 0.086628
#
#
# Mechanical properties :
#
#
# Convention : Reuss Voigt Hill
#
# Bulk Modulus (GPa) = 8.67288 52.42080 30.54684
# Shear Modulus (GPa) = 21.97433 46.69884 34.33658
#
# Velocity S-wave (km/s) = 2.80175 4.08437 3.50227
# Velocity P-wave (km/s) = 3.68301 6.40069 5.22175
#
# Compressibility (1/GPa) = 0.11530190
#
# Stress axis : x y z
#
# Youngs Moduli (GPa) = 89.14528 22.35446 81.13994
#
# Poissons Ratio (x) = -0.13459 -0.25500
# Poissons Ratio (y) = -0.53671 -1.16433
# Poissons Ratio (z) = -0.28016 -0.32078
#
# Static dielectric constant tensor:
#      x y z
#    x 4.774210 -0.445620 0.234060 
#    y -0.445620 2.510750 -0.354980 
#    z 0.234060 -0.354980 2.485680 
# 
# From -- ./inp_files/446572.got.cif
#   From: 2010.05.17/outbox.cif.g08.bks.cpg/sg2_224_cif.got.tgz:446572.got - 2010.06.03 11:33:40.
