data_PCOD9030561
_publ_section_title
;
Structure prediction by ZEFSAII (Michael W. Deem and Ramdas Pophale) SiO2 
 PCOD9030561
Probable space group: P -1
;
_chemical_formula_sum "Si O2"
_cell_formula_units_Z 16
_cell_length_a 9.235537
_cell_length_b 17.845981
_cell_length_c 7.327737
_cell_angle_alpha 112.197632
_cell_angle_beta 86.136620
_cell_angle_gamma 137.879797
_cell_volume 704.547540
_symmetry_space_group_name_H-M "P -1"
_symmetry_group_IT_number 2
_symmetry_cell_setting 'triclinic'
loop_
_space_group_symop_operation_xyz
x,y,z
-x,-y,-z
loop_
_atom_site_type_symbol
_atom_site_label
_atom_site_fract_x
_atom_site_fract_y
_atom_site_fract_z
Si Si1 0.928017 0.113764 0.588185
Si Si2 0.649469 0.640975 0.568741
Si Si3 0.075356 0.021238 0.275753
Si Si4 0.126093 0.633288 0.704827
Si Si5 0.894121 0.541238 0.015497
Si Si6 0.583989 0.626437 0.150932
Si Si7 0.372437 0.205221 0.084636
Si Si8 0.098583 0.749259 0.496744
O O1 0.050503 0.100081 0.433784
O O2 0.145940 0.249948 0.795698
O O3 0.788992 0.124946 0.507007
O O4 0.810659 0.000696 0.633655
O O5 0.500000 0.500000 0.500000
O O6 0.561520 0.633231 0.374266
O O7 0.631943 0.703284 0.773223
O O8 0.901504 0.715090 0.584500
O O9 0.227270 0.094693 0.151288
O O10 0.804444 0.882116 0.146951
O O11 0.368507 0.713918 0.851330
O O12 0.181166 0.722963 0.623125
O O13 0.000000 0.500000 0.500000
O O14 0.965129 0.595074 0.850512
O O15 0.993845 0.646671 0.252736
O O16 0.000000 0.500000 0.000000
O O17 0.621303 0.411512 0.951898
O O18 0.500000 0.500000 0.000000
#
# Coordination Sequence:
#
# PCOD9030561 Si02
#       8
#     2   2   2   2   2   2   2   2
#     4  10  22  42  71  99 131 175 241 296 331 402
#     4  11  22  37  68  98 132 169 228 293 341 398
#     4  10  23  44  72  97 133 180 247 286 334 398
#     4  12  26  44  67 101 150 180 218 283 364 426
#     4  12  25  39  64 102 142 184 216 272 363 427
#     4  11  21  38  63 100 131 167 226 288 344 402
#     4  11  24  45  69 102 134 186 230 289 348 413
#     4  11  23  44  63 100 140 176 230 282 343 416
#
# _framework density 22.709609
#
# number of rings (size 3 to 8) (size 9 to 14) (size 15 to 20)
#    0.000    1.000    6.250    2.250    3.500    1.000 
#    2.250    1.250    0.000    0.000    0.000    0.000 
#    0.000    0.000    0.000    0.000    0.000    0.000 
#
# Total GULP energy -89187.893213 kJ/mol
# GULP energy per Si atom -5574.243326 kJ/mol
# Density = 2.265792 g / cm^3
# Si number density = 22.709609 Si / 1000 Ang^3
#
#
#
# Elastic Constant Matrix: (Units=GPa)
#
#
# Indices 1 2 3 4 5 6 
#
# 1 106.3185 24.0975 20.0288 6.0606 5.8470 -25.5439
# 2 24.0975 76.5946 20.4389 -3.9459 3.3642 -23.3019
# 3 20.0288 20.4389 86.6669 4.6137 -8.0923 -9.8062
# 4 6.0606 -3.9459 4.6137 36.7389 -6.1423 3.0101
# 5 5.8470 3.3642 -8.0923 -6.1423 28.3177 -0.3913
# 6 -25.5439 -23.3019 -9.8062 3.0101 -0.3913 55.4461
#
#
#
# Elastic Compliance Matrix: (Units=1/GPa)
#
#
# Indices 1 2 3 4 5 6 
#
# 1 0.011557 -0.001800 -0.001910 -0.002761 -0.003257 0.004357
# 2 -0.001800 0.016246 -0.003086 0.001655 -0.002007 0.005349
# 3 -0.001910 -0.003086 0.013190 -0.000969 0.004323 0.000239
# 4 -0.002761 0.001655 -0.000969 0.029233 0.006406 -0.002290
# 5 -0.003257 -0.002007 0.004323 0.006406 0.038827 -0.001653
# 6 0.004357 0.005349 0.000239 -0.002290 -0.001653 0.022445
#
#
# Mechanical properties :
#
#
# Convention : Reuss Voigt Hill
#
# Bulk Modulus (GPa) = 36.49542 44.30116 40.39829
# Shear Modulus (GPa) = 32.42047 37.76818 35.09432
#
# Velocity S-wave (km/s) = 3.78247 4.08253 3.93536
# Velocity P-wave (km/s) = 5.93140 6.46318 6.20299
#
# Compressibility (1/GPa) = 0.02740070
#
# Stress axis : x y z
#
# Youngs Moduli (GPa) = 86.52866 61.55341 75.81494
#
# Poissons Ratio (x) = 0.11079 0.14484
# Poissons Ratio (y) = 0.15574 0.23395
# Poissons Ratio (z) = 0.16531 0.18994
#
# Static dielectric constant tensor:
#      x y z
#    x 1.869440 -0.078360 0.078950 
#    y -0.078360 2.090060 -0.071000 
#    z 0.078950 -0.071000 1.881020 
# 
# From -- ./inp_files/218307.got.cif
#   From: 2010.05.17/outbox.cif.g08.bks.cpg/sg2_110_cif.got.tgz:218307.got - 2010.06.03 11:33:40.
