data_PCOD9030572
_publ_section_title
;
Structure prediction by ZEFSAII (Michael W. Deem and Ramdas Pophale) SiO2 
 PCOD9030572
Probable space group: P -1
;
_chemical_formula_sum "Si O2"
_cell_formula_units_Z 16
_cell_length_a 10.693871
_cell_length_b 8.835466
_cell_length_c 10.425109
_cell_angle_alpha 51.678606
_cell_angle_beta 104.466054
_cell_angle_gamma 96.601198
_cell_volume 747.256663
_symmetry_space_group_name_H-M "P -1"
_symmetry_group_IT_number 2
_symmetry_cell_setting 'triclinic'
loop_
_space_group_symop_operation_xyz
x,y,z
-x,-y,-z
loop_
_atom_site_type_symbol
_atom_site_label
_atom_site_fract_x
_atom_site_fract_y
_atom_site_fract_z
Si Si1 0.259538 0.203404 0.092510
Si Si2 0.108346 0.196976 0.796923
Si Si3 0.473381 0.962438 0.862997
Si Si4 0.755862 0.807163 0.440347
Si Si5 0.857166 0.198115 0.338302
Si Si6 0.013750 0.806631 0.905083
Si Si7 0.359432 0.588562 0.949500
Si Si8 0.942278 0.507796 0.709586
O O1 0.394371 0.087569 0.156375
O O2 0.137448 0.122329 0.176852
O O3 0.285606 0.401785 0.068780
O O4 0.201666 0.246033 0.912541
O O5 0.174501 0.215084 0.668167
O O6 0.982875 0.341740 0.705038
O O7 0.079272 0.972276 0.915879
O O8 0.388564 0.122439 0.675820
O O9 0.384399 0.775529 0.941532
O O10 0.500000 0.000000 0.000000
O O11 0.797831 0.602804 0.621711
O O12 0.818227 0.976423 0.452765
O O13 0.917108 0.205925 0.206195
O O14 0.961859 0.315304 0.380203
O O15 0.722411 0.323420 0.237218
O O16 0.028970 0.604896 0.090474
O O17 0.500000 0.500000 0.000000
#
# Coordination Sequence:
#
# PCOD9030572 Si02
#       8
#     2   2   2   2   2   2   2   2
#     4  10  17  32  52  75 103 135 177 220 253 305
#     4  10  19  34  52  79 105 140 174 216 263 314
#     4  10  19  33  52  76 105 139 177 220 256 311
#     4  10  21  33  51  80 108 137 173 217 274 310
#     4  10  19  34  52  81 106 137 178 214 263 316
#     4  10  21  33  55  81 105 141 179 213 262 312
#     4   9  18  30  50  79 104 130 174 220 256 297
#     4  11  19  32  53  80 109 136 170 223 267 311
#
# _framework density 21.411653000000001
#
# number of rings (size 3 to 8) (size 9 to 14) (size 15 to 20)
#    0.000    2.000    3.750    2.625    0.000    0.000 
#    0.000    0.000    0.000    3.750    6.500    0.000 
#    0.000    0.000    0.000    0.000    0.000    0.000 
#
# Total GULP energy -89101.194842 kJ/mol
# GULP energy per Si atom -5568.824678 kJ/mol
# Density = 2.136292 g / cm^3
# Si number density = 21.411653 Si / 1000 Ang^3
#
#
#
# Elastic Constant Matrix: (Units=GPa)
#
#
# Indices 1 2 3 4 5 6 
#
# 1 72.9970 12.4226 40.6925 -5.6819 28.0859 -7.0895
# 2 12.4226 81.9811 23.4704 -1.8629 19.2572 10.5880
# 3 40.6925 23.4704 81.4036 -10.7230 41.6003 -11.2861
# 4 -5.6819 -1.8629 -10.7230 29.3822 -15.0570 8.8129
# 5 28.0859 19.2572 41.6003 -15.0570 34.4791 -1.5021
# 6 -7.0895 10.5880 -11.2861 8.8129 -1.5021 29.4440
#
#
#
# Elastic Compliance Matrix: (Units=1/GPa)
#
#
# Indices 1 2 3 4 5 6 
#
# 1 0.021958 0.000804 -0.000917 -0.008460 -0.020656 0.006124
# 2 0.000804 0.015180 -0.001512 -0.002073 -0.008460 -0.005656
# 3 -0.000917 -0.001512 0.043257 -0.020599 -0.058720 0.020073
# 4 -0.008460 -0.002073 -0.020599 0.062505 0.059114 -0.024880
# 5 -0.020656 -0.008460 -0.058720 0.059114 0.145705 -0.034699
# 6 0.006124 -0.005656 0.020073 -0.024880 -0.034699 0.050842
#
#
# Mechanical properties :
#
#
# Convention : Reuss Voigt Hill
#
# Bulk Modulus (GPa) = 12.96293 43.28362 28.12327
# Shear Modulus (GPa) = 13.57177 29.31414 21.44295
#
# Velocity S-wave (km/s) = 2.52037 3.70411 3.16802
# Velocity P-wave (km/s) = 3.81274 6.20909 5.15217
#
# Compressibility (1/GPa) = 0.07714307
#
# Stress axis : x y z
#
# Youngs Moduli (GPa) = 45.54241 65.87754 23.11772
#
# Poissons Ratio (x) = -0.05298 0.02121
# Poissons Ratio (y) = -0.03663 0.03496
# Poissons Ratio (z) = 0.04178 0.09963
#
# Static dielectric constant tensor:
#      x y z
#    x 1.803130 0.004280 0.033560 
#    y 0.004280 1.813370 -0.027780 
#    z 0.033560 -0.027780 1.826720 
# 
# From -- ./inp_files/258993.got.cif
#   From: 2010.05.17/outbox.cif.g08.bks.cpg/sg2_130_cif.got.tgz:258993.got - 2010.06.03 11:33:40.
