data_PCOD9030678
_publ_section_title
;
Structure prediction by ZEFSAII (Michael W. Deem and Ramdas Pophale) SiO2 
 PCOD9030678
Probable space group: P -1
;
_chemical_formula_sum "Si O2"
_cell_formula_units_Z 12
_cell_length_a 10.281511
_cell_length_b 8.166661
_cell_length_c 10.810824
_cell_angle_alpha 114.016100
_cell_angle_beta 121.489729
_cell_angle_gamma 110.549750
_cell_volume 488.028724
_symmetry_space_group_name_H-M "P -1"
_symmetry_group_IT_number 2
_symmetry_cell_setting 'triclinic'
loop_
_space_group_symop_operation_xyz
x,y,z
-x,-y,-z
loop_
_atom_site_type_symbol
_atom_site_label
_atom_site_fract_x
_atom_site_fract_y
_atom_site_fract_z
Si Si1 0.981195 0.625272 0.338274
Si Si2 0.558729 0.427172 0.625306
Si Si3 0.858730 0.547450 0.985925
Si Si4 0.313877 0.958343 0.963573
Si Si5 0.525453 0.046942 0.336978
Si Si6 0.441175 0.517998 0.838582
O O1 0.898999 0.347959 0.225675
O O2 0.794099 0.577588 0.302747
O O3 0.239405 0.826767 0.554768
O O4 0.965012 0.694164 0.212855
O O5 0.500000 0.500000 0.500000
O O6 0.806937 0.634636 0.873363
O O7 0.535547 0.198452 0.500371
O O8 0.424415 0.381736 0.664980
O O9 0.628228 0.256841 0.819482
O O10 0.000000 0.500000 0.000000
O O11 0.500000 0.000000 0.000000
O O12 0.405930 0.061168 0.177693
O O13 0.341726 0.172557 0.981405
O O14 0.500000 0.500000 0.000000
#
# Coordination Sequence:
#
# PCOD9030678 Si02
#       6
#     2   2   2   2   2   2
#     4  10  22  42  72  97 128 186 230 280 334 410
#     4  12  24  43  68 103 142 174 223 294 346 401
#     4  11  23  44  74  98 134 185 232 277 341 417
#     4   9  21  41  66  93 134 175 228 275 337 401
#     4  11  23  44  72  99 134 178 244 273 334 427
#     4  11  22  42  67  98 141 177 225 283 349 401
#
# _framework density 24.588716000000002
#
# number of rings (size 3 to 8) (size 9 to 14) (size 15 to 20)
#    0.000    1.333    5.000    0.500    0.000    2.667 
#    0.000    5.833    7.333    0.000    0.000    0.000 
#    0.000    0.000    0.000    0.000    0.000    0.000 
#
# Total GULP energy -66873.975158 kJ/mol
# GULP energy per Si atom -5572.831263 kJ/mol
# Density = 2.453275 g / cm^3
# Si number density = 24.588716 Si / 1000 Ang^3
#
#
#
# Elastic Constant Matrix: (Units=GPa)
#
#
# Indices 1 2 3 4 5 6 
#
# 1 136.6919 -5.4389 14.7819 0.1655 6.5801 -0.8826
# 2 -5.4389 128.7293 45.9062 -38.6343 8.2707 1.0998
# 3 14.7819 45.9062 66.3120 2.0904 25.1539 12.8103
# 4 0.1655 -38.6343 2.0904 41.5562 8.2120 1.5344
# 5 6.5801 8.2707 25.1539 8.2120 52.8021 -5.1768
# 6 -0.8826 1.0998 12.8103 1.5344 -5.1768 26.6382
#
#
#
# Elastic Compliance Matrix: (Units=1/GPa)
#
#
# Indices 1 2 3 4 5 6 
#
# 1 0.007838 0.002398 -0.004035 0.002242 0.000423 0.002054
# 2 0.002398 0.018666 -0.016193 0.017437 0.002423 0.006563
# 3 -0.004035 -0.016193 0.036707 -0.013365 -0.014243 -0.019115
# 4 0.002242 0.017437 -0.013365 0.041386 -0.002801 0.002853
# 5 0.000423 0.002423 -0.014243 -0.002801 0.026919 0.012156
# 6 0.002054 0.006563 -0.019115 0.002853 0.012156 0.048728
#
#
# Mechanical properties :
#
#
# Convention : Reuss Voigt Hill
#
# Bulk Modulus (GPa) = 36.29764 49.13685 42.71725
# Shear Modulus (GPa) = 22.21368 42.63155 32.42262
#
# Velocity S-wave (km/s) = 3.00894 4.16839 3.63519
# Velocity P-wave (km/s) = 5.18320 6.57223 5.91861
#
# Compressibility (1/GPa) = 0.02755000
#
# Stress axis : x y z
#
# Youngs Moduli (GPa) = 127.58765 53.57415 27.24311
#
# Poissons Ratio (x) = -0.12850 0.10994
# Poissons Ratio (y) = -0.30601 0.44115
# Poissons Ratio (z) = 0.51487 0.86753
#
# Static dielectric constant tensor:
#      x y z
#    x 2.027010 0.005710 -0.046540 
#    y 0.005710 2.117430 -0.065130 
#    z -0.046540 -0.065130 2.034870 
# 
# From -- ./inp_files/61382.got.cif
#   From: 2010.05.17/outbox.cif.g08.bks.cpg/sg2_31_cif.got.tgz:61382.got - 2010.06.03 11:33:40.
