data_PCOD9030377
_publ_section_title
;
Structure prediction by ZEFSAII (Michael W. Deem and Ramdas Pophale) SiO2 
 PCOD9030377
Probable space group: P -1
;
_chemical_formula_sum "Si O2"
_cell_formula_units_Z 15
_cell_length_a 11.138218
_cell_length_b 7.732137
_cell_length_c 8.891822
_cell_angle_alpha 112.868167
_cell_angle_beta 109.302019
_cell_angle_gamma 99.577994
_cell_volume 626.486765
_symmetry_space_group_name_H-M "P -1"
_symmetry_group_IT_number 2
_symmetry_cell_setting 'triclinic'
loop_
_space_group_symop_operation_xyz
x,y,z
-x,-y,-z
loop_
_atom_site_type_symbol
_atom_site_label
_atom_site_fract_x
_atom_site_fract_y
_atom_site_fract_z
Si Si1 0.173451 0.904919 0.116282
Si Si2 0.929465 0.640926 0.754036
Si Si3 0.610153 0.899009 0.978762
Si Si4 0.524732 0.546726 0.204432
Si Si5 0.178690 0.194899 0.483603
Si Si6 0.000000 0.500000 0.500000
Si Si7 0.226701 0.903010 0.615919
Si Si8 0.693304 0.313571 0.683650
O O1 0.212953 0.745461 0.177280
O O2 0.185124 0.089781 0.291942
O O3 0.025087 0.810692 0.953006
O O4 0.283209 0.984407 0.060479
O O5 0.914017 0.679050 0.575783
O O6 0.785808 0.526137 0.726067
O O7 0.013402 0.497282 0.698360
O O8 0.691003 0.926395 0.177533
O O9 0.536018 0.672680 0.823390
O O10 0.500000 0.000000 0.000000
O O11 0.679911 0.653202 0.350472
O O12 0.438282 0.673873 0.283791
O O13 0.500000 0.500000 0.000000
O O14 0.139486 0.010740 0.520353
O O15 0.148328 0.706482 0.609920
O O16 0.321595 0.842277 0.512421
#
# Coordination Sequence:
#
# PCOD9030377 Si02
#       8
#     2   2   2   2   2   1   2   2
#     4  11  24  45  70 102 140 191 233 293 353 417
#     4  11  23  44  69 104 140 186 236 291 350 418
#     4  12  26  43  72 102 144 184 237 291 354 419
#     4  12  26  46  70 107 140 187 238 292 354 417
#     4  11  26  43  71 102 144 183 237 293 352 423
#     4  10  22  42  70  96 140 178 234 278 350 414
#     4  10  23  47  68 108 138 188 226 289 358 418
#     4  10  25  44  75  98 145 183 237 289 353 424
#
# _framework density 23.943042999999999
#
# number of rings (size 3 to 8) (size 9 to 14) (size 15 to 20)
#    0.000    1.067    2.667    2.400    5.600    3.733 
#    0.000    0.000    0.000    0.000    0.000    0.000 
#    0.000    0.000    0.000    0.000    0.000    0.000 
#
# Total GULP energy -83675.288130 kJ/mol
# GULP energy per Si atom -5578.352542 kJ/mol
# Density = 2.388855 g / cm^3
# Si number density = 23.943043 Si / 1000 Ang^3
#
#
#
# Elastic Constant Matrix: (Units=GPa)
#
#
# Indices 1 2 3 4 5 6 
#
# 1 115.0649 5.3887 28.3279 -7.4441 -17.6190 -9.1099
# 2 5.3887 78.3502 -2.1915 3.4098 9.1985 -13.4200
# 3 28.3279 -2.1915 114.4243 9.2770 -1.2689 2.4906
# 4 -7.4441 3.4098 9.2770 42.6305 -2.1357 -0.4324
# 5 -17.6190 9.1985 -1.2689 -2.1357 25.1969 -2.3876
# 6 -9.1099 -13.4200 2.4906 -0.4324 -2.3876 35.0305
#
#
#
# Elastic Compliance Matrix: (Units=1/GPa)
#
#
# Indices 1 2 3 4 5 6 
#
# 1 0.011349 -0.001499 -0.003074 0.003250 0.008911 0.003243
# 2 -0.001499 0.014469 0.000626 -0.001809 -0.006009 0.004677
# 3 -0.003074 0.000626 0.009749 -0.002836 -0.002264 -0.001442
# 4 0.003250 -0.001809 -0.002836 0.025048 0.005008 0.001004
# 5 0.008911 -0.006009 -0.002264 0.005008 0.048760 0.003562
# 6 0.003243 0.004677 -0.001442 0.001004 0.003562 0.031539
#
#
# Mechanical properties :
#
#
# Convention : Reuss Voigt Hill
#
# Bulk Modulus (GPa) = 36.13387 41.20998 38.67193
# Shear Modulus (GPa) = 31.63938 38.99253 35.31595
#
# Velocity S-wave (km/s) = 3.63911 4.03991 3.84474
# Velocity P-wave (km/s) = 5.72554 6.24582 5.99133
#
# Compressibility (1/GPa) = 0.02767486
#
# Stress axis : x y z
#
# Youngs Moduli (GPa) = 88.11235 69.11317 102.57916
#
# Poissons Ratio (x) = 0.10357 0.31529
# Poissons Ratio (y) = 0.13205 -0.06425
# Poissons Ratio (z) = 0.27083 -0.04329
#
# Static dielectric constant tensor:
#      x y z
#    x 1.933830 -0.157900 -0.020900 
#    y -0.157900 2.045810 -0.016250 
#    z -0.020900 -0.016250 1.960300 
# 
# From -- ./inp_files/240655.got.cif
#   From: 2010.05.17/outbox.cif.g08.bks.cpg/sg2_121_cif.got.tgz:240655.got - 2010.06.03 11:33:40.
