data_PCOD9030022
_publ_section_title
;
Structure prediction by ZEFSAII (Michael W. Deem and Ramdas Pophale) SiO2 
 PCOD9030022
Probable space group: P -1
;
_chemical_formula_sum "Si O2"
_cell_formula_units_Z 14
_cell_length_a 10.893057
_cell_length_b 9.179042
_cell_length_c 12.096096
_cell_angle_alpha 123.751787
_cell_angle_beta 124.749765
_cell_angle_gamma 42.978942
_cell_volume 656.408845
_symmetry_space_group_name_H-M "P -1"
_symmetry_group_IT_number 2
_symmetry_cell_setting 'triclinic'
loop_
_space_group_symop_operation_xyz
x,y,z
-x,-y,-z
loop_
_atom_site_type_symbol
_atom_site_label
_atom_site_fract_x
_atom_site_fract_y
_atom_site_fract_z
Si Si1 0.642681 0.979799 0.197644
Si Si2 0.455902 0.756430 0.954791
Si Si3 0.220990 0.296671 0.536433
Si Si4 0.041586 0.797244 0.364450
Si Si5 0.251256 0.877056 0.363815
Si Si6 0.549781 0.280076 0.815537
Si Si7 0.603639 0.685322 0.587830
O O1 0.854229 0.820376 0.280725
O O2 0.647235 0.120105 0.159777
O O3 0.492322 0.150339 0.286092
O O4 0.599057 0.818343 0.060220
O O5 0.520780 0.509217 0.880588
O O6 0.378629 0.817098 0.066434
O O7 0.355447 0.316998 0.695865
O O8 0.322927 0.246559 0.447694
O O9 0.000000 0.500000 0.500000
O O10 0.218718 0.095338 0.483492
O O11 0.096764 0.842964 0.294543
O O12 0.217840 0.558249 0.392408
O O13 0.000000 0.000000 0.500000
O O14 0.292617 0.874982 0.257252
O O15 0.440439 0.686770 0.446189
#
# Coordination Sequence:
#
# PCOD9030022 Si02
#       7
#     2   2   2   2   2   2   2
#     4  11  24  44  68  92 135 170 225 257 327 382
#     4  10  23  43  67  89 126 191 211 262 309 395
#     4  11  24  39  71 103 129 162 215 281 336 380
#     4  12  25  38  68 105 133 164 215 273 335 387
#     4  11  22  41  65 103 132 165 210 274 339 387
#     4  10  22  42  69  87 132 173 220 257 334 377
#     4  11  23  42  67 100 133 167 209 276 336 383
#
# _framework density 21.328171000000001
#
# number of rings (size 3 to 8) (size 9 to 14) (size 15 to 20)
#    0.000    1.143    1.429    5.571    8.000    0.000 
#    0.000    7.143    3.143    0.000    0.000    0.000 
#    0.000    0.000    0.000    0.000    0.000    0.000 
#
# Total GULP energy -78046.272576 kJ/mol
# GULP energy per Si atom -5574.733755 kJ/mol
# Density = 2.127963 g / cm^3
# Si number density = 21.328171 Si / 1000 Ang^3
#
#
#
# Elastic Constant Matrix: (Units=GPa)
#
#
# Indices 1 2 3 4 5 6 
#
# 1 92.7489 37.8874 22.2332 -6.2595 -15.2409 1.5695
# 2 37.8874 97.3531 19.9153 -1.9765 -6.9268 -2.6580
# 3 22.2332 19.9153 64.7956 2.7896 -21.4244 -4.1692
# 4 -6.2595 -1.9765 2.7896 20.8382 15.3418 1.7266
# 5 -15.2409 -6.9268 -21.4244 15.3418 32.5386 -5.5318
# 6 1.5695 -2.6580 -4.1692 1.7266 -5.5318 44.1337
#
#
#
# Elastic Compliance Matrix: (Units=1/GPa)
#
#
# Indices 1 2 3 4 5 6 
#
# 1 0.013910 -0.004667 -0.002621 0.002228 0.002613 -0.000783
# 2 -0.004667 0.012608 -0.003188 0.002073 -0.002541 0.000225
# 3 -0.002621 -0.003188 0.030502 -0.031062 0.034232 0.008288
# 4 0.002228 0.002073 -0.031062 0.107749 -0.072524 -0.016195
# 5 0.002613 -0.002541 0.034232 -0.072524 0.091081 0.017241
# 6 -0.000783 0.000225 0.008288 -0.016195 0.017241 0.026277
#
#
# Mechanical properties :
#
#
# Convention : Reuss Voigt Hill
#
# Bulk Modulus (GPa) = 27.72690 46.10771 36.91730
# Shear Modulus (GPa) = 15.86788 31.15955 23.51372
#
# Velocity S-wave (km/s) = 2.73057 3.82639 3.32395
# Velocity P-wave (km/s) = 4.79267 6.41770 5.66377
#
# Compressibility (1/GPa) = 0.03606606
#
# Stress axis : x y z
#
# Youngs Moduli (GPa) = 71.89319 79.31462 32.78525
#
# Poissons Ratio (x) = 0.37019 0.08592
# Poissons Ratio (y) = 0.33555 0.10453
# Poissons Ratio (z) = 0.18841 0.25289
#
# Static dielectric constant tensor:
#      x y z
#    x 1.827170 0.030770 -0.042750 
#    y 0.030770 1.825420 -0.018480 
#    z -0.042750 -0.018480 1.823850 
# 
# From -- ./inp_files/418237.got.cif
#   From: 2010.05.17/outbox.cif.g08.bks.cpg/sg2_210_cif.got.tgz:418237.got - 2010.06.03 11:33:40.
