data_PCOD9030117
_publ_section_title
;
Structure prediction by ZEFSAII (Michael W. Deem and Ramdas Pophale) SiO2 
 PCOD9030117
Probable space group: P -1
;
_chemical_formula_sum "Si O2"
_cell_formula_units_Z 14
_cell_length_a 19.962302
_cell_length_b 9.582400
_cell_length_c 19.304025
_cell_angle_alpha 35.883383
_cell_angle_beta 15.630839
_cell_angle_gamma 36.025169
_cell_volume 573.583316
_symmetry_space_group_name_H-M "P -1"
_symmetry_group_IT_number 2
_symmetry_cell_setting 'triclinic'
loop_
_space_group_symop_operation_xyz
x,y,z
-x,-y,-z
loop_
_atom_site_type_symbol
_atom_site_label
_atom_site_fract_x
_atom_site_fract_y
_atom_site_fract_z
Si Si1 0.697370 0.087216 0.836523
Si Si2 0.906669 0.252247 0.704073
Si Si3 0.951365 0.375323 0.360167
Si Si4 0.303978 0.542445 0.037398
Si Si5 0.215698 0.762910 0.629162
Si Si6 0.245895 0.497525 0.850129
Si Si7 0.491968 0.723181 0.636064
O O1 0.822935 0.162834 0.750452
O O2 0.794023 0.190436 0.627324
O O3 0.422445 0.257759 0.046271
O O4 0.794733 0.798054 0.851974
O O5 0.000000 0.500000 0.500000
O O6 0.698749 0.312210 0.947472
O O7 0.123994 0.045625 0.599011
O O8 0.764602 0.548873 0.426190
O O9 0.030958 0.533011 0.280543
O O10 0.429694 0.671630 0.798571
O O11 0.232660 0.683600 0.724190
O O12 0.488861 0.685250 0.353349
O O13 0.993313 0.635045 0.869192
O O14 0.288238 0.637171 0.822344
O O15 0.500000 0.000000 0.500000
#
# Coordination Sequence:
#
# PCOD9030117 Si02
#       7
#     2   2   2   2   2   2   2
#     4  10  22  42  69  97 138 182 235 288 354 436
#     4  12  25  44  70 106 146 187 236 302 373 434
#     4  10  22  45  66 103 135 183 236 290 353 446
#     4  11  25  43  68 101 140 183 239 293 369 436
#     4  10  25  47  76 106 145 193 251 310 359 457
#     4  10  24  49  74 106 142 196 254 304 371 432
#     4  11  27  43  72 102 143 188 241 308 372 435
#
# _framework density 24.407964
#
# number of rings (size 3 to 8) (size 9 to 14) (size 15 to 20)
#    0.000    1.429    1.429    1.714    6.000    6.286 
#    0.000    0.000    0.000    0.000    0.000    0.000 
#    0.000    0.000    0.000    0.000    0.000    0.000 
#
# Total GULP energy -78285.092587 kJ/mol
# GULP energy per Si atom -5591.792328 kJ/mol
# Density = 2.435241 g / cm^3
# Si number density = 24.407964 Si / 1000 Ang^3
#
#
#
# Elastic Constant Matrix: (Units=GPa)
#
#
# Indices 1 2 3 4 5 6 
#
# 1 93.3394 91.4902 31.5910 21.1353 6.1764 16.6752
# 2 91.4902 159.1769 42.0976 -8.5891 1.4057 -19.7327
# 3 31.5910 42.0976 74.2628 10.2892 2.5635 -6.2631
# 4 21.1353 -8.5891 10.2892 27.7809 -8.0558 -9.8201
# 5 6.1764 1.4057 2.5635 -8.0558 40.4000 3.4218
# 6 16.6752 -19.7327 -6.2631 -9.8201 3.4218 25.1888
#
#
#
# Elastic Compliance Matrix: (Units=1/GPa)
#
#
# Indices 1 2 3 4 5 6 
#
# 1 -0.013887 0.014107 -0.003669 0.028211 0.004979 0.029654
# 2 0.014107 -0.004937 -0.002046 -0.020108 -0.004086 -0.020999
# 3 -0.003669 -0.002046 0.017008 -0.003126 -0.001412 0.004028
# 4 0.028211 -0.020108 -0.003126 -0.003745 -0.001069 -0.036521
# 5 0.004979 -0.004086 -0.001412 -0.001069 0.024912 -0.010649
# 6 0.029654 -0.020999 0.004028 -0.036521 -0.010649 -0.008172
#
#
# Mechanical properties :
#
#
# Convention : Reuss Voigt Hill
#
# Bulk Modulus (GPa) = 66.81298 73.01520 69.91409
# Shear Modulus (GPa) = -8129.15907 29.44729 -4049.85589
#
# Velocity S-wave (km/s) = -57.77340 3.47719 -40.77790
# Velocity P-wave (km/s) = 66.50505 6.78974 46.78045
#
# Compressibility (1/GPa) = 0.01496715
#
# Stress axis : x y z
#
# Youngs Moduli (GPa) = -72.00902 -202.56348 58.79593
#
# Poissons Ratio (x) = 2.85749 0.21571
# Poissons Ratio (y) = 1.01581 0.12032
# Poissons Ratio (z) = -0.26418 -0.41452
#
# Static dielectric constant tensor:
#      x y z
#    x 1.964730 0.014870 0.088390 
#    y 0.014870 1.910630 0.048260 
#    z 0.088390 0.048260 2.088590 
# 
# From -- ./inp_files/123677.got.cif
#   From: 2010.05.17/outbox.cif.g08.bks.cpg/sg2_62_cif.got.tgz:123677.got - 2010.06.03 11:33:40.
