data_PCOD9030439
_publ_section_title
;
Structure prediction by ZEFSAII (Michael W. Deem and Ramdas Pophale) SiO2 
 PCOD9030439
Probable space group: P -1
;
_chemical_formula_sum "Si O2"
_cell_formula_units_Z 14
_cell_length_a 19.513400
_cell_length_b 7.819036
_cell_length_c 7.069040
_cell_angle_alpha 106.534372
_cell_angle_beta 128.553636
_cell_angle_gamma 43.496605
_cell_volume 551.734911
_symmetry_space_group_name_H-M "P -1"
_symmetry_group_IT_number 2
_symmetry_cell_setting 'triclinic'
loop_
_space_group_symop_operation_xyz
x,y,z
-x,-y,-z
loop_
_atom_site_type_symbol
_atom_site_label
_atom_site_fract_x
_atom_site_fract_y
_atom_site_fract_z
Si Si1 0.675522 0.088000 0.157158
Si Si2 0.254090 0.590572 0.076175
Si Si3 0.085596 0.075627 0.392631
Si Si4 0.638348 0.202181 0.690302
Si Si5 0.520570 0.147217 0.201135
Si Si6 0.908920 0.330722 0.848712
Si Si7 0.126814 0.517290 0.573349
O O1 0.763389 0.121642 0.387122
O O2 0.771785 0.777401 0.265135
O O3 0.548291 0.249939 0.114815
O O4 0.647137 0.142066 0.905366
O O5 0.256575 0.800571 0.171045
O O6 0.398825 0.330110 0.185880
O O7 0.202419 0.561658 0.160456
O O8 0.178372 0.631671 0.775427
O O9 0.013398 0.275287 0.506900
O O10 0.050773 0.919906 0.253598
O O11 0.017755 0.255255 0.144684
O O12 0.500000 0.500000 0.500000
O O13 0.636445 0.028474 0.503937
O O14 0.500000 0.000000 0.000000
O O15 0.877900 0.486798 0.659599
#
# Coordination Sequence:
#
# PCOD9030439 Si02
#       7
#     2   2   2   2   2   2   2
#     4  12  25  43  68 103 142 180 228 292 347 407
#     4  10  22  44  68 102 135 182 233 279 341 417
#     4  10  23  42  67 100 142 182 235 279 342 414
#     4  10  25  45  71  97 136 183 235 281 341 413
#     4  11  24  45  67 101 134 178 229 287 351 407
#     4  10  22  42  70  99 138 186 229 286 340 410
#     4  11  23  41  68 104 143 181 228 286 347 407
#
# _framework density 25.374504000000002
#
# number of rings (size 3 to 8) (size 9 to 14) (size 15 to 20)
#    0.000    1.429    1.429    2.571    0.000   11.429 
#    0.000    0.000    0.000    0.000    0.000    0.000 
#    0.000    0.000    0.000    0.000    0.000    0.000 
#
# Total GULP energy -78230.924391 kJ/mol
# GULP energy per Si atom -5587.923171 kJ/mol
# Density = 2.531675 g / cm^3
# Si number density = 25.374504 Si / 1000 Ang^3
#
#
#
# Elastic Constant Matrix: (Units=GPa)
#
#
# Indices 1 2 3 4 5 6 
#
# 1 118.4494 23.0988 70.1443 -1.3278 -20.4245 -10.4419
# 2 23.0988 80.4753 14.4230 3.4897 -21.6184 -19.9236
# 3 70.1443 14.4230 193.1984 7.4181 -36.0203 10.5980
# 4 -1.3278 3.4897 7.4181 33.3944 6.7279 -5.3810
# 5 -20.4245 -21.6184 -36.0203 6.7279 61.7485 8.9298
# 6 -10.4419 -19.9236 10.5980 -5.3810 8.9298 31.8245
#
#
#
# Elastic Compliance Matrix: (Units=1/GPa)
#
#
# Indices 1 2 3 4 5 6 
#
# 1 0.011904 -0.001540 -0.004635 0.002531 -0.000304 0.004998
# 2 -0.001540 0.016091 -0.000352 -0.001075 0.003816 0.008433
# 3 -0.004635 -0.000352 0.008224 -0.003911 0.004493 -0.006402
# 4 0.002531 -0.001075 -0.003911 0.033869 -0.006827 0.009102
# 5 -0.000304 0.003816 0.004493 -0.006827 0.021729 -0.006458
# 6 0.004998 0.008433 -0.006402 0.009102 -0.006458 0.043825
#
#
# Mechanical properties :
#
#
# Convention : Reuss Voigt Hill
#
# Bulk Modulus (GPa) = 43.16836 67.49504 55.33170
# Shear Modulus (GPa) = 31.96559 44.35731 38.16145
#
# Velocity S-wave (km/s) = 3.55315 4.18557 3.88226
# Velocity P-wave (km/s) = 5.82088 7.07220 6.47683
#
# Compressibility (1/GPa) = 0.02316511
#
# Stress axis : x y z
#
# Youngs Moduli (GPa) = 84.00411 62.14708 121.59199
#
# Poissons Ratio (x) = 0.09571 0.56359
# Poissons Ratio (y) = 0.12937 0.04279
# Poissons Ratio (z) = 0.38937 0.02187
#
# Static dielectric constant tensor:
#      x y z
#    x 2.068430 0.012640 0.032970 
#    y 0.012640 2.165830 -0.010140 
#    z 0.032970 -0.010140 1.990620 
# 
# From -- ./inp_files/107253.got.cif
#   From: 2010.05.17/outbox.cif.g08.bks.cpg/sg2_54_cif.got.tgz:107253.got - 2010.06.03 11:33:40.
