data_PCOD9030903
_publ_section_title
;
Structure prediction by ZEFSAII (Michael W. Deem and Ramdas Pophale) SiO2 
 PCOD9030903
Probable space group: P -1
;
_chemical_formula_sum "Si O2"
_cell_formula_units_Z 12
_cell_length_a 14.306251
_cell_length_b 5.143935
_cell_length_c 6.921321
_cell_angle_alpha 109.056945
_cell_angle_beta 84.628773
_cell_angle_gamma 92.506638
_cell_volume 479.267323
_symmetry_space_group_name_H-M "P -1"
_symmetry_group_IT_number 2
_symmetry_cell_setting 'triclinic'
loop_
_space_group_symop_operation_xyz
x,y,z
-x,-y,-z
loop_
_atom_site_type_symbol
_atom_site_label
_atom_site_fract_x
_atom_site_fract_y
_atom_site_fract_z
Si Si1 0.718156 0.287662 0.560835
Si Si2 0.083548 0.226494 0.996474
Si Si3 0.235358 0.126547 0.254221
Si Si4 0.438640 0.974867 0.698730
Si Si5 0.425493 0.328166 0.135324
Si Si6 0.011433 0.311887 0.643411
O O1 0.781103 0.101962 0.638451
O O2 0.487129 0.744255 0.765359
O O3 0.666343 0.117446 0.362716
O O4 0.630964 0.402157 0.733976
O O5 0.059072 0.523400 0.162802
O O6 0.170617 0.121355 0.078626
O O7 0.095345 0.276688 0.777958
O O8 0.000000 0.000000 0.000000
O O9 0.229062 0.427890 0.429099
O O10 0.343315 0.108085 0.161698
O O11 0.500000 0.000000 0.500000
O O12 0.442737 0.253240 0.892081
O O13 0.000000 0.500000 0.500000
O O14 0.000000 0.000000 0.500000
#
# Coordination Sequence:
#
# PCOD9030903 Si02
#       6
#     2   2   2   2   2   2
#     4  10  22  43  61  94 136 172 219 274 334 396
#     4  11  25  45  76  99 142 182 231 297 340 412
#     4  10  24  45  62  97 139 173 218 280 342 391
#     4  11  19  42  67  96 126 181 223 272 331 396
#     4   9  23  40  63  94 134 170 225 273 327 397
#     4  11  24  45  69 105 131 176 231 281 352 418
#
# _framework density 25.038219000000002
#
# number of rings (size 3 to 8) (size 9 to 14) (size 15 to 20)
#    1.000    0.667    3.333    0.500    4.667    0.667 
#   12.000    0.000    0.000    0.000    0.000    0.000 
#    0.000    0.000    0.000    0.000    0.000    0.000 
#
# Total GULP energy -66976.919381 kJ/mol
# GULP energy per Si atom -5581.409948 kJ/mol
# Density = 2.498123 g / cm^3
# Si number density = 25.038219 Si / 1000 Ang^3
#
#
#
# Elastic Constant Matrix: (Units=GPa)
#
#
# Indices 1 2 3 4 5 6 
#
# 1 67.1365 26.4798 27.2199 -17.6628 30.8815 -10.5271
# 2 26.4798 184.5996 74.0242 -20.0369 23.5106 -14.1821
# 3 27.2199 74.0242 191.3267 -9.5762 26.8959 -10.2181
# 4 -17.6628 -20.0369 -9.5762 45.8966 -13.0919 9.0325
# 5 30.8815 23.5106 26.8959 -13.0919 57.2908 -7.3864
# 6 -10.5271 -14.1821 -10.2181 9.0325 -7.3864 33.5659
#
#
#
# Elastic Compliance Matrix: (Units=1/GPa)
#
#
# Indices 1 2 3 4 5 6 
#
# 1 0.021599 -0.000758 -0.001077 0.004508 -0.009430 0.002838
# 2 -0.000758 0.006822 -0.002267 0.001737 -0.000759 0.001320
# 3 -0.001077 -0.002267 0.006479 -0.000606 -0.001606 0.000486
# 4 0.004508 0.001737 -0.000606 0.025724 0.002450 -0.004420
# 5 -0.009430 -0.000759 -0.001606 0.002450 0.024282 0.000917
# 6 0.002838 0.001320 0.000486 -0.004420 0.000917 0.032779
#
#
# Mechanical properties :
#
#
# Convention : Reuss Voigt Hill
#
# Bulk Modulus (GPa) = 37.46018 77.61226 57.53622
# Shear Modulus (GPa) = 37.09575 48.37324 42.73449
#
# Velocity S-wave (km/s) = 3.85329 4.40019 4.13579
# Velocity P-wave (km/s) = 5.89837 7.54191 6.77020
#
# Compressibility (1/GPa) = 0.02669501
#
# Stress axis : x y z
#
# Youngs Moduli (GPa) = 46.29794 146.59115 154.35651
#
# Poissons Ratio (x) = 0.11114 0.16620
# Poissons Ratio (y) = 0.03510 0.34997
# Poissons Ratio (z) = 0.04985 0.33236
#
# Static dielectric constant tensor:
#      x y z
#    x 2.085780 0.090060 -0.032390 
#    y 0.090060 2.012610 -0.023150 
#    z -0.032390 -0.023150 1.970650 
# 
# From -- ./inp_files/102061.got.cif
#   From: 2010.05.17/outbox.cif.g08.bks.cpg/sg2_52_cif.got.tgz:102061.got - 2010.06.03 11:33:40.
