data_PCOD9030082
_publ_section_title
;
Structure prediction by ZEFSAII (Michael W. Deem and Ramdas Pophale) SiO2 
 PCOD9030082
Probable space group: P -1
;
_chemical_formula_sum "Si O2"
_cell_formula_units_Z 16
_cell_length_a 14.303509
_cell_length_b 13.501918
_cell_length_c 11.087292
_cell_angle_alpha 42.087820
_cell_angle_beta 151.841826
_cell_angle_gamma 144.280789
_cell_volume 587.223706
_symmetry_space_group_name_H-M "P -1"
_symmetry_group_IT_number 2
_symmetry_cell_setting 'triclinic'
loop_
_space_group_symop_operation_xyz
x,y,z
-x,-y,-z
loop_
_atom_site_type_symbol
_atom_site_label
_atom_site_fract_x
_atom_site_fract_y
_atom_site_fract_z
Si Si1 0.818500 0.622163 0.673119
Si Si2 0.996306 0.087267 0.540332
Si Si3 0.892943 0.586280 0.383727
Si Si4 0.132673 0.299451 0.072560
Si Si5 0.359954 0.642067 0.114528
Si Si6 0.338213 0.913479 0.695503
Si Si7 0.297867 0.027167 0.128373
Si Si8 0.450946 0.317946 0.231213
O O1 0.910459 0.726720 0.808659
O O2 0.581577 0.620149 0.383434
O O3 0.755895 0.433005 0.818513
O O4 0.967449 0.730214 0.632286
O O5 0.751805 0.986082 0.417972
O O6 0.000000 0.000000 0.500000
O O7 0.182989 0.101728 0.836141
O O8 0.716772 0.457492 0.400128
O O9 0.000000 0.500000 0.500000
O O10 0.102707 0.765359 0.502881
O O11 0.714400 0.618763 0.073756
O O12 0.195677 0.496192 0.962899
O O13 0.341334 0.282201 0.271297
O O14 0.902420 0.151089 0.888019
O O15 0.419258 0.820629 0.967245
O O16 0.524165 0.996943 0.728580
O O17 0.410858 0.160859 0.243600
#
# Coordination Sequence:
#
# PCOD9030082 Si02
#       8
#     2   2   2   2   2   2   2   2
#     4   9  20  39  69  95 137 173 226 280 333 399
#     4  12  24  45  68  98 137 182 227 285 345 405
#     4  11  23  41  68 106 131 175 232 287 337 398
#     4  10  22  42  69  95 140 184 222 274 343 408
#     4   9  20  41  67 100 132 175 230 279 336 396
#     4  12  25  40  75 100 137 178 232 287 339 411
#     4  12  24  45  65 102 138 180 225 281 350 410
#     4  11  24  41  72  95 137 181 227 283 341 402
#
# _framework density 27.246855
#
# number of rings (size 3 to 8) (size 9 to 14) (size 15 to 20)
#    0.750    0.500    5.000    1.125    3.500    1.000 
#    0.000    3.125    2.750    0.000    0.000    0.000 
#    0.000    0.000    0.000    0.000    0.000    0.000 
#
# Total GULP energy -89527.811001 kJ/mol
# GULP energy per Si atom -5595.488188 kJ/mol
# Density = 2.718484 g / cm^3
# Si number density = 27.246855 Si / 1000 Ang^3
#
#
#
# Elastic Constant Matrix: (Units=GPa)
#
#
# Indices 1 2 3 4 5 6 
#
# 1 157.9324 25.7721 17.7189 0.7933 27.0983 9.9569
# 2 25.7721 64.7164 7.9008 11.6159 -1.9027 4.7359
# 3 17.7189 7.9008 92.8688 0.5341 -3.4785 5.0203
# 4 0.7933 11.6159 0.5341 50.7380 10.9059 -5.8389
# 5 27.0983 -1.9027 -3.4785 10.9059 56.4975 5.2724
# 6 9.9569 4.7359 5.0203 -5.8389 5.2724 54.7424
#
#
#
# Elastic Compliance Matrix: (Units=1/GPa)
#
#
# Indices 1 2 3 4 5 6 
#
# 1 0.007751 -0.003279 -0.001340 0.001486 -0.004156 -0.000444
# 2 -0.003279 0.017950 -0.000657 -0.004951 0.003255 -0.001738
# 3 -0.001340 -0.000657 0.011185 -0.000365 0.001464 -0.000905
# 4 0.001486 -0.004951 -0.000365 0.022365 -0.005509 0.003108
# 5 -0.004156 0.003255 0.001464 -0.005509 0.021170 -0.002286
# 6 -0.000444 -0.001738 -0.000905 0.003108 -0.002286 0.019133
#
#
# Mechanical properties :
#
#
# Convention : Reuss Voigt Hill
#
# Bulk Modulus (GPa) = 37.97526 46.47792 42.22659
# Shear Modulus (GPa) = 42.05758 50.00396 46.03077
#
# Velocity S-wave (km/s) = 3.93310 4.28859 4.11469
# Velocity P-wave (km/s) = 5.88162 6.45119 6.17298
#
# Compressibility (1/GPa) = 0.02633293
#
# Stress axis : x y z
#
# Youngs Moduli (GPa) = 129.01638 55.71126 89.40281
#
# Poissons Ratio (x) = 0.18270 0.11980
# Poissons Ratio (y) = 0.42310 0.05874
# Poissons Ratio (z) = 0.17289 0.03661
#
# Static dielectric constant tensor:
#      x y z
#    x 2.141420 0.011660 -0.010790 
#    y 0.011660 2.205960 -0.044000 
#    z -0.010790 -0.044000 2.130810 
# 
# From -- ./inp_files/454684.got.cif
#   From: 2010.05.17/outbox.cif.g08.bks.cpg/sg2_228_cif.got.tgz:454684.got - 2010.06.03 11:33:40.
