data_PCOD9030014
_publ_section_title
;
Structure prediction by ZEFSAII (Michael W. Deem and Ramdas Pophale) SiO2 
 PCOD9030014
Probable space group: P -1
;
_chemical_formula_sum "Si O2"
_cell_formula_units_Z 14
_cell_length_a 17.504830
_cell_length_b 8.201925
_cell_length_c 7.359976
_cell_angle_alpha 81.920422
_cell_angle_beta 116.871466
_cell_angle_gamma 48.813220
_cell_volume 537.401561
_symmetry_space_group_name_H-M "P -1"
_symmetry_group_IT_number 2
_symmetry_cell_setting 'triclinic'
loop_
_space_group_symop_operation_xyz
x,y,z
-x,-y,-z
loop_
_atom_site_type_symbol
_atom_site_label
_atom_site_fract_x
_atom_site_fract_y
_atom_site_fract_z
Si Si1 0.709459 0.058671 0.752247
Si Si2 0.451196 0.269912 0.904080
Si Si3 0.748367 0.924622 0.437219
Si Si4 0.877336 0.273199 0.457500
Si Si5 0.948014 0.443036 0.259356
Si Si6 0.853478 0.416573 0.810698
Si Si7 0.401837 0.420661 0.409488
O O1 0.570551 0.150793 0.562999
O O2 0.658766 0.305231 0.755555
O O3 0.747097 0.046514 0.589535
O O4 0.846952 0.755136 0.041624
O O5 0.288168 0.539706 0.775627
O O6 0.430169 0.360625 0.663117
O O7 0.500000 0.000000 0.000000
O O8 0.585930 0.162727 0.144540
O O9 0.791360 0.680134 0.608469
O O10 0.883735 0.772006 0.483213
O O11 0.872553 0.464033 0.338283
O O12 0.910348 0.231258 0.718125
O O13 0.000000 0.000000 0.500000
O O14 0.951697 0.325880 0.097622
O O15 0.723164 0.520266 0.757634
#
# Coordination Sequence:
#
# PCOD9030014 Si02
#       7
#     2   2   2   2   2   2   2
#     4  10  23  42  68 106 142 185 243 295 370 416
#     4  11  22  47  74  99 141 192 240 297 354 438
#     4  11  24  45  69 105 142 191 243 288 371 430
#     4  11  26  47  74 114 139 186 253 296 364 423
#     4  11  26  47  71 106 150 191 237 303 360 440
#     4  10  23  46  74 100 145 193 240 295 357 435
#     4  10  22  42  69 108 137 188 248 298 358 432
#
# _framework density 26.051282
#
# number of rings (size 3 to 8) (size 9 to 14) (size 15 to 20)
#    0.000    1.429    2.857    2.571    6.000    2.857 
#    5.143    0.000    0.000    0.000    0.000    0.000 
#    0.000    0.000    0.000    0.000    0.000    0.000 
#
# Total GULP energy -78362.334050 kJ/mol
# GULP energy per Si atom -5597.309575 kJ/mol
# Density = 2.599199 g / cm^3
# Si number density = 26.051282 Si / 1000 Ang^3
#
#
#
# Elastic Constant Matrix: (Units=GPa)
#
#
# Indices 1 2 3 4 5 6 
#
# 1 111.3202 7.5509 66.5241 -5.8352 33.5556 -18.7979
# 2 7.5509 98.9904 50.0523 -6.2547 -1.7187 -8.9628
# 3 66.5241 50.0523 143.7116 12.1995 34.5274 -19.5991
# 4 -5.8352 -6.2547 12.1995 36.9089 -0.0912 4.5540
# 5 33.5556 -1.7187 34.5274 -0.0912 58.4649 -17.2225
# 6 -18.7979 -8.9628 -19.5991 4.5540 -17.2225 38.6627
#
#
#
# Elastic Compliance Matrix: (Units=1/GPa)
#
#
# Indices 1 2 3 4 5 6 
#
# 1 0.014703 0.002904 -0.007100 0.004900 -0.003544 0.002067
# 2 0.002904 0.014135 -0.007297 0.005025 0.003664 0.002030
# 3 -0.007100 -0.007297 0.014639 -0.007352 -0.004455 0.001159
# 4 0.004900 0.005025 -0.007352 0.031596 0.000664 -0.003605
# 5 -0.003544 0.003664 -0.004455 0.000664 0.024094 0.007523
# 6 0.002067 0.002030 0.001159 -0.003605 0.007523 0.031703
#
#
# Mechanical properties :
#
#
# Convention : Reuss Voigt Hill
#
# Bulk Modulus (GPa) = 48.80444 66.91962 57.86203
# Shear Modulus (GPa) = 31.11632 42.13364 36.62498
#
# Velocity S-wave (km/s) = 3.45980 4.02597 3.75357
# Velocity P-wave (km/s) = 5.89363 6.88147 6.40662
#
# Compressibility (1/GPa) = 0.02048994
#
# Stress axis : x y z
#
# Youngs Moduli (GPa) = 68.01281 70.74608 68.31164
#
# Poissons Ratio (x) = -0.20542 0.48501
# Poissons Ratio (y) = -0.19748 0.49848
# Poissons Ratio (z) = 0.48289 0.51625
#
# Static dielectric constant tensor:
#      x y z
#    x 2.061900 0.037980 0.046190 
#    y 0.037980 2.173650 -0.005920 
#    z 0.046190 -0.005920 2.015830 
# 
# From -- ./inp_files/328900.got.cif
#   From: 2010.05.17/outbox.cif.g08.bks.cpg/sg2_165_cif.got.tgz:328900.got - 2010.06.03 11:33:40.
