data_PCOD9030585
_publ_section_title
;
Structure prediction by ZEFSAII (Michael W. Deem and Ramdas Pophale) SiO2 
 PCOD9030585
Probable space group: P -1
;
_chemical_formula_sum "Si O2"
_cell_formula_units_Z 13
_cell_length_a 8.639262
_cell_length_b 7.078020
_cell_length_c 15.901778
_cell_angle_alpha 131.417222
_cell_angle_beta 54.144229
_cell_angle_gamma 100.854456
_cell_volume 558.374041
_symmetry_space_group_name_H-M "P -1"
_symmetry_group_IT_number 2
_symmetry_cell_setting 'triclinic'
loop_
_space_group_symop_operation_xyz
x,y,z
-x,-y,-z
loop_
_atom_site_type_symbol
_atom_site_label
_atom_site_fract_x
_atom_site_fract_y
_atom_site_fract_z
Si Si1 0.783135 0.993216 0.594960
Si Si2 0.154877 0.570324 0.537866
Si Si3 0.498227 0.727651 0.377743
Si Si4 0.963003 0.386977 0.106473
Si Si5 0.296098 0.557684 0.130490
Si Si6 0.500000 0.000000 0.000000
Si Si7 0.941255 0.993231 0.871403
O O1 0.611343 0.185240 0.649637
O O2 0.754769 0.137164 0.734929
O O3 0.775847 0.697566 0.507538
O O4 0.000000 0.000000 0.500000
O O5 0.349777 0.604093 0.439750
O O6 0.053083 0.820342 0.705013
O O7 0.000000 0.500000 0.500000
O O8 0.725933 0.543369 0.236681
O O9 0.500000 0.000000 0.500000
O O10 0.008884 0.191431 0.115298
O O11 0.112333 0.550322 0.127722
O O12 0.991049 0.765537 0.042245
O O13 0.500000 0.500000 0.000000
O O14 0.348973 0.317806 0.112930
O O15 0.700735 0.087920 0.962204
#
# Coordination Sequence:
#
# PCOD9030585 Si02
#       7
#     2   2   2   2   2   1   2
#     4  12  25  47  72 108 149 193 250 300 370 447
#     4  12  28  45  77 108 144 197 251 302 368 447
#     4  12  27  47  74 109 151 195 241 316 377 437
#     4  10  24  45  71 106 148 187 241 307 376 428
#     4  11  26  44  73 105 140 191 246 302 361 449
#     4  10  22  42  72 100 142 188 236 298 370 424
#     4  10  23  44  73 104 143 189 245 300 365 444
#
# _framework density 23.281883000000001
#
# number of rings (size 3 to 8) (size 9 to 14) (size 15 to 20)
#    0.000    0.923    1.538    4.615    4.308    6.154 
#    0.000    3.846    0.000    0.000    0.000    0.000 
#    0.000    0.000    0.000    0.000    0.000    0.000 
#
# Total GULP energy -72409.838764 kJ/mol
# GULP energy per Si atom -5569.987597 kJ/mol
# Density = 2.322889 g / cm^3
# Si number density = 23.281883 Si / 1000 Ang^3
#
#
#
# Elastic Constant Matrix: (Units=GPa)
#
#
# Indices 1 2 3 4 5 6 
#
# 1 169.3615 33.7470 84.0204 -1.4721 -19.2927 15.5305
# 2 33.7470 89.3081 16.8498 13.0092 -4.6862 14.7652
# 3 84.0204 16.8498 156.6687 3.1580 7.2415 15.6215
# 4 -1.4721 13.0092 3.1580 31.2851 3.9758 -6.2234
# 5 -19.2927 -4.6862 7.2415 3.9758 53.0994 5.1353
# 6 15.5305 14.7652 15.6215 -6.2234 5.1353 44.0326
#
#
#
# Elastic Compliance Matrix: (Units=1/GPa)
#
#
# Indices 1 2 3 4 5 6 
#
# 1 0.009334 -0.002421 -0.004845 0.001240 0.003846 -0.001035
# 2 -0.002421 0.014005 0.000388 -0.007171 0.001338 -0.005150
# 3 -0.004845 0.000388 0.009248 -0.001286 -0.002740 -0.001564
# 4 0.001240 -0.007171 -0.001286 0.037200 -0.003575 0.008098
# 5 0.003846 0.001338 -0.002740 -0.003575 0.021360 -0.003830
# 6 -0.001035 -0.005150 -0.001564 0.008098 -0.003830 0.026948
#
#
# Mechanical properties :
#
#
# Convention : Reuss Voigt Hill
#
# Bulk Modulus (GPa) = 53.10157 76.06363 64.58260
# Shear Modulus (GPa) = 36.19828 44.39817 40.29823
#
# Velocity S-wave (km/s) = 3.94735 4.37164 4.16490
# Velocity P-wave (km/s) = 6.60553 7.63042 7.13640
#
# Compressibility (1/GPa) = 0.01883183
#
# Stress axis : x y z
#
# Youngs Moduli (GPa) = 107.13098 71.40327 108.12996
#
# Poissons Ratio (x) = 0.17286 0.52391
# Poissons Ratio (y) = 0.25935 -0.04198
# Poissons Ratio (z) = 0.51907 -0.02772
#
# Static dielectric constant tensor:
#      x y z
#    x 1.984150 -0.006450 0.081520 
#    y -0.006450 1.996070 0.048840 
#    z 0.081520 0.048840 1.806500 
# 
# From -- ./inp_files/553071.got.cif
#   From: 2010.05.17/outbox.cif.g08.bks.cpg/sg2_277_cif.got.tgz:553071.got - 2010.06.03 11:33:40.
