data_PCOD9030212
_publ_section_title
;
Structure prediction by ZEFSAII (Michael W. Deem and Ramdas Pophale) SiO2 
 PCOD9030212
Probable space group: P -1
;
_chemical_formula_sum "Si O2"
_cell_formula_units_Z 10
_cell_length_a 15.217086
_cell_length_b 17.316846
_cell_length_c 6.663762
_cell_angle_alpha 50.252689
_cell_angle_beta 131.381675
_cell_angle_gamma 162.860418
_cell_volume 388.048453
_symmetry_space_group_name_H-M "P -1"
_symmetry_group_IT_number 2
_symmetry_cell_setting 'triclinic'
loop_
_space_group_symop_operation_xyz
x,y,z
-x,-y,-z
loop_
_atom_site_type_symbol
_atom_site_label
_atom_site_fract_x
_atom_site_fract_y
_atom_site_fract_z
Si Si1 0.057525 0.287335 0.989294
Si Si2 0.879765 0.536510 0.561896
Si Si3 0.074861 0.082741 0.242814
Si Si4 0.449781 0.871665 0.978589
Si Si5 0.773671 0.640845 0.441336
O O1 0.214382 0.496144 0.742316
O O2 0.996431 0.137986 0.018111
O O3 0.243864 0.399763 0.280018
O O4 0.739171 0.079398 0.933507
O O5 0.439604 0.364554 0.302017
O O6 0.634704 0.292263 0.744638
O O7 0.979692 0.716152 0.533509
O O8 0.000000 0.000000 0.500000
O O9 0.900271 0.853526 0.250844
O O10 0.154030 0.673579 0.735221
O O11 0.500000 0.000000 0.000000
#
# Coordination Sequence:
#
# PCOD9030212 Si02
#       5
#     2   2   2   2   2
#     4  11  23  45  71 102 132 187 230 277 350 417
#     4  11  25  44  72  98 137 183 231 284 348 410
#     4  10  22  42  70 101 143 181 222 286 347 409
#     4  11  24  48  65  98 141 176 231 299 336 403
#     4  11  23  46  68 103 146 177 225 291 343 410
#
# _framework density 25.769976
#
# number of rings (size 3 to 8) (size 9 to 14) (size 15 to 20)
#    0.000    1.200    2.000    5.400    0.000    2.400 
#   14.400    0.000    0.000    1.200    0.000    0.000 
#    0.000    0.000    0.000    0.000    0.000    0.000 
#
# Total GULP energy -56032.534133 kJ/mol
# GULP energy per Si atom -5603.253413 kJ/mol
# Density = 2.571132 g / cm^3
# Si number density = 25.769976 Si / 1000 Ang^3
#
#
#
# Elastic Constant Matrix: (Units=GPa)
#
#
# Indices 1 2 3 4 5 6 
#
# 1 114.7135 30.4921 29.2939 7.7240 23.8443 12.7771
# 2 30.4921 102.5727 21.3391 -5.8996 9.7277 0.7991
# 3 29.2939 21.3391 206.8844 -5.8968 1.7013 -11.9901
# 4 7.7240 -5.8996 -5.8968 20.2681 -7.1075 -0.8860
# 5 23.8443 9.7277 1.7013 -7.1075 39.7158 0.3782
# 6 12.7771 0.7991 -11.9901 -0.8860 0.3782 41.1478
#
#
#
# Elastic Compliance Matrix: (Units=1/GPa)
#
#
# Indices 1 2 3 4 5 6 
#
# 1 0.013049 -0.003163 -0.002000 -0.009721 -0.008669 -0.004703
# 2 -0.003163 0.011043 -0.000528 0.004290 -0.000022 0.000707
# 3 -0.002000 -0.000528 0.005369 0.002824 0.001584 0.002242
# 4 -0.009721 0.004290 0.002824 0.060761 0.015491 0.004924
# 5 -0.008669 -0.000022 0.001584 0.015491 0.033063 0.003183
# 6 -0.004703 0.000707 0.002242 0.004924 0.003183 0.026479
#
#
# Mechanical properties :
#
#
# Convention : Reuss Voigt Hill
#
# Bulk Modulus (GPa) = 55.31396 65.15788 60.23592
# Shear Modulus (GPa) = 29.90941 43.09605 36.50273
#
# Velocity S-wave (km/s) = 3.41050 4.09386 3.76770
# Velocity P-wave (km/s) = 6.08439 6.90547 6.50789
#
# Compressibility (1/GPa) = 0.01807862
#
# Stress axis : x y z
#
# Youngs Moduli (GPa) = 76.63317 90.55786 186.26879
#
# Poissons Ratio (x) = 0.28648 0.37249
# Poissons Ratio (y) = 0.24243 0.09829
# Poissons Ratio (z) = 0.15325 0.04778
#
# Static dielectric constant tensor:
#      x y z
#    x 2.016850 -0.051400 -0.024970 
#    y -0.051400 2.051290 0.020600 
#    z -0.024970 0.020600 2.063610 
# 
# From -- ./inp_files/27416.got.cif
#   From: 2010.05.17/outbox.cif.g08.bks.cpg/sg2_14_cif.got.tgz:27416.got - 2010.06.03 11:33:40.
