data_PCOD9030290
_publ_section_title
;
Structure prediction by ZEFSAII (Michael W. Deem and Ramdas Pophale) SiO2 
 PCOD9030290
Probable space group: P -1
;
_chemical_formula_sum "Si O2"
_cell_formula_units_Z 16
_cell_length_a 25.358162
_cell_length_b 5.710082
_cell_length_c 5.002317
_cell_angle_alpha 87.082981
_cell_angle_beta 57.865716
_cell_angle_gamma 97.891848
_cell_volume 600.881893
_symmetry_space_group_name_H-M "P -1"
_symmetry_group_IT_number 2
_symmetry_cell_setting 'triclinic'
loop_
_space_group_symop_operation_xyz
x,y,z
-x,-y,-z
loop_
_atom_site_type_symbol
_atom_site_label
_atom_site_fract_x
_atom_site_fract_y
_atom_site_fract_z
Si Si1 0.248973 0.990748 0.532021
Si Si2 0.281266 0.610241 0.881464
Si Si3 0.397085 0.911508 0.720678
Si Si4 0.187547 0.146630 0.199352
Si Si5 0.047021 0.530658 0.122602
Si Si6 0.926189 0.942511 0.118101
Si Si7 0.489019 0.296204 0.765671
Si Si8 0.368423 0.303342 0.374901
O O1 0.256569 0.770999 0.713225
O O2 0.218442 0.970374 0.322340
O O3 0.318496 0.160220 0.306970
O O4 0.205332 0.116251 0.844719
O O5 0.330748 0.735194 0.968689
O O6 0.329700 0.483664 0.593854
O O7 0.224302 0.413026 0.157698
O O8 0.444557 0.792757 0.414246
O O9 0.440979 0.046498 0.827095
O O10 0.375476 0.113602 0.592290
O O11 0.116220 0.105148 0.498053
O O12 0.000000 0.500000 0.500000
O O13 0.083111 0.306823 0.010050
O O14 0.000000 0.500000 0.000000
O O15 0.084723 0.806380 0.998196
O O16 0.000000 0.000000 0.000000
O O17 0.500000 0.500000 0.500000
O O18 0.440899 0.397531 0.088485
#
# Coordination Sequence:
#
# PCOD9030290 Si02
#       8
#     2   2   2   2   2   2   2   2
#     4  10  26  45  72 102 145 190 245 303 364 445
#     4  10  24  47  72  95 140 190 239 305 362 442
#     4  10  23  42  62  95 130 178 225 296 361 436
#     4  11  26  48  72 111 144 191 252 301 374 443
#     4  10  22  42  70 107 149 196 240 292 368 445
#     4  10  24  47  77 113 154 201 247 317 380 456
#     4  11  24  38  65  98 132 173 228 294 367 437
#     4  10  23  43  62  93 130 181 228 294 361 433
#
# _framework density 26.627528000000002
#
# number of rings (size 3 to 8) (size 9 to 14) (size 15 to 20)
#    0.000    1.750    0.000    1.500    8.750   12.000 
#    4.500    0.000    0.000    0.000    0.000    0.000 
#    0.000    0.000    0.000    0.000    0.000    0.000 
#
# Total GULP energy -89472.042754 kJ/mol
# GULP energy per Si atom -5592.002672 kJ/mol
# Density = 2.656692 g / cm^3
# Si number density = 26.627528 Si / 1000 Ang^3
#
#
#
# Elastic Constant Matrix: (Units=GPa)
#
#
# Indices 1 2 3 4 5 6 
#
# 1 73.4777 0.5767 18.5089 -11.7629 -19.1811 -11.0965
# 2 0.5767 140.9262 15.5641 -6.5788 -8.3578 -18.2840
# 3 18.5089 15.5641 161.8567 -16.3084 -20.6432 -3.1795
# 4 -11.7629 -6.5788 -16.3084 48.9403 6.6550 -10.4502
# 5 -19.1811 -8.3578 -20.6432 6.6550 60.5304 -6.5200
# 6 -11.0965 -18.2840 -3.1795 -10.4502 -6.5200 33.7407
#
#
#
# Elastic Compliance Matrix: (Units=1/GPa)
#
#
# Indices 1 2 3 4 5 6 
#
# 1 0.017689 0.001871 -0.000685 0.005510 0.006063 0.009645
# 2 0.001871 0.008160 -0.000377 0.002464 0.001983 0.006148
# 3 -0.000685 -0.000377 0.006770 0.002036 0.001947 0.001215
# 4 0.005510 0.002464 0.002036 0.025016 0.001250 0.011329
# 5 0.006063 0.001983 0.001947 0.001250 0.020052 0.007514
# 6 0.009645 0.006148 0.001215 0.011329 0.007514 0.041217
#
#
# Mechanical properties :
#
#
# Convention : Reuss Voigt Hill
#
# Bulk Modulus (GPa) = 29.20637 49.50665 39.35651
# Shear Modulus (GPa) = 38.85092 51.41634 45.13363
#
# Velocity S-wave (km/s) = 3.82390 4.39902 4.12150
# Velocity P-wave (km/s) = 5.52164 6.66592 6.12058
#
# Compressibility (1/GPa) = 0.03423910
#
# Stress axis : x y z
#
# Youngs Moduli (GPa) = 56.53262 122.54611 147.70778
#
# Poissons Ratio (x) = -0.22934 0.10115
# Poissons Ratio (y) = -0.10580 0.05565
# Poissons Ratio (z) = 0.03871 0.04617
#
# Static dielectric constant tensor:
#      x y z
#    x 2.152340 0.087000 0.007780 
#    y 0.087000 2.263400 0.124130 
#    z 0.007780 0.124130 2.059160 
# 
# From -- ./inp_files/121148.got.cif
#   From: 2010.05.17/outbox.cif.g08.bks.cpg/sg2_61_cif.got.tgz:121148.got - 2010.06.03 11:33:40.
