data_PCOD9030077
_publ_section_title
;
Structure prediction by ZEFSAII (Michael W. Deem and Ramdas Pophale) SiO2 
 PCOD9030077
Probable space group: P -1
;
_chemical_formula_sum "Si O2"
_cell_formula_units_Z 14
_cell_length_a 14.733068
_cell_length_b 5.202991
_cell_length_c 8.458254
_cell_angle_alpha 61.442154
_cell_angle_beta 85.210904
_cell_angle_gamma 73.796474
_cell_volume 545.910871
_symmetry_space_group_name_H-M "P -1"
_symmetry_group_IT_number 2
_symmetry_cell_setting 'triclinic'
loop_
_space_group_symop_operation_xyz
x,y,z
-x,-y,-z
loop_
_atom_site_type_symbol
_atom_site_label
_atom_site_fract_x
_atom_site_fract_y
_atom_site_fract_z
Si Si1 0.860593 0.349190 0.004058
Si Si2 0.729600 0.414268 0.281256
Si Si3 0.567742 0.860878 0.675903
Si Si4 0.967074 0.084800 0.762284
Si Si5 0.508037 0.692001 0.181839
Si Si6 0.223614 0.172375 0.360087
Si Si7 0.112749 0.469544 0.595547
O O1 0.825941 0.690893 0.836847
O O2 0.891918 0.153469 0.896097
O O3 0.775380 0.295614 0.138899
O O4 0.954997 0.237411 0.131532
O O5 0.619279 0.564412 0.238317
O O6 0.802133 0.599586 0.272525
O O7 0.742078 0.177341 0.493011
O O8 0.530474 0.570877 0.813224
O O9 0.679020 0.729943 0.669610
O O10 0.500000 0.000000 0.500000
O O11 0.553014 0.157039 0.702003
O O12 0.031215 0.323171 0.705552
O O13 0.925072 0.181349 0.565531
O O14 0.500000 0.000000 0.000000
O O15 0.155220 0.310840 0.473051
#
# Coordination Sequence:
#
# PCOD9030077 Si02
#       7
#     2   2   2   2   2   2   2
#     4  10  22  43  65  99 134 178 229 294 347 432
#     4  12  25  43  69 100 137 179 243 291 360 422
#     4  12  25  47  75 105 149 192 240 298 369 433
#     4   9  20  44  66  94 139 177 231 284 369 420
#     4  12  28  48  75 110 146 194 243 304 363 438
#     4  11  24  44  68  99 141 182 235 288 362 425
#     4  10  22  42  69  95 135 186 221 298 353 428
#
# _framework density 25.645213999999999
#
# number of rings (size 3 to 8) (size 9 to 14) (size 15 to 20)
#    0.000    1.143    2.857    2.571    2.000    2.286 
#    7.714    0.000    0.000    0.000    0.000    0.000 
#    0.000    0.000    0.000    0.000    0.000    0.000 
#
# Total GULP energy -78221.037862 kJ/mol
# GULP energy per Si atom -5587.216990 kJ/mol
# Density = 2.558684 g / cm^3
# Si number density = 25.645214 Si / 1000 Ang^3
#
#
#
# Elastic Constant Matrix: (Units=GPa)
#
#
# Indices 1 2 3 4 5 6 
#
# 1 140.6109 53.8445 41.0652 -5.9749 1.0808 -11.3515
# 2 53.8445 92.3244 31.6054 -9.8052 -7.3000 -10.9427
# 3 41.0652 31.6054 134.8161 -33.8792 -9.0191 -7.8798
# 4 -5.9749 -9.8052 -33.8792 46.4583 -11.9179 1.8684
# 5 1.0808 -7.3000 -9.0191 -11.9179 36.4467 -2.4170
# 6 -11.3515 -10.9427 -7.8798 1.8684 -2.4170 32.4728
#
#
#
# Elastic Compliance Matrix: (Units=1/GPa)
#
#
# Indices 1 2 3 4 5 6 
#
# 1 0.009843 -0.005232 -0.002488 -0.002378 -0.002666 0.001012
# 2 -0.005232 0.015167 -0.000761 0.002913 0.004172 0.003240
# 3 -0.002488 -0.000761 0.011086 0.009008 0.005708 0.001470
# 4 -0.002378 0.002913 0.009008 0.031773 0.013372 0.001504
# 5 -0.002666 0.004172 0.005708 0.013372 0.034379 0.003648
# 6 0.001012 0.003240 0.001470 0.001504 0.003648 0.032783
#
#
# Mechanical properties :
#
#
# Convention : Reuss Voigt Hill
#
# Bulk Modulus (GPa) = 52.26940 68.97573 60.62257
# Shear Modulus (GPa) = 31.57144 39.15798 35.36471
#
# Velocity S-wave (km/s) = 3.51249 3.91181 3.71752
# Velocity P-wave (km/s) = 6.07257 6.88168 6.48975
#
# Compressibility (1/GPa) = 0.01913165
#
# Stress axis : x y z
#
# Youngs Moduli (GPa) = 101.59195 65.93381 90.20783
#
# Poissons Ratio (x) = 0.34498 0.22447
# Poissons Ratio (y) = 0.53155 0.06869
# Poissons Ratio (z) = 0.25279 0.05020
#
# Static dielectric constant tensor:
#      x y z
#    x 2.107220 -0.085920 -0.094380 
#    y -0.085920 2.264440 0.115310 
#    z -0.094380 0.115310 2.242620 
# 
# From -- ./inp_files/288365.got.cif
#   From: 2010.05.17/outbox.cif.g08.bks.cpg/sg2_145_cif.got.tgz:288365.got - 2010.06.03 11:33:40.
