data_PCOD9030484
_publ_section_title
;
Structure prediction by ZEFSAII (Michael W. Deem and Ramdas Pophale) SiO2 
 PCOD9030484
Probable space group: P -1
;
_chemical_formula_sum "Si O2"
_cell_formula_units_Z 16
_cell_length_a 17.498038
_cell_length_b 8.770365
_cell_length_c 11.495883
_cell_angle_alpha 56.308725
_cell_angle_beta 48.248119
_cell_angle_gamma 30.998861
_cell_volume 677.256323
_symmetry_space_group_name_H-M "P -1"
_symmetry_group_IT_number 2
_symmetry_cell_setting 'triclinic'
loop_
_space_group_symop_operation_xyz
x,y,z
-x,-y,-z
loop_
_atom_site_type_symbol
_atom_site_label
_atom_site_fract_x
_atom_site_fract_y
_atom_site_fract_z
Si Si1 0.923482 0.174498 0.160052
Si Si2 0.357341 0.230652 0.362804
Si Si3 0.540307 0.627778 0.339696
Si Si4 0.356776 0.881116 0.924910
Si Si5 0.210729 0.473308 0.168452
Si Si6 0.085369 0.712422 0.609543
Si Si7 0.486021 0.374336 0.889699
Si Si8 0.910191 0.573707 0.899419
O O1 0.735903 0.388690 0.219660
O O2 0.907046 0.228947 0.291405
O O3 0.057186 0.826559 0.156357
O O4 0.984166 0.274427 0.992248
O O5 0.488202 0.208678 0.220421
O O6 0.221854 0.406765 0.321293
O O7 0.260391 0.416176 0.498975
O O8 0.463868 0.897914 0.379447
O O9 0.500000 0.500000 0.500000
O O10 0.455670 0.723059 0.259048
O O11 0.357885 0.720632 0.897484
O O12 0.384997 0.767823 0.076812
O O13 0.194519 0.226909 0.963298
O O14 0.196257 0.338646 0.142763
O O15 0.383892 0.334011 0.033242
O O16 0.000060 0.631377 0.741563
O O17 0.000000 0.000000 0.500000
#
# Coordination Sequence:
#
# PCOD9030484 Si02
#       8
#     2   2   2   2   2   2   2   2
#     4  12  26  48  70 107 146 191 238 300 363 430
#     4  11  25  49  70 106 141 194 240 295 357 433
#     4  12  28  44  70 107 149 184 238 304 366 418
#     4  10  22  42  76 102 137 190 236 288 348 436
#     4  11  23  45  77 101 144 184 247 290 359 436
#     4  12  29  48  72 104 150 191 245 298 359 432
#     4  10  22  42  71 104 139 183 236 289 357 425
#     4  12  25  45  74 107 140 191 244 298 359 425
#
# _framework density 23.624734
#
# number of rings (size 3 to 8) (size 9 to 14) (size 15 to 20)
#    0.000    0.750    3.750    2.250    7.000    5.000 
#    0.000    0.000    0.000    0.000    0.000    0.000 
#    0.000    0.000    0.000    0.000    0.000    0.000 
#
# Total GULP energy -89436.630181 kJ/mol
# GULP energy per Si atom -5589.789386 kJ/mol
# Density = 2.357096 g / cm^3
# Si number density = 23.624734 Si / 1000 Ang^3
#
#
#
# Elastic Constant Matrix: (Units=GPa)
#
#
# Indices 1 2 3 4 5 6 
#
# 1 93.3971 9.6381 34.6857 -7.5739 3.4351 20.6076
# 2 9.6381 103.6939 25.2514 1.6648 -17.6310 6.5152
# 3 34.6857 25.2514 115.0210 -2.4206 -0.9040 10.0895
# 4 -7.5739 1.6648 -2.4206 35.8592 2.9798 7.0637
# 5 3.4351 -17.6310 -0.9040 2.9798 41.3980 0.6815
# 6 20.6076 6.5152 10.0895 7.0637 0.6815 38.4499
#
#
#
# Elastic Compliance Matrix: (Units=1/GPa)
#
#
# Indices 1 2 3 4 5 6 
#
# 1 0.014047 -0.000345 -0.003438 0.004327 -0.001578 -0.007335
# 2 -0.000345 0.011114 -0.002228 -0.000936 0.004797 -0.001027
# 3 -0.003438 -0.002228 0.010265 0.000206 -0.000446 -0.000503
# 4 0.004327 -0.000936 0.000206 0.030628 -0.002829 -0.007791
# 5 -0.001578 0.004797 -0.000446 -0.002829 0.026521 0.000200
# 6 -0.007335 -0.001027 -0.000503 -0.007791 0.000200 0.031673
#
#
# Mechanical properties :
#
#
# Convention : Reuss Voigt Hill
#
# Bulk Modulus (GPa) = 42.72944 50.14026 46.43485
# Shear Modulus (GPa) = 34.70544 39.31053 37.00799
#
# Velocity S-wave (km/s) = 3.83695 4.08359 3.96219
# Velocity P-wave (km/s) = 6.14456 6.59575 6.37415
#
# Compressibility (1/GPa) = 0.02340307
#
# Stress axis : x y z
#
# Youngs Moduli (GPa) = 71.19099 89.98008 97.41943
#
# Poissons Ratio (x) = 0.03108 0.33493
# Poissons Ratio (y) = 0.02459 0.21701
# Poissons Ratio (z) = 0.24476 0.20044
#
# Static dielectric constant tensor:
#      x y z
#    x 1.911410 -0.066470 0.025830 
#    y -0.066470 2.058850 -0.054050 
#    z 0.025830 -0.054050 1.881230 
# 
# From -- ./inp_files/461985.got.cif
#   From: 2010.05.17/outbox.cif.g08.bks.cpg/sg2_231_cif.got.tgz:461985.got - 2010.06.03 11:33:40.
