data_PCOD9030776
_publ_section_title
;
Structure prediction by ZEFSAII (Michael W. Deem and Ramdas Pophale) SiO2 
 PCOD9030776
Probable space group: P -1
;
_chemical_formula_sum "Si O2"
_cell_formula_units_Z 12
_cell_length_a 9.447698
_cell_length_b 11.582351
_cell_length_c 4.789384
_cell_angle_alpha 83.071616
_cell_angle_beta 69.707735
_cell_angle_gamma 62.528380
_cell_volume 435.642315
_symmetry_space_group_name_H-M "P -1"
_symmetry_group_IT_number 2
_symmetry_cell_setting 'triclinic'
loop_
_space_group_symop_operation_xyz
x,y,z
-x,-y,-z
loop_
_atom_site_type_symbol
_atom_site_label
_atom_site_fract_x
_atom_site_fract_y
_atom_site_fract_z
Si Si1 0.656566 0.285476 0.480148
Si Si2 0.154594 0.594563 0.912898
Si Si3 0.820509 0.996387 0.629310
Si Si4 0.000000 0.500000 0.500000
Si Si5 0.500000 0.500000 0.000000
Si Si6 0.313807 0.096443 0.718110
Si Si7 0.297535 0.358300 0.513604
O O1 0.826898 0.278648 0.227152
O O2 0.690171 0.143429 0.585343
O O3 0.318188 0.233964 0.704495
O O4 0.628104 0.376324 0.739745
O O5 0.152970 0.506449 0.671025
O O6 0.342691 0.509157 0.918233
O O7 0.026775 0.602820 0.228673
O O8 0.817254 0.898350 0.428731
O O9 0.000000 0.000000 0.500000
O O10 0.742627 0.961202 0.964302
O O11 0.808698 0.625291 0.697136
O O12 0.486267 0.350896 0.370909
O O13 0.500000 0.000000 0.500000
#
# Coordination Sequence:
#
# PCOD9030776 Si02
#       7
#     2   2   2   1   1   2   2
#     4  11  25  47  77 109 155 199 269 319 403 474
#     4  11  24  43  69 113 144 204 244 325 388 468
#     4  12  30  52  83 119 162 217 270 334 402 481
#     4  12  26  42  72 108 156 196 250 326 398 458
#     4  10  22  42  74 102 144 194 248 322 384 464
#     4  12  28  53  82 120 157 219 269 332 401 483
#     4  11  26  46  75 108 154 197 264 323 392 476
#
# _framework density 27.545532999999999
#
# number of rings (size 3 to 8) (size 9 to 14) (size 15 to 20)
#    0.000    0.667    1.667    5.500    7.000    5.333 
#    0.000    0.000    0.000    0.000    0.000    0.000 
#    0.000    0.000    0.000    0.000    0.000    0.000 
#
# Total GULP energy -66803.389256 kJ/mol
# GULP energy per Si atom -5566.949105 kJ/mol
# Density = 2.748284 g / cm^3
# Si number density = 27.545533 Si / 1000 Ang^3
#
#
#
# Elastic Constant Matrix: (Units=GPa)
#
#
# Indices 1 2 3 4 5 6 
#
# 1 170.9185 37.5808 60.3698 -10.2120 -30.3794 6.9254
# 2 37.5808 124.8020 67.8440 -21.9401 -17.0494 0.3186
# 3 60.3698 67.8440 208.6332 -29.6057 -41.8243 21.3132
# 4 -10.2120 -21.9401 -29.6057 43.0775 25.5567 -5.8721
# 5 -30.3794 -17.0494 -41.8243 25.5567 57.5134 -5.1594
# 6 6.9254 0.3186 21.3132 -5.8721 -5.1594 44.3493
#
#
#
# Elastic Compliance Matrix: (Units=1/GPa)
#
#
# Indices 1 2 3 4 5 6 
#
# 1 0.007044 -0.001363 -0.001161 -0.001795 0.003235 -0.000393
# 2 -0.001363 0.010543 -0.002922 0.004117 -0.001376 0.001927
# 3 -0.001161 -0.002922 0.007098 0.000955 0.003013 -0.002732
# 4 -0.001795 0.004117 0.000955 0.034211 -0.013994 0.002694
# 5 0.003235 -0.001376 0.003013 -0.013994 0.027039 -0.000650
# 6 -0.000393 0.001927 -0.002732 0.002694 -0.000650 0.024190
#
#
# Mechanical properties :
#
#
# Convention : Reuss Voigt Hill
#
# Bulk Modulus (GPa) = 72.50526 92.88254 82.69390
# Shear Modulus (GPa) = 39.80464 51.55865 45.68164
#
# Velocity S-wave (km/s) = 3.80550 4.33108 4.07677
# Velocity P-wave (km/s) = 6.75931 7.66837 7.22814
#
# Compressibility (1/GPa) = 0.01379210
#
# Stress axis : x y z
#
# Youngs Moduli (GPa) = 141.96203 94.85404 140.88557
#
# Poissons Ratio (x) = 0.12924 0.16361
# Poissons Ratio (y) = 0.19342 0.41174
# Poissons Ratio (z) = 0.16486 0.27721
#
# Static dielectric constant tensor:
#      x y z
#    x 2.394250 0.037640 0.109950 
#    y 0.037640 2.170920 0.065970 
#    z 0.109950 0.065970 2.104470 
# 
# From -- ./inp_files/21271.got.cif
#   From: 2010.05.17/outbox.cif.g08.bks.cpg/sg2_11_cif.got.tgz:21271.got - 2010.06.03 11:33:40.
