data_PCOD9030006
_publ_section_title
;
Structure prediction by ZEFSAII (Michael W. Deem and Ramdas Pophale) SiO2 
 PCOD9030006
Probable space group: P -1
;
_chemical_formula_sum "Si O2"
_cell_formula_units_Z 16
_cell_length_a 13.684235
_cell_length_b 24.107406
_cell_length_c 7.533747
_cell_angle_alpha 49.740652
_cell_angle_beta 58.196307
_cell_angle_gamma 21.007830
_cell_volume 652.961157
_symmetry_space_group_name_H-M "P -1"
_symmetry_group_IT_number 2
_symmetry_cell_setting 'triclinic'
loop_
_space_group_symop_operation_xyz
x,y,z
-x,-y,-z
loop_
_atom_site_type_symbol
_atom_site_label
_atom_site_fract_x
_atom_site_fract_y
_atom_site_fract_z
Si Si1 0.174773 0.472337 0.362857
Si Si2 0.871871 0.008958 0.348307
Si Si3 0.890664 0.777588 0.976038
Si Si4 0.198677 0.589015 0.516201
Si Si5 0.632111 0.988577 0.122498
Si Si6 0.759318 0.074939 0.739407
Si Si7 0.709440 0.361099 0.346561
Si Si8 0.745205 0.595118 0.986217
O O1 0.479931 0.285260 0.544015
O O2 0.206006 0.462836 0.140606
O O3 0.000000 0.500000 0.500000
O O4 0.002989 0.640437 0.249519
O O5 0.007090 0.011626 0.205733
O O6 0.074720 0.831155 0.436879
O O7 0.855661 0.004176 0.588526
O O8 0.560337 0.189509 0.186769
O O9 0.150803 0.674171 0.871910
O O10 0.676094 0.867821 0.847760
O O11 0.700321 0.937113 0.954682
O O12 0.397573 0.506976 0.340776
O O13 0.297467 0.575453 0.623835
O O14 0.875227 0.801181 0.368172
O O15 0.253344 0.473540 0.740703
O O16 0.672756 0.051245 0.972480
O O17 0.000000 0.500000 0.000000
#
# Coordination Sequence:
#
# PCOD9030006 Si02
#       8
#     2   2   2   2   2   2   2   2
#     4  11  23  43  70 103 136 176 236 283 346 410
#     4  10  24  44  70  97 140 181 234 282 355 407
#     4  11  24  44  72 102 136 186 236 290 344 406
#     4  11  28  45  66 103 143 184 229 285 349 422
#     4  11  25  42  72 102 140 177 240 288 345 411
#     4  10  22  42  69 106 133 178 232 298 335 414
#     4  11  25  47  67  98 141 188 228 281 352 415
#     4  11  27  46  69 101 142 182 229 290 349 421
#
# _framework density 24.503753
#
# number of rings (size 3 to 8) (size 9 to 14) (size 15 to 20)
#    0.000    1.250    3.750    0.000    8.750    3.500 
#    0.000    0.000    0.000    0.000    0.000    0.000 
#    0.000    0.000    0.000    0.000    0.000    0.000 
#
# Total GULP energy -89537.252533 kJ/mol
# GULP energy per Si atom -5596.078283 kJ/mol
# Density = 2.444798 g / cm^3
# Si number density = 24.503753 Si / 1000 Ang^3
#
#
#
# Elastic Constant Matrix: (Units=GPa)
#
#
# Indices 1 2 3 4 5 6 
#
# 1 111.3299 29.6385 35.7592 4.2524 -19.5722 -22.3127
# 2 29.6385 91.2764 30.5232 -1.4735 -2.6944 -12.6527
# 3 35.7592 30.5232 88.5013 7.9038 -14.7224 -14.4375
# 4 4.2524 -1.4735 7.9038 42.3565 -0.8521 -0.2088
# 5 -19.5722 -2.6944 -14.7224 -0.8521 37.5149 -9.2620
# 6 -22.3127 -12.6527 -14.4375 -0.2088 -9.2620 26.3718
#
#
#
# Elastic Compliance Matrix: (Units=1/GPa)
#
#
# Indices 1 2 3 4 5 6 
#
# 1 0.014732 -0.002134 -0.000927 -0.001091 0.010776 0.014709
# 2 -0.002134 0.013148 -0.003604 0.001335 -0.001014 0.002184
# 3 -0.000927 -0.003604 0.015870 -0.002797 0.007600 0.008822
# 4 -0.001091 0.001335 -0.002797 0.024245 -0.001556 -0.002169
# 5 0.010776 -0.001014 0.007600 -0.001556 0.041944 0.027510
# 6 0.014709 0.002184 0.008822 -0.002169 0.027510 0.065887
#
#
# Mechanical properties :
#
#
# Convention : Reuss Voigt Hill
#
# Bulk Modulus (GPa) = 32.87291 53.66104 43.26698
# Shear Modulus (GPa) = 25.08819 34.26110 29.67464
#
# Velocity S-wave (km/s) = 3.20324 3.74331 3.48375
# Velocity P-wave (km/s) = 5.20822 6.37415 5.82045
#
# Compressibility (1/GPa) = 0.03042018
#
# Stress axis : x y z
#
# Youngs Moduli (GPa) = 67.87779 76.05560 63.01195
#
# Poissons Ratio (x) = 0.16233 0.05841
# Poissons Ratio (y) = 0.14487 0.22709
# Poissons Ratio (z) = 0.06292 0.27410
#
# Static dielectric constant tensor:
#      x y z
#    x 1.991090 0.022930 0.056070 
#    y 0.022930 1.973790 0.052150 
#    z 0.056070 0.052150 1.935650 
# 
# From -- ./inp_files/320651.got.cif
#   From: 2010.05.17/outbox.cif.g08.bks.cpg/sg2_161_cif.got.tgz:320651.got - 2010.06.03 11:33:40.
