data_PCOD9030812
_publ_section_title
;
Structure prediction by ZEFSAII (Michael W. Deem and Ramdas Pophale) SiO2 
 PCOD9030812
Probable space group: P -1
;
_chemical_formula_sum "Si O2"
_cell_formula_units_Z 15
_cell_length_a 21.502636
_cell_length_b 6.669614
_cell_length_c 5.303410
_cell_angle_alpha 76.847548
_cell_angle_beta 128.207697
_cell_angle_gamma 98.198122
_cell_volume 581.968402
_symmetry_space_group_name_H-M "P -1"
_symmetry_group_IT_number 2
_symmetry_cell_setting 'triclinic'
loop_
_space_group_symop_operation_xyz
x,y,z
-x,-y,-z
loop_
_atom_site_type_symbol
_atom_site_label
_atom_site_fract_x
_atom_site_fract_y
_atom_site_fract_z
Si Si1 0.828255 0.331217 0.406414
Si Si2 0.500000 0.500000 0.500000
Si Si3 0.253304 0.336462 0.174993
Si Si4 0.613984 0.389380 0.336270
Si Si5 0.691813 0.048673 0.324642
Si Si6 0.977239 0.169123 0.597114
Si Si7 0.386877 0.262226 0.141153
Si Si8 0.072408 0.471352 0.997376
O O1 0.745193 0.211631 0.257898
O O2 0.898240 0.165919 0.574042
O O3 0.850976 0.456928 0.679223
O O4 0.817881 0.517169 0.125099
O O5 0.561858 0.397114 0.451938
O O6 0.457779 0.264194 0.514981
O O7 0.309835 0.470361 0.456242
O O8 0.304352 0.297535 0.062178
O O9 0.247065 0.114848 0.351682
O O10 0.644414 0.169873 0.385975
O O11 0.581594 0.512392 0.965476
O O12 0.629760 0.917950 0.041463
O O13 0.949940 0.360370 0.308768
O O14 0.000000 0.000000 0.500000
O O15 0.055331 0.241612 0.922603
O O16 0.000000 0.500000 0.000000
#
# Coordination Sequence:
#
# PCOD9030812 Si02
#       8
#     2   1   2   2   2   2   2   2
#     4  11  24  46  72 100 142 179 223 288 349 398
#     4  10  22  42  74  98 138 194 220 286 344 392
#     4  10  24  44  66 102 141 176 226 290 338 407
#     4  10  22  44  68  97 146 172 232 285 332 408
#     4  11  25  43  70 106 136 179 229 285 343 407
#     4  10  23  48  70  98 135 179 229 278 338 414
#     4  10  22  44  66 101 141 176 235 283 334 409
#     4   9  22  46  66  97 136 173 225 279 335 408
#
# _framework density 25.774598000000001
#
# number of rings (size 3 to 8) (size 9 to 14) (size 15 to 20)
#    0.000    1.867    1.333    0.400    3.733    2.667 
#   19.200    6.667    0.000    0.000    0.000    0.000 
#    0.000    0.000    0.000    0.000    0.000    0.000 
#
# Total GULP energy -83605.510657 kJ/mol
# GULP energy per Si atom -5573.700710 kJ/mol
# Density = 2.571593 g / cm^3
# Si number density = 25.774598 Si / 1000 Ang^3
#
#
#
# Elastic Constant Matrix: (Units=GPa)
#
#
# Indices 1 2 3 4 5 6 
#
# 1 117.6846 53.7382 9.9293 10.4102 7.7365 -27.0353
# 2 53.7382 166.2246 47.7725 31.3482 6.1681 -35.6260
# 3 9.9293 47.7725 80.7870 2.1465 0.0270 -8.7879
# 4 10.4102 31.3482 2.1465 52.8192 0.0533 -12.0003
# 5 7.7365 6.1681 0.0270 0.0533 29.5789 1.9560
# 6 -27.0353 -35.6260 -8.7879 -12.0003 1.9560 38.8305
#
#
#
# Elastic Compliance Matrix: (Units=1/GPa)
#
#
# Indices 1 2 3 4 5 6 
#
# 1 0.011076 -0.002565 0.000778 0.000645 -0.002752 0.005872
# 2 -0.002565 0.010305 -0.005088 -0.004195 -0.001817 0.005312
# 3 0.000778 -0.005088 0.015228 0.002240 0.000842 -0.000030
# 4 0.000645 -0.004195 0.002240 0.022093 0.000405 0.003915
# 5 -0.002752 -0.001817 0.000842 0.000405 0.035238 -0.005042
# 6 0.005872 0.005312 -0.000030 0.003915 -0.005042 0.036171
#
#
# Mechanical properties :
#
#
# Convention : Reuss Voigt Hill
#
# Bulk Modulus (GPa) = 43.74854 65.28622 54.51738
# Shear Modulus (GPa) = 33.00725 41.12949 37.06837
#
# Velocity S-wave (km/s) = 3.58245 3.99900 3.79644
# Velocity P-wave (km/s) = 5.84143 6.83428 6.35726
#
# Compressibility (1/GPa) = 0.02285790
#
# Stress axis : x y z
#
# Youngs Moduli (GPa) = 90.28671 97.04396 65.66664
#
# Poissons Ratio (x) = 0.24895 -0.05110
# Poissons Ratio (y) = 0.23161 0.33414
# Poissons Ratio (z) = -0.07026 0.49379
#
# Static dielectric constant tensor:
#      x y z
#    x 2.291120 -0.136010 -0.079670 
#    y -0.136010 2.353100 0.390210 
#    z -0.079670 0.390210 2.882400 
# 
# From -- ./inp_files/9701.got.cif
#   From: 2010.05.17/outbox.cif.g08.bks.cpg/sg2_5_cif.got.tgz:9701.got - 2010.06.03 11:33:40.
