data_PCOD9030148
_publ_section_title
;
Structure prediction by ZEFSAII (Michael W. Deem and Ramdas Pophale) SiO2 
 PCOD9030148
Probable space group: P -1
;
_chemical_formula_sum "Si O2"
_cell_formula_units_Z 12
_cell_length_a 5.217081
_cell_length_b 23.208123
_cell_length_c 25.410275
_cell_angle_alpha 11.488699
_cell_angle_beta 123.768151
_cell_angle_gamma 122.800975
_cell_volume 509.325426
_symmetry_space_group_name_H-M "P -1"
_symmetry_group_IT_number 2
_symmetry_cell_setting 'triclinic'
loop_
_space_group_symop_operation_xyz
x,y,z
-x,-y,-z
loop_
_atom_site_type_symbol
_atom_site_label
_atom_site_fract_x
_atom_site_fract_y
_atom_site_fract_z
Si Si1 0.654537 0.563828 0.224006
Si Si2 0.369918 0.320361 0.693699
Si Si3 0.253895 0.747257 0.378636
Si Si4 0.067278 0.562900 0.741792
Si Si5 0.380546 0.575687 0.006124
Si Si6 0.740040 0.846448 0.713004
O O1 0.785931 0.395384 0.441108
O O2 0.834384 0.435162 0.309418
O O3 0.287746 0.511352 0.226227
O O4 0.675637 0.914316 0.913164
O O5 0.500000 0.500000 0.500000
O O6 0.465201 0.503249 0.592254
O O7 0.021398 0.265231 0.684175
O O8 0.500000 0.000000 0.000000
O O9 0.121948 0.856642 0.516944
O O10 0.334537 0.364366 0.976725
O O11 0.469140 0.759073 0.800408
O O12 0.054222 0.643281 0.935087
O O13 0.359469 0.249972 0.271149
#
# Coordination Sequence:
#
# PCOD9030148 Si02
#       6
#     2   2   2   2   2   2
#     4  12  30  45  77 102 160 194 240 294 372 438
#     4  11  24  47  84 105 143 186 244 299 356 419
#     4  11  28  50  68 118 141 192 242 300 353 438
#     4  12  27  44  68 103 142 200 238 300 364 445
#     4  10  22  42  69  99 135 183 246 311 364 421
#     4  10  22  42  69  99 135 183 246 311 364 421
#
# _framework density 23.560575
#
# number of rings (size 3 to 8) (size 9 to 14) (size 15 to 20)
#    0.000    1.000    0.000    4.500   14.000    2.667 
#    0.000    6.667    0.000    0.000    0.000    0.000 
#    0.000    0.000    0.000    0.000    0.000    0.000 
#
# Total GULP energy -66953.554225 kJ/mol
# GULP energy per Si atom -5579.462852 kJ/mol
# Density = 2.350695 g / cm^3
# Si number density = 23.560575 Si / 1000 Ang^3
#
#
#
# Elastic Constant Matrix: (Units=GPa)
#
#
# Indices 1 2 3 4 5 6 
#
# 1 84.8851 27.4034 21.4399 -22.4247 -6.6526 5.2390
# 2 27.4034 122.9742 51.1361 -14.4581 1.1911 -9.1833
# 3 21.4399 51.1361 141.5007 -23.4281 -9.8499 -12.6131
# 4 -22.4247 -14.4581 -23.4281 34.9340 -7.5891 -6.5720
# 5 -6.6526 1.1911 -9.8499 -7.5891 20.9553 1.6118
# 6 5.2390 -9.1833 -12.6131 -6.5720 1.6118 45.4672
#
#
#
# Elastic Compliance Matrix: (Units=1/GPa)
#
#
# Indices 1 2 3 4 5 6 
#
# 1 0.016561 -0.002915 0.001277 0.012446 0.010586 -0.000719
# 2 -0.002915 0.010319 -0.003445 -0.000356 -0.003378 0.001533
# 3 0.001277 -0.003445 0.010433 0.008798 0.008459 0.003023
# 4 0.012446 -0.000356 0.008798 0.049227 0.025385 0.007150
# 5 0.010586 -0.003378 0.008459 0.025385 0.064302 0.001834
# 6 -0.000719 0.001533 0.003023 0.007150 0.001834 0.024193
#
#
# Mechanical properties :
#
#
# Convention : Reuss Voigt Hill
#
# Bulk Modulus (GPa) = 36.83363 61.03544 48.93453
# Shear Modulus (GPa) = 25.74008 36.89666 31.31837
#
# Velocity S-wave (km/s) = 3.30889 3.96161 3.64987
# Velocity P-wave (km/s) = 5.50145 6.84746 6.21103
#
# Compressibility (1/GPa) = 0.02714910
#
# Stress axis : x y z
#
# Youngs Moduli (GPa) = 60.38379 96.90756 95.84521
#
# Poissons Ratio (x) = 0.28244 -0.12244
# Poissons Ratio (y) = 0.17599 0.33019
# Poissons Ratio (z) = -0.07714 0.33385
#
# Static dielectric constant tensor:
#      x y z
#    x 2.178820 0.197070 0.287890 
#    y 0.197070 2.086550 0.158700 
#    z 0.287890 0.158700 2.151570 
# 
# From -- ./inp_files/5334.got.cif
#   From: 2010.05.17/outbox.cif.g08.bks.cpg/sg2_3_cif.got.tgz:5334.got - 2010.06.03 11:33:40.
