data_PCOD9030540
_publ_section_title
;
Structure prediction by ZEFSAII (Michael W. Deem and Ramdas Pophale) SiO2 
 PCOD9030540
Probable space group: P -1
;
_chemical_formula_sum "Si O2"
_cell_formula_units_Z 16
_cell_length_a 9.406236
_cell_length_b 15.216704
_cell_length_c 7.430496
_cell_angle_alpha 73.144046
_cell_angle_beta 82.564272
_cell_angle_gamma 134.178302
_cell_volume 639.194321
_symmetry_space_group_name_H-M "P -1"
_symmetry_group_IT_number 2
_symmetry_cell_setting 'triclinic'
loop_
_space_group_symop_operation_xyz
x,y,z
-x,-y,-z
loop_
_atom_site_type_symbol
_atom_site_label
_atom_site_fract_x
_atom_site_fract_y
_atom_site_fract_z
Si Si1 0.621342 0.867613 0.630383
Si Si2 0.072400 0.154310 0.391916
Si Si3 0.533860 0.118282 0.995823
Si Si4 0.005554 0.394114 0.578258
Si Si5 0.230721 0.559759 0.912892
Si Si6 0.722012 0.553318 0.773084
Si Si7 0.753884 0.611503 0.197565
Si Si8 0.953078 0.076361 0.886516
O O1 0.779316 0.860728 0.675427
O O2 0.409851 0.706346 0.679149
O O3 0.502220 0.872918 0.795095
O O4 0.823605 0.027523 0.415778
O O5 0.216949 0.315688 0.231791
O O6 0.029093 0.129182 0.632232
O O7 0.782871 0.264928 0.804805
O O8 0.500000 0.000000 0.000000
O O9 0.317687 0.057503 0.977839
O O10 0.033884 0.353187 0.412678
O O11 0.215168 0.449197 0.612954
O O12 0.000000 0.500000 0.500000
O O13 0.185905 0.431920 0.943003
O O14 0.341727 0.583351 0.069641
O O15 0.000000 0.500000 0.000000
O O16 0.495483 0.473944 0.748946
O O17 0.921630 0.778359 0.115791
O O18 0.000000 0.000000 0.000000
#
# Coordination Sequence:
#
# PCOD9030540 Si02
#       8
#     2   2   2   2   2   2   2   2
#     4  10  22  42  71  97 135 180 234 289 354 423
#     4  10  22  43  71 101 136 178 240 298 346 415
#     4  11  22  45  69  95 141 186 232 290 354 422
#     4  12  25  43  72 104 145 187 235 300 358 421
#     4  12  27  46  70 105 149 193 234 294 371 434
#     4  12  25  45  71 102 143 188 244 297 352 425
#     4  12  25  44  72 106 143 189 247 290 357 433
#     4  11  26  43  71 106 141 189 242 294 357 425
#
# _framework density 25.031514000000001
#
# number of rings (size 3 to 8) (size 9 to 14) (size 15 to 20)
#    0.000    0.750    3.750    3.750    5.250    1.000 
#    2.250    0.625    0.000    0.000    0.000    0.000 
#    0.000    0.000    0.000    0.000    0.000    0.000 
#
# Total GULP energy -89111.784667 kJ/mol
# GULP energy per Si atom -5569.486542 kJ/mol
# Density = 2.497454 g / cm^3
# Si number density = 25.031514 Si / 1000 Ang^3
#
#
#
# Elastic Constant Matrix: (Units=GPa)
#
#
# Indices 1 2 3 4 5 6 
#
# 1 207.5782 79.7122 63.8163 42.0586 -9.3970 -14.5360
# 2 79.7122 215.6086 66.0109 75.3718 -7.4526 -27.1905
# 3 63.8163 66.0109 103.6873 32.0730 -22.2640 -6.5677
# 4 42.0586 75.3718 32.0730 121.2666 -16.5487 -31.3919
# 5 -9.3970 -7.4526 -22.2640 -16.5487 49.9840 -1.4239
# 6 -14.5360 -27.1905 -6.5677 -31.3919 -1.4239 45.3869
#
#
#
# Elastic Compliance Matrix: (Units=1/GPa)
#
#
# Indices 1 2 3 4 5 6 
#
# 1 0.006333 -0.001146 -0.003061 -0.000634 -0.000541 0.000444
# 2 -0.001146 0.007245 -0.003188 -0.003141 -0.001558 0.001291
# 3 -0.003061 -0.003188 0.014769 -0.000339 0.005392 -0.000818
# 4 -0.000634 -0.003141 -0.000339 0.012776 0.003686 0.006818
# 5 -0.000541 -0.001558 0.005392 0.003686 0.023379 0.002956
# 6 0.000444 0.001291 -0.000818 0.006818 0.002956 0.027638
#
#
# Mechanical properties :
#
#
# Convention : Reuss Voigt Hill
#
# Bulk Modulus (GPa) = 73.76000 105.10590 89.43295
# Shear Modulus (GPa) = 44.86406 64.48313 54.67360
#
# Velocity S-wave (km/s) = 4.23815 5.08101 4.67860
# Velocity P-wave (km/s) = 7.31301 8.74659 8.06173
#
# Compressibility (1/GPa) = 0.01355748
#
# Stress axis : x y z
#
# Youngs Moduli (GPa) = 157.89463 138.03451 67.71079
#
# Poissons Ratio (x) = 0.15813 0.20723
# Poissons Ratio (y) = 0.18088 0.21589
# Poissons Ratio (z) = 0.48324 0.44012
#
# Static dielectric constant tensor:
#      x y z
#    x 1.365790 -1.061010 -1.137370 
#    y -1.061010 -0.436140 -2.807530 
#    z -1.137370 -2.807530 -1.151530 
# 
# From -- ./inp_files/206371.got.cif
#   From: 2010.05.17/outbox.cif.g08.bks.cpg/sg2_104_cif.got.tgz:206371.got - 2010.06.03 11:33:40.
