data_PCOD9030846
_publ_section_title
;
Structure prediction by ZEFSAII (Michael W. Deem and Ramdas Pophale) SiO2 
 PCOD9030846
Probable space group: P -1
;
_chemical_formula_sum "Si O2"
_cell_formula_units_Z 15
_cell_length_a 20.780465
_cell_length_b 9.279943
_cell_length_c 7.715188
_cell_angle_alpha 90.609476
_cell_angle_beta 124.870139
_cell_angle_gamma 44.592147
_cell_volume 621.626907
_symmetry_space_group_name_H-M "P -1"
_symmetry_group_IT_number 2
_symmetry_cell_setting 'triclinic'
loop_
_space_group_symop_operation_xyz
x,y,z
-x,-y,-z
loop_
_atom_site_type_symbol
_atom_site_label
_atom_site_fract_x
_atom_site_fract_y
_atom_site_fract_z
Si Si1 0.823848 0.761527 0.798893
Si Si2 0.500000 0.000000 0.000000
Si Si3 0.546972 0.370736 0.261644
Si Si4 0.685631 0.698232 0.744337
Si Si5 0.373073 0.460941 0.578101
Si Si6 0.828857 0.439536 0.330166
Si Si7 0.756348 0.248830 0.265314
Si Si8 0.093626 0.225085 0.729296
O O1 0.750733 0.718330 0.715523
O O2 0.705202 0.035443 0.500596
O O3 0.811988 0.858028 0.969046
O O4 0.000000 0.500000 0.000000
O O5 0.483726 0.173961 0.847154
O O6 0.321144 0.301128 0.780184
O O7 0.549151 0.515806 0.375046
O O8 0.500000 0.500000 0.000000
O O9 0.409813 0.474308 0.084072
O O10 0.708139 0.506766 0.690273
O O11 0.500000 0.000000 0.500000
O O12 0.780871 0.563513 0.065130
O O13 0.260522 0.706111 0.553910
O O14 0.855626 0.227231 0.364359
O O15 0.970525 0.306355 0.615295
O O16 0.817614 0.002188 0.285277
O O17 0.000000 0.500000 0.500000
#
# Coordination Sequence:
#
# PCOD9030846 Si02
#       8
#     2   1   2   2   2   2   2   2
#     4  12  31  50  76 118 157 206 259 329 397 469
#     4  10  22  42  76 106 142 204 258 306 380 470
#     4  10  25  47  78 109 148 201 260 319 385 461
#     4  12  25  45  75 114 154 194 271 317 381 464
#     4  10  24  41  74 108 148 195 254 322 374 455
#     4  11  24  46  73 109 151 206 254 320 394 459
#     4  10  25  47  74 107 149 200 265 314 393 458
#     4  12  28  48  74 106 158 203 257 321 396 468
#
# _framework density 24.130230999999998
#
# number of rings (size 3 to 8) (size 9 to 14) (size 15 to 20)
#    0.000    1.067    2.667    1.200   16.800    0.533 
#    0.000    1.333    0.000    0.000    0.000    0.000 
#    0.000    0.000    0.000    0.000    0.000    0.000 
#
# Total GULP energy -83596.630893 kJ/mol
# GULP energy per Si atom -5573.108726 kJ/mol
# Density = 2.407531 g / cm^3
# Si number density = 24.130231 Si / 1000 Ang^3
#
#
#
# Elastic Constant Matrix: (Units=GPa)
#
#
# Indices 1 2 3 4 5 6 
#
# 1 87.9416 16.8950 12.0166 14.7629 26.9419 9.6227
# 2 16.8950 118.6016 26.0693 17.5449 22.2811 -16.4010
# 3 12.0166 26.0693 61.5826 8.6731 16.3522 -4.9663
# 4 14.7629 17.5449 8.6731 30.3065 1.7971 15.3663
# 5 26.9419 22.2811 16.3522 1.7971 47.0891 4.9525
# 6 9.6227 -16.4010 -4.9663 15.3663 4.9525 38.7187
#
#
#
# Elastic Compliance Matrix: (Units=1/GPa)
#
#
# Indices 1 2 3 4 5 6 
#
# 1 0.015127 0.000699 0.000251 -0.007705 -0.008859 0.000760
# 2 0.000699 0.013473 -0.001164 -0.013241 -0.007080 0.011544
# 3 0.000251 -0.001164 0.020107 -0.007846 -0.006909 0.006021
# 4 -0.007705 -0.013241 -0.007846 0.061497 0.014305 -0.030936
# 5 -0.008859 -0.007080 -0.006909 0.014305 0.032722 -0.011546
# 6 0.000760 0.011544 0.006021 -0.030936 -0.011546 0.045055
#
#
# Mechanical properties :
#
#
# Convention : Reuss Voigt Hill
#
# Bulk Modulus (GPa) = 20.71287 42.00974 31.36130
# Shear Modulus (GPa) = 24.44947 37.43253 30.94100
#
# Velocity S-wave (km/s) = 3.18658 3.94289 3.58474
# Velocity P-wave (km/s) = 4.70547 6.17867 5.49169
#
# Compressibility (1/GPa) = 0.04827916
#
# Stress axis : x y z
#
# Youngs Moduli (GPa) = 66.10767 74.22227 49.73315
#
# Poissons Ratio (x) = -0.05189 -0.01249
# Poissons Ratio (y) = -0.04622 0.05790
# Poissons Ratio (z) = -0.01660 0.08641
#
# Static dielectric constant tensor:
#      x y z
#    x 2.069040 -0.025040 0.042020 
#    y -0.025040 1.960700 0.007270 
#    z 0.042020 0.007270 1.906780 
# 
# From -- ./inp_files/342768.got.cif
#   From: 2010.05.17/outbox.cif.g08.bks.cpg/sg2_172_cif.got.tgz:342768.got - 2010.06.03 11:33:40.
