data_PCOD9030436
_publ_section_title
;
Structure prediction by ZEFSAII (Michael W. Deem and Ramdas Pophale) SiO2 
 PCOD9030436
Probable space group: P -1
;
_chemical_formula_sum "Si O2"
_cell_formula_units_Z 16
_cell_length_a 23.826161
_cell_length_b 9.221892
_cell_length_c 9.531611
_cell_angle_alpha 131.149221
_cell_angle_beta 153.613089
_cell_angle_gamma 47.272560
_cell_volume 675.604971
_symmetry_space_group_name_H-M "P -1"
_symmetry_group_IT_number 2
_symmetry_cell_setting 'triclinic'
loop_
_space_group_symop_operation_xyz
x,y,z
-x,-y,-z
loop_
_atom_site_type_symbol
_atom_site_label
_atom_site_fract_x
_atom_site_fract_y
_atom_site_fract_z
Si Si1 0.658436 0.143280 0.886221
Si Si2 0.400235 0.453746 0.863520
Si Si3 0.867589 0.472110 0.256921
Si Si4 0.629177 0.827473 0.835286
Si Si5 0.036080 0.398557 0.165492
Si Si6 0.878221 0.191895 0.866419
Si Si7 0.604935 0.117191 0.215096
Si Si8 0.726287 0.896163 0.616049
O O1 0.500212 0.212780 0.549238
O O2 0.687096 0.955236 0.935019
O O3 0.725559 0.056048 0.836452
O O4 0.687725 0.337458 0.142855
O O5 0.318023 0.294564 0.540591
O O6 0.500000 0.500000 0.000000
O O7 0.497687 0.327575 0.119414
O O8 0.891007 0.493104 0.488393
O O9 0.000000 0.500000 0.500000
O O10 0.740002 0.642593 0.027656
O O11 0.859453 0.270088 0.034454
O O12 0.575417 0.982036 0.938088
O O13 0.138782 0.193209 0.219819
O O14 0.000000 0.500000 0.000000
O O15 0.914846 0.355421 0.951000
O O16 0.741790 0.155131 0.496170
O O17 0.000000 0.000000 0.000000
O O18 0.632346 0.999746 0.345719
#
# Coordination Sequence:
#
# PCOD9030436 Si02
#       8
#     2   2   2   2   2   2   2   2
#     4  11  25  41  71 105 139 185 233 287 357 419
#     4  12  25  44  70 104 135 184 236 284 353 421
#     4  10  22  42  70  99 137 191 233 283 355 416
#     4  11  21  45  68 101 141 182 233 286 349 425
#     4  11  26  45  70 102 140 183 235 299 350 412
#     4  11  23  46  71 101 135 185 241 278 353 425
#     4  12  23  44  72  97 143 184 227 295 347 423
#     4  12  26  46  67 102 148 176 231 298 355 413
#
# _framework density 23.682479000000001
#
# number of rings (size 3 to 8) (size 9 to 14) (size 15 to 20)
#    0.000    0.750    5.000    2.625    5.250    1.500 
#    0.000    0.625    0.000    0.000    0.000    0.000 
#    0.000    0.000    0.000    0.000    0.000    0.000 
#
# Total GULP energy -89481.280412 kJ/mol
# GULP energy per Si atom -5592.580026 kJ/mol
# Density = 2.362858 g / cm^3
# Si number density = 23.682479 Si / 1000 Ang^3
#
#
#
# Elastic Constant Matrix: (Units=GPa)
#
#
# Indices 1 2 3 4 5 6 
#
# 1 136.1621 35.2183 22.0981 13.2156 -21.3529 9.1021
# 2 35.2183 106.2652 36.4806 10.7959 -26.9646 -8.3139
# 3 22.0981 36.4806 58.2709 -1.7449 -11.5509 4.6246
# 4 13.2156 10.7959 -1.7449 38.0380 1.5062 -6.6234
# 5 -21.3529 -26.9646 -11.5509 1.5062 55.7408 2.5560
# 6 9.1021 -8.3139 4.6246 -6.6234 2.5560 43.4051
#
#
#
# Elastic Compliance Matrix: (Units=1/GPa)
#
#
# Indices 1 2 3 4 5 6 
#
# 1 0.008931 -0.001584 -0.001790 -0.003293 0.002494 -0.002635
# 2 -0.001584 0.014428 -0.007854 -0.003549 0.004698 0.003114
# 3 -0.001790 -0.007854 0.023178 0.003359 0.000369 -0.003108
# 4 -0.003293 -0.003549 0.003359 0.029481 -0.003278 0.004345
# 5 0.002494 0.004698 0.000369 -0.003278 0.021399 -0.001423
# 6 -0.002635 0.003114 -0.003108 0.004345 -0.001423 0.025266
#
#
# Mechanical properties :
#
#
# Convention : Reuss Voigt Hill
#
# Bulk Modulus (GPa) = 41.52853 54.25470 47.89161
# Shear Modulus (GPa) = 32.64418 41.23019 36.93718
#
# Velocity S-wave (km/s) = 3.71672 4.17701 3.95357
# Velocity P-wave (km/s) = 5.99936 6.79868 6.41149
#
# Compressibility (1/GPa) = 0.02407983
#
# Stress axis : x y z
#
# Youngs Moduli (GPa) = 111.96509 69.30926 43.14487
#
# Poissons Ratio (x) = 0.10980 0.07725
# Poissons Ratio (y) = 0.17737 0.33886
# Poissons Ratio (z) = 0.20046 0.54436
#
# Static dielectric constant tensor:
#      x y z
#    x 1.904150 0.023470 0.051240 
#    y 0.023470 1.976300 0.002580 
#    z 0.051240 0.002580 2.071940 
# 
# From -- ./inp_files/352462.got.cif
#   From: 2010.05.17/outbox.cif.g08.bks.cpg/sg2_177_cif.got.tgz:352462.got - 2010.06.03 11:33:40.
