data_PCOD9030010
_publ_section_title
;
Structure prediction by ZEFSAII (Michael W. Deem and Ramdas Pophale) SiO2 
 PCOD9030010
Probable space group: P -1
;
_chemical_formula_sum "Si O2"
_cell_formula_units_Z 16
_cell_length_a 11.255394
_cell_length_b 12.092487
_cell_length_c 9.032050
_cell_angle_alpha 127.323830
_cell_angle_beta 129.171865
_cell_angle_gamma 62.776225
_cell_volume 752.318797
_symmetry_space_group_name_H-M "P -1"
_symmetry_group_IT_number 2
_symmetry_cell_setting 'triclinic'
loop_
_space_group_symop_operation_xyz
x,y,z
-x,-y,-z
loop_
_atom_site_type_symbol
_atom_site_label
_atom_site_fract_x
_atom_site_fract_y
_atom_site_fract_z
Si Si1 0.393677 0.811231 0.290330
Si Si2 0.131036 0.308233 0.150222
Si Si3 0.303445 0.146939 0.924259
Si Si4 0.784810 0.446614 0.030810
Si Si5 0.284701 0.248697 0.665593
Si Si6 0.627691 0.160918 0.349148
Si Si7 0.157363 0.065054 0.207030
Si Si8 0.316891 0.538524 0.376878
O O1 0.322143 0.666967 0.089807
O O2 0.568712 0.787806 0.354988
O O3 0.378131 0.842114 0.479045
O O4 0.294579 0.938391 0.229907
O O5 0.181391 0.178715 0.192691
O O6 0.233363 0.436756 0.333340
O O7 0.155059 0.237806 0.950254
O O8 0.958152 0.370887 0.100401
O O9 0.334571 0.196719 0.825223
O O10 0.290572 0.982780 0.770735
O O11 0.451778 0.172164 0.160294
O O12 0.735788 0.482261 0.850772
O O13 0.768032 0.586617 0.228515
O O14 0.155327 0.157475 0.429849
O O15 0.708307 0.296000 0.476477
O O16 0.000000 0.000000 0.000000
O O17 0.500000 0.500000 0.500000
#
# Coordination Sequence:
#
# PCOD9030010 Si02
#       8
#     2   2   2   2   2   2   2   2
#     4  11  24  47  73 102 140 191 231 297 346 416
#     4  12  25  47  72  95 153 184 227 294 355 416
#     4  11  23  41  71 111 135 182 234 295 350 414
#     4  11  25  47  70 103 141 186 237 284 357 417
#     4  12  25  44  75 103 142 181 245 289 345 420
#     4  10  22  42  69 106 138 175 244 284 347 413
#     4  12  27  50  68 103 145 192 231 287 360 420
#     4  11  22  42  71 103 137 184 231 290 348 414
#
# _framework density 21.267579000000001
#
# number of rings (size 3 to 8) (size 9 to 14) (size 15 to 20)
#    0.000    0.750    5.000    1.875    5.250    0.500 
#    4.500    3.125    0.000    0.000    0.000    0.000 
#    0.000    0.000    0.000    0.000    0.000    0.000 
#
# Total GULP energy -89488.071172 kJ/mol
# GULP energy per Si atom -5593.004448 kJ/mol
# Density = 2.121917 g / cm^3
# Si number density = 21.267579 Si / 1000 Ang^3
#
#
#
# Elastic Constant Matrix: (Units=GPa)
#
#
# Indices 1 2 3 4 5 6 
#
# 1 69.5876 46.7560 37.7182 6.2717 16.1690 3.1613
# 2 46.7560 134.0724 67.2278 28.7857 8.5818 17.6037
# 3 37.7182 67.2278 115.3312 25.0573 13.8012 -10.9687
# 4 6.2717 28.7857 25.0573 45.9290 -0.3354 -7.4398
# 5 16.1690 8.5818 13.8012 -0.3354 21.0423 7.4573
# 6 3.1613 17.6037 -10.9687 -7.4398 7.4573 36.4200
#
#
#
# Elastic Compliance Matrix: (Units=1/GPa)
#
#
# Indices 1 2 3 4 5 6 
#
# 1 0.023569 -0.007861 -0.001448 0.003226 -0.015747 0.005201
# 2 -0.007861 0.016984 -0.008100 -0.007239 0.009022 -0.013292
# 3 -0.001448 -0.008100 0.016572 -0.002108 -0.010282 0.010707
# 4 0.003226 -0.007239 -0.002108 0.028396 -0.000715 0.008531
# 5 -0.015747 0.009022 -0.010282 -0.000715 0.069963 -0.020562
# 6 0.005201 -0.013292 0.010707 0.008531 -0.020562 0.042608
#
#
# Mechanical properties :
#
#
# Convention : Reuss Voigt Hill
#
# Bulk Modulus (GPa) = 44.82825 69.15502 56.99163
# Shear Modulus (GPa) = 20.80343 31.83086 26.31715
#
# Velocity S-wave (km/s) = 3.13097 3.87290 3.52153
# Velocity P-wave (km/s) = 5.84762 7.25164 6.58715
#
# Compressibility (1/GPa) = 0.02230736
#
# Stress axis : x y z
#
# Youngs Moduli (GPa) = 42.42945 58.87958 60.34164
#
# Poissons Ratio (x) = 0.46285 0.08735
# Poissons Ratio (y) = 0.33353 0.48878
# Poissons Ratio (z) = 0.06142 0.47694
#
# Static dielectric constant tensor:
#      x y z
#    x 1.764780 0.015740 -0.013260 
#    y 0.015740 1.800240 0.000820 
#    z -0.013260 0.000820 1.787680 
# 
# From -- ./inp_files/263623.got.cif
#   From: 2010.05.17/outbox.cif.g08.bks.cpg/sg2_132_cif.got.tgz:263623.got - 2010.06.03 11:33:40.
