data_PCOD9030751
_publ_section_title
;
Structure prediction by ZEFSAII (Michael W. Deem and Ramdas Pophale) SiO2 
 PCOD9030751
Probable space group: P -1
;
_chemical_formula_sum "Si O2"
_cell_formula_units_Z 16
_cell_length_a 9.646360
_cell_length_b 9.020069
_cell_length_c 15.910161
_cell_angle_alpha 84.790760
_cell_angle_beta 36.379798
_cell_angle_gamma 76.331670
_cell_volume 785.887523
_symmetry_space_group_name_H-M "P -1"
_symmetry_group_IT_number 2
_symmetry_cell_setting 'triclinic'
loop_
_space_group_symop_operation_xyz
x,y,z
-x,-y,-z
loop_
_atom_site_type_symbol
_atom_site_label
_atom_site_fract_x
_atom_site_fract_y
_atom_site_fract_z
Si Si1 0.997490 0.890805 0.086510
Si Si2 0.290027 0.524625 0.275714
Si Si3 0.317815 0.893967 0.089571
Si Si4 0.990574 0.883687 0.648299
Si Si5 0.839027 0.470647 0.004216
Si Si6 0.215764 0.373673 0.149682
Si Si7 0.170730 0.237850 0.434112
Si Si8 0.533662 0.027570 0.580555
O O1 0.153290 0.930464 0.085182
O O2 0.119266 0.712501 0.014498
O O3 0.726082 0.906812 0.251755
O O4 0.000000 0.000000 0.000000
O O5 0.222024 0.492428 0.215202
O O6 0.291327 0.364977 0.330647
O O7 0.083727 0.662605 0.409177
O O8 0.554125 0.548237 0.154154
O O9 0.503684 0.723883 0.000290
O O10 0.141565 0.951574 0.251883
O O11 0.500000 0.000000 0.000000
O O12 0.926584 0.747872 0.741482
O O13 0.880374 0.866977 0.611870
O O14 0.275639 0.870462 0.507018
O O15 0.897516 0.540024 0.883777
O O16 0.000000 0.500000 0.000000
O O17 0.337603 0.132872 0.427309
O O18 0.500000 0.000000 0.500000
#
# Coordination Sequence:
#
# PCOD9030751 Si02
#       8
#     2   2   2   2   2   2   2   2
#     4  12  28  47  69 102 146 185 229 286 355 412
#     4  10  22  45  70  93 130 175 231 284 337 410
#     4  10  22  42  73  97 133 181 234 280 341 402
#     4  10  23  43  65 100 130 178 231 282 342 405
#     4  12  28  41  68 103 139 179 226 285 354 410
#     4  10  23  43  70  94 133 177 235 283 336 410
#     4  10  24  43  69  96 129 178 229 283 341 408
#     4  12  26  41  67  99 140 176 222 279 346 414
#
# _framework density 20.359148000000001
#
# number of rings (size 3 to 8) (size 9 to 14) (size 15 to 20)
#    0.000    1.250    2.500    1.500   12.250    1.000 
#    0.000    0.625    0.000    0.000    0.000    0.000 
#    0.000    0.000    0.000    0.000    0.000    0.000 
#
# Total GULP energy -89471.420132 kJ/mol
# GULP energy per Si atom -5591.963758 kJ/mol
# Density = 2.031281 g / cm^3
# Si number density = 20.359148 Si / 1000 Ang^3
#
#
#
# Elastic Constant Matrix: (Units=GPa)
#
#
# Indices 1 2 3 4 5 6 
#
# 1 157.8170 31.6136 45.8216 -10.2931 18.8417 -13.0517
# 2 31.6136 43.7110 16.0783 -18.2462 18.3081 -17.1839
# 3 45.8216 16.0783 111.3644 -5.0349 -1.2648 -2.1998
# 4 -10.2931 -18.2462 -5.0349 35.8957 9.3234 3.8419
# 5 18.8417 18.3081 -1.2648 9.3234 42.3537 -4.4690
# 6 -13.0517 -17.1839 -2.1998 3.8419 -4.4690 34.0307
#
#
#
# Elastic Compliance Matrix: (Units=1/GPa)
#
#
# Indices 1 2 3 4 5 6 
#
# 1 0.008240 -0.003004 -0.002922 0.000985 -0.002565 0.001007
# 2 -0.003004 0.066901 -0.006604 0.038486 -0.033780 0.023422
# 3 -0.002922 -0.006604 0.010973 -0.003670 0.005008 -0.002674
# 4 0.000985 0.038486 -0.003670 0.053375 -0.027890 0.009886
# 5 -0.002565 -0.033780 0.005008 -0.027890 0.044725 -0.008695
# 6 0.001007 0.023422 -0.002674 0.009886 -0.008695 0.039167
#
#
# Mechanical properties :
#
#
# Convention : Reuss Voigt Hill
#
# Bulk Modulus (GPa) = 16.37853 55.54658 35.96255
# Shear Modulus (GPa) = 18.60175 37.08129 27.84152
#
# Velocity S-wave (km/s) = 3.02599 4.27237 3.70201
# Velocity P-wave (km/s) = 4.50235 7.18889 5.99797
#
# Compressibility (1/GPa) = 0.06105554
#
# Stress axis : x y z
#
# Youngs Moduli (GPa) = 121.35716 14.94755 91.13134
#
# Poissons Ratio (x) = 0.04490 0.26624
# Poissons Ratio (y) = 0.36453 0.60182
# Poissons Ratio (z) = 0.35455 0.09871
#
# Static dielectric constant tensor:
#      x y z
#    x 1.676340 -0.008180 -0.011340 
#    y -0.008180 1.720390 -0.056190 
#    z -0.011340 -0.056190 1.599830 
# 
# From -- ./inp_files/209274.got.cif
#   From: 2010.05.17/outbox.cif.g08.bks.cpg/sg2_105_cif.got.tgz:209274.got - 2010.06.03 11:33:40.
