data_PCOD9030500
_publ_section_title
;
Structure prediction by ZEFSAII (Michael W. Deem and Ramdas Pophale) SiO2 
 PCOD9030500
Probable space group: P -1
;
_chemical_formula_sum "Si O2"
_cell_formula_units_Z 14
_cell_length_a 14.262693
_cell_length_b 13.738596
_cell_length_c 9.095298
_cell_angle_alpha 44.045102
_cell_angle_beta 41.581238
_cell_angle_gamma 30.626023
_cell_volume 587.509047
_symmetry_space_group_name_H-M "P -1"
_symmetry_group_IT_number 2
_symmetry_cell_setting 'triclinic'
loop_
_space_group_symop_operation_xyz
x,y,z
-x,-y,-z
loop_
_atom_site_type_symbol
_atom_site_label
_atom_site_fract_x
_atom_site_fract_y
_atom_site_fract_z
Si Si1 0.716408 0.134933 0.915293
Si Si2 0.885078 0.453509 0.608641
Si Si3 0.461561 0.881443 0.591973
Si Si4 0.474456 0.454059 0.415712
Si Si5 0.147561 0.449823 0.758930
Si Si6 0.452786 0.013933 0.871074
Si Si7 0.100768 0.845621 0.912128
O O1 0.635831 0.346082 0.761301
O O2 0.685481 0.098676 0.155054
O O3 0.953442 0.962579 0.817120
O O4 0.585269 0.119701 0.985929
O O5 0.657716 0.651812 0.626221
O O6 0.960925 0.395222 0.415040
O O7 0.000000 0.500000 0.500000
O O8 0.890148 0.317190 0.855127
O O9 0.399747 0.988264 0.392401
O O10 0.500000 0.000000 0.500000
O O11 0.500000 0.500000 0.500000
O O12 0.325393 0.425977 0.630961
O O13 0.677749 0.277525 0.279696
O O14 0.248990 0.233130 0.826815
O O15 0.000000 0.500000 0.000000
O O16 0.500000 0.000000 0.000000
O O17 0.000000 0.000000 0.000000
#
# Coordination Sequence:
#
# PCOD9030500 Si02
#       7
#     2   2   2   2   2   2   2
#     4  11  24  48  76 106 153 196 267 317 387 470
#     4  11  23  44  76 108 151 200 263 318 389 459
#     4   9  19  38  70 104 142 192 248 314 373 451
#     4  12  29  52  80 112 161 210 258 331 401 460
#     4  11  27  47  73 108 155 201 260 321 395 475
#     4  10  22  42  71 108 149 196 252 314 389 453
#     4  12  28  47  80 116 152 205 265 322 396 465
#
# _framework density 23.829419999999999
#
# number of rings (size 3 to 8) (size 9 to 14) (size 15 to 20)
#    0.000    1.143    1.429    4.286    8.000    5.143 
#    5.143    0.000    0.000    0.000    0.000    0.000 
#    0.000    0.000    0.000    0.000    0.000    0.000 
#
# Total GULP energy -78113.377196 kJ/mol
# GULP energy per Si atom -5579.526943 kJ/mol
# Density = 2.377518 g / cm^3
# Si number density = 23.829420 Si / 1000 Ang^3
#
#
#
# Elastic Constant Matrix: (Units=GPa)
#
#
# Indices 1 2 3 4 5 6 
#
# 1 134.1421 24.7997 60.2739 15.7009 -2.4418 -5.0421
# 2 24.7997 106.9749 40.8378 -3.2249 -16.0932 -8.5937
# 3 60.2739 40.8378 142.7178 13.4267 -13.7342 -3.6061
# 4 15.7009 -3.2249 13.4267 37.3142 2.3556 -0.1838
# 5 -2.4418 -16.0932 -13.7342 2.3556 46.9194 -3.8430
# 6 -5.0421 -8.5937 -3.6061 -0.1838 -3.8430 37.4860
#
#
#
# Elastic Compliance Matrix: (Units=1/GPa)
#
#
# Indices 1 2 3 4 5 6 
#
# 1 0.009570 -0.001004 -0.003542 -0.002792 -0.000691 0.000632
# 2 -0.001004 0.011340 -0.002657 0.002172 0.003159 0.002544
# 3 -0.003542 -0.002657 0.009661 -0.002332 0.001851 0.000022
# 4 -0.002792 0.002172 -0.002332 0.029099 -0.001554 -0.000119
# 5 -0.000691 0.003159 0.001851 -0.001554 0.023241 0.003184
# 6 0.000632 0.002544 0.000022 -0.000119 0.003184 0.027673
#
#
# Mechanical properties :
#
#
# Convention : Reuss Voigt Hill
#
# Bulk Modulus (GPa) = 61.86142 70.62863 66.24503
# Shear Modulus (GPa) = 38.34980 41.53881 39.94431
#
# Velocity S-wave (km/s) = 4.01602 4.17966 4.09866
# Velocity P-wave (km/s) = 6.89355 7.27986 7.08934
#
# Compressibility (1/GPa) = 0.01616516
#
# Stress axis : x y z
#
# Youngs Moduli (GPa) = 104.49311 88.18332 103.50570
#
# Poissons Ratio (x) = 0.08851 0.36666
# Poissons Ratio (y) = 0.10488 0.27502
# Poissons Ratio (z) = 0.37015 0.23431
#
# Static dielectric constant tensor:
#      x y z
#    x 1.977830 -0.014440 0.015000 
#    y -0.014440 2.040950 0.177260 
#    z 0.015000 0.177260 2.056270 
# 
# From -- ./inp_files/314441.got.cif
#   From: 2010.05.17/outbox.cif.g08.bks.cpg/sg2_158_cif.got.tgz:314441.got - 2010.06.03 11:33:40.
