data_PCOD9030552
_publ_section_title
;
Structure prediction by ZEFSAII (Michael W. Deem and Ramdas Pophale) SiO2 
 PCOD9030552
Probable space group: P -1
;
_chemical_formula_sum "Si O2"
_cell_formula_units_Z 16
_cell_length_a 9.133004
_cell_length_b 28.500275
_cell_length_c 16.159532
_cell_angle_alpha 162.508095
_cell_angle_beta 52.032537
_cell_angle_gamma 139.716543
_cell_volume 666.945545
_symmetry_space_group_name_H-M "P -1"
_symmetry_group_IT_number 2
_symmetry_cell_setting 'triclinic'
loop_
_space_group_symop_operation_xyz
x,y,z
-x,-y,-z
loop_
_atom_site_type_symbol
_atom_site_label
_atom_site_fract_x
_atom_site_fract_y
_atom_site_fract_z
Si Si1 0.372186 0.932743 0.688003
Si Si2 0.816117 0.244434 0.822500
Si Si3 0.524201 0.657608 0.641311
Si Si4 0.869170 0.084785 0.695681
Si Si5 0.807144 0.285497 0.439215
Si Si6 0.068681 0.173960 0.075960
Si Si7 0.396715 0.558672 0.336710
Si Si8 0.893594 0.711897 0.357784
O O1 0.338967 0.868956 0.687645
O O2 0.079278 0.774899 0.477650
O O3 0.560727 0.921095 0.558896
O O4 0.528769 0.197137 0.067657
O O5 0.895277 0.170316 0.739385
O O6 0.011394 0.341075 0.837994
O O7 0.500000 0.000000 0.500000
O O8 0.897615 0.459060 0.198722
O O9 0.289646 0.388839 0.298475
O O10 0.789804 0.767859 0.785804
O O11 0.562525 0.692769 0.588962
O O12 0.000000 0.000000 0.500000
O O13 0.087889 0.318523 0.067660
O O14 0.649583 0.328397 0.520394
O O15 0.853256 0.176586 0.174655
O O16 0.973732 0.941926 0.692674
O O17 0.570212 0.528283 0.182058
#
# Coordination Sequence:
#
# PCOD9030552 Si02
#       8
#     2   2   2   2   2   2   2   2
#     4  11  24  46  68  99 134 177 223 277 324 402
#     4  11  25  46  69  96 136 178 226 274 331 398
#     4  10  22  42  71  98 136 171 226 271 335 395
#     4  11  27  43  66  97 137 175 224 272 337 397
#     4  11  26  42  68 100 140 173 223 276 336 393
#     4  10  23  42  71 102 129 178 226 275 324 403
#     4  11  26  43  66 101 138 173 216 280 338 393
#     4  11  25  44  71 100 133 176 227 275 330 395
#
# _framework density 23.989964000000001
#
# number of rings (size 3 to 8) (size 9 to 14) (size 15 to 20)
#    0.000    1.250    1.250    3.000    8.750    8.500 
#    0.000    0.000    0.000    0.000    0.000    0.000 
#    0.000    0.000    0.000    0.000    0.000    0.000 
#
# Total GULP energy -89460.430058 kJ/mol
# GULP energy per Si atom -5591.276879 kJ/mol
# Density = 2.393536 g / cm^3
# Si number density = 23.989964 Si / 1000 Ang^3
#
#
#
# Elastic Constant Matrix: (Units=GPa)
#
#
# Indices 1 2 3 4 5 6 
#
# 1 84.6612 28.1157 21.4362 12.4058 -12.5276 5.8942
# 2 28.1157 66.6774 -5.0815 -0.1509 -1.4387 12.0621
# 3 21.4362 -5.0815 83.6720 8.1634 -7.8436 6.1987
# 4 12.4058 -0.1509 8.1634 30.2224 3.4694 -1.8651
# 5 -12.5276 -1.4387 -7.8436 3.4694 38.0524 -4.9133
# 6 5.8942 12.0621 6.1987 -1.8651 -4.9133 49.3645
#
#
#
# Elastic Compliance Matrix: (Units=1/GPa)
#
#
# Indices 1 2 3 4 5 6 
#
# 1 0.016894 -0.007403 -0.003693 -0.006537 0.005184 0.000524
# 2 -0.007403 0.019080 0.002973 0.002282 -0.001860 -0.004250
# 3 -0.003693 0.002973 0.013618 -0.002459 0.001680 -0.001921
# 4 -0.006537 0.002282 -0.002459 0.037195 -0.005788 0.001361
# 5 0.005184 -0.001860 0.001680 -0.005788 0.029087 0.002301
# 6 0.000524 -0.004250 -0.001921 0.001361 0.002301 0.021755
#
#
# Mechanical properties :
#
#
# Convention : Reuss Voigt Hill
#
# Bulk Modulus (GPa) = 29.98821 35.99461 32.99141
# Shear Modulus (GPa) = 30.30508 36.23054 33.26781
#
# Velocity S-wave (km/s) = 3.55806 3.89039 3.72793
# Velocity P-wave (km/s) = 5.42284 5.93438 5.68437
#
# Compressibility (1/GPa) = 0.03334644
#
# Stress axis : x y z
#
# Youngs Moduli (GPa) = 59.19350 52.41197 73.43349
#
# Poissons Ratio (x) = 0.38799 0.27117
# Poissons Ratio (y) = 0.43820 -0.21833
# Poissons Ratio (z) = 0.21859 -0.15583
#
# Static dielectric constant tensor:
#      x y z
#    x 1.457380 -0.120500 -0.118850 
#    y -0.120500 1.837450 -0.015110 
#    z -0.118850 -0.015110 1.962230 
# 
# From -- ./inp_files/509015.got.cif
#   From: 2010.05.17/outbox.cif.g08.bks.cpg/sg2_255_cif.got.tgz:509015.got - 2010.06.03 11:33:40.
