data_PCOD9030900
_publ_section_title
;
Structure prediction by ZEFSAII (Michael W. Deem and Ramdas Pophale) SiO2 
 PCOD9030900
Probable space group: P -1
;
_chemical_formula_sum "Si O2"
_cell_formula_units_Z 16
_cell_length_a 16.664112
_cell_length_b 19.443639
_cell_length_c 11.086665
_cell_angle_alpha 38.003194
_cell_angle_beta 150.051492
_cell_angle_gamma 159.592109
_cell_volume 619.299076
_symmetry_space_group_name_H-M "P -1"
_symmetry_group_IT_number 2
_symmetry_cell_setting 'triclinic'
loop_
_space_group_symop_operation_xyz
x,y,z
-x,-y,-z
loop_
_atom_site_type_symbol
_atom_site_label
_atom_site_fract_x
_atom_site_fract_y
_atom_site_fract_z
Si Si1 0.126972 0.655616 0.190718
Si Si2 0.665146 0.408746 0.129805
Si Si3 0.129252 0.250314 0.964424
Si Si4 0.417963 0.202255 0.702316
Si Si5 0.315946 0.520691 0.535957
Si Si6 0.128460 0.092364 0.730143
Si Si7 0.448254 0.061708 0.452539
Si Si8 0.200356 0.780676 0.866729
O O1 0.255226 0.611082 0.378822
O O2 0.377946 0.865464 0.300720
O O3 0.861328 0.485069 0.168453
O O4 0.039462 0.672218 0.934809
O O5 0.840684 0.605726 0.151897
O O6 0.589036 0.258985 0.318593
O O7 0.365635 0.283936 0.860097
O O8 0.459043 0.399269 0.185956
O O9 0.894177 0.115305 0.738632
O O10 0.976069 0.078565 0.098184
O O11 0.511528 0.364636 0.523891
O O12 0.153721 0.004734 0.547278
O O13 0.288840 0.151092 0.734970
O O14 0.685191 0.273541 0.957579
O O15 0.012203 0.298110 0.403800
O O16 0.500000 0.000000 0.500000
O O17 0.500000 0.000000 0.000000
#
# Coordination Sequence:
#
# PCOD9030900 Si02
#       8
#     2   2   2   2   2   2   2   2
#     4  11  23  42  69  92 127 180 211 269 325 377
#     4  11  22  39  67  95 126 169 213 269 324 375
#     4  10  23  40  65  96 132 166 212 274 317 384
#     4   9  18  37  56  87 125 172 213 262 306 382
#     4  10  22  43  61  91 137 171 215 261 324 393
#     4   9  19  35  61  88 129 168 213 261 321 374
#     4  11  24  44  70  99 127 161 227 271 320 383
#     4  11  24  37  61  95 132 170 216 260 319 388
#
# _framework density 25.835659
#
# number of rings (size 3 to 8) (size 9 to 14) (size 15 to 20)
#    0.000    1.750    1.250    3.375    3.500    1.500 
#    0.000    3.125    0.000    0.000    0.000    0.000 
#    0.000    0.000    0.000    0.000    0.000    0.000 
#
# Total GULP energy -89476.470469 kJ/mol
# GULP energy per Si atom -5592.279404 kJ/mol
# Density = 2.577686 g / cm^3
# Si number density = 25.835659 Si / 1000 Ang^3
#
#
#
# Elastic Constant Matrix: (Units=GPa)
#
#
# Indices 1 2 3 4 5 6 
#
# 1 63.6204 27.4926 29.7344 -0.8002 -14.4813 10.9902
# 2 27.4926 121.1269 46.7766 32.3581 -22.1072 -9.7723
# 3 29.7344 46.7766 154.5738 38.9014 -7.8854 17.3809
# 4 -0.8002 32.3581 38.9014 56.8942 -2.9207 -7.0027
# 5 -14.4813 -22.1072 -7.8854 -2.9207 32.1246 -1.7342
# 6 10.9902 -9.7723 17.3809 -7.0027 -1.7342 34.3110
#
#
#
# Elastic Compliance Matrix: (Units=1/GPa)
#
#
# Indices 1 2 3 4 5 6 
#
# 1 0.021285 -0.004137 -0.003050 0.004406 0.006117 -0.005243
# 2 -0.004137 0.012950 -0.002162 -0.004952 0.006359 0.005420
# 3 -0.003050 -0.002162 0.009939 -0.006423 -0.001334 -0.006052
# 4 0.004406 -0.004952 -0.006423 0.025519 -0.000374 0.005621
# 5 0.006117 0.006359 -0.001334 -0.000374 0.038029 0.002373
# 6 -0.005243 0.005420 -0.006052 0.005621 0.002373 0.036701
#
#
# Mechanical properties :
#
#
# Convention : Reuss Voigt Hill
#
# Bulk Modulus (GPa) = 39.25161 60.81424 50.03292
# Shear Modulus (GPa) = 29.13535 40.35379 34.74457
#
# Velocity S-wave (km/s) = 3.36180 3.95643 3.67117
# Velocity P-wave (km/s) = 5.50406 6.66791 6.11374
#
# Compressibility (1/GPa) = 0.02547666
#
# Stress axis : x y z
#
# Youngs Moduli (GPa) = 46.98191 77.21800 100.61204
#
# Poissons Ratio (x) = 0.31945 0.30686
# Poissons Ratio (y) = 0.19436 0.21752
# Poissons Ratio (z) = 0.14329 0.16694
#
# Static dielectric constant tensor:
#      x y z
#    x 2.004300 0.004000 0.004730 
#    y 0.004000 2.102240 0.019860 
#    z 0.004730 0.019860 2.051190 
# 
# From -- ./inp_files/467097.got.cif
#   From: 2010.05.17/outbox.cif.g08.bks.cpg/sg2_234_cif.got.tgz:467097.got - 2010.06.03 11:33:40.
