data_PCOD9030393
_publ_section_title
;
Structure prediction by ZEFSAII (Michael W. Deem and Ramdas Pophale) SiO2 
 PCOD9030393
Probable space group: P -1
;
_chemical_formula_sum "Si O2"
_cell_formula_units_Z 16
_cell_length_a 20.553773
_cell_length_b 11.106099
_cell_length_c 12.188852
_cell_angle_alpha 119.329886
_cell_angle_beta 29.727740
_cell_angle_gamma 138.989919
_cell_volume 779.599397
_symmetry_space_group_name_H-M "P -1"
_symmetry_group_IT_number 2
_symmetry_cell_setting 'triclinic'
loop_
_space_group_symop_operation_xyz
x,y,z
-x,-y,-z
loop_
_atom_site_type_symbol
_atom_site_label
_atom_site_fract_x
_atom_site_fract_y
_atom_site_fract_z
Si Si1 0.033040 0.421618 0.816877
Si Si2 0.040992 0.134053 0.177843
Si Si3 0.377324 0.077271 0.372605
Si Si4 0.666261 0.267002 0.653165
Si Si5 0.618560 0.438655 0.994565
Si Si6 0.273134 0.351513 0.517205
Si Si7 0.586684 0.721801 0.373974
Si Si8 0.604567 0.958135 0.261158
O O1 0.117526 0.565515 0.650343
O O2 0.185652 0.423878 0.632982
O O3 0.000000 0.500000 0.000000
O O4 0.820630 0.179860 0.002237
O O5 0.178403 0.329359 0.150178
O O6 0.861126 0.081029 0.366969
O O7 0.912587 0.902971 0.311550
O O8 0.211660 0.208966 0.880419
O O9 0.443047 0.205901 0.445783
O O10 0.394915 0.927485 0.290915
O O11 0.511410 0.251968 0.157821
O O12 0.661876 0.384889 0.799924
O O13 0.518609 0.174670 0.726192
O O14 0.448731 0.421241 0.218617
O O15 0.392208 0.475700 0.513115
O O16 0.621841 0.847823 0.272819
O O17 0.500000 0.000000 0.500000
#
# Coordination Sequence:
#
# PCOD9030393 Si02
#       8
#     2   2   2   2   2   2   2   2
#     4  12  23  40  69 103 132 170 216 277 342 398
#     4  10  23  42  66  96 136 178 229 276 325 397
#     4  11  24  42  69  98 136 178 228 276 329 400
#     4  12  26  44  69 102 138 179 220 277 337 404
#     4  10  26  47  65  96 137 188 228 265 329 397
#     4  10  22  42  70  97 138 171 222 277 335 401
#     4  11  20  40  68 102 132 169 218 284 341 387
#     4  12  22  42  67 102 136 164 214 281 346 395
#
# _framework density 20.523361999999999
#
# number of rings (size 3 to 8) (size 9 to 14) (size 15 to 20)
#    0.000    1.000    5.000    0.750    0.000    9.500 
#    0.000    1.250    0.000    0.000    0.000    0.000 
#    0.000    0.000    0.000    0.000    0.000    0.000 
#
# Total GULP energy -89419.908906 kJ/mol
# GULP energy per Si atom -5588.744307 kJ/mol
# Density = 2.047665 g / cm^3
# Si number density = 20.523362 Si / 1000 Ang^3
#
#
#
# Elastic Constant Matrix: (Units=GPa)
#
#
# Indices 1 2 3 4 5 6 
#
# 1 52.8411 39.1305 30.9902 -5.9167 -0.3071 -2.2307
# 2 39.1305 141.8746 68.2199 -0.1273 5.8725 13.4533
# 3 30.9902 68.2199 86.5750 -10.3673 -0.3401 12.6831
# 4 -5.9167 -0.1273 -10.3673 51.5210 5.0868 0.5264
# 5 -0.3071 5.8725 -0.3401 5.0868 27.2264 2.0493
# 6 -2.2307 13.4533 12.6831 0.5264 2.0493 33.4382
#
#
#
# Elastic Compliance Matrix: (Units=1/GPa)
#
#
# Indices 1 2 3 4 5 6 
#
# 1 0.026763 -0.004895 -0.006421 0.001657 0.000506 0.006133
# 2 -0.004895 0.012588 -0.008089 -0.001904 -0.002354 -0.002149
# 3 -0.006421 -0.008089 0.021443 0.003445 0.001708 -0.005466
# 4 0.001657 -0.001904 0.003445 0.020624 -0.003339 -0.000550
# 5 0.000506 -0.002354 0.001708 -0.003339 0.038034 -0.001945
# 6 0.006133 -0.002149 -0.005466 -0.000550 -0.001945 0.033381
#
#
# Mechanical properties :
#
#
# Convention : Reuss Voigt Hill
#
# Bulk Modulus (GPa) = 45.48886 61.99688 53.74287
# Shear Modulus (GPa) = 25.12941 31.96714 28.54827
#
# Velocity S-wave (km/s) = 3.50298 3.95092 3.73368
# Velocity P-wave (km/s) = 6.21077 7.14749 6.69553
#
# Compressibility (1/GPa) = 0.02198341
#
# Stress axis : x y z
#
# Youngs Moduli (GPa) = 37.36559 79.44237 46.63458
#
# Poissons Ratio (x) = 0.38887 0.29943
# Poissons Ratio (y) = 0.18291 0.37724
# Poissons Ratio (z) = 0.23992 0.64263
#
# Static dielectric constant tensor:
#      x y z
#    x 1.708070 -0.016500 0.005610 
#    y -0.016500 1.764560 -0.046560 
#    z 0.005610 -0.046560 1.717540 
# 
# From -- ./inp_files/427536.got.cif
#   From: 2010.05.17/outbox.cif.g08.bks.cpg/sg2_214_cif.got.tgz:427536.got - 2010.06.03 11:33:40.
