data_PCOD9030682
_publ_section_title
;
Structure prediction by ZEFSAII (Michael W. Deem and Ramdas Pophale) SiO2 
 PCOD9030682
Probable space group: P -1
;
_chemical_formula_sum "Si O2"
_cell_formula_units_Z 14
_cell_length_a 22.826477
_cell_length_b 9.521250
_cell_length_c 7.370704
_cell_angle_alpha 131.953520
_cell_angle_beta 46.809432
_cell_angle_gamma 154.225069
_cell_volume 500.930448
_symmetry_space_group_name_H-M "P -1"
_symmetry_group_IT_number 2
_symmetry_cell_setting 'triclinic'
loop_
_space_group_symop_operation_xyz
x,y,z
-x,-y,-z
loop_
_atom_site_type_symbol
_atom_site_label
_atom_site_fract_x
_atom_site_fract_y
_atom_site_fract_z
Si Si1 0.793845 0.354652 0.397851
Si Si2 0.203518 0.367486 0.896471
Si Si3 0.161004 0.665887 0.136969
Si Si4 0.083293 0.910897 0.421647
Si Si5 0.498891 0.081349 0.368691
Si Si6 0.257867 0.179799 0.921556
Si Si7 0.542639 0.602698 0.788333
O O1 0.938729 0.705753 0.469909
O O2 0.662214 0.232114 0.620157
O O3 0.805510 0.348096 0.149415
O O4 0.769362 0.094304 0.295204
O O5 0.366430 0.742461 0.863596
O O6 0.159433 0.182412 0.643456
O O7 0.119350 0.402603 0.112693
O O8 0.191973 0.192037 0.926018
O O9 0.061600 0.653616 0.314518
O O10 0.302248 0.024843 0.227839
O O11 0.189322 0.089180 0.182695
O O12 0.531929 0.368639 0.540947
O O13 0.500000 0.000000 0.500000
O O14 0.425683 0.509786 0.866067
O O15 0.500000 0.500000 0.000000
#
# Coordination Sequence:
#
# PCOD9030682 Si02
#       7
#     2   2   2   2   2   2   2
#     4  10  22  42  72  97 140 195 228 282 366 413
#     4  12  25  42  75 106 140 181 240 295 350 414
#     4  11  21  41  69 103 139 182 234 288 350 420
#     4  11  24  48  72  97 145 193 228 288 357 424
#     4  11  20  40  68 105 138 180 236 294 342 423
#     4  10  23  42  71 108 138 181 243 289 349 426
#     4  11  17  37  69  97 137 181 223 286 351 397
#
# _framework density 27.947990000000001
#
# number of rings (size 3 to 8) (size 9 to 14) (size 15 to 20)
#    0.000    1.143    7.143    1.714    0.000    4.000 
#    0.000    5.714    0.000    0.000    0.000    0.000 
#    0.000    0.000    0.000    0.000    0.000    0.000 
#
# Total GULP energy -78668.353522 kJ/mol
# GULP energy per Si atom -5619.168109 kJ/mol
# Density = 2.788438 g / cm^3
# Si number density = 27.947990 Si / 1000 Ang^3
#
#
#
# Elastic Constant Matrix: (Units=GPa)
#
#
# Indices 1 2 3 4 5 6 
#
# 1 190.7544 83.0472 55.9774 14.4959 -26.0384 0.7193
# 2 83.0472 101.5594 31.7520 -2.3665 -2.2569 27.5076
# 3 55.9774 31.7520 97.7808 3.1818 -9.2656 0.7507
# 4 14.4959 -2.3665 3.1818 33.4586 -5.3577 -8.7721
# 5 -26.0384 -2.2569 -9.2656 -5.3577 55.2491 -5.9683
# 6 0.7193 27.5076 0.7507 -8.7721 -5.9683 74.1242
#
#
#
# Elastic Compliance Matrix: (Units=1/GPa)
#
#
# Indices 1 2 3 4 5 6 
#
# 1 0.010661 -0.008659 -0.002804 -0.003490 0.004193 0.003063
# 2 -0.008659 0.019369 -0.001755 0.002777 -0.004080 -0.007086
# 3 -0.002804 -0.001755 0.012465 0.000199 0.000786 0.000639
# 4 -0.003490 0.002777 0.000199 0.032692 0.002000 0.003031
# 5 0.004193 -0.004080 0.000786 0.002000 0.020598 0.003361
# 6 0.003063 -0.007086 0.000639 0.003031 0.003361 0.016714
#
#
# Mechanical properties :
#
#
# Convention : Reuss Voigt Hill
#
# Bulk Modulus (GPa) = 62.27030 81.29421 71.78226
# Shear Modulus (GPa) = 34.65304 47.18759 40.92031
#
# Velocity S-wave (km/s) = 3.52506 4.11348 3.83058
# Velocity P-wave (km/s) = 6.23676 7.19109 6.73086
#
# Compressibility (1/GPa) = 0.01605902
#
# Stress axis : x y z
#
# Youngs Moduli (GPa) = 93.80136 51.62939 80.22291
#
# Poissons Ratio (x) = 0.44704 0.22495
# Poissons Ratio (y) = 0.81219 0.14081
# Poissons Ratio (z) = 0.26302 0.09062
#
# Static dielectric constant tensor:
#      x y z
#    x 2.150860 -0.006130 0.000890 
#    y -0.006130 2.132440 -0.004890 
#    z 0.000890 -0.004890 2.206820 
# 
# From -- ./inp_files/343847.got.cif
#   From: 2010.05.17/outbox.cif.g08.bks.cpg/sg2_172_cif.got.tgz:343847.got - 2010.06.03 11:33:40.
