data_PCOD9030305
_publ_section_title
;
Structure prediction by ZEFSAII (Michael W. Deem and Ramdas Pophale) SiO2 
 PCOD9030305
Probable space group: P -1
;
_chemical_formula_sum "Si O2"
_cell_formula_units_Z 15
_cell_length_a 7.719707
_cell_length_b 12.536064
_cell_length_c 8.967960
_cell_angle_alpha 52.633618
_cell_angle_beta 126.394733
_cell_angle_gamma 125.086678
_cell_volume 523.017834
_symmetry_space_group_name_H-M "P -1"
_symmetry_group_IT_number 2
_symmetry_cell_setting 'triclinic'
loop_
_space_group_symop_operation_xyz
x,y,z
-x,-y,-z
loop_
_atom_site_type_symbol
_atom_site_label
_atom_site_fract_x
_atom_site_fract_y
_atom_site_fract_z
Si Si1 0.536830 0.622414 0.533988
Si Si2 0.826188 0.992945 0.601211
Si Si3 0.446225 0.893451 0.260608
Si Si4 0.000000 0.500000 0.500000
Si Si5 0.992460 0.236939 0.222805
Si Si6 0.982007 0.796173 0.224670
Si Si7 0.667325 0.420540 0.211774
Si Si8 0.535944 0.216438 0.052236
O O1 0.500000 0.500000 0.500000
O O2 0.546124 0.775929 0.343204
O O3 0.346721 0.590767 0.598919
O O4 0.771491 0.641984 0.721665
O O5 0.926892 0.126428 0.426205
O O6 0.888997 0.062908 0.732697
O O7 0.572260 0.916918 0.469450
O O8 0.939239 0.870465 0.758730
O O9 0.176698 0.825538 0.174283
O O10 0.506779 0.057760 0.111567
O O11 0.079995 0.468691 0.742692
O O12 0.784184 0.293708 0.039768
O O13 0.989750 0.654533 0.427614
O O14 0.715480 0.773975 0.095228
O O15 0.603336 0.277757 0.204360
O O16 0.500000 0.500000 0.000000
#
# Coordination Sequence:
#
# PCOD9030305 Si02
#       8
#     2   2   2   1   2   2   2   2
#     4  11  26  45  79 111 147 198 252 307 380 455
#     4   9  20  38  68  97 141 191 242 299 377 438
#     4  10  22  42  70 111 138 193 253 315 370 440
#     4  12  24  44  72 102 140 204 250 302 372 444
#     4   9  21  42  66 101 142 188 238 305 374 442
#     4  12  23  39  72 103 145 193 258 308 366 449
#     4  12  27  49  77 107 150 196 258 307 374 449
#     4  11  25  43  70 108 149 189 253 314 372 446
#
# _framework density 28.679713
#
# number of rings (size 3 to 8) (size 9 to 14) (size 15 to 20)
#    0.000    1.333    2.667    3.200    7.467    0.533 
#    0.000    2.000    2.933    0.000    0.000    0.000 
#    0.000    0.000    0.000    0.000    0.000    0.000 
#
# Total GULP energy -83611.985138 kJ/mol
# GULP energy per Si atom -5574.132343 kJ/mol
# Density = 2.861444 g / cm^3
# Si number density = 28.679713 Si / 1000 Ang^3
#
#
#
# Elastic Constant Matrix: (Units=GPa)
#
#
# Indices 1 2 3 4 5 6 
#
# 1 129.4982 67.8389 56.2756 24.1258 47.1259 -4.1444
# 2 67.8389 207.6723 50.5108 10.5105 11.7460 -45.5681
# 3 56.2756 50.5108 134.2070 33.3416 44.8864 -13.1128
# 4 24.1258 10.5105 33.3416 42.5170 3.9938 5.8275
# 5 47.1259 11.7460 44.8864 3.9938 57.7837 -0.1673
# 6 -4.1444 -45.5681 -13.1128 5.8275 -0.1673 50.3771
#
#
#
# Elastic Compliance Matrix: (Units=1/GPa)
#
#
# Indices 1 2 3 4 5 6 
#
# 1 0.015203 -0.004573 0.000665 -0.006663 -0.011531 -0.001980
# 2 -0.004573 0.007865 -0.001847 0.000924 0.003520 0.006162
# 3 0.000665 -0.001847 0.014385 -0.010662 -0.010594 0.003326
# 4 -0.006663 0.000924 -0.010662 0.035289 0.011070 -0.006533
# 5 -0.011531 0.003520 -0.010594 0.011070 0.033454 -0.001692
# 6 -0.001980 0.006162 0.003326 -0.006533 -0.001692 0.026877
#
#
# Mechanical properties :
#
#
# Convention : Reuss Voigt Hill
#
# Bulk Modulus (GPa) = 38.54906 91.18090 64.86498
# Shear Modulus (GPa) = 32.63077 49.91903 41.27490
#
# Velocity S-wave (km/s) = 3.37674 4.17654 3.79775
# Velocity P-wave (km/s) = 5.35477 7.42427 6.47276
#
# Compressibility (1/GPa) = 0.02594097
#
# Stress axis : x y z
#
# Youngs Moduli (GPa) = 65.77602 127.15324 69.51878
#
# Poissons Ratio (x) = 0.58148 -0.04620
# Poissons Ratio (y) = 0.30080 0.12841
# Poissons Ratio (z) = -0.04371 0.23487
#
# Static dielectric constant tensor:
#      x y z
#    x 0.625220 -1.702330 -1.226020 
#    y -1.702330 0.524290 -1.063720 
#    z -1.226020 -1.063720 1.606600 
# 
# From -- ./inp_files/392400.got.cif
#   From: 2010.05.17/outbox.cif.g08.bks.cpg/sg2_197_cif.got.tgz:392400.got - 2010.06.03 11:33:40.
