data_PCOD9030786
_publ_section_title
;
Structure prediction by ZEFSAII (Michael W. Deem and Ramdas Pophale) SiO2 
 PCOD9030786
Probable space group: P -1
;
_chemical_formula_sum "Si O2"
_cell_formula_units_Z 16
_cell_length_a 26.938506
_cell_length_b 14.435724
_cell_length_c 9.179983
_cell_angle_alpha 134.722046
_cell_angle_beta 35.626319
_cell_angle_gamma 159.900028
_cell_volume 682.146021
_symmetry_space_group_name_H-M "P -1"
_symmetry_group_IT_number 2
_symmetry_cell_setting 'triclinic'
loop_
_space_group_symop_operation_xyz
x,y,z
-x,-y,-z
loop_
_atom_site_type_symbol
_atom_site_label
_atom_site_fract_x
_atom_site_fract_y
_atom_site_fract_z
Si Si1 0.189356 0.786968 0.284973
Si Si2 0.120940 0.293032 0.504405
Si Si3 0.302652 0.914850 0.673646
Si Si4 0.511365 0.465490 0.768604
Si Si5 0.425292 0.586288 0.894753
Si Si6 0.967016 0.319519 0.722802
Si Si7 0.790393 0.693420 0.197818
Si Si8 0.302662 0.660519 0.766736
O O1 0.135133 0.829507 0.350874
O O2 0.000000 0.500000 0.500000
O O3 0.374676 0.081794 0.249528
O O4 0.247552 0.733852 0.004511
O O5 0.198814 0.458589 0.651914
O O6 0.998649 0.234668 0.648674
O O7 0.293309 0.494786 0.211004
O O8 0.000000 0.000000 0.500000
O O9 0.168529 0.659312 0.598871
O O10 0.383723 0.165169 0.714685
O O11 0.477383 0.064687 0.467540
O O12 0.166099 0.763366 0.963410
O O13 0.455689 0.499417 0.823879
O O14 0.713733 0.683579 0.495376
O O15 0.500000 0.500000 0.000000
O O16 0.323065 0.429300 0.812885
O O17 0.755479 0.501432 0.130717
O O18 0.000000 0.000000 0.000000
#
# Coordination Sequence:
#
# PCOD9030786 Si02
#       8
#     2   2   2   2   2   2   2   2
#     4  12  30  46  72 103 152 203 254 306 373 441
#     4  12  26  47  79 114 147 190 251 311 380 451
#     4  10  22  42  74 105 142 189 238 313 373 433
#     4  11  24  46  75 107 152 193 256 307 375 448
#     4  12  27  46  74 108 150 202 247 310 381 446
#     4  11  24  43  72 107 148 185 250 302 370 445
#     4  11  27  46  74 106 151 195 247 310 381 449
#     4  11  25  48  72 103 150 191 247 310 371 445
#
# _framework density 23.455389
#
# number of rings (size 3 to 8) (size 9 to 14) (size 15 to 20)
#    0.000    0.750    0.000    7.125    7.000    6.000 
#    0.000    0.000    0.000    0.000    0.000    0.000 
#    0.000    0.000    0.000    0.000    0.000    0.000 
#
# Total GULP energy -89618.910132 kJ/mol
# GULP energy per Si atom -5601.181883 kJ/mol
# Density = 2.340200 g / cm^3
# Si number density = 23.455389 Si / 1000 Ang^3
#
#
#
# Elastic Constant Matrix: (Units=GPa)
#
#
# Indices 1 2 3 4 5 6 
#
# 1 150.1402 51.3509 51.2455 -4.1471 -18.0393 -0.9381
# 2 51.3509 152.3924 66.2522 -20.4140 -9.0055 12.3278
# 3 51.2455 66.2522 121.5360 -26.6345 -17.7353 4.2032
# 4 -4.1471 -20.4140 -26.6345 42.3784 -0.0391 -7.6792
# 5 -18.0393 -9.0055 -17.7353 -0.0391 36.3668 3.0025
# 6 -0.9381 12.3278 4.2032 -7.6792 3.0025 39.2878
#
#
#
# Elastic Compliance Matrix: (Units=1/GPa)
#
#
# Indices 1 2 3 4 5 6 
#
# 1 0.008412 -0.001835 -0.002554 -0.001563 0.002424 0.000559
# 2 -0.001835 0.009234 -0.003929 0.001397 -0.000355 -0.002221
# 3 -0.002554 -0.003929 0.013459 0.006441 0.004276 0.000664
# 4 -0.001563 0.001397 0.006441 0.028948 0.002387 0.004311
# 5 0.002424 -0.000355 0.004276 0.002387 0.030880 -0.002182
# 6 0.000559 -0.002221 0.000664 0.004311 -0.002182 0.027102
#
#
# Mechanical properties :
#
#
# Convention : Reuss Voigt Hill
#
# Bulk Modulus (GPa) = 69.11705 84.64068 76.87887
# Shear Modulus (GPa) = 35.84357 40.62128 38.23242
#
# Velocity S-wave (km/s) = 3.91341 4.16607 4.04171
# Velocity P-wave (km/s) = 7.06761 7.70102 7.39110
#
# Compressibility (1/GPa) = 0.01446821
#
# Stress axis : x y z
#
# Youngs Moduli (GPa) = 118.88361 108.29215 74.29814
#
# Poissons Ratio (x) = 0.19874 0.18978
# Poissons Ratio (y) = 0.21818 0.29191
# Poissons Ratio (z) = 0.30367 0.42547
#
# Static dielectric constant tensor:
#      x y z
#    x 1.892000 -0.025460 0.025340 
#    y -0.025460 1.913910 0.000410 
#    z 0.025340 0.000410 1.884830 
# 
# From -- ./inp_files/357424.got.cif
#   From: 2010.05.17/outbox.cif.g08.bks.cpg/sg2_179_cif.got.tgz:357424.got - 2010.06.03 11:33:40.
