data_PCOD9030665
_publ_section_title
;
Structure prediction by ZEFSAII (Michael W. Deem and Ramdas Pophale) SiO2 
 PCOD9030665
Probable space group: P -1
;
_chemical_formula_sum "Si O2"
_cell_formula_units_Z 16
_cell_length_a 8.167607
_cell_length_b 12.649294
_cell_length_c 16.949174
_cell_angle_alpha 145.716460
_cell_angle_beta 56.645916
_cell_angle_gamma 100.488750
_cell_volume 671.976018
_symmetry_space_group_name_H-M "P -1"
_symmetry_group_IT_number 2
_symmetry_cell_setting 'triclinic'
loop_
_space_group_symop_operation_xyz
x,y,z
-x,-y,-z
loop_
_atom_site_type_symbol
_atom_site_label
_atom_site_fract_x
_atom_site_fract_y
_atom_site_fract_z
Si Si1 0.735823 0.204344 0.166139
Si Si2 0.910505 0.837244 0.430345
Si Si3 0.691151 0.223335 0.003643
Si Si4 0.813671 0.492980 0.701266
Si Si5 0.189468 0.802194 0.603105
Si Si6 0.865632 0.555236 0.134710
Si Si7 0.243737 0.496922 0.544410
Si Si8 0.412237 0.052514 0.634253
O O1 0.707832 0.181707 0.067774
O O2 0.493704 0.261127 0.307714
O O3 0.730492 0.428563 0.329278
O O4 0.000000 0.000000 0.000000
O O5 0.623881 0.016703 0.610570
O O6 0.030348 0.683152 0.380202
O O7 0.965750 0.652169 0.232608
O O8 0.000000 0.000000 0.500000
O O9 0.444652 0.285320 0.068043
O O10 0.770282 0.396271 0.074933
O O11 0.912410 0.979826 0.762301
O O12 0.709749 0.396120 0.609716
O O13 0.996375 0.522369 0.623574
O O14 0.215286 0.687241 0.609058
O O15 0.310793 0.933309 0.639548
O O16 0.575570 0.822570 0.381127
O O17 0.150221 0.329933 0.880396
#
# Coordination Sequence:
#
# PCOD9030665 Si02
#       8
#     2   2   2   2   2   2   2   2
#     4  11  24  44  70  96 134 176 240 284 338 412
#     4  11  24  43  71 100 135 179 226 287 354 406
#     4  12  25  43  71 101 137 184 230 287 348 417
#     4  12  26  45  65 100 148 176 225 290 355 413
#     4  12  24  44  70 100 137 185 236 278 351 420
#     4  11  22  44  71  99 134 175 234 284 342 415
#     4  11  26  43  70  99 134 185 233 287 347 410
#     4  10  22  42  72  94 130 184 228 275 344 415
#
# _framework density 23.810372999999998
#
# number of rings (size 3 to 8) (size 9 to 14) (size 15 to 20)
#    0.000    0.750    3.750    4.875    3.500    1.500 
#    2.250    1.250    0.000    0.000    0.000    0.000 
#    0.000    0.000    0.000    0.000    0.000    0.000 
#
# Total GULP energy -89182.476195 kJ/mol
# GULP energy per Si atom -5573.904762 kJ/mol
# Density = 2.375618 g / cm^3
# Si number density = 23.810373 Si / 1000 Ang^3
#
#
#
# Elastic Constant Matrix: (Units=GPa)
#
#
# Indices 1 2 3 4 5 6 
#
# 1 105.4010 53.5815 24.4267 -2.2064 -43.8352 15.0684
# 2 53.5815 124.7509 52.3226 2.8975 -28.4473 13.4700
# 3 24.4267 52.3226 128.6899 2.9710 -50.4978 10.6205
# 4 -2.2064 2.8975 2.9710 40.1109 -1.1379 -11.0510
# 5 -43.8352 -28.4473 -50.4978 -1.1379 67.6687 -7.8123
# 6 15.0684 13.4700 10.6205 -11.0510 -7.8123 46.5026
#
#
#
# Elastic Compliance Matrix: (Units=1/GPa)
#
#
# Indices 1 2 3 4 5 6 
#
# 1 0.016425 -0.005908 0.003630 0.000673 0.010587 -0.002501
# 2 -0.005908 0.012109 -0.004580 -0.001267 -0.002319 -0.001238
# 3 0.003630 -0.004580 0.012961 -0.000493 0.009945 -0.001256
# 4 0.000673 -0.001267 -0.000493 0.026993 0.000774 0.006807
# 5 0.010587 -0.002319 0.009945 0.000774 0.028081 -0.000129
# 6 -0.002501 -0.001238 -0.001256 0.006807 -0.000129 0.024556
#
#
# Mechanical properties :
#
#
# Convention : Reuss Voigt Hill
#
# Bulk Modulus (GPa) = 36.00017 68.83370 52.41694
# Shear Modulus (GPa) = 34.69760 46.09050 40.39405
#
# Velocity S-wave (km/s) = 3.82153 4.40447 4.12331
# Velocity P-wave (km/s) = 5.88426 7.40525 6.68813
#
# Compressibility (1/GPa) = 0.02777764
#
# Stress axis : x y z
#
# Youngs Moduli (GPa) = 60.88374 82.58340 77.15205
#
# Poissons Ratio (x) = 0.48793 -0.28006
# Poissons Ratio (y) = 0.35972 0.35339
# Poissons Ratio (z) = -0.22101 0.37827
#
# Static dielectric constant tensor:
#      x y z
#    x 1.829280 -0.014480 -0.025970 
#    y -0.014480 1.881900 -0.018110 
#    z -0.025970 -0.018110 2.130500 
# 
# From -- ./inp_files/560019.got.cif
#   From: 2010.05.17/outbox.cif.g08.bks.cpg/sg2_281_cif.got.tgz:560019.got - 2010.06.03 11:33:40.
