data_PCOD9030619
_publ_section_title
;
Structure prediction by ZEFSAII (Michael W. Deem and Ramdas Pophale) SiO2 
 PCOD9030619
Probable space group: P -1
;
_chemical_formula_sum "Si O2"
_cell_formula_units_Z 15
_cell_length_a 8.825430
_cell_length_b 5.190798
_cell_length_c 14.487898
_cell_angle_alpha 115.663093
_cell_angle_beta 77.595706
_cell_angle_gamma 106.199787
_cell_volume 571.085296
_symmetry_space_group_name_H-M "P -1"
_symmetry_group_IT_number 2
_symmetry_cell_setting 'triclinic'
loop_
_space_group_symop_operation_xyz
x,y,z
-x,-y,-z
loop_
_atom_site_type_symbol
_atom_site_label
_atom_site_fract_x
_atom_site_fract_y
_atom_site_fract_z
Si Si1 0.072984 0.487044 0.247209
Si Si2 0.217360 0.381922 0.815062
Si Si3 0.000000 0.500000 0.000000
Si Si4 0.510433 0.713518 0.637310
Si Si5 0.196822 0.801737 0.636527
Si Si6 0.485380 0.964754 0.865403
Si Si7 0.700944 0.209727 0.581711
Si Si8 0.752678 0.899223 0.959592
O O1 0.186766 0.719368 0.332171
O O2 0.931581 0.574733 0.221926
O O3 0.974814 0.274966 0.304995
O O4 0.170792 0.351776 0.135279
O O5 0.127008 0.316733 0.913652
O O6 0.367511 0.647069 0.842483
O O7 0.271333 0.114901 0.718241
O O8 0.884414 0.192256 0.004344
O O9 0.322384 0.610934 0.625419
O O10 0.529890 0.957655 0.752956
O O11 0.603178 0.466961 0.619224
O O12 0.586519 0.896591 0.566799
O O13 0.197508 0.797071 0.525734
O O14 0.643089 0.990900 0.907162
O O15 0.377366 0.174604 0.953119
#
# Coordination Sequence:
#
# PCOD9030619 Si02
#       8
#     2   2   1   2   2   2   2   2
#     4  12  26  45  74 106 155 192 251 310 383 447
#     4  11  25  44  72 110 147 200 242 314 374 454
#     4  10  22  42  72 104 150 192 244 306 378 446
#     4  12  26  51  77 109 149 201 252 317 366 454
#     4  12  27  48  74 108 148 198 250 313 376 446
#     4  10  22  45  75 104 151 191 256 301 379 445
#     4  12  30  48  79 108 153 198 262 309 377 438
#     4  10  22  44  72 109 147 194 248 308 376 450
#
# _framework density 26.265779999999999
#
# number of rings (size 3 to 8) (size 9 to 14) (size 15 to 20)
#    0.000    0.800    4.000    2.000    5.600    3.733 
#    0.000    0.667    0.000    0.000    0.000    0.000 
#    0.000    0.000    0.000    0.000    0.000    0.000 
#
# Total GULP energy -83751.134656 kJ/mol
# GULP energy per Si atom -5583.408977 kJ/mol
# Density = 2.620600 g / cm^3
# Si number density = 26.265780 Si / 1000 Ang^3
#
#
#
# Elastic Constant Matrix: (Units=GPa)
#
#
# Indices 1 2 3 4 5 6 
#
# 1 101.4067 33.5680 30.5930 7.0872 3.6843 -12.3316
# 2 33.5680 56.0249 -6.2760 2.3006 -21.1292 8.0416
# 3 30.5930 -6.2760 143.0977 15.7359 -24.6759 -7.5738
# 4 7.0872 2.3006 15.7359 24.6220 7.6556 -3.9846
# 5 3.6843 -21.1292 -24.6759 7.6556 42.4804 4.2228
# 6 -12.3316 8.0416 -7.5738 -3.9846 4.2228 39.1571
#
#
#
# Elastic Compliance Matrix: (Units=1/GPa)
#
#
# Indices 1 2 3 4 5 6 
#
# 1 0.026528 -0.032019 -0.013187 0.016068 -0.030502 0.017304
# 2 -0.032019 0.066825 0.021884 -0.033684 0.057702 -0.029225
# 3 -0.013187 0.021884 0.016811 -0.018773 0.026183 -0.010130
# 4 0.016068 -0.033684 -0.018773 0.067804 -0.043251 0.019911
# 5 -0.030502 0.057702 0.026183 -0.043251 0.080823 -0.029509
# 6 0.017304 -0.029225 -0.010130 0.019911 -0.029509 0.040239
#
#
# Mechanical properties :
#
#
# Convention : Reuss Voigt Hill
#
# Bulk Modulus (GPa) = 15.74308 46.25547 30.99927
# Shear Modulus (GPa) = 13.62968 37.42818 25.52893
#
# Velocity S-wave (km/s) = 2.28044 3.77898 3.12099
# Velocity P-wave (km/s) = 3.59731 6.05721 4.98148
#
# Compressibility (1/GPa) = 0.06351997
#
# Stress axis : x y z
#
# Youngs Moduli (GPa) = 37.69601 14.96446 59.48649
#
# Poissons Ratio (x) = 0.47915 0.78442
# Poissons Ratio (y) = 1.20698 -1.30178
# Poissons Ratio (z) = 0.49708 -0.32748
#
# Static dielectric constant tensor:
#      x y z
#    x 1.968410 -0.003710 -0.080970 
#    y -0.003710 2.024900 0.019530 
#    z -0.080970 0.019530 2.102290 
# 
# From -- ./inp_files/35448.got.cif
#   From: 2010.05.17/outbox.cif.g08.bks.cpg/sg2_18_cif.got.tgz:35448.got - 2010.06.03 11:33:40.
