data_PCOD9030971
_publ_section_title
;
Structure prediction by ZEFSAII (Michael W. Deem and Ramdas Pophale) SiO2 
 PCOD9030971
Probable space group: P -1
;
_chemical_formula_sum "Si O2"
_cell_formula_units_Z 14
_cell_length_a 6.797542
_cell_length_b 16.807422
_cell_length_c 5.182662
_cell_angle_alpha 82.553600
_cell_angle_beta 94.999145
_cell_angle_gamma 92.719904
_cell_volume 584.495749
_symmetry_space_group_name_H-M "P -1"
_symmetry_group_IT_number 2
_symmetry_cell_setting 'triclinic'
loop_
_space_group_symop_operation_xyz
x,y,z
-x,-y,-z
loop_
_atom_site_type_symbol
_atom_site_label
_atom_site_fract_x
_atom_site_fract_y
_atom_site_fract_z
Si Si1 0.881510 0.347071 0.667662
Si Si2 0.294240 0.993566 0.616282
Si Si3 0.712213 0.468893 0.952398
Si Si4 0.589534 0.303620 0.269375
Si Si5 0.139355 0.353949 0.180208
Si Si6 0.012105 0.116714 0.632662
Si Si7 0.821071 0.167869 0.097442
O O1 0.776842 0.430453 0.702035
O O2 0.693543 0.293633 0.563352
O O3 0.001957 0.319693 0.946591
O O4 0.041976 0.352328 0.453435
O O5 0.137548 0.960579 0.395515
O O6 0.500000 0.000000 0.500000
O O7 0.223084 0.077420 0.684012
O O8 0.283789 0.921089 0.848622
O O9 0.837414 0.552337 0.944913
O O10 0.500000 0.500000 0.000000
O O11 0.699819 0.386910 0.152109
O O12 0.356454 0.317252 0.234392
O O13 0.658699 0.231411 0.129488
O O14 0.980575 0.168926 0.350815
O O15 0.938737 0.163598 0.848239
#
# Coordination Sequence:
#
# PCOD9030971 Si02
#       7
#     2   2   2   2   2   2   2
#     4  12  25  46  68  97 130 176 226 278 337 390
#     4   9  20  40  67  97 122 167 214 262 316 385
#     4  10  24  43  69  99 127 179 223 281 334 389
#     4  11  27  45  68  96 141 175 221 274 338 394
#     4  11  27  43  69  98 131 173 233 278 325 397
#     4   9  21  40  64  93 129 162 210 266 315 386
#     4  10  22  43  63  91 135 169 207 270 324 383
#
# _framework density 23.952268
#
# number of rings (size 3 to 8) (size 9 to 14) (size 15 to 20)
#    0.857    0.857    1.429    1.286    8.000    1.714 
#    2.571    0.000    0.000    0.000    0.000    0.000 
#    0.000    0.000    0.000    0.000    0.000    0.000 
#
# Total GULP energy -78032.112728 kJ/mol
# GULP energy per Si atom -5573.722338 kJ/mol
# Density = 2.389775 g / cm^3
# Si number density = 23.952268 Si / 1000 Ang^3
#
#
#
# Elastic Constant Matrix: (Units=GPa)
#
#
# Indices 1 2 3 4 5 6 
#
# 1 172.2765 52.2406 82.2673 27.2159 -19.1942 -42.6185
# 2 52.2406 106.7903 50.3615 29.5303 -10.0053 -50.0991
# 3 82.2673 50.3615 166.7531 30.8188 -9.0815 -25.2550
# 4 27.2159 29.5303 30.8188 40.8230 -8.8055 -8.9217
# 5 -19.1942 -10.0053 -9.0815 -8.8055 27.5066 7.1806
# 6 -42.6185 -50.0991 -25.2550 -8.9217 7.1806 48.2222
#
#
#
# Elastic Compliance Matrix: (Units=1/GPa)
#
#
# Indices 1 2 3 4 5 6 
#
# 1 0.009532 0.001146 -0.003376 -0.002397 0.003385 0.006899
# 2 0.001146 0.023199 -0.002205 -0.011252 -0.000836 0.022002
# 3 -0.003376 -0.002205 0.008686 -0.003182 -0.001005 -0.001166
# 4 -0.002397 -0.011252 -0.003182 0.036050 0.007307 -0.009893
# 5 0.003385 -0.000836 -0.001005 0.007307 0.041254 -0.003194
# 6 0.006899 0.022002 -0.001166 -0.009893 -0.003194 0.047728
#
#
# Mechanical properties :
#
#
# Convention : Reuss Voigt Hill
#
# Bulk Modulus (GPa) = 30.72720 90.61765 60.67243
# Shear Modulus (GPa) = 26.85740 40.70706 33.78223
#
# Velocity S-wave (km/s) = 3.35220 4.12698 3.75960
# Velocity P-wave (km/s) = 5.27630 7.78614 6.65069
#
# Compressibility (1/GPa) = 0.03254445
#
# Stress axis : x y z
#
# Youngs Moduli (GPa) = 104.90949 43.10566 115.13332
#
# Poissons Ratio (x) = -0.04939 0.38875
# Poissons Ratio (y) = -0.12020 0.25390
# Poissons Ratio (z) = 0.35423 0.09506
#
# Static dielectric constant tensor:
#      x y z
#    x 1.945400 -0.020330 0.063770 
#    y -0.020330 2.056010 -0.076260 
#    z 0.063770 -0.076260 2.000380 
# 
# From -- ./inp_files/38501.got.cif
#   From: 2010.05.17/outbox.cif.g08.bks.cpg/sg2_20_cif.got.tgz:38501.got - 2010.06.03 11:33:40.
