data_PCOD9030606
_publ_section_title
;
Structure prediction by ZEFSAII (Michael W. Deem and Ramdas Pophale) SiO2 
 PCOD9030606
Probable space group: P -1
;
_chemical_formula_sum "Si O2"
_cell_formula_units_Z 14
_cell_length_a 12.399122
_cell_length_b 21.960075
_cell_length_c 15.560767
_cell_angle_alpha 16.276616
_cell_angle_beta 151.814863
_cell_angle_gamma 151.377091
_cell_volume 544.579170
_symmetry_space_group_name_H-M "P -1"
_symmetry_group_IT_number 2
_symmetry_cell_setting 'triclinic'
loop_
_space_group_symop_operation_xyz
x,y,z
-x,-y,-z
loop_
_atom_site_type_symbol
_atom_site_label
_atom_site_fract_x
_atom_site_fract_y
_atom_site_fract_z
Si Si1 0.817308 0.169250 0.895503
Si Si2 0.613300 0.228321 0.075591
Si Si3 0.355277 0.259837 0.189211
Si Si4 0.918816 0.313500 0.023017
Si Si5 0.265259 0.728594 0.702606
Si Si6 0.314127 0.117658 0.654837
Si Si7 0.892819 0.953314 0.081661
O O1 0.085706 0.275751 0.965704
O O2 0.752702 0.932809 0.224162
O O3 0.818529 0.143111 0.829210
O O4 0.581594 0.249775 0.645241
O O5 0.784625 0.373177 0.930646
O O6 0.666158 0.309260 0.100330
O O7 0.648195 0.969933 0.447990
O O8 0.351674 0.223232 0.868044
O O9 0.506617 0.221181 0.264181
O O10 0.500000 0.500000 0.000000
O O11 0.126320 0.216051 0.340425
O O12 0.742088 0.133271 0.086297
O O13 0.071406 0.528855 0.792193
O O14 0.103164 0.904042 0.352504
O O15 0.000000 0.000000 0.000000
#
# Coordination Sequence:
#
# PCOD9030606 Si02
#       7
#     2   2   2   2   2   2   2
#     4  11  22  43  71 100 141 188 233 294 347 419
#     4  12  24  47  73 101 147 188 232 291 354 423
#     4  12  25  45  72 100 141 189 233 291 357 414
#     4  11  23  44  73 103 140 189 237 284 359 423
#     4  12  26  45  72 105 144 185 235 297 352 423
#     4  10  22  42  72 102 144 185 230 294 357 410
#     4  12  24  44  72  99 137 192 236 284 355 421
#
# _framework density 25.707923999999998
#
# number of rings (size 3 to 8) (size 9 to 14) (size 15 to 20)
#    0.000    0.571    5.714    2.571    2.000    0.571 
#    7.714    1.429    0.000    0.000    0.000    0.000 
#    0.000    0.000    0.000    0.000    0.000    0.000 
#
# Total GULP energy -78222.445404 kJ/mol
# GULP energy per Si atom -5587.317529 kJ/mol
# Density = 2.564941 g / cm^3
# Si number density = 25.707924 Si / 1000 Ang^3
#
#
#
# Elastic Constant Matrix: (Units=GPa)
#
#
# Indices 1 2 3 4 5 6 
#
# 1 147.0445 51.4638 7.5604 19.8940 10.5892 28.3605
# 2 51.4638 185.7437 32.2723 37.1717 19.5774 35.8190
# 3 7.5604 32.2723 26.9975 12.4462 7.9856 3.3929
# 4 19.8940 37.1717 12.4462 44.4447 8.3308 9.3700
# 5 10.5892 19.5774 7.9856 8.3308 19.3962 8.2123
# 6 28.3605 35.8190 3.3929 9.3700 8.2123 54.3091
#
#
#
# Elastic Compliance Matrix: (Units=1/GPa)
#
#
# Indices 1 2 3 4 5 6 
#
# 1 0.008137 -0.001333 0.000997 -0.001926 -0.001461 -0.002879
# 2 -0.001333 0.008618 -0.007315 -0.003430 -0.001943 -0.003645
# 3 0.000997 -0.007315 0.052319 -0.007388 -0.013362 0.004330
# 4 -0.001926 -0.003430 -0.007388 0.029324 -0.004783 -0.000607
# 5 -0.001461 -0.001943 -0.013362 -0.004783 0.064427 -0.006038
# 6 -0.002879 -0.003645 0.004330 -0.000607 -0.006038 0.023068
#
#
# Mechanical properties :
#
#
# Convention : Reuss Voigt Hill
#
# Bulk Modulus (GPa) = 18.59701 60.26433 39.43067
# Shear Modulus (GPa) = 22.81860 41.52928 32.17394
#
# Velocity S-wave (km/s) = 2.98251 4.02360 3.54152
# Velocity P-wave (km/s) = 4.37152 6.71406 5.66519
#
# Compressibility (1/GPa) = 0.05377208
#
# Stress axis : x y z
#
# Youngs Moduli (GPa) = 122.89535 116.03351 19.11345
#
# Poissons Ratio (x) = 0.15469 -0.01905
# Poissons Ratio (y) = 0.16384 0.13981
# Poissons Ratio (z) = -0.12247 0.84874
#
# Static dielectric constant tensor:
#      x y z
#    x 2.050060 -0.094900 0.066000 
#    y -0.094900 2.084320 -0.118530 
#    z 0.066000 -0.118530 2.140050 
# 
# From -- ./inp_files/393327.got.cif
#   From: 2010.05.17/outbox.cif.g08.bks.cpg/sg2_197_cif.got.tgz:393327.got - 2010.06.03 11:33:40.
