data_PCOD9030979
_publ_section_title
;
Structure prediction by ZEFSAII (Michael W. Deem and Ramdas Pophale) SiO2 
 PCOD9030979
Probable space group: P -1
;
_chemical_formula_sum "Si O2"
_cell_formula_units_Z 12
_cell_length_a 5.045390
_cell_length_b 19.518587
_cell_length_c 5.532206
_cell_angle_alpha 104.917090
_cell_angle_beta 106.198869
_cell_angle_gamma 60.818538
_cell_volume 451.960873
_symmetry_space_group_name_H-M "P -1"
_symmetry_group_IT_number 2
_symmetry_cell_setting 'triclinic'
loop_
_space_group_symop_operation_xyz
x,y,z
-x,-y,-z
loop_
_atom_site_type_symbol
_atom_site_label
_atom_site_fract_x
_atom_site_fract_y
_atom_site_fract_z
Si Si1 0.692922 0.288122 0.783047
Si Si2 0.649756 0.843307 0.206081
Si Si3 0.447111 0.361621 0.283708
Si Si4 0.775829 0.426539 0.128556
Si Si5 0.557944 0.127760 0.330444
Si Si6 0.794151 0.974813 0.747894
O O1 0.521290 0.312807 0.505408
O O2 0.987203 0.202957 0.780237
O O3 0.508900 0.308281 0.007659
O O4 0.837273 0.350909 0.907624
O O5 0.574929 0.816131 0.420484
O O6 0.490073 0.939288 0.303532
O O7 0.493619 0.834307 0.912765
O O8 0.665970 0.403887 0.331214
O O9 0.096539 0.428388 0.246618
O O10 0.500000 0.500000 0.000000
O O11 0.351419 0.078693 0.216931
O O12 0.924650 0.074697 0.408692
O O13 0.000000 0.000000 0.000000
#
# Coordination Sequence:
#
# PCOD9030979 Si02
#       6
#     2   2   2   2   2   2
#     4  10  25  44  65 101 136 174 218 268 331 391
#     4  11  22  44  63  94 127 173 208 272 321 381
#     4  10  24  44  67  99 135 168 224 262 324 393
#     4  10  24  46  72  99 134 174 218 268 322 391
#     4  11  24  42  64  91 124 168 220 265 319 380
#     4  10  22  43  63  93 123 167 220 268 316 381
#
# _framework density 26.550972000000002
#
# number of rings (size 3 to 8) (size 9 to 14) (size 15 to 20)
#    1.000    0.667    0.000    4.500    2.333    4.000 
#   18.000    0.000    0.000    0.000    0.000    0.000 
#    0.000    0.000    0.000    0.000    0.000    0.000 
#
# Total GULP energy -67045.278924 kJ/mol
# GULP energy per Si atom -5587.106577 kJ/mol
# Density = 2.649054 g / cm^3
# Si number density = 26.550972 Si / 1000 Ang^3
#
#
#
# Elastic Constant Matrix: (Units=GPa)
#
#
# Indices 1 2 3 4 5 6 
#
# 1 147.5990 36.4692 17.2611 -1.6336 -12.2140 -37.2563
# 2 36.4692 93.4061 22.1212 -6.0368 2.6236 -25.5818
# 3 17.2611 22.1212 160.1687 -7.4962 -21.2815 -12.2993
# 4 -1.6336 -6.0368 -7.4962 47.5516 -0.2738 7.7336
# 5 -12.2140 2.6236 -21.2815 -0.2738 34.1127 -11.8072
# 6 -37.2563 -25.5818 -12.2993 7.7336 -11.8072 51.0511
#
#
#
# Elastic Compliance Matrix: (Units=1/GPa)
#
#
# Indices 1 2 3 4 5 6 
#
# 1 0.009785 -0.002050 0.000709 -0.001080 0.006877 0.008039
# 2 -0.002050 0.013106 -0.001362 0.000657 -0.001064 0.004398
# 3 0.000709 -0.001362 0.007402 0.000579 0.005990 0.002916
# 4 -0.001080 0.000657 0.000579 0.021796 -0.001255 -0.003912
# 5 0.006877 -0.001064 0.005990 -0.001255 0.040985 0.015598
# 6 0.008039 0.004398 0.002916 -0.003912 0.015598 0.032561
#
#
# Mechanical properties :
#
#
# Convention : Reuss Voigt Hill
#
# Bulk Modulus (GPa) = 40.18126 61.43076 50.80601
# Shear Modulus (GPa) = 35.88456 48.23124 42.05790
#
# Velocity S-wave (km/s) = 3.68031 4.26673 3.98432
# Velocity P-wave (km/s) = 5.76421 6.88915 6.35163
#
# Compressibility (1/GPa) = 0.02488722
#
# Stress axis : x y z
#
# Youngs Moduli (GPa) = 102.19838 76.30364 135.09727
#
# Poissons Ratio (x) = 0.15640 -0.09580
# Poissons Ratio (y) = 0.20947 0.18402
# Poissons Ratio (z) = -0.07247 0.10393
#
# Static dielectric constant tensor:
#      x y z
#    x 2.141410 0.087790 0.040880 
#    y 0.087790 2.114120 0.049510 
#    z 0.040880 0.049510 2.175420 
# 
# From -- ./inp_files/13312.got.cif
#   From: 2010.05.17/outbox.cif.g08.bks.cpg/sg2_7_cif.got.tgz:13312.got - 2010.06.03 11:33:40.
