data_PCOD9030912
_publ_section_title
;
Structure prediction by ZEFSAII (Michael W. Deem and Ramdas Pophale) SiO2 
 PCOD9030912
Probable space group: P -1
;
_chemical_formula_sum "Si O2"
_cell_formula_units_Z 16
_cell_length_a 5.067871
_cell_length_b 20.440718
_cell_length_c 8.256974
_cell_angle_alpha 92.643100
_cell_angle_beta 57.719975
_cell_angle_gamma 85.431101
_cell_volume 716.854192
_symmetry_space_group_name_H-M "P -1"
_symmetry_group_IT_number 2
_symmetry_cell_setting 'triclinic'
loop_
_space_group_symop_operation_xyz
x,y,z
-x,-y,-z
loop_
_atom_site_type_symbol
_atom_site_label
_atom_site_fract_x
_atom_site_fract_y
_atom_site_fract_z
Si Si1 0.226003 0.556765 0.650485
Si Si2 0.947328 0.903149 0.638391
Si Si3 0.483154 0.442310 0.126502
Si Si4 0.617600 0.900116 0.095012
Si Si5 0.661282 0.342504 0.803429
Si Si6 0.883813 0.955987 0.330986
Si Si7 0.564891 0.214010 0.661764
Si Si8 0.348435 0.345228 0.595070
O O1 0.500000 0.500000 0.500000
O O2 0.245181 0.550121 0.834898
O O3 0.369736 0.625508 0.582492
O O4 0.880217 0.552313 0.695758
O O5 0.766937 0.919813 0.526836
O O6 0.177075 0.837020 0.516739
O O7 0.129495 0.967190 0.611834
O O8 0.766047 0.898117 0.866984
O O9 0.500000 0.500000 0.000000
O O10 0.557569 0.370561 0.012729
O O11 0.250374 0.925980 0.197510
O O12 0.648083 0.829509 0.168579
O O13 0.748019 0.945491 0.196206
O O14 0.694841 0.264320 0.752889
O O15 0.395973 0.370130 0.765437
O O16 0.997217 0.365918 0.654158
O O17 0.404028 0.266119 0.589542
#
# Coordination Sequence:
#
# PCOD9030912 Si02
#       8
#     2   2   2   2   2   2   2   2
#     4  12  24  41  68  99 126 168 218 267 331 399
#     4  10  22  43  66  98 128 182 223 274 352 397
#     4  12  24  41  68  98 128 169 213 269 337 389
#     4  11  23  42  65  97 130 177 223 281 341 403
#     4  10  22  43  62  87 131 169 209 271 326 384
#     4  10  24  41  65  97 136 168 225 291 328 405
#     4   9  25  40  66  90 136 170 220 279 326 396
#     4  10  22  43  62  87 131 168 211 271 323 383
#
# _framework density 22.319741
#
# number of rings (size 3 to 8) (size 9 to 14) (size 15 to 20)
#    0.750    0.750    0.000    4.500    3.500    7.500 
#    0.000    0.000    0.000    0.000    0.000    0.000 
#    0.000    0.000    0.000    0.000    0.000    0.000 
#
# Total GULP energy -89207.087119 kJ/mol
# GULP energy per Si atom -5575.442945 kJ/mol
# Density = 2.226894 g / cm^3
# Si number density = 22.319741 Si / 1000 Ang^3
#
#
#
# Elastic Constant Matrix: (Units=GPa)
#
#
# Indices 1 2 3 4 5 6 
#
# 1 66.1398 10.2336 24.6991 4.6548 -6.3165 3.2382
# 2 10.2336 94.2049 44.6747 4.9665 -6.7342 -4.9466
# 3 24.6991 44.6747 139.4057 5.5101 8.5901 -9.9751
# 4 4.6548 4.9665 5.5101 34.0580 4.5353 5.0283
# 5 -6.3165 -6.7342 8.5901 4.5353 32.2839 -0.5639
# 6 3.2382 -4.9466 -9.9751 5.0283 -0.5639 24.3591
#
#
#
# Elastic Compliance Matrix: (Units=1/GPa)
#
#
# Indices 1 2 3 4 5 6 
#
# 1 0.017133 0.000044 -0.003480 -0.001913 0.004500 -0.003195
# 2 0.000044 0.013125 -0.004293 -0.001992 0.004193 0.001410
# 3 -0.003480 -0.004293 0.009686 -0.000455 -0.004028 0.003558
# 4 -0.001913 -0.001992 -0.000455 0.031720 -0.005247 -0.007006
# 5 0.004500 0.004193 -0.004028 -0.005247 0.034548 0.000487
# 6 -0.003195 0.001410 0.003558 -0.007006 0.000487 0.044678
#
#
# Mechanical properties :
#
#
# Convention : Reuss Voigt Hill
#
# Bulk Modulus (GPa) = 40.83822 50.99611 45.91716
# Shear Modulus (GPa) = 28.65179 32.81641 30.73410
#
# Velocity S-wave (km/s) = 3.58676 3.83859 3.71481
# Velocity P-wave (km/s) = 5.95733 6.52257 6.24635
#
# Compressibility (1/GPa) = 0.02448687
#
# Stress axis : x y z
#
# Youngs Moduli (GPa) = 58.36685 76.19144 103.23954
#
# Poissons Ratio (x) = -0.00334 0.35926
# Poissons Ratio (y) = -0.00256 0.44316
# Poissons Ratio (z) = 0.20311 0.32706
#
# Static dielectric constant tensor:
#      x y z
#    x 1.861310 -0.005940 0.036290 
#    y -0.005940 1.873880 -0.045120 
#    z 0.036290 -0.045120 1.889190 
# 
# From -- ./inp_files/141410.got.cif
#   From: 2010.05.17/outbox.cif.g08.bks.cpg/sg2_71_cif.got.tgz:141410.got - 2010.06.03 11:33:40.
