data_PCOD9030650
_publ_section_title
;
Structure prediction by ZEFSAII (Michael W. Deem and Ramdas Pophale) SiO2 
 PCOD9030650
Probable space group: P -1
;
_chemical_formula_sum "Si O2"
_cell_formula_units_Z 15
_cell_length_a 5.011839
_cell_length_b 12.113561
_cell_length_c 13.071478
_cell_angle_alpha 124.202975
_cell_angle_beta 60.579447
_cell_angle_gamma 111.883070
_cell_volume 566.531395
_symmetry_space_group_name_H-M "P -1"
_symmetry_group_IT_number 2
_symmetry_cell_setting 'triclinic'
loop_
_space_group_symop_operation_xyz
x,y,z
-x,-y,-z
loop_
_atom_site_type_symbol
_atom_site_label
_atom_site_fract_x
_atom_site_fract_y
_atom_site_fract_z
Si Si1 0.638166 0.145900 0.594618
Si Si2 0.639953 0.708345 0.785131
Si Si3 0.562862 0.961208 0.814689
Si Si4 0.750411 0.580511 0.921658
Si Si5 0.624232 0.768636 0.512305
Si Si6 0.179811 0.135894 0.858119
Si Si7 0.000000 0.500000 0.500000
Si Si8 0.195639 0.483110 0.667306
O O1 0.503183 0.229710 0.576090
O O2 0.479240 0.156860 0.739077
O O3 0.006807 0.183138 0.544739
O O4 0.500000 0.000000 0.500000
O O5 0.584646 0.862585 0.857275
O O6 0.647183 0.642804 0.863695
O O7 0.352328 0.630441 0.737177
O O8 0.915094 0.659504 0.640058
O O9 0.535830 0.863062 0.668391
O O10 0.290748 0.051839 0.890185
O O11 0.892530 0.054995 0.809654
O O12 0.974304 0.466968 0.797229
O O13 0.500000 0.500000 0.000000
O O14 0.897205 0.717246 0.020810
O O15 0.538989 0.606047 0.460831
O O16 0.987589 0.457950 0.596636
#
# Coordination Sequence:
#
# PCOD9030650 Si02
#       8
#     2   2   2   2   2   2   1   2
#     4  12  23  43  67 109 148 193 249 302 383 440
#     4  11  27  46  75 112 150 199 252 311 383 447
#     4  12  26  46  76 112 150 193 246 317 384 451
#     4  11  29  54  73 106 147 205 259 310 370 455
#     4  12  24  41  74 110 149 189 246 319 380 443
#     4  12  28  47  76 107 152 201 251 308 375 454
#     4  10  22  42  72 108 152 182 252 300 384 438
#     4  11  26  44  76 109 147 198 245 314 376 450
#
# _framework density 26.476906
#
# number of rings (size 3 to 8) (size 9 to 14) (size 15 to 20)
#    0.000    0.533    4.000    2.400   11.200    1.600 
#    0.000    0.000    0.000    0.000    0.000    0.000 
#    0.000    0.000    0.000    0.000    0.000    0.000 
#
# Total GULP energy -83550.626335 kJ/mol
# GULP energy per Si atom -5570.041756 kJ/mol
# Density = 2.641664 g / cm^3
# Si number density = 26.476906 Si / 1000 Ang^3
#
#
#
# Elastic Constant Matrix: (Units=GPa)
#
#
# Indices 1 2 3 4 5 6 
#
# 1 99.9435 5.8825 0.9240 -2.5684 17.8027 6.3195
# 2 5.8825 113.8865 31.9060 12.6464 14.0393 0.7217
# 3 0.9240 31.9060 123.5613 -3.7938 2.9169 4.8898
# 4 -2.5684 12.6464 -3.7938 47.4027 0.9177 -1.6751
# 5 17.8027 14.0393 2.9169 0.9177 41.5510 3.3940
# 6 6.3195 0.7217 4.8898 -1.6751 3.3940 34.1852
#
#
#
# Elastic Compliance Matrix: (Units=1/GPa)
#
#
# Indices 1 2 3 4 5 6 
#
# 1 0.010936 -0.000106 0.000135 0.000665 -0.004547 -0.001555
# 2 -0.000106 0.010246 -0.002672 -0.002878 -0.003195 0.000362
# 3 0.000135 -0.002672 0.008865 0.001382 0.000290 -0.001198
# 4 0.000665 -0.002878 0.001382 0.022039 0.000037 0.000816
# 5 -0.004547 -0.003195 0.000290 0.000037 0.027223 -0.001834
# 6 -0.001555 0.000362 -0.001198 0.000816 -0.001834 0.029926
#
#
# Mechanical properties :
#
#
# Convention : Reuss Voigt Hill
#
# Bulk Modulus (GPa) = 40.38735 46.09071 43.23903
# Shear Modulus (GPa) = 40.72508 44.53970 42.63239
#
# Velocity S-wave (km/s) = 3.92616 4.10592 4.01705
# Velocity P-wave (km/s) = 5.98665 6.31853 6.15483
#
# Compressibility (1/GPa) = 0.02476023
#
# Stress axis : x y z
#
# Youngs Moduli (GPa) = 91.44145 97.59937 112.80152
#
# Poissons Ratio (x) = 0.01036 -0.01522
# Poissons Ratio (y) = 0.00970 0.30143
# Poissons Ratio (z) = -0.01233 0.26080
#
# Static dielectric constant tensor:
#      x y z
#    x 2.254290 -0.000270 -0.105520 
#    y -0.000270 2.128190 0.078860 
#    z -0.105520 0.078860 2.055360 
# 
# From -- ./inp_files/362735.got.cif
#   From: 2010.05.17/outbox.cif.g08.bks.cpg/sg2_182_cif.got.tgz:362735.got - 2010.06.03 11:33:40.
