data_PCOD9030382
_publ_section_title
;
Structure prediction by ZEFSAII (Michael W. Deem and Ramdas Pophale) SiO2 
 PCOD9030382
Probable space group: P -1
;
_chemical_formula_sum "Si O2"
_cell_formula_units_Z 16
_cell_length_a 18.328191
_cell_length_b 11.144181
_cell_length_c 7.648350
_cell_angle_alpha 66.358020
_cell_angle_beta 121.242349
_cell_angle_gamma 147.202101
_cell_volume 721.426371
_symmetry_space_group_name_H-M "P -1"
_symmetry_group_IT_number 2
_symmetry_cell_setting 'triclinic'
loop_
_space_group_symop_operation_xyz
x,y,z
-x,-y,-z
loop_
_atom_site_type_symbol
_atom_site_label
_atom_site_fract_x
_atom_site_fract_y
_atom_site_fract_z
Si Si1 0.253030 0.753804 0.306641
Si Si2 0.570074 0.434281 0.506961
Si Si3 0.496880 0.219212 0.882087
Si Si4 0.772133 0.990804 0.749189
Si Si5 0.238179 0.075160 0.614993
Si Si6 0.513631 0.033867 0.243789
Si Si7 0.823874 0.622978 0.535468
Si Si8 0.098281 0.039465 0.787820
O O1 0.383664 0.893793 0.522471
O O2 0.150919 0.501963 0.362667
O O3 0.191983 0.823356 0.226540
O O4 0.344347 0.847991 0.186519
O O5 0.579513 0.415468 0.736292
O O6 0.403289 0.230752 0.359067
O O7 0.651824 0.669383 0.434995
O O8 0.659778 0.439374 0.505648
O O9 0.344262 0.095175 0.807460
O O10 0.469691 0.059491 0.821733
O O11 0.570242 0.245761 0.124925
O O12 0.825878 0.045953 0.581983
O O13 0.829452 0.942707 0.968368
O O14 0.137162 0.000880 0.686430
O O15 0.853106 0.753268 0.327689
O O16 0.924959 0.812509 0.702642
#
# Coordination Sequence:
#
# PCOD9030382 Si02
#       8
#     2   2   2   2   2   2   2   2
#     4  11  19  35  57  85 118 153 194 241 290 353
#     4  10  19  37  62  88 119 150 194 246 287 348
#     4  10  17  32  51  86 120 143 184 237 294 340
#     4  11  21  38  63  90 117 152 194 243 302 344
#     4  10  21  37  59  87 121 151 195 244 291 346
#     4  10  19  29  54  85 120 148 179 239 300 344
#     4  10  22  41  60  84 117 157 200 239 287 346
#     4  10  24  43  61  81 120 163 196 241 287 351
#
# _framework density 22.178284000000001
#
# number of rings (size 3 to 8) (size 9 to 14) (size 15 to 20)
#    0.000    1.750    3.750    3.000    0.000    4.500 
#    0.000    7.500    0.000    0.000    0.000    0.000 
#    0.000    0.000    0.000    0.000    0.000    0.000 
#
# Total GULP energy -89182.484016 kJ/mol
# GULP energy per Si atom -5573.905251 kJ/mol
# Density = 2.212781 g / cm^3
# Si number density = 22.178284 Si / 1000 Ang^3
#
#
#
# Elastic Constant Matrix: (Units=GPa)
#
#
# Indices 1 2 3 4 5 6 
#
# 1 57.9835 2.7617 2.8695 2.3980 3.3144 -13.9342
# 2 2.7617 77.4143 9.2064 -10.7900 6.4304 -16.1032
# 3 2.8695 9.2064 77.5706 -22.8095 30.4259 -0.7831
# 4 2.3980 -10.7900 -22.8095 24.7833 -9.9262 8.0288
# 5 3.3144 6.4304 30.4259 -9.9262 3.1016 -5.2455
# 6 -13.9342 -16.1032 -0.7831 8.0288 -5.2455 30.3425
#
#
#
# Elastic Compliance Matrix: (Units=1/GPa)
#
#
# Indices 1 2 3 4 5 6 
#
# 1 0.020636 0.001000 -0.003104 -0.008499 -0.000394 0.012108
# 2 0.001000 0.014996 -0.000944 0.003270 0.000422 0.007601
# 3 -0.003104 -0.000944 0.002437 0.018477 0.041092 0.000351
# 4 -0.008499 0.003270 0.018477 0.066596 0.002143 -0.018942
# 5 -0.000394 0.000422 0.041092 0.002143 -0.103696 -0.017390
# 6 0.012108 0.007601 0.000351 -0.018942 -0.017390 0.044566
#
#
# Mechanical properties :
#
#
# Convention : Reuss Voigt Hill
#
# Bulk Modulus (GPa) = 31.27729 26.96041 29.11885
# Shear Modulus (GPa) = 80.26974 24.85418 52.56196
#
# Velocity S-wave (km/s) = 6.02258 3.35125 4.87352
# Velocity P-wave (km/s) = 7.90540 5.21125 6.69524
#
# Compressibility (1/GPa) = 0.03197208
#
# Stress axis : x y z
#
# Youngs Moduli (GPa) = 48.45901 66.68471 410.29473
#
# Poissons Ratio (x) = -0.06667 1.27367
# Poissons Ratio (y) = -0.04845 0.38734
# Poissons Ratio (z) = 0.15043 0.06295
#
# Static dielectric constant tensor:
#      x y z
#    x 1.913980 0.004830 -0.024860 
#    y 0.004830 1.864830 -0.068880 
#    z -0.024860 -0.068880 1.932230 
# 
# From -- ./inp_files/345164.got.cif
#   From: 2010.05.17/outbox.cif.g08.bks.cpg/sg2_173_cif.got.tgz:345164.got - 2010.06.03 11:33:40.
