data_PCOD9030120
_publ_section_title
;
Structure prediction by ZEFSAII (Michael W. Deem and Ramdas Pophale) SiO2 
 PCOD9030120
Probable space group: P -1
;
_chemical_formula_sum "Si O2"
_cell_formula_units_Z 16
_cell_length_a 8.532351
_cell_length_b 15.580807
_cell_length_c 6.235911
_cell_angle_alpha 93.311719
_cell_angle_beta 127.458686
_cell_angle_gamma 77.802127
_cell_volume 640.524589
_symmetry_space_group_name_H-M "P -1"
_symmetry_group_IT_number 2
_symmetry_cell_setting 'triclinic'
loop_
_space_group_symop_operation_xyz
x,y,z
-x,-y,-z
loop_
_atom_site_type_symbol
_atom_site_label
_atom_site_fract_x
_atom_site_fract_y
_atom_site_fract_z
Si Si1 0.150356 0.072032 0.391317
Si Si2 0.717736 0.714289 0.639033
Si Si3 0.390926 0.775871 0.724746
Si Si4 0.706294 0.527800 0.708378
Si Si5 0.902192 0.106077 0.802620
Si Si6 0.041021 0.734330 0.630900
Si Si7 0.057812 0.426076 0.719509
Si Si8 0.467139 0.877908 0.187093
O O1 0.041339 0.159297 0.444735
O O2 0.385477 0.056766 0.642603
O O3 0.078118 0.981347 0.335597
O O4 0.104501 0.101810 0.107057
O O5 0.599020 0.739525 0.767197
O O6 0.702474 0.614584 0.575675
O O7 0.952377 0.715547 0.787661
O O8 0.594083 0.785589 0.380647
O O9 0.214709 0.808218 0.406494
O O10 0.281279 0.718128 0.784267
O O11 0.424922 0.857304 0.906157
O O12 0.500000 0.500000 0.500000
O O13 0.884938 0.449888 0.761430
O O14 0.749103 0.555982 0.989587
O O15 0.739094 0.096970 0.850422
O O16 0.947062 0.669725 0.391617
O O17 0.000000 0.500000 0.500000
#
# Coordination Sequence:
#
# PCOD9030120 Si02
#       8
#     2   2   2   2   2   2   2   2
#     4  10  22  42  69  97 144 186 226 295 345 408
#     4  10  24  43  68 102 141 177 231 284 343 419
#     4  11  24  43  71 104 137 186 235 288 346 414
#     4  11  25  46  71 103 133 183 228 283 354 416
#     4  10  22  45  63 102 144 182 236 287 344 413
#     4  11  23  45  68 101 139 183 226 287 346 409
#     4  11  25  46  70 102 139 174 229 289 343 413
#     4  10  22  43  65 102 138 181 235 288 342 410
#
# _framework density 24.979523
#
# number of rings (size 3 to 8) (size 9 to 14) (size 15 to 20)
#    0.000    1.500    2.500    1.125    3.500    4.500 
#    4.500    0.000    0.000    0.000    0.000    0.000 
#    0.000    0.000    0.000    0.000    0.000    0.000 
#
# Total GULP energy -89344.552285 kJ/mol
# GULP energy per Si atom -5584.034518 kJ/mol
# Density = 2.492267 g / cm^3
# Si number density = 24.979523 Si / 1000 Ang^3
#
#
#
# Elastic Constant Matrix: (Units=GPa)
#
#
# Indices 1 2 3 4 5 6 
#
# 1 157.9901 12.0174 28.1214 25.9747 -4.1159 -7.6590
# 2 12.0174 113.9580 24.8132 23.9514 -13.5019 -3.4843
# 3 28.1214 24.8132 128.1444 22.6496 13.6202 3.0823
# 4 25.9747 23.9514 22.6496 49.6819 2.0223 -4.9875
# 5 -4.1159 -13.5019 13.6202 2.0223 24.5799 15.6068
# 6 -7.6590 -3.4843 3.0823 -4.9875 15.6068 37.3369
#
#
#
# Elastic Compliance Matrix: (Units=1/GPa)
#
#
# Indices 1 2 3 4 5 6 
#
# 1 0.007169 0.000562 -0.001326 -0.003499 0.002439 0.000145
# 2 0.000562 0.011562 -0.002417 -0.005582 0.010662 -0.003809
# 3 -0.001326 -0.002417 0.009724 -0.002084 -0.007847 0.001701
# 4 -0.003499 -0.005582 -0.002084 0.026552 -0.008517 0.006040
# 5 0.002439 0.010662 -0.007847 -0.008517 0.069915 -0.028219
# 6 0.000145 -0.003809 0.001701 0.006040 -0.028219 0.038920
#
#
# Mechanical properties :
#
#
# Convention : Reuss Voigt Hill
#
# Bulk Modulus (GPa) = 45.26577 58.88852 52.07714
# Shear Modulus (GPa) = 28.15807 44.66244 36.41026
#
# Velocity S-wave (km/s) = 3.36109 4.23302 3.82200
# Velocity P-wave (km/s) = 5.76395 6.89327 6.35375
#
# Compressibility (1/GPa) = 0.02209175
#
# Stress axis : x y z
#
# Youngs Moduli (GPa) = 139.49578 86.48807 102.83510
#
# Poissons Ratio (x) = -0.04857 0.13639
# Poissons Ratio (y) = -0.07835 0.24856
# Poissons Ratio (z) = 0.18501 0.20905
#
# Static dielectric constant tensor:
#      x y z
#    x 2.036360 -0.007850 -0.015810 
#    y -0.007850 1.986410 -0.007360 
#    z -0.015810 -0.007360 1.993590 
# 
# From -- ./inp_files/48458.got.cif
#   From: 2010.05.17/outbox.cif.g08.bks.cpg/sg2_25_cif.got.tgz:48458.got - 2010.06.03 11:33:40.
