data_PCOD9030025
_publ_section_title
;
Structure prediction by ZEFSAII (Michael W. Deem and Ramdas Pophale) SiO2 
 PCOD9030025
Probable space group: P -1
;
_chemical_formula_sum "Si O2"
_cell_formula_units_Z 16
_cell_length_a 13.237847
_cell_length_b 19.426233
_cell_length_c 16.375768
_cell_angle_alpha 159.848107
_cell_angle_beta 40.816825
_cell_angle_gamma 147.908676
_cell_volume 753.493009
_symmetry_space_group_name_H-M "P -1"
_symmetry_group_IT_number 2
_symmetry_cell_setting 'triclinic'
loop_
_space_group_symop_operation_xyz
x,y,z
-x,-y,-z
loop_
_atom_site_type_symbol
_atom_site_label
_atom_site_fract_x
_atom_site_fract_y
_atom_site_fract_z
Si Si1 0.942835 0.640592 0.975138
Si Si2 0.243333 0.367034 0.224975
Si Si3 0.612290 0.470933 0.468634
Si Si4 0.161597 0.030566 0.043879
Si Si5 0.802845 0.308366 0.257515
Si Si6 0.053082 0.680531 0.245572
Si Si7 0.772964 0.802508 0.509745
Si Si8 0.323769 0.248939 0.673176
O O1 0.757768 0.642720 0.096824
O O2 0.120325 0.918455 0.209757
O O3 0.000772 0.607918 0.814038
O O4 0.922339 0.439006 0.824354
O O5 0.190002 0.507795 0.476062
O O6 0.446988 0.562520 0.273388
O O7 0.243158 0.165304 0.056184
O O8 0.060418 0.201182 0.092454
O O9 0.500000 0.500000 0.500000
O O10 0.676035 0.292603 0.241261
O O11 0.454621 0.368368 0.523041
O O12 0.806722 0.751293 0.676530
O O13 0.272079 0.939660 0.921544
O O14 0.874424 0.696788 0.375070
O O15 0.241611 0.968361 0.436907
O O16 0.000000 0.500000 0.000000
O O17 0.783300 0.793291 0.395568
#
# Coordination Sequence:
#
# PCOD9030025 Si02
#       8
#     2   2   2   2   2   2   2   2
#     4  11  23  37  58  90 129 164 201 257 317 366
#     4  10  23  44  66  92 120 164 221 257 305 372
#     4  11  23  39  61  97 132 159 201 256 318 377
#     4  10  22  42  69  89 124 169 204 263 314 366
#     4  11  23  40  63  93 127 161 211 256 312 369
#     4  11  20  34  59  83 126 171 204 251 314 368
#     4  11  20  36  54  88 128 158 206 250 303 377
#     4  11  21  39  58  88 122 160 215 255 298 375
#
# _framework density 21.234437
#
# number of rings (size 3 to 8) (size 9 to 14) (size 15 to 20)
#    0.000    1.250    5.000    2.625    0.000    8.000 
#    0.000    0.625    0.000    7.500    0.000    0.000 
#    0.000    0.000    0.000    0.000    0.000    0.000 
#
# Total GULP energy -89235.107725 kJ/mol
# GULP energy per Si atom -5577.194233 kJ/mol
# Density = 2.118611 g / cm^3
# Si number density = 21.234437 Si / 1000 Ang^3
#
#
#
# Elastic Constant Matrix: (Units=GPa)
#
#
# Indices 1 2 3 4 5 6 
#
# 1 78.2033 20.5467 44.3429 9.9027 -24.4117 -9.8755
# 2 20.5467 132.4677 66.3092 -5.8759 4.1407 13.1233
# 3 44.3429 66.3092 103.8897 8.5560 -25.2253 9.7509
# 4 9.9027 -5.8759 8.5560 29.4341 -1.7037 1.4842
# 5 -24.4117 4.1407 -25.2253 -1.7037 39.1955 16.2295
# 6 -9.8755 13.1233 9.7509 1.4842 16.2295 30.7817
#
#
#
# Elastic Compliance Matrix: (Units=1/GPa)
#
#
# Indices 1 2 3 4 5 6 
#
# 1 0.019992 -0.000483 -0.007257 -0.004760 0.004909 0.006560
# 2 -0.000483 0.013872 -0.011908 0.005645 -0.010389 0.002909
# 3 -0.007257 -0.011908 0.027532 -0.005863 0.021183 -0.016859
# 4 -0.004760 0.005645 -0.005863 0.038166 -0.005185 -0.001183
# 5 0.004909 -0.010389 0.021183 -0.005185 0.055348 -0.029638
# 6 0.006560 0.002909 -0.016859 -0.001183 -0.029638 0.054375
#
#
# Mechanical properties :
#
#
# Convention : Reuss Voigt Hill
#
# Bulk Modulus (GPa) = 45.24749 64.10647 54.67698
# Shear Modulus (GPa) = 19.53513 32.10637 25.82075
#
# Velocity S-wave (km/s) = 3.03640 3.89266 3.49088
# Velocity P-wave (km/s) = 5.80067 7.10346 6.48486
#
# Compressibility (1/GPa) = 0.02210067
#
# Stress axis : x y z
#
# Youngs Moduli (GPa) = 50.01918 72.08851 36.32102
#
# Poissons Ratio (x) = 0.03481 0.26357
# Poissons Ratio (y) = 0.02416 0.43252
# Poissons Ratio (z) = 0.36297 0.85845
#
# Static dielectric constant tensor:
#      x y z
#    x 1.823320 -0.027060 -0.006700 
#    y -0.027060 1.796740 -0.014150 
#    z -0.006700 -0.014150 1.785400 
# 
# From -- ./inp_files/574348.got.cif
#   From: 2010.05.17/outbox.cif.g08.bks.cpg/sg2_288_cif.got.tgz:574348.got - 2010.06.03 11:33:40.
