data_PCOD9030944
_publ_section_title
;
Structure prediction by ZEFSAII (Michael W. Deem and Ramdas Pophale) SiO2 
 PCOD9030944
Probable space group: P -1
;
_chemical_formula_sum "Si O2"
_cell_formula_units_Z 16
_cell_length_a 6.354842
_cell_length_b 18.764600
_cell_length_c 10.960985
_cell_angle_alpha 39.249357
_cell_angle_beta 123.799749
_cell_angle_gamma 111.262239
_cell_volume 681.401923
_symmetry_space_group_name_H-M "P -1"
_symmetry_group_IT_number 2
_symmetry_cell_setting 'triclinic'
loop_
_space_group_symop_operation_xyz
x,y,z
-x,-y,-z
loop_
_atom_site_type_symbol
_atom_site_label
_atom_site_fract_x
_atom_site_fract_y
_atom_site_fract_z
Si Si1 0.832035 0.870328 0.149880
Si Si2 0.566352 0.126578 0.350231
Si Si3 0.603680 0.537672 0.293663
Si Si4 0.527303 0.324935 0.689312
Si Si5 0.055210 0.618439 0.911473
Si Si6 0.922014 0.848591 0.472790
Si Si7 0.898526 0.684356 0.043878
Si Si8 0.648985 0.111279 0.673277
O O1 0.641571 0.777997 0.230518
O O2 0.885976 0.914908 0.245013
O O3 0.128290 0.833436 0.256591
O O4 0.717575 0.974913 0.891708
O O5 0.322985 0.215378 0.118718
O O6 0.631995 0.156106 0.471008
O O7 0.856505 0.123532 0.397728
O O8 0.500000 0.000000 0.500000
O O9 0.552651 0.408125 0.471780
O O10 0.603658 0.594613 0.351443
O O11 0.839759 0.571419 0.247000
O O12 0.353810 0.602198 0.061235
O O13 0.821089 0.285857 0.873198
O O14 0.988328 0.713034 0.662009
O O15 0.906406 0.656906 0.938151
O O16 0.000000 0.500000 0.000000
O O17 0.638238 0.865227 0.408320
#
# Coordination Sequence:
#
# PCOD9030944 Si02
#       8
#     2   2   2   2   2   2   2   2
#     4  10  23  41  65  96 127 174 220 269 326 396
#     4  11  25  40  66 101 135 173 219 266 330 397
#     4  10  22  43  62  98 134 166 221 276 321 400
#     4  10  23  41  67  94 134 172 220 269 329 395
#     4  11  23  41  67  94 132 173 221 275 331 388
#     4  11  22  43  64  94 135 168 222 275 318 398
#     4  11  23  42  66  99 135 175 221 272 327 398
#     4  10  23  43  65  93 133 170 219 276 322 386
#
# _framework density 23.481002
#
# number of rings (size 3 to 8) (size 9 to 14) (size 15 to 20)
#    0.000    1.500    2.500    1.500    3.500    2.000 
#    0.000    5.000    0.000    0.000    0.000    0.000 
#    0.000    0.000    0.000    0.000    0.000    0.000 
#
# Total GULP energy -89246.517230 kJ/mol
# GULP energy per Si atom -5577.907327 kJ/mol
# Density = 2.342756 g / cm^3
# Si number density = 23.481002 Si / 1000 Ang^3
#
#
#
# Elastic Constant Matrix: (Units=GPa)
#
#
# Indices 1 2 3 4 5 6 
#
# 1 98.6279 53.6431 43.3008 -4.1648 7.6117 44.0621
# 2 53.6431 94.0268 29.1425 -22.4319 12.7534 46.5235
# 3 43.3008 29.1425 121.6976 -13.8893 8.2807 20.8142
# 4 -4.1648 -22.4319 -13.8893 28.3251 9.3217 -9.1656
# 5 7.6117 12.7534 8.2807 9.3217 46.6964 5.9768
# 6 44.0621 46.5235 20.8142 -9.1656 5.9768 45.5246
#
#
#
# Elastic Compliance Matrix: (Units=1/GPa)
#
#
# Indices 1 2 3 4 5 6 
#
# 1 0.021683 -0.006415 -0.005042 -0.010050 0.002979 -0.014540
# 2 -0.006415 0.029164 0.001384 0.019452 -0.008593 -0.019183
# 3 -0.005042 0.001384 0.010561 0.006552 -0.002778 0.000320
# 4 -0.010050 0.019452 0.006552 0.058119 -0.016531 0.000724
# 5 0.002979 -0.008593 -0.002778 -0.016531 0.027031 0.000291
# 6 -0.014540 -0.019183 0.000320 0.000724 0.000291 0.055605
#
#
# Mechanical properties :
#
#
# Convention : Reuss Voigt Hill
#
# Bulk Modulus (GPa) = 24.23428 62.94722 43.59075
# Shear Modulus (GPa) = 21.18079 36.66028 28.92053
#
# Velocity S-wave (km/s) = 3.00666 3.95558 3.51330
# Velocity P-wave (km/s) = 4.73250 6.90855 5.92134
#
# Compressibility (1/GPa) = 0.04126386
#
# Stress axis : x y z
#
# Youngs Moduli (GPa) = 46.11854 34.28899 94.68384
#
# Poissons Ratio (x) = 0.21997 0.47736
# Poissons Ratio (y) = 0.29586 -0.13109
# Poissons Ratio (z) = 0.23251 -0.04747
#
# Static dielectric constant tensor:
#      x y z
#    x 2.229200 0.085220 0.052500 
#    y 0.085220 1.923310 0.026600 
#    z 0.052500 0.026600 1.900290 
# 
# From -- ./inp_files/364232.got.cif
#   From: 2010.05.17/outbox.cif.g08.bks.cpg/sg2_183_cif.got.tgz:364232.got - 2010.06.03 11:33:40.
