data_PCOD9030923
_publ_section_title
;
Structure prediction by ZEFSAII (Michael W. Deem and Ramdas Pophale) SiO2 
 PCOD9030923
Probable space group: P -1
;
_chemical_formula_sum "Si O2"
_cell_formula_units_Z 16
_cell_length_a 5.190221
_cell_length_b 29.259343
_cell_length_c 28.891790
_cell_angle_alpha 170.371905
_cell_angle_beta 95.160008
_cell_angle_gamma 85.875969
_cell_volume 727.151700
_symmetry_space_group_name_H-M "P -1"
_symmetry_group_IT_number 2
_symmetry_cell_setting 'triclinic'
loop_
_space_group_symop_operation_xyz
x,y,z
-x,-y,-z
loop_
_atom_site_type_symbol
_atom_site_label
_atom_site_fract_x
_atom_site_fract_y
_atom_site_fract_z
Si Si1 0.698947 0.000042 0.898045
Si Si2 0.133629 0.499956 0.267814
Si Si3 0.733709 0.500020 0.467477
Si Si4 0.183857 0.267943 0.767948
Si Si5 0.603881 0.500043 0.208474
Si Si6 0.572976 0.000090 0.646267
Si Si7 0.542295 0.500065 0.084618
Si Si8 0.832772 0.000024 0.165332
O O1 0.749248 0.753403 0.686085
O O2 0.428706 0.948320 0.814502
O O3 0.937349 0.051785 0.917972
O O4 0.683344 0.246681 0.179359
O O5 0.374004 0.585049 0.322333
O O6 0.862537 0.414949 0.152261
O O7 0.081288 0.742970 0.544195
O O8 0.219533 0.256790 0.057970
O O9 0.500000 0.500000 0.500000
O O10 0.000000 0.500000 0.500000
O O11 0.310335 0.307050 0.758924
O O12 0.358465 0.307071 0.855213
O O13 0.000000 0.000000 0.500000
O O14 0.000000 0.500000 0.000000
O O15 0.708886 0.778205 0.458507
O O16 0.470887 0.221980 0.902238
O O17 0.427178 0.741263 0.355093
O O18 0.686696 0.258913 0.872768
#
# Coordination Sequence:
#
# PCOD9030923 Si02
#       8
#     2   2   2   2   2   2   2   2
#     4  12  24  42  64 100 130 167 230 270 326 387
#     4  12  24  45  68  96 130 170 216 265 350 394
#     4  12  24  42  64  91 134 183 218 267 324 387
#     4  11  22  39  64  96 124 172 215 268 328 385
#     4  11  24  44  66  95 130 171 216 267 324 420
#     4  10  22  44  62  92 124 176 208 270 328 385
#     4  10  22  43  62  91 136 163 220 269 322 393
#     4  12  24  41  68  96 128 167 212 287 328 389
#
# _framework density 22.003661999999998
#
# number of rings (size 3 to 8) (size 9 to 14) (size 15 to 20)
#    0.000    0.750    0.000    8.250    0.000    2.000 
#   22.500    0.000    0.000    0.000    0.000    0.000 
#    0.000    0.000    0.000    0.000    0.000    0.000 
#
# Total GULP energy -89079.515974 kJ/mol
# GULP energy per Si atom -5567.469748 kJ/mol
# Density = 2.195358 g / cm^3
# Si number density = 22.003662 Si / 1000 Ang^3
#
#
#
# Elastic Constant Matrix: (Units=GPa)
#
#
# Indices 1 2 3 4 5 6 
#
# 1 98.6249 33.4734 -7.6261 -5.5443 3.8152 -1.4896
# 2 33.4734 103.4553 38.1822 4.7878 -0.4096 2.7354
# 3 -7.6261 38.1822 164.4034 3.1012 6.6000 1.6504
# 4 -5.5443 4.7878 3.1012 50.6384 1.1867 2.3248
# 5 3.8152 -0.4096 6.6000 1.1867 32.5137 4.5494
# 6 -1.4896 2.7354 1.6504 2.3248 4.5494 -1.2535
#
#
#
# Elastic Compliance Matrix: (Units=1/GPa)
#
#
# Indices 1 2 3 4 5 6 
#
# 1 0.011503 -0.004001 0.001560 0.002227 0.000312 -0.015082
# 2 -0.004001 0.011685 -0.002990 -0.002155 -0.001207 0.017936
# 3 0.001560 -0.002990 0.006925 0.000204 -0.001187 -0.003192
# 4 0.002227 -0.002155 0.000204 0.019492 -0.003388 0.016773
# 5 0.000312 -0.001207 -0.001187 -0.003388 0.021612 0.067584
# 6 -0.015082 0.017936 -0.003192 0.016773 0.067584 -0.468492
#
#
# Mechanical properties :
#
#
# Convention : Reuss Voigt Hill
#
# Bulk Modulus (GPa) = 51.94626 54.94919 53.44772
# Shear Modulus (GPa) = -13.15809 36.54332 11.69262
#
# Velocity S-wave (km/s) = -2.44805 4.07969 2.30770
# Velocity P-wave (km/s) = 3.95837 6.87159 5.60747
#
# Compressibility (1/GPa) = 0.01925066
#
# Stress axis : x y z
#
# Youngs Moduli (GPa) = 86.93271 85.58188 144.39843
#
# Poissons Ratio (x) = 0.34237 -0.22520
# Poissons Ratio (y) = 0.34778 0.43179
# Poissons Ratio (z) = -0.13558 0.25591
#
# Static dielectric constant tensor:
#      x y z
#    x 1.819860 -0.011910 0.015320 
#    y -0.011910 1.353540 0.050660 
#    z 0.015320 0.050660 1.731810 
# 
# From -- ./inp_files/616039.got.cif
#   From: 2010.05.17/outbox.cif.g08.bks.cpg/sg2_309_cif.got.tgz:616039.got - 2010.06.03 11:33:40.
