data_PCOD9030475
_publ_section_title
;
Structure prediction by ZEFSAII (Michael W. Deem and Ramdas Pophale) SiO2 
 PCOD9030475
Probable space group: P -1
;
_chemical_formula_sum "Si O2"
_cell_formula_units_Z 14
_cell_length_a 9.171306
_cell_length_b 8.980474
_cell_length_c 22.767029
_cell_angle_alpha 152.276433
_cell_angle_beta 40.248581
_cell_angle_gamma 134.713988
_cell_volume 561.178608
_symmetry_space_group_name_H-M "P -1"
_symmetry_group_IT_number 2
_symmetry_cell_setting 'triclinic'
loop_
_space_group_symop_operation_xyz
x,y,z
-x,-y,-z
loop_
_atom_site_type_symbol
_atom_site_label
_atom_site_fract_x
_atom_site_fract_y
_atom_site_fract_z
Si Si1 0.731725 0.335559 0.859536
Si Si2 0.629345 0.172101 0.343309
Si Si3 0.941804 0.543591 0.303780
Si Si4 0.900091 0.199469 0.047806
Si Si5 0.614061 0.754058 0.760239
Si Si6 0.243133 0.812519 0.408441
Si Si7 0.928758 0.122276 0.881552
O O1 0.844233 0.435097 0.797742
O O2 0.920703 0.488224 0.900194
O O3 0.695937 0.952418 0.746278
O O4 0.500000 0.500000 0.000000
O O5 0.500000 0.500000 0.500000
O O6 0.751137 0.241881 0.266465
O O7 0.440982 0.900283 0.329847
O O8 0.851315 0.055219 0.268071
O O9 0.034731 0.647291 0.376496
O O10 0.812129 0.848210 0.430171
O O11 0.654794 0.288056 0.171831
O O12 0.870133 0.027174 0.934180
O O13 0.000000 0.000000 0.000000
O O14 0.699725 0.421696 0.638689
O O15 0.712603 0.000667 0.867178
O O16 0.000000 0.500000 0.000000
#
# Coordination Sequence:
#
# PCOD9030475 Si02
#       7
#     2   2   2   2   2   2   2
#     4  12  27  45  68 103 151 194 235 294 369 441
#     4  10  22  42  71 103 138 182 242 298 355 429
#     4  10  23  46  72 104 143 188 242 293 360 439
#     4  12  26  43  66 101 144 193 239 293 368 429
#     4  12  26  45  71 107 148 185 247 301 361 439
#     4  10  23  43  77 105 135 189 244 300 358 426
#     4  12  24  43  72 104 140 189 242 305 358 431
#
# _framework density 24.947492
#
# number of rings (size 3 to 8) (size 9 to 14) (size 15 to 20)
#    0.000    0.857    4.286    2.143    2.000    2.857 
#    0.000    0.714    3.143    0.000    0.000    0.000 
#    0.000    0.000    0.000    0.000    0.000    0.000 
#
# Total GULP energy -78062.778890 kJ/mol
# GULP energy per Si atom -5575.912778 kJ/mol
# Density = 2.489071 g / cm^3
# Si number density = 24.947492 Si / 1000 Ang^3
#
#
#
# Elastic Constant Matrix: (Units=GPa)
#
#
# Indices 1 2 3 4 5 6 
#
# 1 76.0138 11.6000 7.6089 -3.6819 -22.6453 14.3323
# 2 11.6000 177.3157 43.1130 6.4694 -26.3670 -2.8865
# 3 7.6089 43.1130 69.2285 -1.9261 -32.4616 -0.8452
# 4 -3.6819 6.4694 -1.9261 46.7018 -11.4072 -4.9450
# 5 -22.6453 -26.3670 -32.4616 -11.4072 41.0211 0.1825
# 6 14.3323 -2.8865 -0.8452 -4.9450 0.1825 44.8470
#
#
#
# Elastic Compliance Matrix: (Units=1/GPa)
#
#
# Indices 1 2 3 4 5 6 
#
# 1 0.018720 -0.000542 0.005922 0.005164 0.016132 -0.005402
# 2 -0.000542 0.006755 -0.003799 -0.000897 0.000785 0.000434
# 3 0.005922 -0.003799 0.028396 0.008339 0.025621 -0.000787
# 4 0.005164 -0.000897 0.008339 0.026382 0.016203 0.001292
# 5 0.016132 0.000785 0.025621 0.016203 0.058582 -0.003074
# 6 -0.005402 0.000434 -0.000787 0.001292 -0.003074 0.024193
#
#
# Mechanical properties :
#
#
# Convention : Reuss Voigt Hill
#
# Bulk Modulus (GPa) = 17.53340 49.68908 33.61124
# Shear Modulus (GPa) = 27.95208 43.86304 35.90756
#
# Velocity S-wave (km/s) = 3.35092 4.19766 3.79796
# Velocity P-wave (km/s) = 4.69201 6.59200 5.72143
#
# Compressibility (1/GPa) = 0.05703402
#
# Stress axis : x y z
#
# Youngs Moduli (GPa) = 53.41852 148.03042 35.21628
#
# Poissons Ratio (x) = 0.08024 -0.20856
# Poissons Ratio (y) = 0.02896 0.13378
# Poissons Ratio (z) = -0.31636 0.56236
#
# Static dielectric constant tensor:
#      x y z
#    x 2.025330 -0.039320 0.003380 
#    y -0.039320 2.060100 0.111200 
#    z 0.003380 0.111200 2.136390 
# 
# From -- ./inp_files/606911.got.cif
#   From: 2010.05.17/outbox.cif.g08.bks.cpg/sg2_304_cif.got.tgz:606911.got - 2010.06.03 11:33:40.
