data_PCOD9030918
_publ_section_title
;
Structure prediction by ZEFSAII (Michael W. Deem and Ramdas Pophale) SiO2 
 PCOD9030918
Probable space group: P -1
;
_chemical_formula_sum "Si O2"
_cell_formula_units_Z 14
_cell_length_a 11.564375
_cell_length_b 11.506310
_cell_length_c 9.095808
_cell_angle_alpha 38.723643
_cell_angle_beta 121.960603
_cell_angle_gamma 106.209156
_cell_volume 621.603310
_symmetry_space_group_name_H-M "P -1"
_symmetry_group_IT_number 2
_symmetry_cell_setting 'triclinic'
loop_
_space_group_symop_operation_xyz
x,y,z
-x,-y,-z
loop_
_atom_site_type_symbol
_atom_site_label
_atom_site_fract_x
_atom_site_fract_y
_atom_site_fract_z
Si Si1 0.903998 0.361196 0.782721
Si Si2 0.762831 0.208783 0.567608
Si Si3 0.081238 0.995044 0.381324
Si Si4 0.305347 0.465235 0.296136
Si Si5 0.556333 0.101924 0.756231
Si Si6 0.338013 0.887422 0.873513
Si Si7 0.871357 0.426876 0.203469
O O1 0.857948 0.271233 0.694827
O O2 0.772274 0.507055 0.627106
O O3 0.030360 0.463709 0.753835
O O4 0.957299 0.184437 0.106863
O O5 0.632091 0.162439 0.607040
O O6 0.747841 0.378660 0.268870
O O7 0.844401 0.024516 0.710242
O O8 0.200037 0.988740 0.588833
O O9 0.042078 0.790131 0.566203
O O10 0.435889 0.285183 0.548495
O O11 0.351302 0.661303 0.103956
O O12 0.192943 0.460934 0.095983
O O13 0.473077 0.939351 0.839707
O O14 0.661674 0.050569 0.016702
#
# Coordination Sequence:
#
# PCOD9030918 Si02
#       7
#     2   2   2   2   2   2   2
#     4  12  21  41  66  88 125 160 198 253 301 353
#     4  10  23  42  58  92 126 159 201 245 298 367
#     4   9  23  42  59  92 123 153 208 247 295 365
#     4  11  23  41  64  94 120 157 204 253 296 362
#     4  11  23  43  63  91 122 157 208 246 301 362
#     4  10  22  43  62  90 119 163 203 249 304 342
#     4   9  23  41  59  97 118 161 200 244 314 346
#
# _framework density 22.522403000000001
#
# number of rings (size 3 to 8) (size 9 to 14) (size 15 to 20)
#    0.857    0.857    1.429    2.571    0.000    4.571 
#    2.571    0.000    0.000    0.000    0.000    0.000 
#    0.000    0.000    0.000    0.000    0.000    0.000 
#
# Total GULP energy -78201.002535 kJ/mol
# GULP energy per Si atom -5585.785895 kJ/mol
# Density = 2.247114 g / cm^3
# Si number density = 22.522403 Si / 1000 Ang^3
#
#
#
# Elastic Constant Matrix: (Units=GPa)
#
#
# Indices 1 2 3 4 5 6 
#
# 1 99.0486 25.0271 5.8344 -6.6753 -18.3120 -14.4825
# 2 25.0271 47.1548 9.7993 1.2739 -5.7287 11.9923
# 3 5.8344 9.7993 39.0570 -1.1645 -2.0184 -6.2813
# 4 -6.6753 1.2739 -1.1645 29.7605 0.2243 -10.8135
# 5 -18.3120 -5.7287 -2.0184 0.2243 31.3364 -3.5622
# 6 -14.4825 11.9923 -6.2813 -10.8135 -3.5622 37.1618
#
#
#
# Elastic Compliance Matrix: (Units=1/GPa)
#
#
# Indices 1 2 3 4 5 6 
#
# 1 0.018394 -0.013881 0.004241 0.010801 0.010282 0.016493
# 2 -0.013881 0.036814 -0.011628 -0.013720 -0.004726 -0.023701
# 3 0.004241 -0.011628 0.030397 0.007348 0.003740 0.013040
# 4 0.010801 -0.013720 0.007348 0.045479 0.006651 0.023750
# 5 0.010282 -0.004726 0.003740 0.006651 0.038591 0.011799
# 6 0.016493 -0.023701 0.013040 0.023750 0.011799 0.051232
#
#
# Mechanical properties :
#
#
# Convention : Reuss Voigt Hill
#
# Bulk Modulus (GPa) = 23.21846 29.62022 26.41934
# Shear Modulus (GPa) = 17.99860 29.29171 23.64516
#
# Velocity S-wave (km/s) = 2.82998 3.61024 3.24365
# Velocity P-wave (km/s) = 4.58364 5.52797 5.07781
#
# Compressibility (1/GPa) = 0.04306917
#
# Stress axis : x y z
#
# Youngs Moduli (GPa) = 54.36519 27.16327 32.89793
#
# Poissons Ratio (x) = 0.37706 -0.13952
# Poissons Ratio (y) = 0.75465 0.38254
# Poissons Ratio (z) = -0.23056 0.31586
#
# Static dielectric constant tensor:
#      x y z
#    x 1.861910 0.009110 -0.027760 
#    y 0.009110 1.840810 0.008640 
#    z -0.027760 0.008640 1.840800 
# 
# From -- ./inp_files/256133.got.cif
#   From: 2010.05.17/outbox.cif.g08.bks.cpg/sg2_129_cif.got.tgz:256133.got - 2010.06.03 11:33:40.
