data_PCOD9030671
_publ_section_title
;
Structure prediction by ZEFSAII (Michael W. Deem and Ramdas Pophale) SiO2 
 PCOD9030671
Probable space group: P -1
;
_chemical_formula_sum "Si O2"
_cell_formula_units_Z 16
_cell_length_a 14.910995
_cell_length_b 9.157885
_cell_length_c 9.928785
_cell_angle_alpha 80.558638
_cell_angle_beta 68.890519
_cell_angle_gamma 38.933345
_cell_volume 779.088884
_symmetry_space_group_name_H-M "P -1"
_symmetry_group_IT_number 2
_symmetry_cell_setting 'triclinic'
loop_
_space_group_symop_operation_xyz
x,y,z
-x,-y,-z
loop_
_atom_site_type_symbol
_atom_site_label
_atom_site_fract_x
_atom_site_fract_y
_atom_site_fract_z
Si Si1 0.965027 0.022891 0.236491
Si Si2 0.775498 0.882731 0.618386
Si Si3 0.006077 0.243781 0.977159
Si Si4 0.658402 0.337930 0.517483
Si Si5 0.093745 0.487479 0.612239
Si Si6 0.230680 0.583834 0.338979
Si Si7 0.555650 0.894753 0.837113
Si Si8 0.779076 0.738797 0.133126
O O1 0.795635 0.226679 0.361802
O O2 0.977625 0.867681 0.152170
O O3 0.094856 0.844076 0.307429
O O4 0.993511 0.136294 0.117410
O O5 0.857615 0.717226 0.466043
O O6 0.640162 0.935899 0.724582
O O7 0.909694 0.719252 0.681908
O O8 0.714071 0.117206 0.584420
O O9 0.146452 0.188574 0.931981
O O10 0.857837 0.530249 0.016968
O O11 0.500000 0.500000 0.500000
O O12 0.655307 0.458617 0.622722
O O13 0.153556 0.552967 0.481646
O O14 0.169180 0.385836 0.731469
O O15 0.325257 0.383250 0.203559
O O16 0.402403 0.041364 0.815450
O O17 0.500000 0.000000 0.000000
#
# Coordination Sequence:
#
# PCOD9030671 Si02
#       8
#     2   2   2   2   2   2   2   2
#     4  11  23  47  68  94 139 170 226 263 334 400
#     4  10  24  42  67  98 132 174 219 275 334 389
#     4  10  25  40  72  96 126 180 221 271 323 396
#     4  12  27  42  68 100 140 170 219 280 337 387
#     4  10  22  42  72  96 127 175 228 276 320 392
#     4  11  25  44  70  98 131 180 220 270 338 394
#     4  11  27  45  66  98 139 172 221 277 330 394
#     4  11  24  41  69  98 133 169 232 266 331 387
#
# _framework density 20.536809000000002
#
# number of rings (size 3 to 8) (size 9 to 14) (size 15 to 20)
#    0.000    1.250    1.250    2.625   15.750    1.000 
#    0.000    1.250    0.000    0.000    0.000    0.000 
#    0.000    0.000    0.000    0.000    0.000    0.000 
#
# Total GULP energy -89521.910917 kJ/mol
# GULP energy per Si atom -5595.119432 kJ/mol
# Density = 2.049007 g / cm^3
# Si number density = 20.536809 Si / 1000 Ang^3
#
#
#
# Elastic Constant Matrix: (Units=GPa)
#
#
# Indices 1 2 3 4 5 6 
#
# 1 114.9602 52.9699 34.1244 0.5870 -3.5418 -8.0832
# 2 52.9699 75.7563 31.5071 0.3907 -7.7070 -9.2294
# 3 34.1244 31.5071 85.0881 4.2988 1.9578 -4.6320
# 4 0.5870 0.3907 4.2988 25.5384 1.7263 1.1629
# 5 -3.5418 -7.7070 1.9578 1.7263 35.8866 5.1591
# 6 -8.0832 -9.2294 -4.6320 1.1629 5.1591 50.1878
#
#
#
# Elastic Compliance Matrix: (Units=1/GPa)
#
#
# Indices 1 2 3 4 5 6 
#
# 1 0.013192 -0.008305 -0.002192 0.000202 -0.000434 0.000435
# 2 -0.008305 0.021545 -0.004652 0.000306 0.003788 0.001799
# 3 -0.002192 -0.004652 0.014532 -0.002210 -0.001957 0.000385
# 4 0.000202 0.000306 -0.002210 0.039666 -0.001576 -0.000872
# 5 -0.000434 0.003788 -0.001957 -0.001576 0.029181 -0.002517
# 6 0.000435 0.001799 0.000385 -0.000872 -0.002517 0.020640
#
#
# Mechanical properties :
#
#
# Convention : Reuss Voigt Hill
#
# Bulk Modulus (GPa) = 52.71117 57.00082 54.85600
# Shear Modulus (GPa) = 28.51019 32.80279 30.65649
#
# Velocity S-wave (km/s) = 3.72996 4.00092 3.86781
# Velocity P-wave (km/s) = 6.65376 7.01134 6.83489
#
# Compressibility (1/GPa) = 0.01897131
#
# Stress axis : x y z
#
# Youngs Moduli (GPa) = 75.80343 46.41551 68.81453
#
# Poissons Ratio (x) = 0.38546 0.15085
# Poissons Ratio (y) = 0.62952 0.32012
# Poissons Ratio (z) = 0.16617 0.21592
#
# Static dielectric constant tensor:
#      x y z
#    x 1.732960 0.010310 0.028750 
#    y 0.010310 1.705570 0.026770 
#    z 0.028750 0.026770 1.751640 
# 
# From -- ./inp_files/207401.got.cif
#   From: 2010.05.17/outbox.cif.g08.bks.cpg/sg2_104_cif.got.tgz:207401.got - 2010.06.03 11:33:40.
