data_PCOD9030697
_publ_section_title
;
Structure prediction by ZEFSAII (Michael W. Deem and Ramdas Pophale) SiO2 
 PCOD9030697
Probable space group: P -1
;
_chemical_formula_sum "Si O2"
_cell_formula_units_Z 16
_cell_length_a 14.781507
_cell_length_b 7.663448
_cell_length_c 7.641909
_cell_angle_alpha 57.938328
_cell_angle_beta 76.736045
_cell_angle_gamma 73.478477
_cell_volume 700.044772
_symmetry_space_group_name_H-M "P -1"
_symmetry_group_IT_number 2
_symmetry_cell_setting 'triclinic'
loop_
_space_group_symop_operation_xyz
x,y,z
-x,-y,-z
loop_
_atom_site_type_symbol
_atom_site_label
_atom_site_fract_x
_atom_site_fract_y
_atom_site_fract_z
Si Si1 0.069224 0.329135 0.958026
Si Si2 0.648318 0.008085 0.946097
Si Si3 0.410135 0.928285 0.673322
Si Si4 0.255163 0.467494 0.809533
Si Si5 0.794833 0.071791 0.330849
Si Si6 0.407403 0.660030 0.502260
Si Si7 0.008848 0.253265 0.668298
Si Si8 0.833323 0.077825 0.712966
O O1 0.159193 0.414846 0.800722
O O2 0.012289 0.236790 0.884547
O O3 0.000000 0.500000 0.000000
O O4 0.112091 0.159261 0.169901
O O5 0.602001 0.139872 0.728582
O O6 0.746615 0.095932 0.877998
O O7 0.683764 0.757320 0.028762
O O8 0.587242 0.057468 0.124725
O O9 0.297106 0.023394 0.635116
O O10 0.413396 0.713859 0.676995
O O11 0.500000 0.000000 0.500000
O O12 0.221213 0.674165 0.841409
O O13 0.321912 0.535064 0.595051
O O14 0.206742 0.904789 0.471807
O O15 0.894198 0.913061 0.334756
O O16 0.500000 0.500000 0.500000
O O17 0.914423 0.202381 0.653827
O O18 0.000000 0.500000 0.500000
#
# Coordination Sequence:
#
# PCOD9030697 Si02
#       8
#     2   2   2   2   2   2   2   2
#     4  11  23  40  65 103 141 191 244 291 362 436
#     4  11  24  47  74 107 144 193 244 300 374 433
#     4  11  25  45  74 109 145 189 249 307 363 442
#     4  10  22  42  72  98 143 191 235 304 362 428
#     4  11  22  46  68 103 145 190 246 299 369 435
#     4  11  25  47  73 105 145 189 243 307 368 436
#     4  12  25  39  68 106 144 196 241 298 368 437
#     4  11  22  42  68  99 146 189 238 302 357 436
#
# _framework density 22.85568
#
# number of rings (size 3 to 8) (size 9 to 14) (size 15 to 20)
#    0.000    1.000    2.500    5.250    0.000    4.500 
#    0.000    3.750    0.000    0.000    0.000    0.000 
#    0.000    0.000    0.000    0.000    0.000    0.000 
#
# Total GULP energy -89107.145120 kJ/mol
# GULP energy per Si atom -5569.196570 kJ/mol
# Density = 2.280366 g / cm^3
# Si number density = 22.855680 Si / 1000 Ang^3
#
#
#
# Elastic Constant Matrix: (Units=GPa)
#
#
# Indices 1 2 3 4 5 6 
#
# 1 95.8032 26.4859 50.7366 -8.4007 -19.9837 3.5496
# 2 26.4859 124.5115 67.8643 -2.9630 -2.7104 -27.6065
# 3 50.7366 67.8643 87.1802 -15.9810 -9.7479 -16.0160
# 4 -8.4007 -2.9630 -15.9810 38.4399 -6.7646 3.7678
# 5 -19.9837 -2.7104 -9.7479 -6.7646 37.8398 -6.4498
# 6 3.5496 -27.6065 -16.0160 3.7678 -6.4498 39.0946
#
#
#
# Elastic Compliance Matrix: (Units=1/GPa)
#
#
# Indices 1 2 3 4 5 6 
#
# 1 0.017493 0.001831 -0.011623 0.000554 0.005765 -0.004160
# 2 0.001831 0.016269 -0.013650 -0.004824 -0.001225 0.005993
# 3 -0.011623 -0.013650 0.031813 0.009856 0.003537 0.004083
# 4 0.000554 -0.004824 0.009856 0.031363 0.007899 -0.001139
# 5 0.005765 -0.001225 0.003537 0.007899 0.032502 0.004661
# 6 -0.004160 0.005993 0.004083 -0.001139 0.004661 0.032740
#
#
# Mechanical properties :
#
#
# Convention : Reuss Voigt Hill
#
# Bulk Modulus (GPa) = 53.50703 66.40760 59.95732
# Shear Modulus (GPa) = 23.22386 33.90207 28.56296
#
# Velocity S-wave (km/s) = 3.19110 3.85556 3.53896
# Velocity P-wave (km/s) = 6.08598 6.99562 6.55659
#
# Compressibility (1/GPa) = 0.01868913
#
# Stress axis : x y z
#
# Youngs Moduli (GPa) = 57.16613 61.46565 31.43353
#
# Poissons Ratio (x) = -0.11252 0.36537
# Poissons Ratio (y) = -0.10465 0.42908
# Poissons Ratio (z) = 0.66447 0.83902
#
# Static dielectric constant tensor:
#      x y z
#    x 1.964480 -0.002920 -0.081730 
#    y -0.002920 1.879680 -0.013550 
#    z -0.081730 -0.013550 1.902700 
# 
# From -- ./inp_files/297346.got.cif
#   From: 2010.05.17/outbox.cif.g08.bks.cpg/sg2_149_cif.got.tgz:297346.got - 2010.06.03 11:33:40.
