data_PCOD9030907
_publ_section_title
;
Structure prediction by ZEFSAII (Michael W. Deem and Ramdas Pophale) SiO2 
 PCOD9030907
Probable space group: P -1
;
_chemical_formula_sum "Si O2"
_cell_formula_units_Z 16
_cell_length_a 16.744612
_cell_length_b 14.567836
_cell_length_c 22.686668
_cell_angle_alpha 21.217105
_cell_angle_beta 158.643275
_cell_angle_gamma 150.800532
_cell_volume 728.889869
_symmetry_space_group_name_H-M "P -1"
_symmetry_group_IT_number 2
_symmetry_cell_setting 'triclinic'
loop_
_space_group_symop_operation_xyz
x,y,z
-x,-y,-z
loop_
_atom_site_type_symbol
_atom_site_label
_atom_site_fract_x
_atom_site_fract_y
_atom_site_fract_z
Si Si1 0.920990 0.590510 0.454810
Si Si2 0.814194 0.418382 0.968136
Si Si3 0.162486 0.472096 0.892678
Si Si4 0.563700 0.033949 0.226502
Si Si5 0.298656 0.901287 0.017776
Si Si6 0.463626 0.290554 0.314285
Si Si7 0.276087 0.337849 0.930346
Si Si8 0.845322 0.564233 0.718096
O O1 0.688898 0.442095 0.392999
O O2 0.000000 0.500000 0.500000
O O3 0.102704 0.503836 0.677170
O O4 0.877475 0.888641 0.243740
O O5 0.653031 0.235436 0.928871
O O6 0.693605 0.654011 0.772003
O O7 0.000000 0.500000 0.000000
O O8 0.947993 0.304978 0.182539
O O9 0.241537 0.754713 0.757920
O O10 0.172815 0.288196 0.953545
O O11 0.934964 0.487777 0.761692
O O12 0.343437 0.391048 0.113185
O O13 0.492001 0.037826 0.106293
O O14 0.652822 0.759836 0.466605
O O15 0.360114 0.115005 0.079084
O O16 0.216617 0.686831 0.136696
O O17 0.500000 0.000000 0.500000
O O18 0.500000 0.500000 0.000000
#
# Coordination Sequence:
#
# PCOD9030907 Si02
#       8
#     2   2   2   2   2   2   2   2
#     4  12  24  43  72 100 139 186 229 292 342 409
#     4   9  23  42  65 101 133 177 227 281 340 405
#     4  10  22  43  61  99 130 170 229 278 341 410
#     4  11  21  42  63  95 131 175 220 275 343 404
#     4  11  23  42  66  97 137 170 234 270 344 405
#     4  11  25  45  71 102 139 182 233 286 349 410
#     4  10  23  41  67  99 133 180 231 281 350 405
#     4  10  23  41  66  92 132 180 215 278 342 404
#
# _framework density 21.95119
#
# number of rings (size 3 to 8) (size 9 to 14) (size 15 to 20)
#    0.000    1.500    2.500    1.500    8.750    3.500 
#    0.000    2.500    0.000    0.000    0.000    0.000 
#    0.000    0.000    0.000    0.000    0.000    0.000 
#
# Total GULP energy -89342.030238 kJ/mol
# GULP energy per Si atom -5583.876890 kJ/mol
# Density = 2.190123 g / cm^3
# Si number density = 21.951190 Si / 1000 Ang^3
#
#
#
# Elastic Constant Matrix: (Units=GPa)
#
#
# Indices 1 2 3 4 5 6 
#
# 1 111.4612 27.3110 59.2611 -4.0376 14.1184 -22.7508
# 2 27.3110 65.7919 49.6884 -6.7251 -1.1280 -15.2359
# 3 59.2611 49.6884 185.1744 -13.5373 13.5417 -6.9033
# 4 -4.0376 -6.7251 -13.5373 35.0497 -6.9716 -4.7008
# 5 14.1184 -1.1280 13.5417 -6.9716 23.6482 -3.1773
# 6 -22.7508 -15.2359 -6.9033 -4.7008 -3.1773 44.0562
#
#
#
# Elastic Compliance Matrix: (Units=1/GPa)
#
#
# Indices 1 2 3 4 5 6 
#
# 1 0.012745 -0.002032 -0.002984 -0.000498 -0.005477 0.004963
# 2 -0.002032 0.022180 -0.005275 0.004388 0.007500 0.006803
# 3 -0.002984 -0.005275 0.007972 0.000804 -0.003101 -0.002254
# 4 -0.000498 0.004388 0.000804 0.032437 0.010361 0.005595
# 5 -0.005477 0.007500 -0.003101 0.010361 0.051293 0.004084
# 6 0.004963 0.006803 -0.002254 0.005595 0.004084 0.028152
#
#
# Mechanical properties :
#
#
# Convention : Reuss Voigt Hill
#
# Bulk Modulus (GPa) = 44.81552 70.54982 57.68267
# Shear Modulus (GPa) = 27.35209 35.62863 31.49036
#
# Velocity S-wave (km/s) = 3.53376 4.03312 3.79167
# Velocity P-wave (km/s) = 6.09182 7.34148 6.74565
#
# Compressibility (1/GPa) = 0.02231370
#
# Stress axis : x y z
#
# Youngs Moduli (GPa) = 78.46131 45.08618 125.43250
#
# Poissons Ratio (x) = 0.09163 0.37433
# Poissons Ratio (y) = 0.15946 0.66168
# Poissons Ratio (z) = 0.23415 0.23784
#
# Static dielectric constant tensor:
#      x y z
#    x 1.827640 0.100460 0.040110 
#    y 0.100460 1.395970 -0.118680 
#    z 0.040110 -0.118680 1.755500 
# 
# From -- ./inp_files/461579.got.cif
#   From: 2010.05.17/outbox.cif.g08.bks.cpg/sg2_231_cif.got.tgz:461579.got - 2010.06.03 11:33:40.
