data_PCOD9030589
_publ_section_title
;
Structure prediction by ZEFSAII (Michael W. Deem and Ramdas Pophale) SiO2 
 PCOD9030589
Probable space group: P -1
;
_chemical_formula_sum "Si O2"
_cell_formula_units_Z 11
_cell_length_a 14.815045
_cell_length_b 14.077194
_cell_length_c 5.607567
_cell_angle_alpha 104.712998
_cell_angle_beta 78.334200
_cell_angle_gamma 159.569948
_cell_volume 392.612098
_symmetry_space_group_name_H-M "P -1"
_symmetry_group_IT_number 2
_symmetry_cell_setting 'triclinic'
loop_
_space_group_symop_operation_xyz
x,y,z
-x,-y,-z
loop_
_atom_site_type_symbol
_atom_site_label
_atom_site_fract_x
_atom_site_fract_y
_atom_site_fract_z
Si Si1 0.245270 0.176294 0.440271
Si Si2 0.000000 0.500000 0.000000
Si Si3 0.586187 0.699430 0.066972
Si Si4 0.443819 0.023196 0.744366
Si Si5 0.793916 0.103530 0.597322
Si Si6 0.299192 0.572547 0.868619
O O1 0.500000 0.500000 0.500000
O O2 0.228184 0.113491 0.144662
O O3 0.298553 0.165677 0.645547
O O4 0.000000 0.000000 0.500000
O O5 0.752038 0.215680 0.117360
O O6 0.089459 0.671810 0.265383
O O7 0.500000 0.500000 0.000000
O O8 0.356711 0.542619 0.003695
O O9 0.306040 0.980838 0.671924
O O10 0.500000 0.000000 0.500000
O O11 0.711808 0.334372 0.917933
O O12 0.050985 0.301128 0.669734
O O13 0.545158 0.834647 0.729336
#
# Coordination Sequence:
#
# PCOD9030589 Si02
#       6
#     2   1   2   2   2   2
#     4  10  22  42  72 101 137 187 244 302 372 441
#     4  10  22  44  68 106 138 192 250 300 378 458
#     4  10  24  48  73 109 148 199 251 316 377 457
#     4  11  24  46  76 105 151 199 250 316 383 461
#     4  11  24  44  70 103 146 192 243 310 378 446
#     4  11  27  44  69 110 147 190 257 306 379 457
#
# _framework density 28.017477
#
# number of rings (size 3 to 8) (size 9 to 14) (size 15 to 20)
#    0.000    1.455    0.000    3.273    2.545   13.091 
#    0.000    2.727    4.000    0.000    0.000    0.000 
#    0.000    0.000    0.000    0.000    0.000    0.000 
#
# Total GULP energy -61458.843678 kJ/mol
# GULP energy per Si atom -5587.167607 kJ/mol
# Density = 2.795371 g / cm^3
# Si number density = 28.017477 Si / 1000 Ang^3
#
#
#
# Elastic Constant Matrix: (Units=GPa)
#
#
# Indices 1 2 3 4 5 6 
#
# 1 110.7920 21.6127 37.9777 -1.4817 48.4305 -1.6260
# 2 21.6127 195.3608 54.9191 27.5378 18.6498 5.0332
# 3 37.9777 54.9191 183.0584 12.3890 21.1578 9.9298
# 4 -1.4817 27.5378 12.3890 52.3679 9.5128 4.9131
# 5 48.4305 18.6498 21.1578 9.5128 71.3932 -2.0065
# 6 -1.6260 5.0332 9.9298 4.9131 -2.0065 42.7054
#
#
#
# Elastic Compliance Matrix: (Units=1/GPa)
#
#
# Indices 1 2 3 4 5 6 
#
# 1 0.013729 -0.000531 -0.001850 0.002710 -0.008980 0.000282
# 2 -0.000531 0.006016 -0.001456 -0.002750 -0.000416 -0.000094
# 3 -0.001850 -0.001456 0.006424 -0.000642 -0.000221 -0.001329
# 4 0.002710 -0.002750 -0.000642 0.021671 -0.003876 -0.002099
# 5 -0.008980 -0.000416 -0.000221 -0.003876 0.020822 0.001183
# 6 0.000282 -0.000094 -0.001329 -0.002099 0.001183 0.024044
#
#
# Mechanical properties :
#
#
# Convention : Reuss Voigt Hill
#
# Bulk Modulus (GPa) = 54.06150 79.80337 66.93244
# Shear Modulus (GPa) = 46.92807 58.27340 52.60074
#
# Velocity S-wave (km/s) = 4.09706 4.56553 4.33763
# Velocity P-wave (km/s) = 6.45901 7.50582 7.00201
#
# Compressibility (1/GPa) = 0.01849745
#
# Stress axis : x y z
#
# Youngs Moduli (GPa) = 72.83713 166.21128 155.66098
#
# Poissons Ratio (x) = 0.08824 0.28795
# Poissons Ratio (y) = 0.03867 0.22657
# Poissons Ratio (z) = 0.13474 0.24192
#
# Static dielectric constant tensor:
#      x y z
#    x 2.193110 -0.053680 -0.050200 
#    y -0.053680 2.256670 0.348030 
#    z -0.050200 0.348030 2.490380 
# 
# From -- ./inp_files/3698.got.cif
#   From: 2010.05.17/outbox.cif.g08.bks.cpg/sg2_2_cif.got.tgz:3698.got - 2010.06.03 11:33:40.
