data_PCOD9030798
_publ_section_title
;
Structure prediction by ZEFSAII (Michael W. Deem and Ramdas Pophale) SiO2 
 PCOD9030798
Probable space group: P -1
;
_chemical_formula_sum "Si O2"
_cell_formula_units_Z 15
_cell_length_a 15.655411
_cell_length_b 15.028387
_cell_length_c 14.699583
_cell_angle_alpha 141.669135
_cell_angle_beta 37.200886
_cell_angle_gamma 160.213082
_cell_volume 697.462246
_symmetry_space_group_name_H-M "P -1"
_symmetry_group_IT_number 2
_symmetry_cell_setting 'triclinic'
loop_
_space_group_symop_operation_xyz
x,y,z
-x,-y,-z
loop_
_atom_site_type_symbol
_atom_site_label
_atom_site_fract_x
_atom_site_fract_y
_atom_site_fract_z
Si Si1 0.743980 0.720561 0.770160
Si Si2 0.697387 0.439208 0.948314
Si Si3 0.841822 0.235037 0.679761
Si Si4 0.078743 0.217742 0.786887
Si Si5 0.796274 0.201499 0.902934
Si Si6 0.428505 0.650740 0.512243
Si Si7 0.802209 0.706285 0.903746
Si Si8 0.500000 0.500000 0.500000
O O1 0.590621 0.733360 0.942290
O O2 0.545071 0.448968 0.666843
O O3 0.848988 0.725329 0.772149
O O4 0.962879 0.964654 0.710873
O O5 0.835572 0.623450 0.068472
O O6 0.721226 0.289783 0.813886
O O7 0.825425 0.602598 0.876170
O O8 0.837517 0.196990 0.760072
O O9 0.147431 0.483413 0.594926
O O10 0.655345 0.962030 0.569883
O O11 0.301959 0.394199 0.662800
O O12 0.846055 0.107214 0.847820
O O13 0.000000 0.500000 0.000000
O O14 0.500000 0.000000 0.000000
O O15 0.421345 0.564434 0.546720
O O16 0.500000 0.500000 0.000000
O O17 0.000000 0.000000 0.000000
#
# Coordination Sequence:
#
# PCOD9030798 Si02
#       8
#     2   2   2   2   2   2   2   1
#     4  11  25  46  73 102 140 189 244 297 362 428
#     4  11  24  45  74 107 138 184 242 304 362 422
#     4  12  27  44  65 103 148 184 232 293 361 421
#     4  12  24  42  72 102 143 186 245 295 354 422
#     4  12  25  41  64  99 138 185 232 287 353 420
#     4  12  28  45  66  98 148 193 233 287 353 434
#     4  10  22  42  74 109 136 173 243 310 358 416
#     4  12  26  46  64 104 140 200 240 284 346 438
#
# _framework density 21.506542
#
# number of rings (size 3 to 8) (size 9 to 14) (size 15 to 20)
#    0.000    0.533    5.333    2.400    3.733    1.067 
#    0.000    1.333    0.000    0.000    0.000    0.000 
#    0.000    0.000    0.000    0.000    0.000    0.000 
#
# Total GULP energy -83637.164415 kJ/mol
# GULP energy per Si atom -5575.810961 kJ/mol
# Density = 2.145759 g / cm^3
# Si number density = 21.506542 Si / 1000 Ang^3
#
#
#
# Elastic Constant Matrix: (Units=GPa)
#
#
# Indices 1 2 3 4 5 6 
#
# 1 153.5079 33.6909 49.9422 6.2533 11.8210 -12.7254
# 2 33.6909 111.6825 45.5146 19.2070 -4.2293 15.5047
# 3 49.9422 45.5146 94.1780 11.7031 -18.1208 3.1657
# 4 6.2533 19.2070 11.7031 38.8395 9.5740 -4.3594
# 5 11.8210 -4.2293 -18.1208 9.5740 31.1010 -8.3228
# 6 -12.7254 15.5047 3.1657 -4.3594 -8.3228 29.8617
#
#
#
# Elastic Compliance Matrix: (Units=1/GPa)
#
#
# Indices 1 2 3 4 5 6 
#
# 1 0.009779 -0.001856 -0.006354 0.003617 -0.007662 0.004197
# 2 -0.001856 0.013553 -0.004693 -0.005768 -0.000645 -0.008352
# 3 -0.006354 -0.004693 0.020048 -0.006456 0.015725 0.001044
# 4 0.003617 -0.005768 -0.006456 0.034307 -0.014852 0.006090
# 5 -0.007662 -0.000645 0.015725 -0.014852 0.050681 0.007360
# 6 0.004197 -0.008352 0.001044 0.006090 0.007360 0.042443
#
#
# Mechanical properties :
#
#
# Convention : Reuss Voigt Hill
#
# Bulk Modulus (GPa) = 56.89427 68.62930 62.76178
# Shear Modulus (GPa) = 24.69432 35.30847 30.00139
#
# Velocity S-wave (km/s) = 3.39222 4.05625 3.73901
# Velocity P-wave (km/s) = 6.46952 7.34287 6.91999
#
# Compressibility (1/GPa) = 0.01757646
#
# Stress axis : x y z
#
# Youngs Moduli (GPa) = 102.25614 73.78316 49.87924
#
# Poissons Ratio (x) = 0.13691 0.31693
# Poissons Ratio (y) = 0.18974 0.23407
# Poissons Ratio (z) = 0.64974 0.34624
#
# Static dielectric constant tensor:
#      x y z
#    x 1.793290 0.017990 -0.002610 
#    y 0.017990 1.822300 -0.025030 
#    z -0.002610 -0.025030 1.787940 
# 
# From -- ./inp_files/524990.got.cif
#   From: 2010.05.17/outbox.cif.g08.bks.cpg/sg2_263_cif.got.tgz:524990.got - 2010.06.03 11:33:40.
