data_PCOD9030897
_publ_section_title
;
Structure prediction by ZEFSAII (Michael W. Deem and Ramdas Pophale) SiO2 
 PCOD9030897
Probable space group: P -1
;
_chemical_formula_sum "Si O2"
_cell_formula_units_Z 15
_cell_length_a 19.661267
_cell_length_b 12.210363
_cell_length_c 13.019312
_cell_angle_alpha 125.557896
_cell_angle_beta 152.265980
_cell_angle_gamma 35.972936
_cell_volume 743.299109
_symmetry_space_group_name_H-M "P -1"
_symmetry_group_IT_number 2
_symmetry_cell_setting 'triclinic'
loop_
_space_group_symop_operation_xyz
x,y,z
-x,-y,-z
loop_
_atom_site_type_symbol
_atom_site_label
_atom_site_fract_x
_atom_site_fract_y
_atom_site_fract_z
Si Si1 0.804357 0.780643 0.962224
Si Si2 0.110235 0.948954 0.303342
Si Si3 0.479175 0.231798 0.135582
Si Si4 0.500000 0.500000 0.500000
Si Si5 0.995819 0.713651 0.781180
Si Si6 0.749144 0.988714 0.809823
Si Si7 0.426635 0.110153 0.798131
Si Si8 0.295013 0.438846 0.353708
O O1 0.717818 0.891584 0.795561
O O2 0.776116 0.639447 0.854241
O O3 0.639648 0.969280 0.927229
O O4 0.077058 0.618261 0.235755
O O5 0.290543 0.762443 0.357966
O O6 0.003615 0.160132 0.226218
O O7 0.279933 0.862354 0.577756
O O8 0.909451 0.987147 0.075403
O O9 0.422327 0.228933 0.942482
O O10 0.261295 0.473859 0.019542
O O11 0.517935 0.068889 0.164905
O O12 0.355617 0.522101 0.409957
O O13 0.880539 0.839865 0.803051
O O14 0.818459 0.733429 0.503186
O O15 0.515787 0.229085 0.596060
#
# Coordination Sequence:
#
# PCOD9030897 Si02
#       8
#     2   2   2   1   2   2   2   2
#     4  11  24  41  60  95 129 165 204 256 323 378
#     4  11  23  36  58  95 125 163 206 254 316 371
#     4  10  23  40  65  87 124 166 215 267 302 363
#     4  12  20  42  60  94 130 164 210 256 310 376
#     4  11  22  36  64  94 123 162 212 261 315 370
#     4  12  23  37  60  96 132 159 198 254 325 383
#     4  10  22  43  61  90 121 167 219 259 309 366
#     4  11  24  37  63  93 129 168 200 254 320 373
#
# _framework density 20.180302000000001
#
# number of rings (size 3 to 8) (size 9 to 14) (size 15 to 20)
#    0.000    1.067    4.000    2.800    5.600    0.000 
#    0.000    0.667    0.000    1.600    0.000    0.000 
#    0.000    0.000    0.000    0.000    0.000    0.000 
#
# Total GULP energy -83613.872159 kJ/mol
# GULP energy per Si atom -5574.258144 kJ/mol
# Density = 2.013437 g / cm^3
# Si number density = 20.180302 Si / 1000 Ang^3
#
#
#
# Elastic Constant Matrix: (Units=GPa)
#
#
# Indices 1 2 3 4 5 6 
#
# 1 61.7489 14.3295 27.2365 13.1559 4.3257 7.6713
# 2 14.3295 47.0285 21.5925 -11.1059 0.8411 11.1170
# 3 27.2365 21.5925 113.9452 -7.7815 1.3060 6.0002
# 4 13.1559 -11.1059 -7.7815 38.8881 -0.5576 -0.7851
# 5 4.3257 0.8411 1.3060 -0.5576 26.2650 -1.0717
# 6 7.6713 11.1170 6.0002 -0.7851 -1.0717 23.1598
#
#
#
# Elastic Compliance Matrix: (Units=1/GPa)
#
#
# Indices 1 2 3 4 5 6 
#
# 1 0.022712 -0.006278 -0.004716 -0.010550 -0.003685 -0.003815
# 2 -0.006278 0.029357 -0.002822 0.009722 -0.000006 -0.010952
# 3 -0.004716 -0.002822 0.010618 0.002926 0.000413 0.000284
# 4 -0.010550 0.009722 0.002926 0.032659 0.001944 -0.000733
# 5 -0.003685 -0.000006 0.000413 0.001944 0.038823 0.002979
# 6 -0.003815 -0.010952 0.000284 -0.000733 0.002979 0.049739
#
#
# Mechanical properties :
#
#
# Convention : Reuss Voigt Hill
#
# Bulk Modulus (GPa) = 28.52713 38.78219 33.65466
# Shear Modulus (GPa) = 22.39885 28.30017 25.34951
#
# Velocity S-wave (km/s) = 3.33518 3.74888 3.54807
# Velocity P-wave (km/s) = 5.38499 6.16428 5.78777
#
# Compressibility (1/GPa) = 0.03505435
#
# Stress axis : x y z
#
# Youngs Moduli (GPa) = 44.02995 34.06317 94.17632
#
# Poissons Ratio (x) = 0.21386 0.44418
# Poissons Ratio (y) = 0.27644 0.26574
# Poissons Ratio (z) = 0.20766 0.09612
#
# Static dielectric constant tensor:
#      x y z
#    x 1.671700 0.014780 -0.009440 
#    y 0.014780 1.771760 0.040350 
#    z -0.009440 0.040350 1.792240 
# 
# From -- ./inp_files/449738.got.cif
#   From: 2010.05.17/outbox.cif.g08.bks.cpg/sg2_225_cif.got.tgz:449738.got - 2010.06.03 11:33:40.
