data_PCOD9030050
_publ_section_title
;
Structure prediction by ZEFSAII (Michael W. Deem and Ramdas Pophale) SiO2 
 PCOD9030050
Probable space group: P -1
;
_chemical_formula_sum "Si O2"
_cell_formula_units_Z 14
_cell_length_a 8.194741
_cell_length_b 11.897232
_cell_length_c 10.511367
_cell_angle_alpha 104.855811
_cell_angle_beta 137.691870
_cell_angle_gamma 62.393197
_cell_volume 604.842737
_symmetry_space_group_name_H-M "P -1"
_symmetry_group_IT_number 2
_symmetry_cell_setting 'triclinic'
loop_
_space_group_symop_operation_xyz
x,y,z
-x,-y,-z
loop_
_atom_site_type_symbol
_atom_site_label
_atom_site_fract_x
_atom_site_fract_y
_atom_site_fract_z
Si Si1 0.050694 0.771323 0.279971
Si Si2 0.395555 0.273274 0.105660
Si Si3 0.551998 0.705564 0.377566
Si Si4 0.666841 0.994340 0.281862
Si Si5 0.632480 0.439189 0.424484
Si Si6 0.790606 0.898626 0.596980
Si Si7 0.682811 0.156735 0.976619
O O1 0.844190 0.912761 0.242657
O O2 0.323237 0.760612 0.371048
O O3 0.111571 0.685896 0.418735
O O4 0.903668 0.714041 0.080683
O O5 0.441394 0.389683 0.224776
O O6 0.523429 0.241104 0.029698
O O7 0.555807 0.145135 0.243185
O O8 0.673258 0.552134 0.409819
O O9 0.768983 0.763163 0.538379
O O10 0.400988 0.759681 0.174298
O O11 0.828818 0.941789 0.489952
O O12 0.419836 0.954036 0.132942
O O13 0.500000 0.500000 0.500000
O O14 0.010722 0.895329 0.822219
O O15 0.500000 0.000000 0.500000
#
# Coordination Sequence:
#
# PCOD9030050 Si02
#       7
#     2   2   2   2   2   2   2
#     4  10  22  42  69  94 130 165 214 267 309 377
#     4  11  24  41  70  94 126 174 209 262 322 371
#     4  10  25  42  63  96 131 167 213 262 312 378
#     4  10  24  42  66  99 127 165 215 261 319 377
#     4  10  24  42  63  96 128 167 219 259 310 378
#     4  11  26  39  65  93 129 172 205 259 327 371
#     4  10  23  44  62  97 130 163 212 264 318 379
#
# _framework density 23.146514
#
# number of rings (size 3 to 8) (size 9 to 14) (size 15 to 20)
#    0.000    1.714    0.000    2.571   10.000    6.286 
#    0.000   10.000    0.000    0.000    0.000    0.000 
#    0.000    0.000    0.000    0.000    0.000    0.000 
#
# Total GULP energy -78413.760063 kJ/mol
# GULP energy per Si atom -5600.982862 kJ/mol
# Density = 2.309383 g / cm^3
# Si number density = 23.146514 Si / 1000 Ang^3
#
#
#
# Elastic Constant Matrix: (Units=GPa)
#
#
# Indices 1 2 3 4 5 6 
#
# 1 69.5932 28.2988 23.0067 -3.7865 -14.7191 17.0779
# 2 28.2988 106.6380 45.7588 18.4197 -10.8432 34.6222
# 3 23.0067 45.7588 141.1904 14.0825 12.3294 27.3077
# 4 -3.7865 18.4197 14.0825 43.6844 4.6315 -3.9558
# 5 -14.7191 -10.8432 12.3294 4.6315 34.9650 -1.6614
# 6 17.0779 34.6222 27.3077 -3.9558 -1.6614 42.7131
#
#
#
# Elastic Compliance Matrix: (Units=1/GPa)
#
#
# Indices 1 2 3 4 5 6 
#
# 1 0.018746 -0.002431 -0.002499 0.002346 0.007545 -0.003416
# 2 -0.002431 0.016846 -0.002490 -0.008159 0.005607 -0.011628
# 3 -0.002499 -0.002490 0.009630 -0.002048 -0.005116 -0.003528
# 4 0.002346 -0.008159 -0.002048 0.028491 -0.004145 0.009462
# 5 0.007545 0.005607 -0.005116 -0.004145 0.035712 -0.003286
# 6 -0.003416 -0.011628 -0.003528 0.009462 -0.003286 0.037207
#
#
# Mechanical properties :
#
#
# Convention : Reuss Voigt Hill
#
# Bulk Modulus (GPa) = 32.91526 56.83891 44.87708
# Shear Modulus (GPa) = 29.13730 38.96297 34.05014
#
# Velocity S-wave (km/s) = 3.55183 4.10728 3.83961
# Velocity P-wave (km/s) = 5.57422 6.86312 6.25198
#
# Compressibility (1/GPa) = 0.03038105
#
# Stress axis : x y z
#
# Youngs Moduli (GPa) = 53.34545 59.36099 103.83867
#
# Poissons Ratio (x) = 0.14433 0.25948
# Poissons Ratio (y) = 0.12970 0.25860
# Poissons Ratio (z) = 0.13330 0.14783
#
# Static dielectric constant tensor:
#      x y z
#    x 1.896620 -0.001720 0.018400 
#    y -0.001720 1.901930 -0.015030 
#    z 0.018400 -0.015030 1.894090 
# 
# From -- ./inp_files/308818.got.cif
#   From: 2010.05.17/outbox.cif.g08.bks.cpg/sg2_155_cif.got.tgz:308818.got - 2010.06.03 11:33:40.
