data_PCOD9030736
_publ_section_title
;
Structure prediction by ZEFSAII (Michael W. Deem and Ramdas Pophale) SiO2 
 PCOD9030736
Probable space group: P -1
;
_chemical_formula_sum "Si O2"
_cell_formula_units_Z 14
_cell_length_a 18.345039
_cell_length_b 11.654439
_cell_length_c 15.520359
_cell_angle_alpha 37.464213
_cell_angle_beta 16.347369
_cell_angle_gamma 38.696149
_cell_volume 564.650777
_symmetry_space_group_name_H-M "P -1"
_symmetry_group_IT_number 2
_symmetry_cell_setting 'triclinic'
loop_
_space_group_symop_operation_xyz
x,y,z
-x,-y,-z
loop_
_atom_site_type_symbol
_atom_site_label
_atom_site_fract_x
_atom_site_fract_y
_atom_site_fract_z
Si Si1 0.098154 0.714719 0.309960
Si Si2 0.340135 0.982232 0.423147
Si Si3 0.588589 0.437173 0.669285
Si Si4 0.191079 0.899079 0.271188
Si Si5 0.424029 0.863940 0.592192
Si Si6 0.886233 0.387102 0.822920
Si Si7 0.752329 0.386531 0.328468
O O1 0.106620 0.506120 0.466303
O O2 0.123847 0.859537 0.271789
O O3 0.260005 0.675738 0.061193
O O4 0.831513 0.816869 0.508823
O O5 0.433841 0.948366 0.435362
O O6 0.182378 0.804577 0.685671
O O7 0.562447 0.985053 0.096254
O O8 0.738303 0.310984 0.646040
O O9 0.610919 0.662480 0.504255
O O10 0.657164 0.342500 0.557605
O O11 0.286855 0.443956 0.031399
O O12 0.000000 0.000000 0.500000
O O13 0.500000 0.000000 0.500000
O O14 0.138659 0.790574 0.980782
O O15 0.500000 0.500000 0.500000
O O16 0.000000 0.500000 0.000000
#
# Coordination Sequence:
#
# PCOD9030736 Si02
#       7
#     2   2   2   2   2   2   2
#     4  11  24  44  74 102 146 192 256 316 393 452
#     4  12  26  47  74 108 152 194 261 321 387 470
#     4  10  24  46  71 106 152 192 255 319 384 455
#     4  12  28  44  75 107 146 199 257 319 390 462
#     4  10  22  42  73 106 151 193 251 309 391 464
#     4   9  22  45  66 105 142 192 246 315 385 456
#     4  12  28  49  78 113 159 207 260 324 396 466
#
# _framework density 24.794086
#
# number of rings (size 3 to 8) (size 9 to 14) (size 15 to 20)
#    0.857    0.286    2.857    1.714    6.000    6.857 
#    0.000    0.000    0.000    0.000    0.000    0.000 
#    0.000    0.000    0.000    0.000    0.000    0.000 
#
# Total GULP energy -77971.750525 kJ/mol
# GULP energy per Si atom -5569.410752 kJ/mol
# Density = 2.473765 g / cm^3
# Si number density = 24.794086 Si / 1000 Ang^3
#
#
#
# Elastic Constant Matrix: (Units=GPa)
#
#
# Indices 1 2 3 4 5 6 
#
# 1 138.5921 37.8531 41.8363 -19.8924 18.1896 3.8721
# 2 37.8531 94.8814 26.5707 -36.3743 -13.6952 3.7679
# 3 41.8363 26.5707 81.4727 -10.7571 12.8187 0.6608
# 4 -19.8924 -36.3743 -10.7571 4.0671 3.7104 -1.4643
# 5 18.1896 -13.6952 12.8187 3.7104 40.3687 -7.1800
# 6 3.8721 3.7679 0.6608 -1.4643 -7.1800 54.6467
#
#
#
# Elastic Compliance Matrix: (Units=1/GPa)
#
#
# Indices 1 2 3 4 5 6 
#
# 1 0.009643 -0.005340 -0.002982 -0.004299 -0.005002 -0.001051
# 2 -0.005340 0.000525 -0.003411 -0.036815 0.007110 0.000331
# 3 -0.002982 -0.003411 0.015916 0.001496 -0.005071 -0.000372
# 4 -0.004299 -0.036815 0.001496 -0.098676 -0.001972 -0.000078
# 5 -0.005002 0.007110 -0.005071 -0.001972 0.031953 0.004071
# 6 -0.001051 0.000331 -0.000372 -0.000078 0.004071 0.018888
#
#
# Mechanical properties :
#
#
# Convention : Reuss Voigt Hill
#
# Bulk Modulus (GPa) = 382.08493 58.60737 220.34615
# Shear Modulus (GPa) = 1931.74660 33.72891 982.73775
#
# Velocity S-wave (km/s) = 27.94293 3.69231 19.93038
# Velocity P-wave (km/s) = 34.57621 6.47043 24.87349
#
# Compressibility (1/GPa) = 0.00261722
#
# Stress axis : x y z
#
# Youngs Moduli (GPa) = 103.70247 1905.54487 62.82848
#
# Poissons Ratio (x) = 10.17585 0.18737
# Poissons Ratio (y) = 0.55378 0.21431
# Poissons Ratio (z) = 0.30926 6.50000
#
# Static dielectric constant tensor:
#      x y z
#    x -0.438030 -1.172310 0.426010 
#    y -1.172310 1.376710 0.266750 
#    z 0.426010 0.266750 2.006480 
# 
# From -- ./inp_files/538180.got.cif
#   From: 2010.05.17/outbox.cif.g08.bks.cpg/sg2_270_cif.got.tgz:538180.got - 2010.06.03 11:33:40.
