data_PCOD9030262
_publ_section_title
;
Structure prediction by ZEFSAII (Michael W. Deem and Ramdas Pophale) SiO2 
 PCOD9030262
Probable space group: P -1
;
_chemical_formula_sum "Si O2"
_cell_formula_units_Z 13
_cell_length_a 11.362866
_cell_length_b 6.583519
_cell_length_c 18.846485
_cell_angle_alpha 93.140404
_cell_angle_beta 157.525955
_cell_angle_gamma 84.379085
_cell_volume 533.978907
_symmetry_space_group_name_H-M "P -1"
_symmetry_group_IT_number 2
_symmetry_cell_setting 'triclinic'
loop_
_space_group_symop_operation_xyz
x,y,z
-x,-y,-z
loop_
_atom_site_type_symbol
_atom_site_label
_atom_site_fract_x
_atom_site_fract_y
_atom_site_fract_z
Si Si1 0.185256 0.146539 0.311942
Si Si2 0.617323 0.166778 0.345885
Si Si3 0.327343 0.681021 0.858986
Si Si4 0.763699 0.857973 0.001106
Si Si5 0.725316 0.511794 0.736051
Si Si6 0.748005 0.731264 0.466869
Si Si7 0.000000 0.500000 0.500000
O O1 0.261668 0.358483 0.325490
O O2 0.946114 0.196588 0.244850
O O3 0.500000 0.000000 0.500000
O O4 0.990427 0.025334 0.145984
O O5 0.363010 0.316555 0.250533
O O6 0.890985 0.290314 0.475300
O O7 0.725039 0.972433 0.452073
O O8 0.463518 0.086466 0.188910
O O9 0.112208 0.620068 0.670799
O O10 0.500000 0.500000 0.000000
O O11 0.570414 0.814847 0.963117
O O12 0.961836 0.641450 0.087966
O O13 0.456568 0.363417 0.590612
O O14 0.670477 0.633670 0.347118
#
# Coordination Sequence:
#
# PCOD9030262 Si02
#       7
#     2   2   2   2   2   2   1
#     4  12  28  49  73 106 148 201 244 293 361 439
#     4  11  24  46  74 109 143 187 245 299 374 427
#     4  12  26  48  73 107 147 193 245 302 359 425
#     4  12  26  46  74 108 146 187 244 308 357 432
#     4  11  25  46  72 106 145 195 236 302 368 432
#     4  11  25  46  74 106 146 195 237 300 368 437
#     4  10  22  42  70 104 142 180 234 302 364 426
#
# _framework density 24.34553
#
# number of rings (size 3 to 8) (size 9 to 14) (size 15 to 20)
#    0.000    0.615    3.077    4.154    2.154    7.385 
#    2.769    0.000    0.000    0.000    0.000    0.000 
#    0.000    0.000    0.000    0.000    0.000    0.000 
#
# Total GULP energy -72516.349310 kJ/mol
# GULP energy per Si atom -5578.180716 kJ/mol
# Density = 2.429012 g / cm^3
# Si number density = 24.345530 Si / 1000 Ang^3
#
#
#
# Elastic Constant Matrix: (Units=GPa)
#
#
# Indices 1 2 3 4 5 6 
#
# 1 136.5470 58.1337 38.9889 -5.2280 26.7457 26.5831
# 2 58.1337 170.1233 72.2450 -5.2774 3.1672 36.8506
# 3 38.9889 72.2450 109.6585 -0.1649 9.5973 23.6189
# 4 -5.2280 -5.2774 -0.1649 47.9382 0.8490 6.5462
# 5 26.7457 3.1672 9.5973 0.8490 40.3398 -2.5434
# 6 26.5831 36.8506 23.6189 6.5462 -2.5434 52.9884
#
#
#
# Elastic Compliance Matrix: (Units=1/GPa)
#
#
# Indices 1 2 3 4 5 6 
#
# 1 0.010741 -0.002270 -0.000853 0.001584 -0.007024 -0.003963
# 2 -0.002270 0.009436 -0.004836 0.001200 0.001679 -0.003335
# 3 -0.000853 -0.004836 0.013292 -0.000235 -0.002352 -0.002217
# 4 0.001584 0.001200 -0.000235 0.021784 -0.001818 -0.004303
# 5 -0.007024 0.001679 -0.002352 -0.001818 0.030232 0.005080
# 6 -0.003963 -0.003335 -0.002217 -0.004303 0.005080 0.024943
#
#
# Mechanical properties :
#
#
# Convention : Reuss Voigt Hill
#
# Bulk Modulus (GPa) = 56.97804 83.89599 70.43701
# Shear Modulus (GPa) = 37.82215 44.71736 41.26975
#
# Velocity S-wave (km/s) = 3.94579 4.29042 4.12171
# Velocity P-wave (km/s) = 6.64934 7.68628 7.18654
#
# Compressibility (1/GPa) = 0.01755062
#
# Stress axis : x y z
#
# Youngs Moduli (GPa) = 93.09858 105.97672 75.23462
#
# Poissons Ratio (x) = 0.24057 0.06417
# Poissons Ratio (y) = 0.21133 0.36386
# Poissons Ratio (z) = 0.07941 0.51253
#
# Static dielectric constant tensor:
#      x y z
#    x 1.771780 0.070570 0.092280 
#    y 0.070570 1.829380 -0.079730 
#    z 0.092280 -0.079730 1.857620 
# 
# From -- ./inp_files/26381.got.cif
#   From: 2010.05.17/outbox.cif.g08.bks.cpg/sg2_14_cif.got.tgz:26381.got - 2010.06.03 11:33:40.
