data_PCOD9030358
_publ_section_title
;
Structure prediction by ZEFSAII (Michael W. Deem and Ramdas Pophale) SiO2 
 PCOD9030358
Probable space group: P -1
;
_chemical_formula_sum "Si O2"
_cell_formula_units_Z 16
_cell_length_a 8.103419
_cell_length_b 10.257524
_cell_length_c 11.451848
_cell_angle_alpha 69.234914
_cell_angle_beta 53.101312
_cell_angle_gamma 49.698367
_cell_volume 579.654903
_symmetry_space_group_name_H-M "P -1"
_symmetry_group_IT_number 2
_symmetry_cell_setting 'triclinic'
loop_
_space_group_symop_operation_xyz
x,y,z
-x,-y,-z
loop_
_atom_site_type_symbol
_atom_site_label
_atom_site_fract_x
_atom_site_fract_y
_atom_site_fract_z
Si Si1 0.989507 0.199721 0.201728
Si Si2 0.398411 0.902135 0.821043
Si Si3 0.058688 0.362519 0.917626
Si Si4 0.229721 0.523340 0.614999
Si Si5 0.157730 0.770837 0.116290
Si Si6 0.620196 0.079730 0.594423
Si Si7 0.131893 0.843511 0.346598
Si Si8 0.414181 0.327557 0.392128
O O1 0.980209 0.301529 0.286832
O O2 0.686666 0.301773 0.272591
O O3 0.099601 0.008560 0.248830
O O4 0.125214 0.210825 0.027970
O O5 0.592624 0.744810 0.704460
O O6 0.498098 0.019035 0.753783
O O7 0.344126 0.815565 0.973836
O O8 0.123392 0.046290 0.831859
O O9 0.219192 0.390403 0.746977
O O10 0.860100 0.358497 0.917875
O O11 0.000000 0.500000 0.000000
O O12 0.500000 0.500000 0.500000
O O13 0.201761 0.497518 0.497974
O O14 0.225611 0.714192 0.240079
O O15 0.462842 0.191061 0.514341
O O16 0.856934 0.912051 0.485602
O O17 0.723520 0.172312 0.592155
#
# Coordination Sequence:
#
# PCOD9030358 Si02
#       8
#     2   2   2   2   2   2   2   2
#     4   9  16  34  51  77 109 143 177 224 268 323
#     4  11  20  32  55  82 111 139 189 236 277 318
#     4  10  19  32  51  81 106 139 180 228 275 319
#     4   9  19  29  53  81 105 139 178 228 274 323
#     4  11  20  34  55  81 109 147 182 234 278 325
#     4  10  21  34  52  83 118 151 175 229 279 327
#     4  10  21  36  54  80 119 149 183 220 276 337
#     4  10  17  32  51  83 113 134 185 232 272 317
#
# _framework density 27.602630999999999
#
# number of rings (size 3 to 8) (size 9 to 14) (size 15 to 20)
#    0.000    2.000    3.750    1.875    1.750    0.500 
#    0.000    0.000    0.000    0.750   16.250    7.875 
#    0.000    0.000    0.000    0.000    0.000    0.000 
#
# Total GULP energy -89334.012407 kJ/mol
# GULP energy per Si atom -5583.375775 kJ/mol
# Density = 2.753981 g / cm^3
# Si number density = 27.602631 Si / 1000 Ang^3
#
#
#
# Elastic Constant Matrix: (Units=GPa)
#
#
# Indices 1 2 3 4 5 6 
#
# 1 51.2495 20.5903 36.2090 2.3004 14.3397 25.2795
# 2 20.5903 80.8817 58.9634 -8.1966 10.3314 13.1641
# 3 36.2090 58.9634 251.4270 -14.4728 6.8436 17.1504
# 4 2.3004 -8.1966 -14.4728 65.5262 15.1525 12.6308
# 5 14.3397 10.3314 6.8436 15.1525 32.1828 7.4338
# 6 25.2795 13.1641 17.1504 12.6308 7.4338 35.8160
#
#
#
# Elastic Compliance Matrix: (Units=1/GPa)
#
#
# Indices 1 2 3 4 5 6 
#
# 1 0.036831 -0.001445 -0.002720 0.005328 -0.012459 -0.023456
# 2 -0.001445 0.016522 -0.003099 0.003232 -0.004659 -0.003742
# 3 -0.002720 -0.003099 0.005092 0.000605 0.000782 0.000244
# 4 0.005328 0.003232 0.000605 0.020016 -0.010633 -0.010090
# 5 -0.012459 -0.004659 0.000782 -0.010633 0.041755 0.005215
# 6 -0.023456 -0.003742 0.000244 -0.010090 0.005215 0.048210
#
#
# Mechanical properties :
#
#
# Convention : Reuss Voigt Hill
#
# Bulk Modulus (GPa) = 22.76856 68.34260 45.55558
# Shear Modulus (GPa) = 25.30470 44.55803 34.93136
#
# Velocity S-wave (km/s) = 3.03107 4.02215 3.56126
# Velocity P-wave (km/s) = 4.52951 6.81054 5.78360
#
# Compressibility (1/GPa) = 0.04392020
#
# Stress axis : x y z
#
# Youngs Moduli (GPa) = 27.15092 60.52563 196.36881
#
# Poissons Ratio (x) = 0.08743 0.53405
# Poissons Ratio (y) = 0.03922 0.60846
# Poissons Ratio (z) = 0.07384 0.18754
#
# Static dielectric constant tensor:
#      x y z
#    x 2.305220 0.043380 -0.014940 
#    y 0.043380 2.322250 0.053810 
#    z -0.014940 0.053810 2.094180 
# 
# From -- ./inp_files/304696.got.cif
#   From: 2010.05.17/outbox.cif.g08.bks.cpg/sg2_153_cif.got.tgz:304696.got - 2010.06.03 11:33:40.
