data_PCOD9030278
_publ_section_title
;
Structure prediction by ZEFSAII (Michael W. Deem and Ramdas Pophale) SiO2 
 PCOD9030278
Probable space group: P -1
;
_chemical_formula_sum "Si O2"
_cell_formula_units_Z 15
_cell_length_a 14.829451
_cell_length_b 5.525314
_cell_length_c 11.834647
_cell_angle_alpha 126.330171
_cell_angle_beta 51.130128
_cell_angle_gamma 123.048056
_cell_volume 584.478570
_symmetry_space_group_name_H-M "P -1"
_symmetry_group_IT_number 2
_symmetry_cell_setting 'triclinic'
loop_
_space_group_symop_operation_xyz
x,y,z
-x,-y,-z
loop_
_atom_site_type_symbol
_atom_site_label
_atom_site_fract_x
_atom_site_fract_y
_atom_site_fract_z
Si Si1 0.585621 0.048692 0.052561
Si Si2 0.077710 0.427447 0.583986
Si Si3 0.691551 0.707731 0.214048
Si Si4 0.211157 0.119975 0.572905
Si Si5 0.500000 0.000000 0.500000
Si Si6 0.916429 0.796968 0.910705
Si Si7 0.818728 0.861846 0.774955
Si Si8 0.613261 0.226162 0.711628
O O1 0.593428 0.379066 0.194149
O O2 0.510735 0.803263 0.133855
O O3 0.500000 0.000000 0.000000
O O4 0.719581 0.053776 0.910184
O O5 0.150727 0.325253 0.599518
O O6 0.090978 0.182604 0.408018
O O7 0.960530 0.496944 0.753702
O O8 0.134368 0.767901 0.573299
O O9 0.752971 0.718765 0.290574
O O10 0.624581 0.974318 0.336678
O O11 0.785536 0.729328 0.048172
O O12 0.327503 0.064066 0.402003
O O13 0.580154 0.202275 0.599299
O O14 0.900533 0.954333 0.847517
O O15 0.000000 0.000000 0.000000
O O16 0.718038 0.519689 0.755662
#
# Coordination Sequence:
#
# PCOD9030278 Si02
#       8
#     2   2   2   2   1   2   2   2
#     4  12  24  40  66 106 150 197 254 313 388 460
#     4  11  25  49  76 107 153 198 258 312 386 448
#     4  11  25  42  72 111 149 198 258 317 387 459
#     4  10  24  45  76 109 149 199 253 318 377 458
#     4  10  22  44  70 100 148 194 244 312 386 458
#     4  12  26  48  76 107 151 205 261 317 384 450
#     4  11  25  45  72 108 153 204 252 318 386 464
#     4  10  22  42  70 105 149 197 252 307 389 457
#
# _framework density 25.663903000000001
#
# number of rings (size 3 to 8) (size 9 to 14) (size 15 to 20)
#    0.000    1.067    1.333    4.000    1.867   10.133 
#    0.000    4.000    0.000    0.000    0.000    0.000 
#    0.000    0.000    0.000    0.000    0.000    0.000 
#
# Total GULP energy -83558.474850 kJ/mol
# GULP energy per Si atom -5570.564990 kJ/mol
# Density = 2.560549 g / cm^3
# Si number density = 25.663903 Si / 1000 Ang^3
#
#
#
# Elastic Constant Matrix: (Units=GPa)
#
#
# Indices 1 2 3 4 5 6 
#
# 1 115.4508 -4.8903 38.8143 -14.1432 -11.4038 -16.3981
# 2 -4.8903 44.3968 38.0081 -21.3281 -15.5089 2.9354
# 3 38.8143 38.0081 202.0993 -25.6483 -31.9886 5.1835
# 4 -14.1432 -21.3281 -25.6483 30.8852 5.9385 -7.6592
# 5 -11.4038 -15.5089 -31.9886 5.9385 65.2686 5.6594
# 6 -16.3981 2.9354 5.1835 -7.6592 5.6594 26.8123
#
#
#
# Elastic Compliance Matrix: (Units=1/GPa)
#
#
# Indices 1 2 3 4 5 6 
#
# 1 0.013337 0.009860 -0.002864 0.013084 0.001113 0.011133
# 2 0.009860 0.045517 -0.005634 0.032665 0.005919 0.010218
# 3 -0.002864 -0.005634 0.006847 -0.000618 0.001835 -0.003023
# 4 0.013084 0.032665 -0.000618 0.065766 0.001770 0.022959
# 5 0.001113 0.005919 0.001835 0.001770 0.017974 -0.003610
# 6 0.011133 0.010218 -0.003023 0.022959 -0.003610 0.050892
#
#
# Mechanical properties :
#
#
# Convention : Reuss Voigt Hill
#
# Bulk Modulus (GPa) = 14.61476 56.20124 35.40800
# Shear Modulus (GPa) = 22.68424 43.92753 33.30588
#
# Velocity S-wave (km/s) = 2.97627 4.14169 3.60637
# Velocity P-wave (km/s) = 4.18544 6.69462 5.58283
#
# Compressibility (1/GPa) = 0.06842396
#
# Stress axis : x y z
#
# Youngs Moduli (GPa) = 74.98212 21.96970 146.04485
#
# Poissons Ratio (x) = -0.21661 0.41834
# Poissons Ratio (y) = -0.73929 0.82275
# Poissons Ratio (z) = 0.21478 0.12377
#
# Static dielectric constant tensor:
#      x y z
#    x 1.974860 -0.039910 -0.027180 
#    y -0.039910 2.157140 -0.004000 
#    z -0.027180 -0.004000 2.054930 
# 
# From -- ./inp_files/442313.got.cif
#   From: 2010.05.17/outbox.cif.g08.bks.cpg/sg2_222_cif.got.tgz:442313.got - 2010.06.03 11:33:40.
