data_PCOD9030332
_publ_section_title
;
Structure prediction by ZEFSAII (Michael W. Deem and Ramdas Pophale) SiO2 
 PCOD9030332
Probable space group: P -1
;
_chemical_formula_sum "Si O2"
_cell_formula_units_Z 16
_cell_length_a 7.116948
_cell_length_b 26.550601
_cell_length_c 5.424194
_cell_angle_alpha 88.378727
_cell_angle_beta 86.870520
_cell_angle_gamma 41.207341
_cell_volume 674.089441
_symmetry_space_group_name_H-M "P -1"
_symmetry_group_IT_number 2
_symmetry_cell_setting 'triclinic'
loop_
_space_group_symop_operation_xyz
x,y,z
-x,-y,-z
loop_
_atom_site_type_symbol
_atom_site_label
_atom_site_fract_x
_atom_site_fract_y
_atom_site_fract_z
Si Si1 0.099315 0.655309 0.188174
Si Si2 0.941331 0.225946 0.078270
Si Si3 0.743237 0.590827 0.537086
Si Si4 0.311906 0.307088 0.148906
Si Si5 0.729247 0.781316 0.579659
Si Si6 0.907600 0.076705 0.522915
Si Si7 0.655771 0.571785 0.046062
Si Si8 0.838251 0.924214 0.000213
O O1 0.434861 0.574344 0.158798
O O2 0.957282 0.698076 0.448635
O O3 0.065765 0.718143 0.058484
O O4 0.914476 0.651090 0.060790
O O5 0.624032 0.267946 0.106711
O O6 0.098675 0.206203 0.328758
O O7 0.111732 0.145725 0.957808
O O8 0.819225 0.629085 0.643098
O O9 0.614315 0.619366 0.270338
O O10 0.000000 0.500000 0.500000
O O11 0.561245 0.601628 0.767359
O O12 0.378175 0.235251 0.200381
O O13 0.439689 0.851453 0.446620
O O14 0.021919 0.083610 0.267998
O O15 0.000000 0.000000 0.500000
O O16 0.033552 0.073874 0.768215
O O17 0.000000 0.500000 0.000000
O O18 0.500000 0.000000 0.000000
#
# Coordination Sequence:
#
# PCOD9030332 Si02
#       8
#     2   2   2   2   2   2   2   2
#     4  11  25  40  72 102 137 185 236 296 353 421
#     4  11  24  44  71  99 143 183 241 293 350 420
#     4  10  22  42  70  93 133 181 223 282 351 416
#     4  11  23  44  68 102 139 180 239 292 354 422
#     4  11  26  42  71 106 139 186 237 296 355 413
#     4  12  27  47  71 104 152 186 239 297 346 422
#     4  10  22  43  68  95 135 179 226 282 353 417
#     4  12  27  46  73 105 144 196 238 288 358 413
#
# _framework density 23.735721999999999
#
# number of rings (size 3 to 8) (size 9 to 14) (size 15 to 20)
#    0.000    1.000    2.500    3.000    8.750    2.000 
#    0.000    5.000    0.000    0.000    0.000    0.000 
#    0.000    0.000    0.000    0.000    0.000    0.000 
#
# Total GULP energy -89119.662527 kJ/mol
# GULP energy per Si atom -5569.978908 kJ/mol
# Density = 2.368170 g / cm^3
# Si number density = 23.735722 Si / 1000 Ang^3
#
#
#
# Elastic Constant Matrix: (Units=GPa)
#
#
# Indices 1 2 3 4 5 6 
#
# 1 146.0779 38.6507 54.6587 -4.5129 35.5280 -24.9451
# 2 38.6507 98.2877 16.7709 4.9123 15.6366 -21.3643
# 3 54.6587 16.7709 151.7897 8.2031 39.0607 -9.0744
# 4 -4.5129 4.9123 8.2031 31.9067 1.7352 7.3317
# 5 35.5280 15.6366 39.0607 1.7352 56.1013 -3.9966
# 6 -24.9451 -21.3643 -9.0744 7.3317 -3.9966 48.5715
#
#
#
# Elastic Compliance Matrix: (Units=1/GPa)
#
#
# Indices 1 2 3 4 5 6 
#
# 1 0.009786 -0.002294 -0.002192 0.001819 -0.003873 0.003014
# 2 -0.002294 0.012504 0.000387 -0.003338 -0.001861 0.004745
# 3 -0.002192 0.000387 0.008709 -0.002509 -0.004658 0.000667
# 4 0.001819 -0.003338 -0.002509 0.034171 0.000030 -0.006159
# 5 -0.003873 -0.001861 -0.004658 0.000030 0.023917 -0.001715
# 6 0.003014 0.004745 0.000667 -0.006159 -0.001715 0.025137
#
#
# Mechanical properties :
#
#
# Convention : Reuss Voigt Hill
#
# Bulk Modulus (GPa) = 43.85423 68.47956 56.16690
# Shear Modulus (GPa) = 38.45563 46.38756 42.42160
#
# Velocity S-wave (km/s) = 4.02949 4.42558 4.23217
# Velocity P-wave (km/s) = 6.33760 7.41808 6.89902
#
# Compressibility (1/GPa) = 0.02280282
#
# Stress axis : x y z
#
# Youngs Moduli (GPa) = 102.19174 79.97134 114.82801
#
# Poissons Ratio (x) = 0.18343 0.25166
# Poissons Ratio (y) = 0.23439 -0.04448
# Poissons Ratio (z) = 0.22397 -0.03098
#
# Static dielectric constant tensor:
#      x y z
#    x 2.045380 -0.066320 -0.077220 
#    y -0.066320 2.137480 -0.033890 
#    z -0.077220 -0.033890 2.039140 
# 
# From -- ./inp_files/13669.got.cif
#   From: 2010.05.17/outbox.cif.g08.bks.cpg/sg2_7_cif.got.tgz:13669.got - 2010.06.03 11:33:40.
