data_PCOD9030712
_publ_section_title
;
Structure prediction by ZEFSAII (Michael W. Deem and Ramdas Pophale) SiO2 
 PCOD9030712
Probable space group: P -1
;
_chemical_formula_sum "Si O2"
_cell_formula_units_Z 14
_cell_length_a 5.079472
_cell_length_b 16.836260
_cell_length_c 7.477922
_cell_angle_alpha 56.001056
_cell_angle_beta 83.666208
_cell_angle_gamma 73.595675
_cell_volume 507.687681
_symmetry_space_group_name_H-M "P -1"
_symmetry_group_IT_number 2
_symmetry_cell_setting 'triclinic'
loop_
_space_group_symop_operation_xyz
x,y,z
-x,-y,-z
loop_
_atom_site_type_symbol
_atom_site_label
_atom_site_fract_x
_atom_site_fract_y
_atom_site_fract_z
Si Si1 0.578853 0.230251 0.677902
Si Si2 0.745981 0.558468 0.560188
Si Si3 0.823274 0.994139 0.308761
Si Si4 0.825083 0.894089 0.080853
Si Si5 0.282075 0.838485 0.649543
Si Si6 0.729481 0.359440 0.996868
Si Si7 0.169105 0.388397 0.163770
O O1 0.497265 0.346750 0.597164
O O2 0.889641 0.177814 0.774370
O O3 0.564861 0.206507 0.491361
O O4 0.374657 0.174687 0.857843
O O5 0.881611 0.620747 0.613940
O O6 0.000000 0.500000 0.500000
O O7 0.662048 0.460866 0.761228
O O8 0.639162 0.075560 0.351919
O O9 0.701246 0.964248 0.172761
O O10 0.979724 0.895708 0.528374
O O11 0.067768 0.041690 0.156780
O O12 0.292268 0.750933 0.902953
O O13 0.484067 0.386998 0.124495
O O14 0.031395 0.334856 0.095943
O O15 0.000000 0.500000 0.000000
#
# Coordination Sequence:
#
# PCOD9030712 Si02
#       7
#     2   2   2   2   2   2   2
#     4  11  25  43  70  99 137 180 222 270 339 400
#     4  11  25  44  68 104 137 180 223 278 329 406
#     4   9  22  44  72 101 134 174 227 280 338 394
#     4  10  24  47  69 100 139 174 218 283 339 398
#     4  10  22  42  73 102 131 179 228 276 332 403
#     4  11  24  45  68  98 136 178 221 275 331 398
#     4  10  22  43  68  91 133 179 218 270 330 388
#
# _framework density 27.57601
#
# number of rings (size 3 to 8) (size 9 to 14) (size 15 to 20)
#    0.000    1.714    1.429    1.714    6.000    6.857 
#    5.143   14.286    0.000    0.000    0.000    0.000 
#    0.000    0.000    0.000    0.000    0.000    0.000 
#
# Total GULP energy -78123.446365 kJ/mol
# GULP energy per Si atom -5580.246169 kJ/mol
# Density = 2.751325 g / cm^3
# Si number density = 27.576010 Si / 1000 Ang^3
#
#
#
# Elastic Constant Matrix: (Units=GPa)
#
#
# Indices 1 2 3 4 5 6 
#
# 1 85.1941 24.8278 23.0355 -6.0147 -20.3600 4.9746
# 2 24.8278 189.0216 52.1073 -22.5561 -7.9770 -5.8286
# 3 23.0355 52.1073 93.9417 -37.5635 -9.1291 -5.6876
# 4 -6.0147 -22.5561 -37.5635 60.0438 6.9635 -3.9967
# 5 -20.3600 -7.9770 -9.1291 6.9635 35.0345 -1.6287
# 6 4.9746 -5.8286 -5.6876 -3.9967 -1.6287 33.2839
#
#
#
# Elastic Compliance Matrix: (Units=1/GPa)
#
#
# Indices 1 2 3 4 5 6 
#
# 1 0.014813 -0.001042 -0.003291 -0.002058 0.007791 -0.002825
# 2 -0.001042 0.006342 -0.003043 0.000428 -0.000003 0.000798
# 3 -0.003291 -0.003043 0.017221 0.009551 0.000172 0.004057
# 4 -0.002058 0.000428 0.009551 0.023244 -0.003013 0.004658
# 5 0.007791 -0.000003 0.000172 -0.003013 0.033722 0.000153
# 6 -0.002825 0.000798 0.004057 0.004658 0.000153 0.031867
#
#
# Mechanical properties :
#
#
# Convention : Reuss Voigt Hill
#
# Bulk Modulus (GPa) = 42.33114 63.12205 52.72659
# Shear Modulus (GPa) = 33.37010 43.55156 38.46083
#
# Velocity S-wave (km/s) = 3.48244 3.97839 3.73865
# Velocity P-wave (km/s) = 5.61729 6.63651 6.14806
#
# Compressibility (1/GPa) = 0.02362327
#
# Stress axis : x y z
#
# Youngs Moduli (GPa) = 67.50736 157.68709 58.06825
#
# Poissons Ratio (x) = 0.16437 0.19110
# Poissons Ratio (y) = 0.07037 0.17670
# Poissons Ratio (z) = 0.22217 0.47984
#
# Static dielectric constant tensor:
#      x y z
#    x 2.759860 0.057880 0.336660 
#    y 0.057880 2.202350 0.102630 
#    z 0.336660 0.102630 2.465550 
# 
# From -- ./inp_files/138691.got.cif
#   From: 2010.05.17/outbox.cif.g08.bks.cpg/sg2_70_cif.got.tgz:138691.got - 2010.06.03 11:33:40.
