data_PCOD9030764
_publ_section_title
;
Structure prediction by ZEFSAII (Michael W. Deem and Ramdas Pophale) SiO2 
 PCOD9030764
Probable space group: P -1
;
_chemical_formula_sum "Si O2"
_cell_formula_units_Z 13
_cell_length_a 10.955801
_cell_length_b 11.805126
_cell_length_c 8.509407
_cell_angle_alpha 62.135834
_cell_angle_beta 67.994899
_cell_angle_gamma 115.929306
_cell_volume 599.599990
_symmetry_space_group_name_H-M "P -1"
_symmetry_group_IT_number 2
_symmetry_cell_setting 'triclinic'
loop_
_space_group_symop_operation_xyz
x,y,z
-x,-y,-z
loop_
_atom_site_type_symbol
_atom_site_label
_atom_site_fract_x
_atom_site_fract_y
_atom_site_fract_z
Si Si1 0.652201 0.994704 0.458409
Si Si2 0.459936 0.264790 0.590120
Si Si3 0.974374 0.266148 0.364975
Si Si4 0.376083 0.638059 0.051855
Si Si5 0.319952 0.774694 0.275960
Si Si6 0.000000 0.000000 0.500000
Si Si7 0.647105 0.655427 0.111017
O O1 0.668651 0.913474 0.353319
O O2 0.500000 0.000000 0.500000
O O3 0.551475 0.834633 0.745824
O O4 0.857775 0.192581 0.303382
O O5 0.607236 0.271694 0.596892
O O6 0.578594 0.463624 0.315809
O O7 0.345489 0.253757 0.792854
O O8 0.201208 0.472904 0.127475
O O9 0.953633 0.104886 0.536810
O O10 0.856308 0.270304 0.540923
O O11 0.285851 0.668056 0.205132
O O12 0.474131 0.590270 0.126665
O O13 0.500000 0.000000 0.000000
O O14 0.151184 0.184892 0.185484
#
# Coordination Sequence:
#
# PCOD9030764 Si02
#       7
#     2   2   2   2   2   1   2
#     4  12  23  43  67 100 138 177 228 294 345 412
#     4  10  22  42  74 100 139 180 230 296 344 403
#     4  12  25  40  69 101 131 185 234 275 352 413
#     4  11  24  43  72  97 138 184 232 289 343 418
#     4  11  20  46  72  99 137 183 233 288 350 413
#     4  12  24  44  70 100 134 188 234 276 344 422
#     4  10  23  46  72  99 139 185 235 289 345 410
#
# _framework density 21.68112
#
# number of rings (size 3 to 8) (size 9 to 14) (size 15 to 20)
#    0.000    0.923    4.615    2.308    2.154    1.846 
#    2.769    0.769   10.154    0.000    0.000    0.000 
#    0.000    0.000    0.000    0.000    0.000    0.000 
#
# Total GULP energy -72453.769609 kJ/mol
# GULP energy per Si atom -5573.366893 kJ/mol
# Density = 2.163177 g / cm^3
# Si number density = 21.681120 Si / 1000 Ang^3
#
#
#
# Elastic Constant Matrix: (Units=GPa)
#
#
# Indices 1 2 3 4 5 6 
#
# 1 83.7994 49.4402 45.0051 -7.5647 20.1246 -8.5650
# 2 49.4402 152.6674 37.1053 4.0139 -8.5836 13.2997
# 3 45.0051 37.1053 113.5907 8.1594 4.9663 5.4695
# 4 -7.5647 4.0139 8.1594 32.0193 -7.7007 -5.4528
# 5 20.1246 -8.5836 4.9663 -7.7007 27.2083 -10.5396
# 6 -8.5650 13.2997 5.4695 -5.4528 -10.5396 37.7852
#
#
#
# Elastic Compliance Matrix: (Units=1/GPa)
#
#
# Indices 1 2 3 4 5 6 
#
# 1 0.025956 -0.008163 -0.007663 0.006286 -0.016169 0.006263
# 2 -0.008163 0.009974 -0.000013 -0.002069 0.007186 -0.003653
# 3 -0.007663 -0.000013 0.012457 -0.005696 0.000101 -0.004330
# 4 0.006286 -0.002069 -0.005696 0.039181 0.011403 0.011813
# 5 -0.016169 0.007186 0.000101 0.011403 0.058772 0.011830
# 6 0.006263 -0.003653 -0.004330 0.011813 0.011830 0.034802
#
#
# Mechanical properties :
#
#
# Convention : Reuss Voigt Hill
#
# Bulk Modulus (GPa) = 59.85448 68.12875 63.99162
# Shear Modulus (GPa) = 22.89481 33.96969 28.43225
#
# Velocity S-wave (km/s) = 3.25311 3.96256 3.62523
# Velocity P-wave (km/s) = 6.46351 7.24066 6.86309
#
# Compressibility (1/GPa) = 0.01670719
#
# Stress axis : x y z
#
# Youngs Moduli (GPa) = 38.52731 100.26451 80.27341
#
# Poissons Ratio (x) = 0.81845 0.61517
# Poissons Ratio (y) = 0.31450 0.00108
# Poissons Ratio (z) = 0.29525 0.00134
#
# Static dielectric constant tensor:
#      x y z
#    x 1.826010 -0.022560 0.000850 
#    y -0.022560 1.844350 0.002210 
#    z 0.000850 0.002210 1.726900 
# 
# From -- ./inp_files/256853.got.cif
#   From: 2010.05.17/outbox.cif.g08.bks.cpg/sg2_129_cif.got.tgz:256853.got - 2010.06.03 11:33:40.
