data_PCOD9030396
_publ_section_title
;
Structure prediction by ZEFSAII (Michael W. Deem and Ramdas Pophale) SiO2 
 PCOD9030396
Probable space group: P -1
;
_chemical_formula_sum "Si O2"
_cell_formula_units_Z 12
_cell_length_a 10.651908
_cell_length_b 12.127393
_cell_length_c 9.039260
_cell_angle_alpha 49.561202
_cell_angle_beta 101.561367
_cell_angle_gamma 139.072657
_cell_volume 473.887002
_symmetry_space_group_name_H-M "P -1"
_symmetry_group_IT_number 2
_symmetry_cell_setting 'triclinic'
loop_
_space_group_symop_operation_xyz
x,y,z
-x,-y,-z
loop_
_atom_site_type_symbol
_atom_site_label
_atom_site_fract_x
_atom_site_fract_y
_atom_site_fract_z
Si Si1 0.101962 0.289901 0.624393
Si Si2 0.873474 0.227678 0.236009
Si Si3 0.690936 0.107792 0.613427
Si Si4 0.339379 0.523751 0.089390
Si Si5 0.507937 0.142196 0.763663
Si Si6 0.245268 0.291112 0.962585
O O1 0.355746 0.590637 0.369026
O O2 0.143332 0.279568 0.810880
O O3 0.929779 0.262344 0.593164
O O4 0.950875 0.011795 0.767283
O O5 0.708793 0.105951 0.443141
O O6 0.071672 0.299938 0.268940
O O7 0.738804 0.056428 0.202442
O O8 0.000000 0.500000 0.000000
O O9 0.656804 0.226548 0.583517
O O10 0.479703 0.806747 0.882749
O O11 0.516592 0.568795 0.151026
O O12 0.313489 0.457589 0.968298
O O13 0.500000 0.000000 0.000000
#
# Coordination Sequence:
#
# PCOD9030396 Si02
#       6
#     2   2   2   2   2   2
#     4  10  22  42  70  97 140 180 225 277 356 392
#     4  12  25  42  70 104 137 183 231 283 350 411
#     4  11  24  44  70 101 140 178 228 294 342 404
#     4  10  22  44  72  97 139 175 244 272 344 409
#     4  12  26  43  69 106 139 180 229 290 351 407
#     4   9  21  44  71 100 136 188 222 292 326 417
#
# _framework density 25.322493000000001
#
# number of rings (size 3 to 8) (size 9 to 14) (size 15 to 20)
#    0.000    1.333    1.667    3.000    4.667    0.000 
#    0.000   15.000    0.000    0.000    0.000    0.000 
#    0.000    0.000    0.000    0.000    0.000    0.000 
#
# Total GULP energy -67133.547390 kJ/mol
# GULP energy per Si atom -5594.462282 kJ/mol
# Density = 2.526486 g / cm^3
# Si number density = 25.322493 Si / 1000 Ang^3
#
#
#
# Elastic Constant Matrix: (Units=GPa)
#
#
# Indices 1 2 3 4 5 6 
#
# 1 62.8070 29.1098 14.5517 2.8403 -18.7358 -2.1305
# 2 29.1098 137.9463 25.7324 -22.1500 -1.3944 19.6229
# 3 14.5517 25.7324 101.7880 -2.2704 1.0172 3.2150
# 4 2.8403 -22.1500 -2.2704 48.5098 -4.0030 3.5245
# 5 -18.7358 -1.3944 1.0172 -4.0030 36.0050 0.5979
# 6 -2.1305 19.6229 3.2150 3.5245 0.5979 45.8861
#
#
#
# Elastic Compliance Matrix: (Units=1/GPa)
#
#
# Indices 1 2 3 4 5 6 
#
# 1 0.022423 -0.005217 -0.002179 -0.003135 0.011121 0.003521
# 2 -0.005217 0.010121 -0.001531 0.005071 -0.001636 -0.004831
# 3 -0.002179 -0.001531 0.010538 -0.000192 -0.001510 -0.000151
# 4 -0.003135 0.005071 -0.000192 0.023507 0.001252 -0.004123
# 5 0.011121 -0.001636 -0.001510 0.001252 0.033666 0.000787
# 6 0.003521 -0.004831 -0.000151 -0.004123 0.000787 0.024340
#
#
# Mechanical properties :
#
#
# Convention : Reuss Voigt Hill
#
# Bulk Modulus (GPa) = 39.63747 49.03659 44.33703
# Shear Modulus (GPa) = 33.14354 41.62333 37.38344
#
# Velocity S-wave (km/s) = 3.62174 4.05869 3.84643
# Velocity P-wave (km/s) = 5.75989 6.43202 6.10521
#
# Compressibility (1/GPa) = 0.02522865
#
# Stress axis : x y z
#
# Youngs Moduli (GPa) = 44.59628 98.80789 94.89137
#
# Poissons Ratio (x) = 0.51551 0.20677
# Poissons Ratio (y) = 0.23267 0.14524
# Poissons Ratio (z) = 0.09718 0.15124
#
# Static dielectric constant tensor:
#      x y z
#    x 1.984410 0.052680 -0.060060 
#    y 0.052680 1.983570 0.001350 
#    z -0.060060 0.001350 2.034100 
# 
# From -- ./inp_files/36727.got.cif
#   From: 2010.05.17/outbox.cif.g08.bks.cpg/sg2_19_cif.got.tgz:36727.got - 2010.06.03 11:33:40.
