data_PCOD9030248
_publ_section_title
;
Structure prediction by ZEFSAII (Michael W. Deem and Ramdas Pophale) SiO2 
 PCOD9030248
Probable space group: P -1
;
_chemical_formula_sum "Si O2"
_cell_formula_units_Z 14
_cell_length_a 11.798153
_cell_length_b 25.407893
_cell_length_c 14.313964
_cell_angle_alpha 162.963395
_cell_angle_beta 29.783595
_cell_angle_gamma 146.633615
_cell_volume 624.032720
_symmetry_space_group_name_H-M "P -1"
_symmetry_group_IT_number 2
_symmetry_cell_setting 'triclinic'
loop_
_space_group_symop_operation_xyz
x,y,z
-x,-y,-z
loop_
_atom_site_type_symbol
_atom_site_label
_atom_site_fract_x
_atom_site_fract_y
_atom_site_fract_z
Si Si1 0.355464 0.154018 0.267153
Si Si2 0.953338 0.892322 0.045945
Si Si3 0.150078 0.387430 0.512869
Si Si4 0.169263 0.854016 0.581987
Si Si5 0.442228 0.720056 0.839212
Si Si6 0.375768 0.138965 0.613533
Si Si7 0.231324 0.091068 0.446377
O O1 0.412604 0.301983 0.397865
O O2 0.234338 0.194226 0.520192
O O3 0.602144 0.072935 0.972574
O O4 0.194059 0.997206 0.068543
O O5 0.841662 0.824248 0.105672
O O6 0.799755 0.048397 0.373861
O O7 0.946896 0.723650 0.694763
O O8 0.221892 0.589388 0.780627
O O9 0.391136 0.311379 0.246220
O O10 0.974975 0.332985 0.628291
O O11 0.396190 0.823202 0.425751
O O12 0.000000 0.000000 0.000000
O O13 0.375580 0.924287 0.236004
O O14 0.345383 0.208725 0.648630
O O15 0.000000 0.000000 0.500000
#
# Coordination Sequence:
#
# PCOD9030248 Si02
#       7
#     2   2   2   2   2   2   2
#     4  10  20  35  58  80 111 142 185 224 274 310
#     4  11  19  33  55  84 107 143 178 228 266 328
#     4  10  19  32  53  76 115 143 175 209 286 327
#     4  10  17  32  51  79 106 144 176 219 265 327
#     4  10  19  34  51  80 109 149 169 221 273 333
#     4  11  20  33  57  80 109 138 189 223 268 316
#     4  10  19  34  56  85 103 141 189 235 256 313
#
# _framework density 22.434721
#
# number of rings (size 3 to 8) (size 9 to 14) (size 15 to 20)
#    0.000    1.714    5.714    3.000    0.000    0.000 
#    0.000    2.143    0.000   14.571    0.000    0.000 
#    0.000    0.000    0.000    0.000    0.000    0.000 
#
# Total GULP energy -78030.741219 kJ/mol
# GULP energy per Si atom -5573.624373 kJ/mol
# Density = 2.238366 g / cm^3
# Si number density = 22.434721 Si / 1000 Ang^3
#
#
#
# Elastic Constant Matrix: (Units=GPa)
#
#
# Indices 1 2 3 4 5 6 
#
# 1 83.4792 19.7820 5.5741 -6.3322 9.3969 2.5954
# 2 19.7820 112.1951 15.9637 5.0265 0.7037 15.9997
# 3 5.5741 15.9637 13.7262 -7.8165 -0.8443 1.3500
# 4 -6.3322 5.0265 -7.8165 32.1957 4.7296 6.8770
# 5 9.3969 0.7037 -0.8443 4.7296 13.9968 -11.6780
# 6 2.5954 15.9997 1.3500 6.8770 -11.6780 40.5760
#
#
#
# Elastic Compliance Matrix: (Units=1/GPa)
#
#
# Indices 1 2 3 4 5 6 
#
# 1 0.015272 -0.001915 -0.000246 0.007361 -0.018264 -0.006718
# 2 -0.001915 0.012357 -0.016272 -0.005175 -0.001774 -0.003842
# 3 -0.000246 -0.016272 0.109535 0.030961 -0.006480 -0.004325
# 4 0.007361 -0.005175 0.030961 0.049697 -0.034459 -0.017801
# 5 -0.018264 -0.001774 -0.006480 -0.034459 0.133786 0.046428
# 6 -0.006718 -0.003842 -0.004325 -0.017801 0.046428 0.043113
#
#
# Mechanical properties :
#
#
# Convention : Reuss Voigt Hill
#
# Bulk Modulus (GPa) = 9.97016 32.44888 21.20952
# Shear Modulus (GPa) = 11.51923 28.55908 20.03915
#
# Velocity S-wave (km/s) = 2.26841 3.57176 2.99192
# Velocity P-wave (km/s) = 3.36373 5.61294 4.62708
#
# Compressibility (1/GPa) = 0.10029930
#
# Stress axis : x y z
#
# Youngs Moduli (GPa) = 65.47782 80.92727 9.12952
#
# Poissons Ratio (x) = 0.15498 0.00224
# Poissons Ratio (y) = 0.12540 0.14855
# Poissons Ratio (z) = 0.01609 1.31681
#
# Static dielectric constant tensor:
#      x y z
#    x 2.002860 -0.074040 0.004300 
#    y -0.074040 1.898470 -0.032270 
#    z 0.004300 -0.032270 1.847460 
# 
# From -- ./inp_files/311568.got.cif
#   From: 2010.05.17/outbox.cif.g08.bks.cpg/sg2_156_cif.got.tgz:311568.got - 2010.06.03 11:33:40.
