data_PCOD9030379
_publ_section_title
;
Structure prediction by ZEFSAII (Michael W. Deem and Ramdas Pophale) SiO2 
 PCOD9030379
Probable space group: P -1
;
_chemical_formula_sum "Si O2"
_cell_formula_units_Z 16
_cell_length_a 5.958158
_cell_length_b 17.910877
_cell_length_c 20.780904
_cell_angle_alpha 19.127627
_cell_angle_beta 102.137707
_cell_angle_gamma 104.938586
_cell_volume 698.214268
_symmetry_space_group_name_H-M "P -1"
_symmetry_group_IT_number 2
_symmetry_cell_setting 'triclinic'
loop_
_space_group_symop_operation_xyz
x,y,z
-x,-y,-z
loop_
_atom_site_type_symbol
_atom_site_label
_atom_site_fract_x
_atom_site_fract_y
_atom_site_fract_z
Si Si1 0.303172 0.199339 0.023552
Si Si2 0.242828 0.315169 0.072325
Si Si3 0.504253 0.176469 0.619632
Si Si4 0.359813 0.624876 0.281544
Si Si5 0.883480 0.397196 0.371247
Si Si6 0.225506 0.983785 0.068570
Si Si7 0.617468 0.150905 0.325101
Si Si8 0.115134 0.056644 0.588162
O O1 0.231585 0.234656 0.063461
O O2 0.163169 0.019468 0.109919
O O3 0.526779 0.075134 0.144532
O O4 0.298142 0.445691 0.791024
O O5 0.443786 0.211512 0.208186
O O6 0.006681 0.194800 0.189788
O O7 0.276325 0.590909 0.854765
O O8 0.450175 0.384113 0.490539
O O9 0.761566 0.250358 0.543733
O O10 0.331449 0.151204 0.569886
O O11 0.122031 0.558832 0.278781
O O12 0.302152 0.746821 0.244339
O O13 0.559920 0.809273 0.107177
O O14 0.942162 0.233325 0.450592
O O15 0.000000 0.000000 0.000000
O O16 0.792273 0.994551 0.433734
O O17 0.500000 0.000000 0.500000
#
# Coordination Sequence:
#
# PCOD9030379 Si02
#       8
#     2   2   2   2   2   2   2   2
#     4  12  24  43  74  95 143 186 224 299 343 398
#     4  11  26  46  68 110 138 175 239 282 343 420
#     4  11  23  45  68 102 140 177 240 286 342 412
#     4  10  22  42  70  96 142 187 231 290 342 417
#     4  11  23  44  68 103 140 181 232 288 345 411
#     4  11  22  43  68 103 142 182 237 285 349 406
#     4  11  26  49  73 101 145 181 222 290 349 411
#     4  11  23  47  72 100 145 178 231 286 345 425
#
# _framework density 22.915603000000001
#
# number of rings (size 3 to 8) (size 9 to 14) (size 15 to 20)
#    0.000    1.000    5.000    0.375    3.500    2.000 
#    4.500    2.500    0.000    0.000    0.000    0.000 
#    0.000    0.000    0.000    0.000    0.000    0.000 
#
# Total GULP energy -89302.892636 kJ/mol
# GULP energy per Si atom -5581.430790 kJ/mol
# Density = 2.286345 g / cm^3
# Si number density = 22.915603 Si / 1000 Ang^3
#
#
#
# Elastic Constant Matrix: (Units=GPa)
#
#
# Indices 1 2 3 4 5 6 
#
# 1 78.0645 55.5495 46.2486 -22.2975 0.6252 -6.2501
# 2 55.5495 147.2985 50.8447 -13.2457 4.3373 -41.9750
# 3 46.2486 50.8447 141.4002 -25.5674 22.0281 -20.3839
# 4 -22.2975 -13.2457 -25.5674 42.1013 -6.5728 9.8010
# 5 0.6252 4.3373 22.0281 -6.5728 42.4652 -17.4210
# 6 -6.2501 -41.9750 -20.3839 9.8010 -17.4210 38.1259
#
#
#
# Elastic Compliance Matrix: (Units=1/GPa)
#
#
# Indices 1 2 3 4 5 6 
#
# 1 0.024655 -0.010577 -0.004159 0.010053 -0.000813 -0.012782
# 2 -0.010577 0.016236 -0.001460 -0.004926 0.006539 0.019614
# 3 -0.004159 -0.001460 0.010213 0.002742 -0.004494 0.000412
# 4 0.010053 -0.004926 0.002742 0.031592 -0.000562 -0.010687
# 5 -0.000813 0.006539 -0.004494 -0.000562 0.033363 0.020053
# 6 -0.012782 0.019614 0.000412 -0.010687 0.020053 0.057858
#
#
# Mechanical properties :
#
#
# Convention : Reuss Voigt Hill
#
# Bulk Modulus (GPa) = 53.44483 74.67208 64.05845
# Shear Modulus (GPa) = 23.52422 38.81318 31.16870
#
# Velocity S-wave (km/s) = 3.20747 4.11998 3.69202
# Velocity P-wave (km/s) = 6.09018 7.43564 6.79629
#
# Compressibility (1/GPa) = 0.01871088
#
# Stress axis : x y z
#
# Youngs Moduli (GPa) = 40.56014 61.59269 97.91463
#
# Poissons Ratio (x) = 0.65145 0.40723
# Poissons Ratio (y) = 0.42900 0.14300
# Poissons Ratio (z) = 0.16869 0.08995
#
# Static dielectric constant tensor:
#      x y z
#    x 1.874250 0.008200 0.050850 
#    y 0.008200 1.871800 0.013530 
#    z 0.050850 0.013530 1.868040 
# 
# From -- ./inp_files/584039.got.cif
#   From: 2010.05.17/outbox.cif.g08.bks.cpg/sg2_293_cif.got.tgz:584039.got - 2010.06.03 11:33:40.
