data_PCOD9030074
_publ_section_title
;
Structure prediction by ZEFSAII (Michael W. Deem and Ramdas Pophale) SiO2 
 PCOD9030074
Probable space group: P -1
;
_chemical_formula_sum "Si O2"
_cell_formula_units_Z 16
_cell_length_a 8.084650
_cell_length_b 12.526752
_cell_length_c 12.989045
_cell_angle_alpha 112.596792
_cell_angle_beta 142.253519
_cell_angle_gamma 50.558745
_cell_volume 602.184997
_symmetry_space_group_name_H-M "P -1"
_symmetry_group_IT_number 2
_symmetry_cell_setting 'triclinic'
loop_
_space_group_symop_operation_xyz
x,y,z
-x,-y,-z
loop_
_atom_site_type_symbol
_atom_site_label
_atom_site_fract_x
_atom_site_fract_y
_atom_site_fract_z
Si Si1 0.442403 0.385883 0.465710
Si Si2 0.833745 0.192389 0.408001
Si Si3 0.871999 0.371940 0.191516
Si Si4 0.428454 0.793907 0.067091
Si Si5 0.865005 0.119697 0.838843
Si Si6 0.419985 0.919125 0.509602
Si Si7 0.346490 0.164720 0.011004
Si Si8 0.717979 0.475145 0.364768
O O1 0.500000 0.500000 0.500000
O O2 0.681090 0.241971 0.465270
O O3 0.059106 0.442382 0.272704
O O4 0.510042 0.396376 0.622450
O O5 0.590111 0.183808 0.206979
O O6 0.835157 0.323844 0.415154
O O7 0.185195 0.038156 0.522559
O O8 0.223679 0.223434 0.341693
O O9 0.632815 0.464149 0.203238
O O10 0.675164 0.314326 0.026144
O O11 0.689994 0.763327 0.093199
O O12 0.438222 0.812332 0.202508
O O13 0.118580 0.953770 0.937613
O O14 0.777970 0.114968 0.676612
O O15 0.051106 0.197274 0.955012
O O16 0.500000 0.000000 0.500000
O O17 0.500000 0.000000 0.000000
O O18 0.000000 0.500000 0.500000
#
# Coordination Sequence:
#
# PCOD9030074 Si02
#       8
#     2   2   2   2   2   2   2   2
#     4   9  21  34  53  82 112 142 198 246 276 316
#     4  11  18  34  52  81 121 144 179 239 289 332
#     4  11  19  35  58  84 114 149 182 229 301 349
#     4  10  18  32  53  77 108 152 196 222 266 338
#     4  10  20  32  50  77 115 156 186 220 268 353
#     4  12  20  34  53  82 126 153 168 223 309 365
#     4  10  17  32  51  76 114 153 193 230 272 341
#     4   9  17  32  54  79 106 143 194 235 273 317
#
# _framework density 26.56991
#
# number of rings (size 3 to 8) (size 9 to 14) (size 15 to 20)
#    0.000    1.750    6.250    0.750    0.000    0.500 
#    0.000    1.250    0.000    0.000    0.000   28.000 
#    0.000    0.000    0.000    0.000    0.000    0.000 
#
# Total GULP energy -89230.774266 kJ/mol
# GULP energy per Si atom -5576.923392 kJ/mol
# Density = 2.650944 g / cm^3
# Si number density = 26.569910 Si / 1000 Ang^3
#
#
#
# Elastic Constant Matrix: (Units=GPa)
#
#
# Indices 1 2 3 4 5 6 
#
# 1 165.8863 62.7956 40.0822 25.0594 -11.5709 -15.8385
# 2 62.7956 127.5689 63.5075 19.6640 -9.0549 -5.9963
# 3 40.0822 63.5075 99.1195 24.5622 13.3960 -4.0539
# 4 25.0594 19.6640 24.5622 46.8510 3.3207 -2.1724
# 5 -11.5709 -9.0549 13.3960 3.3207 42.2356 28.1156
# 6 -15.8385 -5.9963 -4.0539 -2.1724 28.1156 54.0916
#
#
#
# Elastic Compliance Matrix: (Units=1/GPa)
#
#
# Indices 1 2 3 4 5 6 
#
# 1 0.007935 -0.002988 -0.000752 -0.002622 0.001161 0.001227
# 2 -0.002988 0.014236 -0.009044 -0.000379 0.007837 -0.004063
# 3 -0.000752 -0.009044 0.019254 -0.004748 -0.012077 0.006307
# 4 -0.002622 -0.000379 -0.004748 0.025564 -0.001852 0.000824
# 5 0.001161 0.007837 -0.012077 -0.001852 0.045105 -0.023216
# 6 0.001227 -0.004063 0.006307 0.000824 -0.023216 0.030969
#
#
# Mechanical properties :
#
#
# Convention : Reuss Voigt Hill
#
# Bulk Modulus (GPa) = 63.05960 80.59392 71.82676
# Shear Modulus (GPa) = 28.74946 43.71492 36.23219
#
# Velocity S-wave (km/s) = 3.29299 4.06060 3.69678
# Velocity P-wave (km/s) = 6.18412 7.23763 6.73152
#
# Compressibility (1/GPa) = 0.01585801
#
# Stress axis : x y z
#
# Youngs Moduli (GPa) = 126.02457 70.24556 51.93640
#
# Poissons Ratio (x) = 0.20987 0.03904
# Poissons Ratio (y) = 0.37651 0.46973
# Poissons Ratio (z) = 0.09472 0.63532
#
# Static dielectric constant tensor:
#      x y z
#    x 2.129200 0.023680 0.147970 
#    y 0.023680 2.130220 -0.024840 
#    z 0.147970 -0.024840 2.069020 
# 
# From -- ./inp_files/503119.got.cif
#   From: 2010.05.17/outbox.cif.g08.bks.cpg/sg2_252_cif.got.tgz:503119.got - 2010.06.03 11:33:40.
