data_PCOD9030926
_publ_section_title
;
Structure prediction by ZEFSAII (Michael W. Deem and Ramdas Pophale) SiO2 
 PCOD9030926
Probable space group: P -1
;
_chemical_formula_sum "Si O2"
_cell_formula_units_Z 12
_cell_length_a 16.319731
_cell_length_b 5.108426
_cell_length_c 7.917693
_cell_angle_alpha 110.457814
_cell_angle_beta 124.493616
_cell_angle_gamma 52.671331
_cell_volume 432.580479
_symmetry_space_group_name_H-M "P -1"
_symmetry_group_IT_number 2
_symmetry_cell_setting 'triclinic'
loop_
_space_group_symop_operation_xyz
x,y,z
-x,-y,-z
loop_
_atom_site_type_symbol
_atom_site_label
_atom_site_fract_x
_atom_site_fract_y
_atom_site_fract_z
Si Si1 0.198116 0.262561 0.236957
Si Si2 0.315766 0.675729 0.738392
Si Si3 0.578091 0.672915 0.905044
Si Si4 0.360873 0.542775 0.407337
Si Si5 0.805859 0.589074 0.265673
Si Si6 0.018810 0.675718 0.851848
O O1 0.264982 0.452185 0.325188
O O2 0.096000 0.343681 0.272758
O O3 0.295186 0.887738 0.309167
O O4 0.119749 0.351296 0.994919
O O5 0.385008 0.619563 0.981421
O O6 0.399533 0.565428 0.647940
O O7 0.245803 0.494087 0.651779
O O8 0.219144 0.049077 0.673628
O O9 0.707597 0.622122 0.025891
O O10 0.544470 0.699021 0.674270
O O11 0.500000 0.000000 0.000000
O O12 0.931654 0.337455 0.279275
O O13 0.000000 0.000000 0.000000
#
# Coordination Sequence:
#
# PCOD9030926 Si02
#       6
#     2   2   2   2   2   2
#     4  11  22  36  65  95 122 176 211 248 318 377
#     4  10  24  43  64  93 134 165 207 267 316 370
#     4  10  24  43  70  96 123 168 213 261 323 379
#     4  12  23  44  65  94 133 167 210 260 319 378
#     4  10  22  43  62  92 132 163 211 267 306 375
#     4  11  21  37  67  97 127 170 219 258 314 371
#
# _framework density 27.740501999999999
#
# number of rings (size 3 to 8) (size 9 to 14) (size 15 to 20)
#    1.000    0.333    3.333    2.000    4.667    1.333 
#    0.000    5.833    0.000    0.000    0.000    0.000 
#    0.000    0.000    0.000    0.000    0.000    0.000 
#
# Total GULP energy -67049.621488 kJ/mol
# GULP energy per Si atom -5587.468457 kJ/mol
# Density = 2.767736 g / cm^3
# Si number density = 27.740502 Si / 1000 Ang^3
#
#
#
# Elastic Constant Matrix: (Units=GPa)
#
#
# Indices 1 2 3 4 5 6 
#
# 1 140.8748 36.9996 37.8731 -13.2545 -40.5726 -15.5789
# 2 36.9996 114.8056 42.2865 -12.0101 -10.3856 28.2082
# 3 37.8731 42.2865 158.8295 -10.5061 -58.7196 -11.6924
# 4 -13.2545 -12.0101 -10.5061 26.6026 -12.5705 -12.5907
# 5 -40.5726 -10.3856 -58.7196 -12.5705 72.7287 4.9469
# 6 -15.5789 28.2082 -11.6924 -12.5907 4.9469 43.9757
#
#
#
# Elastic Compliance Matrix: (Units=1/GPa)
#
#
# Indices 1 2 3 4 5 6 
#
# 1 0.016492 -0.008547 0.007565 0.024043 0.016998 0.018308
# 2 -0.008547 0.016914 -0.008660 -0.013984 -0.010468 -0.019006
# 3 0.007565 -0.008660 0.016926 0.024060 0.019623 0.017416
# 4 0.024043 -0.013984 0.024060 0.095545 0.044208 0.046267
# 5 0.016998 -0.010468 0.019623 0.044208 0.043472 0.025721
# 6 0.018308 -0.019006 0.017416 0.046267 0.025721 0.056401
#
#
# Mechanical properties :
#
#
# Convention : Reuss Voigt Hill
#
# Bulk Modulus (GPa) = 32.20641 72.09204 52.14922
# Shear Modulus (GPa) = 18.15652 48.48478 33.32065
#
# Velocity S-wave (km/s) = 2.56112 4.18520 3.46953
# Velocity P-wave (km/s) = 4.51452 7.02844 5.90677
#
# Compressibility (1/GPa) = 0.03104972
#
# Stress axis : x y z
#
# Youngs Moduli (GPa) = 60.63705 59.12094 59.08043
#
# Poissons Ratio (x) = 0.50530 -0.44696
# Poissons Ratio (y) = 0.51826 0.51162
# Poissons Ratio (z) = -0.45874 0.51197
#
# Static dielectric constant tensor:
#      x y z
#    x 2.137690 0.001960 0.036880 
#    y 0.001960 2.082380 0.050540 
#    z 0.036880 0.050540 2.824140 
# 
# From -- ./inp_files/33349.got.cif
#   From: 2010.05.17/outbox.cif.g08.bks.cpg/sg2_17_cif.got.tgz:33349.got - 2010.06.03 11:33:40.
