data_PCOD9030868
_publ_section_title
;
Structure prediction by ZEFSAII (Michael W. Deem and Ramdas Pophale) SiO2 
 PCOD9030868
Probable space group: P -1
;
_chemical_formula_sum "Si O2"
_cell_formula_units_Z 14
_cell_length_a 8.265202
_cell_length_b 9.867313
_cell_length_c 9.602706
_cell_angle_alpha 50.182588
_cell_angle_beta 76.647501
_cell_angle_gamma 96.019131
_cell_volume 550.783063
_symmetry_space_group_name_H-M "P -1"
_symmetry_group_IT_number 2
_symmetry_cell_setting 'triclinic'
loop_
_space_group_symop_operation_xyz
x,y,z
-x,-y,-z
loop_
_atom_site_type_symbol
_atom_site_label
_atom_site_fract_x
_atom_site_fract_y
_atom_site_fract_z
Si Si1 0.786017 0.302098 0.078442
Si Si2 0.618623 0.689718 0.604819
Si Si3 0.047686 0.968480 0.746210
Si Si4 0.292084 0.759382 0.549976
Si Si5 0.737358 0.694693 0.875619
Si Si6 0.966504 0.653567 0.497137
Si Si7 0.531152 0.898165 0.920355
O O1 0.720438 0.211354 0.302933
O O2 0.652051 0.222274 0.033166
O O3 0.944346 0.222112 0.060853
O O4 0.800056 0.515285 0.969000
O O5 0.750400 0.899700 0.406720
O O6 0.435095 0.650726 0.589220
O O7 0.605815 0.677030 0.782899
O O8 0.756077 0.585549 0.608613
O O9 0.982417 0.133075 0.713477
O O10 0.913377 0.876768 0.707861
O O11 0.093684 0.667149 0.594568
O O12 0.375524 0.940493 0.317736
O O13 0.644088 0.754183 0.988786
O O14 0.000000 0.500000 0.500000
O O15 0.500000 0.000000 0.000000
#
# Coordination Sequence:
#
# PCOD9030868 Si02
#       7
#     2   2   2   2   2   2   2
#     4  12  25  44  74 111 138 196 254 292 361 454
#     4  10  22  42  78 103 138 197 254 287 366 441
#     4  10  22  43  72 103 140 194 245 301 367 428
#     4  12  23  47  79 100 144 198 248 294 366 443
#     4  12  23  45  69 108 150 187 247 311 353 436
#     4  10  24  44  69 113 150 183 244 311 375 428
#     4  12  25  45  70 104 150 188 238 315 372 419
#
# _framework density 25.418357
#
# number of rings (size 3 to 8) (size 9 to 14) (size 15 to 20)
#    0.857    0.000    4.286    3.429    0.000    1.714 
#    5.143    0.714    0.000    0.000    0.000    0.000 
#    0.000    0.000    0.000    0.000    0.000    0.000 
#
# Total GULP energy -78010.293006 kJ/mol
# GULP energy per Si atom -5572.163786 kJ/mol
# Density = 2.536050 g / cm^3
# Si number density = 25.418357 Si / 1000 Ang^3
#
#
#
# Elastic Constant Matrix: (Units=GPa)
#
#
# Indices 1 2 3 4 5 6 
#
# 1 158.3863 63.5623 6.2085 -8.5158 29.2944 -41.3588
# 2 63.5623 220.3416 51.5437 -10.5888 16.1215 -50.9161
# 3 6.2085 51.5437 37.1691 -20.1419 11.3056 -19.1707
# 4 -8.5158 -10.5888 -20.1419 23.8806 -8.9239 7.2720
# 5 29.2944 16.1215 11.3056 -8.9239 25.6786 -8.3478
# 6 -41.3588 -50.9161 -19.1707 7.2720 -8.3478 41.2439
#
#
#
# Elastic Compliance Matrix: (Units=1/GPa)
#
#
# Indices 1 2 3 4 5 6 
#
# 1 0.014016 -0.004213 0.021135 0.011457 -0.014186 0.013786
# 2 -0.004213 0.010181 -0.021277 -0.014166 0.003392 0.001637
# 3 0.021135 -0.021277 0.120721 0.080740 -0.025561 0.031630
# 4 0.011457 -0.014166 0.080740 0.103997 0.000756 0.013346
# 5 -0.014186 0.003392 -0.025561 0.000756 0.061384 -0.009629
# 6 0.013786 0.001637 0.031630 0.013346 -0.009629 0.050492
#
#
# Mechanical properties :
#
#
# Convention : Reuss Voigt Hill
#
# Bulk Modulus (GPa) = 7.34178 73.16956 40.25567
# Shear Modulus (GPa) = 12.05100 37.79946 24.92523
#
# Velocity S-wave (km/s) = 2.17976 3.86047 3.13485
# Velocity P-wave (km/s) = 3.03806 6.97994 5.38281
#
# Compressibility (1/GPa) = 0.13620679
#
# Stress axis : x y z
#
# Youngs Moduli (GPa) = 71.34869 98.22660 8.28354
#
# Poissons Ratio (x) = 0.41382 -0.17507
# Poissons Ratio (y) = 0.30059 0.17625
# Poissons Ratio (z) = -1.50795 2.09002
#
# Static dielectric constant tensor:
#      x y z
#    x 2.167870 -0.086930 -0.040300 
#    y -0.086930 1.992890 -0.056580 
#    z -0.040300 -0.056580 2.109590 
# 
# From -- ./inp_files/156862.got.cif
#   From: 2010.05.17/outbox.cif.g08.bks.cpg/sg2_79_cif.got.tgz:156862.got - 2010.06.03 11:33:40.
