data_PCOD9030633
_publ_section_title
;
Structure prediction by ZEFSAII (Michael W. Deem and Ramdas Pophale) SiO2 
 PCOD9030633
Probable space group: P -1
;
_chemical_formula_sum "Si O2"
_cell_formula_units_Z 14
_cell_length_a 10.753796
_cell_length_b 9.559063
_cell_length_c 7.964840
_cell_angle_alpha 89.193739
_cell_angle_beta 126.029358
_cell_angle_gamma 122.080463
_cell_volume 505.071473
_symmetry_space_group_name_H-M "P -1"
_symmetry_group_IT_number 2
_symmetry_cell_setting 'triclinic'
loop_
_space_group_symop_operation_xyz
x,y,z
-x,-y,-z
loop_
_atom_site_type_symbol
_atom_site_label
_atom_site_fract_x
_atom_site_fract_y
_atom_site_fract_z
Si Si1 0.420813 0.617037 0.433451
Si Si2 0.859391 0.316308 0.284907
Si Si3 0.500000 0.500000 0.000000
Si Si4 0.514557 0.794550 0.844765
Si Si5 0.172230 0.139681 0.379554
Si Si6 0.107455 0.242227 0.660007
Si Si7 0.000000 0.500000 0.000000
Si Si8 0.885421 0.184397 0.984141
O O1 0.500000 0.500000 0.500000
O O2 0.389766 0.652812 0.595839
O O3 0.625606 0.810350 0.527072
O O4 0.222432 0.541036 0.179852
O O5 0.629244 0.208083 0.144130
O O6 0.917290 0.343258 0.131732
O O7 0.000000 0.500000 0.500000
O O8 0.924056 0.204459 0.411592
O O9 0.278499 0.444253 0.863806
O O10 0.403683 0.297932 0.003257
O O11 0.687008 0.994145 0.899681
O O12 0.234576 0.261534 0.594692
O O13 0.062485 0.177966 0.159458
O O14 0.006534 0.933000 0.310708
O O15 0.112508 0.716543 0.175416
#
# Coordination Sequence:
#
# PCOD9030633 Si02
#       8
#     2   2   1   2   2   2   1   2
#     4  12  27  52  75 105 152 199 252 310 369 447
#     4  11  23  44  71 102 151 190 243 313 361 437
#     4  12  22  42  72 108 138 186 240 302 370 440
#     4  12  27  47  70 112 149 189 252 306 373 450
#     4  10  22  47  72 102 147 193 246 307 365 444
#     4  10  22  42  72 106 140 191 246 300 375 436
#     4  12  28  50  76 108 148 204 252 302 380 442
#     4  11  25  48  71 107 148 194 248 307 371 440
#
# _framework density 27.71885
#
# number of rings (size 3 to 8) (size 9 to 14) (size 15 to 20)
#    0.000    0.857    4.286    2.143    2.000    3.429 
#    7.714    0.000    0.000    0.000    0.000    0.000 
#    0.000    0.000    0.000    0.000    0.000    0.000 
#
# Total GULP energy -77948.311185 kJ/mol
# GULP energy per Si atom -5567.736513 kJ/mol
# Density = 2.765576 g / cm^3
# Si number density = 27.718850 Si / 1000 Ang^3
#
#
#
# Elastic Constant Matrix: (Units=GPa)
#
#
# Indices 1 2 3 4 5 6 
#
# 1 122.9701 23.3424 45.5386 4.3631 10.5707 24.4566
# 2 23.3424 212.1297 37.6638 -0.2785 32.5787 6.8834
# 3 45.5386 37.6638 79.8975 -10.0966 29.2321 4.0761
# 4 4.3631 -0.2785 -10.0966 43.1936 1.0712 20.4804
# 5 10.5707 32.5787 29.2321 1.0712 56.6001 17.5682
# 6 24.4566 6.8834 4.0761 20.4804 17.5682 41.3680
#
#
#
# Elastic Compliance Matrix: (Units=1/GPa)
#
#
# Indices 1 2 3 4 5 6 
#
# 1 0.012616 -0.000389 -0.008216 0.001043 0.004948 -0.009202
# 2 -0.000389 0.005382 -0.001527 -0.000625 -0.002489 0.000852
# 3 -0.008216 -0.001527 0.022025 0.003477 -0.010835 0.005821
# 4 0.001043 -0.000625 0.003477 0.032503 0.003472 -0.018421
# 5 0.004948 -0.002489 -0.010835 0.003472 0.028436 -0.015239
# 6 -0.009202 0.000852 0.005821 -0.018421 -0.015239 0.044490
#
#
# Mechanical properties :
#
#
# Convention : Reuss Voigt Hill
#
# Bulk Modulus (GPa) = 50.61133 69.78742 60.19938
# Shear Modulus (GPa) = 29.01843 48.79583 38.90713
#
# Velocity S-wave (km/s) = 3.23907 4.20025 3.75058
# Velocity P-wave (km/s) = 5.68218 6.98243 6.36559
#
# Compressibility (1/GPa) = 0.01975842
#
# Stress axis : x y z
#
# Youngs Moduli (GPa) = 79.26157 185.81024 45.40234
#
# Poissons Ratio (x) = 0.07235 0.37304
# Poissons Ratio (y) = 0.03086 0.06932
# Poissons Ratio (z) = 0.65124 0.28370
#
# Static dielectric constant tensor:
#      x y z
#    x 2.256300 0.035810 0.056120 
#    y 0.035810 2.414140 0.022510 
#    z 0.056120 0.022510 2.761790 
# 
# From -- ./inp_files/258297.got.cif
#   From: 2010.05.17/outbox.cif.g08.bks.cpg/sg2_130_cif.got.tgz:258297.got - 2010.06.03 11:33:40.
