data_PCOD9030537
_publ_section_title
;
Structure prediction by ZEFSAII (Michael W. Deem and Ramdas Pophale) SiO2 
 PCOD9030537
Probable space group: P -1
;
_chemical_formula_sum "Si O2"
_cell_formula_units_Z 14
_cell_length_a 12.114117
_cell_length_b 13.236879
_cell_length_c 10.791483
_cell_angle_alpha 111.929122
_cell_angle_beta 87.977884
_cell_angle_gamma 31.983839
_cell_volume 593.141345
_symmetry_space_group_name_H-M "P -1"
_symmetry_group_IT_number 2
_symmetry_cell_setting 'triclinic'
loop_
_space_group_symop_operation_xyz
x,y,z
-x,-y,-z
loop_
_atom_site_type_symbol
_atom_site_label
_atom_site_fract_x
_atom_site_fract_y
_atom_site_fract_z
Si Si1 0.819644 0.167748 0.789389
Si Si2 0.105143 0.034685 0.930591
Si Si3 0.170810 0.136596 0.763354
Si Si4 0.910101 0.830049 0.615000
Si Si5 0.630628 0.817298 0.292478
Si Si6 0.282067 0.545341 0.234257
Si Si7 0.270486 0.466295 0.683657
O O1 0.046649 0.996492 0.811414
O O2 0.853900 0.212552 0.687154
O O3 0.818245 0.040790 0.716277
O O4 0.500000 0.500000 0.000000
O O5 0.367262 0.766804 0.893609
O O6 0.807514 0.349970 0.157454
O O7 0.216762 0.032970 0.841908
O O8 0.227582 0.212793 0.801224
O O9 0.834035 0.421596 0.860197
O O10 0.397323 0.869388 0.532786
O O11 0.136606 0.622435 0.395240
O O12 0.073202 0.649904 0.652524
O O13 0.637187 0.998792 0.681505
O O14 0.818498 0.548661 0.225158
O O15 0.500000 0.000000 0.500000
#
# Coordination Sequence:
#
# PCOD9030537 Si02
#       7
#     2   2   2   2   2   2   2
#     4  11  26  43  66  99 135 177 223 277 331 400
#     4  11  25  45  68 101 138 173 226 276 332 398
#     4  10  23  46  70  98 134 179 226 274 333 397
#     4  12  23  41  70 100 131 177 227 270 336 398
#     4  10  22  42  71  97 134 180 220 275 335 396
#     4  11  23  44  68  98 135 173 223 276 331 398
#     4  11  23  41  70  97 133 180 218 275 331 395
#
# _framework density 23.603144
#
# number of rings (size 3 to 8) (size 9 to 14) (size 15 to 20)
#    0.000    1.143    4.286    2.143    0.000    9.143 
#    0.000    1.429    0.000    0.000    0.000    0.000 
#    0.000    0.000    0.000    0.000    0.000    0.000 
#
# Total GULP energy -78246.851200 kJ/mol
# GULP energy per Si atom -5589.060800 kJ/mol
# Density = 2.354942 g / cm^3
# Si number density = 23.603144 Si / 1000 Ang^3
#
#
#
# Elastic Constant Matrix: (Units=GPa)
#
#
# Indices 1 2 3 4 5 6 
#
# 1 106.8074 25.6182 12.6292 12.3229 -7.0590 5.4849
# 2 25.6182 125.9040 6.6824 -0.9286 -15.9603 -12.5383
# 3 12.6292 6.6824 68.9634 6.5955 6.3288 -1.2220
# 4 12.3229 -0.9286 6.5955 31.2629 10.3027 -7.0870
# 5 -7.0590 -15.9603 6.3288 10.3027 27.5208 -11.2156
# 6 5.4849 -12.5383 -1.2220 -7.0870 -11.2156 33.1661
#
#
#
# Elastic Compliance Matrix: (Units=1/GPa)
#
#
# Indices 1 2 3 4 5 6 
#
# 1 0.011064 -0.002131 -0.001593 -0.005713 0.002913 -0.002930
# 2 -0.002131 0.010227 -0.001275 0.000224 0.008482 0.007088
# 3 -0.001593 -0.001275 0.015467 -0.001448 -0.004808 -0.001584
# 4 -0.005713 0.000224 -0.001448 0.040297 -0.014128 0.004809
# 5 0.002913 0.008482 -0.004808 -0.014128 0.055910 0.018436
# 6 -0.002930 0.007088 -0.001584 0.004809 0.018436 0.040519
#
#
# Mechanical properties :
#
#
# Convention : Reuss Voigt Hill
#
# Bulk Modulus (GPa) = 37.36857 43.50382 40.43619
# Shear Modulus (GPa) = 25.98737 35.50629 30.74683
#
# Velocity S-wave (km/s) = 3.32175 3.88274 3.61315
# Velocity P-wave (km/s) = 5.52978 6.21066 5.88008
#
# Compressibility (1/GPa) = 0.02676046
#
# Stress axis : x y z
#
# Youngs Moduli (GPa) = 90.38130 97.78407 64.65265
#
# Poissons Ratio (x) = 0.20842 0.10296
# Poissons Ratio (y) = 0.19265 0.08242
# Poissons Ratio (z) = 0.14393 0.12466
#
# Static dielectric constant tensor:
#      x y z
#    x 1.898310 0.019860 -0.016020 
#    y 0.019860 1.865730 -0.017640 
#    z -0.016020 -0.017640 1.993830 
# 
# From -- ./inp_files/428543.got.cif
#   From: 2010.05.17/outbox.cif.g08.bks.cpg/sg2_215_cif.got.tgz:428543.got - 2010.06.03 11:33:40.
