data_PCOD9030575
_publ_section_title
;
Structure prediction by ZEFSAII (Michael W. Deem and Ramdas Pophale) SiO2 
 PCOD9030575
Probable space group: P -1
;
_chemical_formula_sum "Si O2"
_cell_formula_units_Z 16
_cell_length_a 12.983777
_cell_length_b 31.567508
_cell_length_c 9.222643
_cell_angle_alpha 30.032679
_cell_angle_beta 47.395924
_cell_angle_gamma 28.011485
_cell_volume 824.827853
_symmetry_space_group_name_H-M "P -1"
_symmetry_group_IT_number 2
_symmetry_cell_setting 'triclinic'
loop_
_space_group_symop_operation_xyz
x,y,z
-x,-y,-z
loop_
_atom_site_type_symbol
_atom_site_label
_atom_site_fract_x
_atom_site_fract_y
_atom_site_fract_z
Si Si1 0.014778 0.578457 0.344965
Si Si2 0.293934 0.564083 0.906803
Si Si3 0.851327 0.875922 0.272883
Si Si4 0.971643 0.912744 0.754182
Si Si5 0.482249 0.128043 0.420067
Si Si6 0.786330 0.579775 0.071353
Si Si7 0.491557 0.103504 0.158917
Si Si8 0.524004 0.402441 0.860658
O O1 0.127246 0.506367 0.607588
O O2 0.000000 0.500000 0.500000
O O3 0.165988 0.562000 0.142233
O O4 0.758580 0.746318 0.111595
O O5 0.407696 0.471993 0.923428
O O6 0.084472 0.728840 0.567636
O O7 0.500000 0.500000 0.000000
O O8 0.675681 0.881149 0.391588
O O9 0.700675 0.011466 0.118055
O O10 0.933193 0.883629 0.028996
O O11 0.740823 0.000792 0.620288
O O12 0.000000 0.000000 0.500000
O O13 0.205690 0.760444 0.908029
O O14 0.512311 0.137014 0.195588
O O15 0.341586 0.271270 0.206302
O O16 0.615656 0.600976 0.084259
O O17 0.000000 0.500000 0.000000
O O18 0.500000 0.000000 0.500000
O O19 0.500000 0.500000 0.500000
#
# Coordination Sequence:
#
# PCOD9030575 Si02
#       8
#     2   2   2   2   2   2   2   2
#     4  12  23  43  71 103 139 180 230 290 346 408
#     4  12  26  45  70 102 140 181 233 289 350 417
#     4  11  24  46  69 103 138 184 238 283 347 421
#     4  12  27  45  70 102 144 182 232 288 356 413
#     4  11  23  47  68 102 139 184 231 294 343 415
#     4  12  26  43  72 104 144 181 237 292 347 413
#     4  10  22  42  72 100 136 175 239 282 340 413
#     4  12  26  47  69 101 142 187 233 287 354 418
#
# _framework density 19.397986
#
# number of rings (size 3 to 8) (size 9 to 14) (size 15 to 20)
#    0.000    0.500    6.250    2.625    3.500    3.000 
#    0.000    0.625    0.000    0.000    0.000    0.000 
#    0.000    0.000    0.000    0.000    0.000    0.000 
#
# Total GULP energy -89413.053545 kJ/mol
# GULP energy per Si atom -5588.315847 kJ/mol
# Density = 1.935384 g / cm^3
# Si number density = 19.397986 Si / 1000 Ang^3
#
#
#
# Elastic Constant Matrix: (Units=GPa)
#
#
# Indices 1 2 3 4 5 6 
#
# 1 123.5694 60.7701 50.8684 -9.2206 14.7417 -1.7387
# 2 60.7701 181.3254 73.6576 -17.7651 12.9953 15.7250
# 3 50.8684 73.6576 105.4448 -10.6144 15.9681 -12.3550
# 4 -9.2206 -17.7651 -10.6144 47.0268 4.3499 4.2245
# 5 14.7417 12.9953 15.9681 4.3499 37.8755 -4.8983
# 6 -1.7387 15.7250 -12.3550 4.2245 -4.8983 39.7199
#
#
#
# Elastic Compliance Matrix: (Units=1/GPa)
#
#
# Indices 1 2 3 4 5 6 
#
# 1 0.010797 -0.001969 -0.003439 0.000815 -0.002193 -0.000175
# 2 -0.001969 0.009431 -0.005942 0.002475 -0.001032 -0.006059
# 3 -0.003439 -0.005942 0.016574 0.000451 -0.002761 0.006969
# 4 0.000815 0.002475 0.000451 0.023223 -0.004519 -0.003831
# 5 -0.002193 -0.001032 -0.002761 -0.004519 0.029759 0.003604
# 6 -0.000175 -0.006059 0.006969 -0.003831 0.003604 0.030587
#
#
# Mechanical properties :
#
#
# Convention : Reuss Voigt Hill
#
# Bulk Modulus (GPa) = 70.92359 86.77018 78.84689
# Shear Modulus (GPa) = 33.83610 39.92736 36.88173
#
# Velocity S-wave (km/s) = 4.18102 4.54180 4.36514
# Velocity P-wave (km/s) = 7.74272 8.50486 8.13272
#
# Compressibility (1/GPa) = 0.01409968
#
# Stress axis : x y z
#
# Youngs Moduli (GPa) = 92.61944 106.03841 60.33673
#
# Poissons Ratio (x) = 0.20881 0.20752
# Poissons Ratio (y) = 0.18238 0.35853
# Poissons Ratio (z) = 0.31855 0.63010
#
# Static dielectric constant tensor:
#      x y z
#    x 1.847840 -0.046530 -0.063510 
#    y -0.046530 1.678100 -0.008690 
#    z -0.063510 -0.008690 1.663870 
# 
# From -- ./inp_files/184311.got.cif
#   From: 2010.05.17/outbox.cif.g08.bks.cpg/sg2_93_cif.got.tgz:184311.got - 2010.06.03 11:33:40.
