data_PCOD9030821
_publ_section_title
;
Structure prediction by ZEFSAII (Michael W. Deem and Ramdas Pophale) SiO2 
 PCOD9030821
Probable space group: P -1
;
_chemical_formula_sum "Si O2"
_cell_formula_units_Z 14
_cell_length_a 5.340239
_cell_length_b 7.946712
_cell_length_c 13.827719
_cell_angle_alpha 63.965358
_cell_angle_beta 97.030473
_cell_angle_gamma 95.434781
_cell_volume 522.749637
_symmetry_space_group_name_H-M "P -1"
_symmetry_group_IT_number 2
_symmetry_cell_setting 'triclinic'
loop_
_space_group_symop_operation_xyz
x,y,z
-x,-y,-z
loop_
_atom_site_type_symbol
_atom_site_label
_atom_site_fract_x
_atom_site_fract_y
_atom_site_fract_z
Si Si1 0.958636 0.489666 0.886232
Si Si2 0.519710 0.279102 0.437131
Si Si3 0.195024 0.111279 0.305728
Si Si4 0.188851 0.611544 0.408020
Si Si5 0.328447 0.020179 0.757748
Si Si6 0.761125 0.600707 0.251264
Si Si7 0.762931 0.105331 0.006484
O O1 0.866519 0.675719 0.784609
O O2 0.201082 0.421573 0.855190
O O3 0.762503 0.313221 0.912740
O O4 0.000000 0.500000 0.000000
O O5 0.328850 0.135259 0.411139
O O6 0.363596 0.451531 0.422036
O O7 0.670361 0.236417 0.553460
O O8 0.697010 0.389715 0.339542
O O9 0.415631 0.055429 0.254972
O O10 0.918923 0.999333 0.319072
O O11 0.033447 0.665985 0.293767
O O12 0.000000 0.500000 0.500000
O O13 0.226583 0.900569 0.875276
O O14 0.386476 0.231496 0.748133
O O15 0.500000 0.000000 0.000000
O O16 0.000000 0.000000 0.000000
#
# Coordination Sequence:
#
# PCOD9030821 Si02
#       7
#     2   2   2   2   2   2   2
#     4  12  26  47  72 106 143 193 244 294 352 420
#     4  10  22  42  75 104 137 185 241 296 351 430
#     4  12  27  46  69 106 145 186 237 298 351 419
#     4   9  20  41  74 105 136 176 244 291 358 424
#     4  12  28  45  69 103 151 190 235 295 363 417
#     4  11  24  45  73 103 142 192 240 292 359 433
#     4  12  27  46  69 100 143 189 243 296 348 419
#
# _framework density 26.781459999999999
#
# number of rings (size 3 to 8) (size 9 to 14) (size 15 to 20)
#    0.000    0.857    4.286    1.714    6.000    1.714 
#    0.000    1.429    0.000    0.000    0.000    0.000 
#    0.000    0.000    0.000    0.000    0.000    0.000 
#
# Total GULP energy -78340.153142 kJ/mol
# GULP energy per Si atom -5595.725224 kJ/mol
# Density = 2.672050 g / cm^3
# Si number density = 26.781460 Si / 1000 Ang^3
#
#
#
# Elastic Constant Matrix: (Units=GPa)
#
#
# Indices 1 2 3 4 5 6 
#
# 1 152.1797 47.7937 15.5170 14.6042 -6.9032 -11.7729
# 2 47.7937 132.1382 15.9509 25.1970 -3.7333 2.7444
# 3 15.5170 15.9509 96.2639 28.0885 -12.7295 -1.7142
# 4 14.6042 25.1970 28.0885 52.4324 8.1098 0.8838
# 5 -6.9032 -3.7333 -12.7295 8.1098 47.8494 9.9913
# 6 -11.7729 2.7444 -1.7142 0.8838 9.9913 46.8365
#
#
#
# Elastic Compliance Matrix: (Units=1/GPa)
#
#
# Indices 1 2 3 4 5 6 
#
# 1 0.007686 -0.002608 -0.000494 -0.000731 0.000485 0.001977
# 2 -0.002608 0.009329 0.000220 -0.004067 0.001395 -0.001415
# 3 -0.000494 0.000220 0.013381 -0.007894 0.004960 -0.000556
# 4 -0.000731 -0.004067 -0.007894 0.026558 -0.007191 0.000798
# 5 0.000485 0.001395 0.004960 -0.007191 0.024639 -0.004899
# 6 0.001977 -0.001415 -0.000556 0.000798 -0.004899 0.022940
#
#
# Mechanical properties :
#
#
# Convention : Reuss Voigt Hill
#
# Bulk Modulus (GPa) = 40.59830 59.90056 50.24943
# Shear Modulus (GPa) = 42.19185 49.51166 45.85176
#
# Velocity S-wave (km/s) = 3.97345 4.30435 4.14221
# Velocity P-wave (km/s) = 6.02023 6.86427 6.45606
#
# Compressibility (1/GPa) = 0.02463157
#
# Stress axis : x y z
#
# Youngs Moduli (GPa) = 130.11002 107.19423 74.73518
#
# Poissons Ratio (x) = 0.27959 0.03693
# Poissons Ratio (y) = 0.33936 -0.01648
# Poissons Ratio (z) = 0.06428 -0.02364
#
# Static dielectric constant tensor:
#      x y z
#    x 2.140360 0.046610 -0.122760 
#    y 0.046610 2.233360 -0.199370 
#    z -0.122760 -0.199370 2.249530 
# 
# From -- ./inp_files/480436.got.cif
#   From: 2010.05.17/outbox.cif.g08.bks.cpg/sg2_241_cif.got.tgz:480436.got - 2010.06.03 11:33:40.
