data_PCOD9030457
_publ_section_title
;
Structure prediction by ZEFSAII (Michael W. Deem and Ramdas Pophale) SiO2 
 PCOD9030457
Probable space group: P -1
;
_chemical_formula_sum "Si O2"
_cell_formula_units_Z 14
_cell_length_a 8.073489
_cell_length_b 10.752235
_cell_length_c 16.714474
_cell_angle_alpha 156.281242
_cell_angle_beta 61.807455
_cell_angle_gamma 112.336493
_cell_volume 508.733017
_symmetry_space_group_name_H-M "P -1"
_symmetry_group_IT_number 2
_symmetry_cell_setting 'triclinic'
loop_
_space_group_symop_operation_xyz
x,y,z
-x,-y,-z
loop_
_atom_site_type_symbol
_atom_site_label
_atom_site_fract_x
_atom_site_fract_y
_atom_site_fract_z
Si Si1 0.272240 0.565858 0.812393
Si Si2 0.528139 0.658669 0.955667
Si Si3 0.361056 0.202638 0.830953
Si Si4 0.044038 0.799797 0.290157
Si Si5 0.149617 0.220352 0.152959
Si Si6 0.756494 0.662010 0.489500
Si Si7 0.781346 0.438037 0.516481
O O1 0.399518 0.691654 0.926300
O O2 0.148783 0.345542 0.760060
O O3 0.334597 0.381374 0.604532
O O4 0.155865 0.883084 0.991599
O O5 0.497889 0.871835 0.168640
O O6 0.733773 0.731031 0.924661
O O7 0.487431 0.323011 0.802597
O O8 0.207359 0.500638 0.067294
O O9 0.249520 0.916872 0.675507
O O10 0.000000 0.000000 0.500000
O O11 0.116261 0.055261 0.367570
O O12 0.272294 0.396248 0.290676
O O13 0.933457 0.370133 0.279153
O O14 0.672509 0.596548 0.557403
O O15 0.000000 0.500000 0.500000
#
# Coordination Sequence:
#
# PCOD9030457 Si02
#       7
#     2   2   2   2   2   2   2
#     4  11  23  42  70 102 133 178 230 281 332 403
#     4  11  26  44  70  97 141 186 222 270 350 407
#     4  11  25  49  68  98 141 180 224 282 339 406
#     4  10  22  42  71 101 128 175 230 284 331 390
#     4  11  23  44  69 100 138 180 226 272 347 404
#     4  10  22  43  70 102 133 175 232 287 334 387
#     4  10  23  42  71 102 130 178 231 279 331 391
#
# _framework density 27.519345000000001
#
# number of rings (size 3 to 8) (size 9 to 14) (size 15 to 20)
#    0.000    1.429    0.000    5.143    6.000    1.143 
#   10.286    1.429    0.000    0.000    0.000    0.000 
#    0.000    0.000    0.000    0.000    0.000    0.000 
#
# Total GULP energy -78198.939219 kJ/mol
# GULP energy per Si atom -5585.638516 kJ/mol
# Density = 2.745671 g / cm^3
# Si number density = 27.519345 Si / 1000 Ang^3
#
#
#
# Elastic Constant Matrix: (Units=GPa)
#
#
# Indices 1 2 3 4 5 6 
#
# 1 77.0360 7.1086 10.5958 -4.7761 36.2800 -13.5454
# 2 7.1086 111.4042 4.5368 10.6802 2.6001 -3.5954
# 3 10.5958 4.5368 103.9789 33.6179 39.4037 -1.9892
# 4 -4.7761 10.6802 33.6179 51.3830 -4.8391 2.5638
# 5 36.2800 2.6001 39.4037 -4.8391 40.2764 -2.7709
# 6 -13.5454 -3.5954 -1.9892 2.5638 -2.7709 53.0968
#
#
#
# Elastic Compliance Matrix: (Units=1/GPa)
#
#
# Indices 1 2 3 4 5 6 
#
# 1 0.039685 0.000108 0.026997 -0.020464 -0.064020 0.008790
# 2 0.000108 0.009307 0.001701 -0.003330 -0.002712 0.000741
# 3 0.026997 0.001701 0.046079 -0.035223 -0.073286 0.006605
# 4 -0.020464 -0.003330 -0.035223 0.047092 0.058355 -0.005994
# 5 -0.064020 -0.002712 -0.073286 0.058355 0.160437 -0.013706
# 6 0.008790 0.000741 0.006605 -0.005994 -0.013706 0.020948
#
#
# Mechanical properties :
#
#
# Convention : Reuss Voigt Hill
#
# Bulk Modulus (GPa) = 6.54954 37.43348 21.99151
# Shear Modulus (GPa) = 15.78141 46.96311 31.37226
#
# Velocity S-wave (km/s) = 2.39731 4.13552 3.38006
# Velocity P-wave (km/s) = 3.16985 6.03618 4.82097
#
# Compressibility (1/GPa) = 0.15268255
#
# Stress axis : x y z
#
# Youngs Moduli (GPa) = 25.19874 107.45109 21.70183
#
# Poissons Ratio (x) = -0.01162 -0.58588
# Poissons Ratio (y) = -0.00273 -0.03692
# Poissons Ratio (z) = -0.68028 -0.18281
#
# Static dielectric constant tensor:
#      x y z
#    x 2.225220 -0.047800 -0.099910 
#    y -0.047800 2.138360 -0.121560 
#    z -0.099910 -0.121560 2.311530 
# 
# From -- ./inp_files/560229.got.cif
#   From: 2010.05.17/outbox.cif.g08.bks.cpg/sg2_281_cif.got.tgz:560229.got - 2010.06.03 11:33:40.
