data_PCOD9030989
_publ_section_title
;
Structure prediction by ZEFSAII (Michael W. Deem and Ramdas Pophale) SiO2 
 PCOD9030989
Probable space group: P -1
;
_chemical_formula_sum "Si O2"
_cell_formula_units_Z 16
_cell_length_a 14.008872
_cell_length_b 6.705026
_cell_length_c 13.584336
_cell_angle_alpha 117.567436
_cell_angle_beta 138.172281
_cell_angle_gamma 50.362761
_cell_volume 655.110822
_symmetry_space_group_name_H-M "P -1"
_symmetry_group_IT_number 2
_symmetry_cell_setting 'triclinic'
loop_
_space_group_symop_operation_xyz
x,y,z
-x,-y,-z
loop_
_atom_site_type_symbol
_atom_site_label
_atom_site_fract_x
_atom_site_fract_y
_atom_site_fract_z
Si Si1 0.908878 0.401684 0.272271
Si Si2 0.688245 0.281431 0.613549
Si Si3 0.046187 0.535912 0.156047
Si Si4 0.087377 0.690195 0.515017
Si Si5 0.284409 0.974559 0.228283
Si Si6 0.212812 0.933257 0.938894
Si Si7 0.383431 0.136713 0.620991
Si Si8 0.462480 0.176509 0.915647
O O1 0.938011 0.332956 0.394303
O O2 0.931350 0.139951 0.184917
O O3 0.714657 0.580366 0.144941
O O4 0.993037 0.571480 0.354237
O O5 0.500000 0.500000 0.500000
O O6 0.812474 0.384460 0.705373
O O7 0.703310 0.228391 0.729491
O O8 0.711097 0.019612 0.517378
O O9 0.130286 0.251512 0.200999
O O10 0.873689 0.779517 0.108381
O O11 0.000000 0.500000 0.000000
O O12 0.277107 0.450855 0.594228
O O13 0.000000 0.000000 0.500000
O O14 0.456278 0.975015 0.350394
O O15 0.260767 0.916839 0.085261
O O16 0.380016 0.785908 0.971169
O O17 0.434710 0.083310 0.764095
O O18 0.500000 0.000000 0.000000
#
# Coordination Sequence:
#
# PCOD9030989 Si02
#       8
#     2   2   2   2   2   2   2   2
#     4  10  22  43  63  94 133 169 232 282 333 415
#     4  12  24  42  72 103 139 183 230 282 339 412
#     4  10  23  44  67 100 144 176 233 281 339 414
#     4  10  23  43  65  94 131 176 228 287 339 399
#     4  10  23  45  67 102 142 178 227 284 334 416
#     4  10  22  43  69  98 137 181 223 286 351 402
#     4  10  22  45  69 101 139 178 231 280 345 407
#     4  10  23  43  68  96 135 181 230 283 340 415
#
# _framework density 24.423347
#
# number of rings (size 3 to 8) (size 9 to 14) (size 15 to 20)
#    0.000    1.750    1.250    1.500    1.750    4.000 
#    9.000    0.000    0.000    0.000    0.000    0.000 
#    0.000    0.000    0.000    0.000    0.000    0.000 
#
# Total GULP energy -89263.727634 kJ/mol
# GULP energy per Si atom -5578.982977 kJ/mol
# Density = 2.436776 g / cm^3
# Si number density = 24.423347 Si / 1000 Ang^3
#
#
#
# Elastic Constant Matrix: (Units=GPa)
#
#
# Indices 1 2 3 4 5 6 
#
# 1 42.5738 11.1376 10.4747 -19.2080 -3.4761 6.4498
# 2 11.1376 117.8812 30.0901 -33.3751 -5.6237 0.9946
# 3 10.4747 30.0901 99.6562 -9.4996 2.4724 13.5850
# 4 -19.2080 -33.3751 -9.4996 53.3820 7.6956 1.1801
# 5 -3.4761 -5.6237 2.4724 7.6956 35.3736 -11.5330
# 6 6.4498 0.9946 13.5850 1.1801 -11.5330 33.3999
#
#
#
# Elastic Compliance Matrix: (Units=1/GPa)
#
#
# Indices 1 2 3 4 5 6 
#
# 1 0.029461 0.000711 -0.001409 0.011107 -0.001254 -0.005963
# 2 0.000711 0.011033 -0.002917 0.006492 0.000874 0.000793
# 3 -0.001409 -0.002917 0.011962 0.000411 -0.003383 -0.005689
# 4 0.011107 0.006492 0.000411 0.027810 -0.005739 -0.005470
# 5 -0.001254 0.000874 -0.003383 -0.005739 0.034206 0.013606
# 6 -0.005963 0.000793 -0.005689 -0.005470 0.013606 0.038274
#
#
# Mechanical properties :
#
#
# Convention : Reuss Voigt Hill
#
# Bulk Modulus (GPa) = 22.11026 40.39066 31.25046
# Shear Modulus (GPa) = 28.56302 38.32503 33.44402
#
# Velocity S-wave (km/s) = 3.42350 3.96561 3.70448
# Velocity P-wave (km/s) = 4.96988 6.12713 5.57859
#
# Compressibility (1/GPa) = 0.04522787
#
# Stress axis : x y z
#
# Youngs Moduli (GPa) = 33.94266 90.63324 83.59775
#
# Poissons Ratio (x) = -0.06447 0.11776
# Poissons Ratio (y) = -0.02414 0.24387
# Poissons Ratio (z) = 0.04781 0.26440
#
# Static dielectric constant tensor:
#      x y z
#    x 1.963530 -0.046230 0.039620 
#    y -0.046230 2.115490 0.066070 
#    z 0.039620 0.066070 1.989320 
# 
# From -- ./inp_files/525947.got.cif
#   From: 2010.05.17/outbox.cif.g08.bks.cpg/sg2_263_cif.got.tgz:525947.got - 2010.06.03 11:33:40.
