data_PCOD9030509
_publ_section_title
;
Structure prediction by ZEFSAII (Michael W. Deem and Ramdas Pophale) SiO2 
 PCOD9030509
Probable space group: P -1
;
_chemical_formula_sum "Si O2"
_cell_formula_units_Z 14
_cell_length_a 5.506350
_cell_length_b 17.115007
_cell_length_c 11.757242
_cell_angle_alpha 42.804445
_cell_angle_beta 80.894236
_cell_angle_gamma 103.154718
_cell_volume 638.462217
_symmetry_space_group_name_H-M "P -1"
_symmetry_group_IT_number 2
_symmetry_cell_setting 'triclinic'
loop_
_space_group_symop_operation_xyz
x,y,z
-x,-y,-z
loop_
_atom_site_type_symbol
_atom_site_label
_atom_site_fract_x
_atom_site_fract_y
_atom_site_fract_z
Si Si1 0.680264 0.976068 0.678676
Si Si2 0.678247 0.580212 0.166464
Si Si3 0.570047 0.963040 0.157290
Si Si4 0.392654 0.300449 0.567911
Si Si5 0.945160 0.159073 0.248526
Si Si6 0.019707 0.759472 0.169746
Si Si7 0.696952 0.384342 0.691509
O O1 0.355335 0.889220 0.743618
O O2 0.855335 0.897635 0.754478
O O3 0.642902 0.034753 0.736014
O O4 0.854885 0.096316 0.447276
O O5 0.580094 0.424662 0.338864
O O6 0.860890 0.659761 0.181013
O O7 0.387071 0.576943 0.226399
O O8 0.856147 0.680036 0.946522
O O9 0.579984 0.827905 0.311984
O O10 0.500000 0.000000 0.000000
O O11 0.891624 0.089540 0.023796
O O12 0.073008 0.265504 0.662367
O O13 0.498789 0.358806 0.625221
O O14 0.307079 0.752336 0.150146
O O15 0.000000 0.500000 0.500000
#
# Coordination Sequence:
#
# PCOD9030509 Si02
#       7
#     2   2   2   2   2   2   2
#     4  10  23  44  64  95 122 160 218 263 304 363
#     4  11  21  34  60  87 115 160 213 254 309 357
#     4  12  24  37  58  90 128 165 200 251 327 380
#     4  11  23  33  50  87 122 158 194 248 314 380
#     4  10  22  42  71  90 118 164 219 268 296 356
#     4  11  20  36  54  80 119 162 204 247 301 371
#     4  11  18  34  54  82 121 157 202 256 297 363
#
# _framework density 21.927686000000001
#
# number of rings (size 3 to 8) (size 9 to 14) (size 15 to 20)
#    0.000    1.143    5.714    2.143    2.000    1.143 
#    0.000    0.714    0.000    0.000    0.000    8.000 
#    0.000    0.000    0.000    0.000    0.000    0.000 
#
# Total GULP energy -77934.105823 kJ/mol
# GULP energy per Si atom -5566.721845 kJ/mol
# Density = 2.187778 g / cm^3
# Si number density = 21.927686 Si / 1000 Ang^3
#
#
#
# Elastic Constant Matrix: (Units=GPa)
#
#
# Indices 1 2 3 4 5 6 
#
# 1 57.5962 16.3447 18.2000 0.3852 8.1511 -21.8762
# 2 16.3447 66.9025 45.6305 -10.1558 4.4310 -23.1325
# 3 18.2000 45.6305 170.5782 -28.4866 2.0595 -25.7122
# 4 0.3852 -10.1558 -28.4866 44.4851 -9.2419 4.6939
# 5 8.1511 4.4310 2.0595 -9.2419 25.7121 2.9202
# 6 -21.8762 -23.1325 -25.7122 4.6939 2.9202 26.1338
#
#
#
# Elastic Compliance Matrix: (Units=1/GPa)
#
#
# Indices 1 2 3 4 5 6 
#
# 1 0.030815 0.003836 -0.000394 -0.006382 -0.016300 0.031770
# 2 0.003836 0.024701 -0.003656 -0.000776 -0.008016 0.022514
# 3 -0.000394 -0.003656 0.008105 0.004245 0.001233 0.003508
# 4 -0.006382 -0.000776 0.004245 0.028689 0.013091 -0.008468
# 5 -0.016300 -0.008016 0.001233 0.013091 0.053208 -0.027824
# 6 0.031770 0.022514 0.003508 -0.008468 -0.027824 0.092868
#
#
# Mechanical properties :
#
#
# Convention : Reuss Voigt Hill
#
# Bulk Modulus (GPa) = 15.82453 50.60301 33.21377
# Shear Modulus (GPa) = 19.23976 33.59298 26.41637
#
# Velocity S-wave (km/s) = 2.96534 3.91831 3.47465
# Velocity P-wave (km/s) = 4.35393 6.60289 5.59262
#
# Compressibility (1/GPa) = 0.06319304
#
# Stress axis : x y z
#
# Youngs Moduli (GPa) = 32.45219 40.48407 123.37507
#
# Poissons Ratio (x) = -0.15531 0.04863
# Poissons Ratio (y) = -0.12450 0.45109
# Poissons Ratio (z) = 0.01279 0.14802
#
# Static dielectric constant tensor:
#      x y z
#    x 1.718750 -0.041040 0.261630 
#    y -0.041040 1.789220 0.030230 
#    z 0.261630 0.030230 1.665070 
# 
# From -- ./inp_files/70756.got.cif
#   From: 2010.05.17/outbox.cif.g08.bks.cpg/sg2_36_cif.got.tgz:70756.got - 2010.06.03 11:33:40.
