data_PCOD9030201
_publ_section_title
;
Structure prediction by ZEFSAII (Michael W. Deem and Ramdas Pophale) SiO2 
 PCOD9030201
Probable space group: P -1
;
_chemical_formula_sum "Si O2"
_cell_formula_units_Z 16
_cell_length_a 13.465390
_cell_length_b 11.686059
_cell_length_c 13.025662
_cell_angle_alpha 71.690146
_cell_angle_beta 131.942955
_cell_angle_gamma 146.106824
_cell_volume 692.439594
_symmetry_space_group_name_H-M "P -1"
_symmetry_group_IT_number 2
_symmetry_cell_setting 'triclinic'
loop_
_space_group_symop_operation_xyz
x,y,z
-x,-y,-z
loop_
_atom_site_type_symbol
_atom_site_label
_atom_site_fract_x
_atom_site_fract_y
_atom_site_fract_z
Si Si1 0.180495 0.303387 0.671855
Si Si2 0.354127 0.264321 0.271077
Si Si3 0.240478 0.561583 0.768121
Si Si4 0.417491 0.157228 0.640956
Si Si5 0.312861 0.969317 0.391899
Si Si6 0.831626 0.911127 0.120506
Si Si7 0.194860 0.391311 0.344745
Si Si8 0.293880 0.864873 0.801177
O O1 0.466837 0.521816 0.747788
O O2 0.152770 0.425223 0.640474
O O3 0.206610 0.249099 0.809241
O O4 0.890589 0.030762 0.498369
O O5 0.534702 0.430014 0.452968
O O6 0.357837 0.120858 0.307433
O O7 0.040463 0.059304 0.128257
O O8 0.247957 0.709839 0.744059
O O9 0.006585 0.327127 0.750726
O O10 0.545457 0.750326 0.945633
O O11 0.378212 0.067803 0.525153
O O12 0.440767 0.080752 0.769797
O O13 0.681938 0.451463 0.718789
O O14 0.500000 0.000000 0.500000
O O15 0.997408 0.125011 0.255140
O O16 0.999590 0.323212 0.299193
O O17 0.500000 0.000000 0.000000
#
# Coordination Sequence:
#
# PCOD9030201 Si02
#       8
#     2   2   2   2   2   2   2   2
#     4  11  24  41  69  99 129 180 223 274 335 399
#     4  11  23  41  66 101 130 173 231 271 330 397
#     4  11  24  44  67  95 143 172 215 286 334 399
#     4  10  23  42  70 100 128 172 229 277 332 394
#     4  10  22  42  70 101 132 179 223 278 329 398
#     4  12  24  45  64  98 141 178 219 275 333 397
#     4  11  23  45  69  96 137 173 226 279 325 403
#     4  12  25  46  67 100 134 176 223 280 344 394
#
# _framework density 23.106708000000001
#
# number of rings (size 3 to 8) (size 9 to 14) (size 15 to 20)
#    0.000    1.000    6.250    2.250    1.750    3.500 
#    0.000    0.000    0.000    0.000    0.000    0.000 
#    0.000    0.000    0.000    0.000    0.000    0.000 
#
# Total GULP energy -89388.172026 kJ/mol
# GULP energy per Si atom -5586.760752 kJ/mol
# Density = 2.305412 g / cm^3
# Si number density = 23.106708 Si / 1000 Ang^3
#
#
#
# Elastic Constant Matrix: (Units=GPa)
#
#
# Indices 1 2 3 4 5 6 
#
# 1 86.8671 41.9552 22.6893 4.3144 36.1891 5.5947
# 2 41.9552 129.0863 26.6922 7.9842 9.0193 23.0935
# 3 22.6893 26.6922 72.3885 11.3541 22.9476 2.5570
# 4 4.3144 7.9842 11.3541 30.0321 9.6339 1.3251
# 5 36.1891 9.0193 22.9476 9.6339 38.8412 4.8448
# 6 5.5947 23.0935 2.5570 1.3251 4.8448 43.9375
#
#
#
# Elastic Compliance Matrix: (Units=1/GPa)
#
#
# Indices 1 2 3 4 5 6 
#
# 1 0.023800 -0.007342 0.001654 0.005187 -0.023124 0.003125
# 2 -0.007342 0.011567 -0.003793 -0.002840 0.007811 -0.005700
# 3 0.001654 -0.003793 0.018614 -0.002754 -0.011226 0.002021
# 4 0.005187 -0.002840 -0.002754 0.038200 -0.012169 0.001182
# 5 -0.023124 0.007811 -0.011226 -0.012169 0.055915 -0.006306
# 6 0.003125 -0.005700 0.002021 0.001182 -0.006306 0.025899
#
#
# Mechanical properties :
#
#
# Convention : Reuss Voigt Hill
#
# Bulk Modulus (GPa) = 28.55611 52.33504 40.44558
# Shear Modulus (GPa) = 24.43417 35.69582 30.06500
#
# Velocity S-wave (km/s) = 3.25537 3.93469 3.61104
# Velocity P-wave (km/s) = 5.14928 6.58338 5.90999
#
# Compressibility (1/GPa) = 0.03501877
#
# Stress axis : x y z
#
# Youngs Moduli (GPa) = 42.01597 86.45374 53.72252
#
# Poissons Ratio (x) = 0.63472 -0.08884
# Poissons Ratio (y) = 0.30847 0.20378
# Poissons Ratio (z) = -0.06948 0.32794
#
# Static dielectric constant tensor:
#      x y z
#    x 1.937600 0.010840 -0.011830 
#    y 0.010840 1.871200 0.020680 
#    z -0.011830 0.020680 1.871300 
# 
# From -- ./inp_files/471944.got.cif
#   From: 2010.05.17/outbox.cif.g08.bks.cpg/sg2_236_cif.got.tgz:471944.got - 2010.06.03 11:33:40.
