data_PCOD9030922
_publ_section_title
;
Structure prediction by ZEFSAII (Michael W. Deem and Ramdas Pophale) SiO2 
 PCOD9030922
Probable space group: P -1
;
_chemical_formula_sum "Si O2"
_cell_formula_units_Z 12
_cell_length_a 5.322397
_cell_length_b 23.510456
_cell_length_c 22.993715
_cell_angle_alpha 168.332335
_cell_angle_beta 125.854685
_cell_angle_gamma 53.265234
_cell_volume 466.325656
_symmetry_space_group_name_H-M "P -1"
_symmetry_group_IT_number 2
_symmetry_cell_setting 'triclinic'
loop_
_space_group_symop_operation_xyz
x,y,z
-x,-y,-z
loop_
_atom_site_type_symbol
_atom_site_label
_atom_site_fract_x
_atom_site_fract_y
_atom_site_fract_z
Si Si1 0.658516 0.980329 0.668703
Si Si2 0.664714 0.516585 0.285299
Si Si3 0.867071 0.269300 0.787947
Si Si4 0.248227 0.518112 0.899745
Si Si5 0.646350 0.937028 0.893252
Si Si6 0.384391 0.471541 0.329487
O O1 0.480743 0.757958 0.459032
O O2 0.853237 0.714190 0.390839
O O3 0.717995 0.199887 0.947975
O O4 0.610602 0.231340 0.864418
O O5 0.501644 0.511399 0.320104
O O6 0.020240 0.589376 0.410115
O O7 0.494904 0.320431 0.776550
O O8 0.965972 0.301274 0.900070
O O9 0.000000 0.000000 0.500000
O O10 0.000000 0.500000 0.000000
O O11 0.601149 0.622796 0.553502
O O12 0.500000 0.000000 0.000000
O O13 0.445698 0.141234 0.023797
O O14 0.000000 0.000000 0.000000
#
# Coordination Sequence:
#
# PCOD9030922 Si02
#       6
#     2   2   2   2   2   2
#     4  10  22  44  62  92 124 175 226 278 336 390
#     4  11  24  44  66  95 130 186 224 275 334 395
#     4  11  22  39  64  96 124 172 215 264 370 399
#     4  10  22  43  62  91 136 163 218 290 328 420
#     4  12  24  41  68 104 134 173 220 273 332 393
#     4  12  24  45  68  95 140 176 222 273 332 395
#
# _framework density 25.733089
#
# number of rings (size 3 to 8) (size 9 to 14) (size 15 to 20)
#    0.000    1.000    0.000    7.000    0.000    2.667 
#   30.000    0.000    0.000    0.000    0.000    0.000 
#    0.000    0.000    0.000    0.000    0.000    0.000 
#
# Total GULP energy -66875.588587 kJ/mol
# GULP energy per Si atom -5572.965716 kJ/mol
# Density = 2.567452 g / cm^3
# Si number density = 25.733089 Si / 1000 Ang^3
#
#
#
# Elastic Constant Matrix: (Units=GPa)
#
#
# Indices 1 2 3 4 5 6 
#
# 1 157.4314 62.7715 28.9527 -8.5131 -0.0119 36.6553
# 2 62.7715 80.4240 27.5763 1.8124 -11.5759 30.4827
# 3 28.9527 27.5763 194.1186 -10.7969 -12.8014 19.0089
# 4 -8.5131 1.8124 -10.7969 63.3404 8.7479 -1.2485
# 5 -0.0119 -11.5759 -12.8014 8.7479 28.7156 -2.2134
# 6 36.6553 30.4827 19.0089 -1.2485 -2.2134 60.2139
#
#
#
# Elastic Compliance Matrix: (Units=1/GPa)
#
#
# Indices 1 2 3 4 5 6 
#
# 1 0.010034 -0.007436 -0.000361 0.001999 -0.003943 -0.002334
# 2 -0.007436 0.022303 -0.001037 -0.003182 0.009019 -0.006171
# 3 -0.000361 -0.001037 0.005601 0.000668 0.001802 -0.000944
# 4 0.001999 -0.003182 0.000668 0.017120 -0.006175 0.000311
# 5 -0.003943 0.009019 0.001802 -0.006175 0.041039 -0.001354
# 6 -0.002334 -0.006171 -0.000944 0.000311 -0.001354 0.021406
#
#
# Mechanical properties :
#
#
# Convention : Reuss Voigt Hill
#
# Bulk Modulus (GPa) = 49.33452 74.50833 61.92142
# Shear Modulus (GPa) = 35.22905 51.29888 43.26396
#
# Velocity S-wave (km/s) = 3.70404 4.46971 4.10476
# Velocity P-wave (km/s) = 6.12425 7.46022 6.82500
#
# Compressibility (1/GPa) = 0.02026978
#
# Stress axis : x y z
#
# Youngs Moduli (GPa) = 99.65637 44.83788 178.53852
#
# Poissons Ratio (x) = 0.33344 0.06438
# Poissons Ratio (y) = 0.74109 0.18516
# Poissons Ratio (z) = 0.03593 0.04650
#
# Static dielectric constant tensor:
#      x y z
#    x 2.169030 -0.107320 -0.112600 
#    y -0.107320 2.163510 0.023030 
#    z -0.112600 0.023030 2.000680 
# 
# From -- ./inp_files/12864.got.cif
#   From: 2010.05.17/outbox.cif.g08.bks.cpg/sg2_7_cif.got.tgz:12864.got - 2010.06.03 11:33:40.
