data_PCOD9030458
_publ_section_title
;
Structure prediction by ZEFSAII (Michael W. Deem and Ramdas Pophale) SiO2 
 PCOD9030458
Probable space group: P -1
;
_chemical_formula_sum "Si O2"
_cell_formula_units_Z 12
_cell_length_a 8.553748
_cell_length_b 18.130616
_cell_length_c 6.612704
_cell_angle_alpha 56.675827
_cell_angle_beta 84.801256
_cell_angle_gamma 42.244697
_cell_volume 476.250644
_symmetry_space_group_name_H-M "P -1"
_symmetry_group_IT_number 2
_symmetry_cell_setting 'triclinic'
loop_
_space_group_symop_operation_xyz
x,y,z
-x,-y,-z
loop_
_atom_site_type_symbol
_atom_site_label
_atom_site_fract_x
_atom_site_fract_y
_atom_site_fract_z
Si Si1 0.143434 0.667335 0.909345
Si Si2 0.659078 0.524279 0.181033
Si Si3 0.078537 0.866680 0.334613
Si Si4 0.560182 0.183819 0.168622
Si Si5 0.159261 0.271637 0.808521
Si Si6 0.355083 0.915323 0.255224
O O1 0.175015 0.566742 0.913895
O O2 0.114683 0.761010 0.614571
O O3 0.435960 0.548575 0.169930
O O4 0.905623 0.771382 0.949728
O O5 0.876421 0.421987 0.492732
O O6 0.476030 0.698119 0.945406
O O7 0.329299 0.820597 0.353177
O O8 0.840653 0.031135 0.241374
O O9 0.935307 0.913216 0.065099
O O10 0.584044 0.113277 0.472640
O O11 0.290730 0.286815 0.909479
O O12 0.400320 0.148985 0.797244
#
# Coordination Sequence:
#
# PCOD9030458 Si02
#       6
#     2   2   2   2   2   2
#     4  11  25  46  68 100 140 176 221 279 343 394
#     4  11  25  46  69 100 137 183 220 275 338 407
#     4  10  23  45  72  99 131 181 228 272 335 401
#     4  11  23  44  75  98 134 178 230 275 328 405
#     4  11  25  44  69 104 136 176 226 279 335 398
#     4  10  22  42  71 101 131 173 229 279 325 397
#
# _framework density 25.196818
#
# number of rings (size 3 to 8) (size 9 to 14) (size 15 to 20)
#    0.000    1.333    1.667    2.500    0.000    9.333 
#    9.000    5.000    0.000    0.000    0.000    0.000 
#    0.000    0.000    0.000    0.000    0.000    0.000 
#
# Total GULP energy -67103.578939 kJ/mol
# GULP energy per Si atom -5591.964912 kJ/mol
# Density = 2.513947 g / cm^3
# Si number density = 25.196818 Si / 1000 Ang^3
#
#
#
# Elastic Constant Matrix: (Units=GPa)
#
#
# Indices 1 2 3 4 5 6 
#
# 1 71.9908 54.3464 46.5985 5.8858 -1.3303 -2.4557
# 2 54.3464 94.1362 46.5171 15.9545 -21.9987 3.0318
# 3 46.5985 46.5171 140.5678 17.0932 13.1497 -2.9902
# 4 5.8858 15.9545 17.0932 42.2969 -0.6285 -9.5586
# 5 -1.3303 -21.9987 13.1497 -0.6285 48.2532 9.6599
# 6 -2.4557 3.0318 -2.9902 -9.5586 9.6599 45.5429
#
#
#
# Elastic Compliance Matrix: (Units=1/GPa)
#
#
# Indices 1 2 3 4 5 6 
#
# 1 0.029417 -0.017949 -0.003648 0.005216 -0.007350 0.005195
# 2 -0.017949 0.027984 -0.003883 -0.008057 0.014801 -0.007916
# 3 -0.003648 -0.003883 0.010345 -0.001969 -0.004993 0.001387
# 4 0.005216 -0.008057 -0.001969 0.028390 -0.004129 0.007523
# 5 -0.007350 0.014801 -0.004993 -0.004129 0.030382 -0.009020
# 6 0.005195 -0.007916 0.001387 0.007523 -0.009020 0.026348
#
#
# Mechanical properties :
#
#
# Convention : Reuss Voigt Hill
#
# Bulk Modulus (GPa) = 59.58213 66.84654 63.21433
# Shear Modulus (GPa) = 23.87531 37.83413 30.85472
#
# Velocity S-wave (km/s) = 3.08157 3.87918 3.50315
# Velocity P-wave (km/s) = 6.02988 6.83018 6.44247
#
# Compressibility (1/GPa) = 0.01678356
#
# Stress axis : x y z
#
# Youngs Moduli (GPa) = 33.99388 35.73508 96.66943
#
# Poissons Ratio (x) = 0.64142 0.35267
# Poissons Ratio (y) = 0.61016 0.37541
# Poissons Ratio (z) = 0.12402 0.13877
#
# Static dielectric constant tensor:
#      x y z
#    x 2.012230 0.008690 0.014610 
#    y 0.008690 2.006870 0.002190 
#    z 0.014610 0.002190 1.997560 
# 
# From -- ./inp_files/50995.got.cif
#   From: 2010.05.17/outbox.cif.g08.bks.cpg/sg2_26_cif.got.tgz:50995.got - 2010.06.03 11:33:40.
