data_PCOD9030554
_publ_section_title
;
Structure prediction by ZEFSAII (Michael W. Deem and Ramdas Pophale) SiO2 
 PCOD9030554
Probable space group: P -1
;
_chemical_formula_sum "Si O2"
_cell_formula_units_Z 12
_cell_length_a 20.748667
_cell_length_b 10.292611
_cell_length_c 5.222807
_cell_angle_alpha 136.397171
_cell_angle_beta 54.789631
_cell_angle_gamma 139.541196
_cell_volume 498.331587
_symmetry_space_group_name_H-M "P -1"
_symmetry_group_IT_number 2
_symmetry_cell_setting 'triclinic'
loop_
_space_group_symop_operation_xyz
x,y,z
-x,-y,-z
loop_
_atom_site_type_symbol
_atom_site_label
_atom_site_fract_x
_atom_site_fract_y
_atom_site_fract_z
Si Si1 0.053624 0.661798 0.362244
Si Si2 0.281837 0.452510 0.881987
Si Si3 0.768017 0.958265 0.214400
Si Si4 0.427547 0.791341 0.673630
Si Si5 0.630808 0.041015 0.346964
Si Si6 0.090105 0.052931 0.528579
O O1 0.000000 0.500000 0.500000
O O2 0.169948 0.822022 0.410170
O O3 0.048157 0.874484 0.609839
O O4 0.000000 0.500000 0.000000
O O5 0.277008 0.276938 0.847057
O O6 0.358547 0.533535 0.588596
O O7 0.171481 0.314854 0.825204
O O8 0.324224 0.705225 0.261827
O O9 0.690099 0.959971 0.225342
O O10 0.846432 0.987560 0.869089
O O11 0.361575 0.868994 0.829821
O O12 0.511249 0.833298 0.349170
O O13 0.500000 0.000000 0.000000
O O14 0.000000 0.000000 0.500000
#
# Coordination Sequence:
#
# PCOD9030554 Si02
#       6
#     2   2   2   2   2   2
#     4  11  24  45  69  99 138 183 242 292 349 417
#     4  10  23  42  66  99 139 178 233 291 350 422
#     4  11  25  43  68 104 136 188 237 290 351 426
#     4   9  20  42  68 100 135 179 225 292 359 421
#     4  10  22  42  71  98 137 182 234 286 357 423
#     4  11  26  45  67  99 144 185 239 292 359 411
#
# _framework density 24.080349999999999
#
# number of rings (size 3 to 8) (size 9 to 14) (size 15 to 20)
#    0.000    1.667    1.667    1.000    2.333   11.333 
#    0.000   11.667    0.000    0.000    0.000    0.000 
#    0.000    0.000    0.000    0.000    0.000    0.000 
#
# Total GULP energy -66928.507208 kJ/mol
# GULP energy per Si atom -5577.375601 kJ/mol
# Density = 2.402554 g / cm^3
# Si number density = 24.080350 Si / 1000 Ang^3
#
#
#
# Elastic Constant Matrix: (Units=GPa)
#
#
# Indices 1 2 3 4 5 6 
#
# 1 235.3826 88.0045 29.9851 -1.4549 1.4487 -17.5910
# 2 88.0045 207.8241 35.8291 14.5147 -8.1471 -25.9842
# 3 29.9851 35.8291 50.3550 9.1128 16.3731 1.3795
# 4 -1.4549 14.5147 9.1128 30.4745 -0.4344 11.0593
# 5 1.4487 -8.1471 16.3731 -0.4344 41.8790 -0.9911
# 6 -17.5910 -25.9842 1.3795 11.0593 -0.9911 39.7131
#
#
#
# Elastic Compliance Matrix: (Units=1/GPa)
#
#
# Indices 1 2 3 4 5 6 
#
# 1 0.005292 -0.001842 -0.002260 0.001520 0.000377 0.000804
# 2 -0.001842 0.007543 -0.004796 -0.004209 0.003494 0.005545
# 3 -0.002260 -0.004796 0.029840 -0.005489 -0.012672 -0.003964
# 4 0.001520 -0.004209 -0.005489 0.041411 0.001387 -0.013388
# 5 0.000377 0.003494 -0.012672 0.001387 0.029590 0.003245
# 6 0.000804 0.005545 -0.003964 -0.013388 0.003245 0.033112
#
#
# Mechanical properties :
#
#
# Convention : Reuss Voigt Hill
#
# Bulk Modulus (GPa) = 40.19692 89.02212 64.60952
# Shear Modulus (GPa) = 28.92208 45.06285 36.99246
#
# Velocity S-wave (km/s) = 3.46940 4.33061 3.92370
# Velocity P-wave (km/s) = 5.72521 7.87747 6.88595
#
# Compressibility (1/GPa) = 0.02487753
#
# Stress axis : x y z
#
# Youngs Moduli (GPa) = 188.95612 132.57264 33.51224
#
# Poissons Ratio (x) = 0.24424 0.07574
# Poissons Ratio (y) = 0.34811 0.16074
# Poissons Ratio (z) = 0.42707 0.63586
#
# Static dielectric constant tensor:
#      x y z
#    x 1.946720 0.017960 0.040850 
#    y 0.017960 2.043280 -0.122920 
#    z 0.040850 -0.122920 2.124570 
# 
# From -- ./inp_files/35983.got.cif
#   From: 2010.05.17/outbox.cif.g08.bks.cpg/sg2_18_cif.got.tgz:35983.got - 2010.06.03 11:33:40.
