data_PCOD9030434
_publ_section_title
;
Structure prediction by ZEFSAII (Michael W. Deem and Ramdas Pophale) SiO2 
 PCOD9030434
Probable space group: P -1
;
_chemical_formula_sum "Si O2"
_cell_formula_units_Z 16
_cell_length_a 25.129974
_cell_length_b 17.813819
_cell_length_c 5.242823
_cell_angle_alpha 96.879624
_cell_angle_beta 94.285849
_cell_angle_gamma 161.063041
_cell_volume 614.048939
_symmetry_space_group_name_H-M "P -1"
_symmetry_group_IT_number 2
_symmetry_cell_setting 'triclinic'
loop_
_space_group_symop_operation_xyz
x,y,z
-x,-y,-z
loop_
_atom_site_type_symbol
_atom_site_label
_atom_site_fract_x
_atom_site_fract_y
_atom_site_fract_z
Si Si1 0.940762 0.855327 0.635757
Si Si2 0.986467 0.407495 0.127165
Si Si3 0.670810 0.207366 0.844673
Si Si4 0.739745 0.816268 0.259663
Si Si5 0.718129 0.090382 0.301554
Si Si6 0.638197 0.561275 0.485478
Si Si7 0.632347 0.820989 0.282015
Si Si8 0.379765 0.711523 0.847261
O O1 0.795670 0.711427 0.691779
O O2 0.792331 0.581166 0.417030
O O3 0.000000 0.000000 0.500000
O O4 0.143403 0.082489 0.838164
O O5 0.112591 0.513311 0.088479
O O6 0.138692 0.641949 0.507055
O O7 0.773758 0.121442 0.074759
O O8 0.000000 0.500000 0.000000
O O9 0.500000 0.000000 0.500000
O O10 0.564012 0.986680 0.835805
O O11 0.693808 0.308031 0.089735
O O12 0.753117 0.794563 0.531168
O O13 0.797880 0.983493 0.337271
O O14 0.500000 0.500000 0.000000
O O15 0.731883 0.037438 0.470623
O O16 0.497346 0.822949 0.144971
O O17 0.476610 0.351538 0.563892
O O18 0.525841 0.386724 0.100042
#
# Coordination Sequence:
#
# PCOD9030434 Si02
#       8
#     2   2   2   2   2   2   2   2
#     4  10  22  44  72 103 141 187 242 294 361 436
#     4  11  24  42  65  99 137 179 226 291 358 424
#     4  11  24  42  71  99 143 182 229 294 357 423
#     4   9  21  44  67 101 143 183 232 302 356 425
#     4  11  24  40  68 100 137 180 236 291 354 432
#     4  10  22  42  70  99 137 185 238 290 355 423
#     4  11  23  41  71 101 135 187 234 292 360 422
#     4  11  23  43  70 103 137 184 237 292 357 429
#
# _framework density 26.056554999999999
#
# number of rings (size 3 to 8) (size 9 to 14) (size 15 to 20)
#    0.000    1.500    3.750    0.375    3.500    2.000 
#    0.000   12.500    0.000    0.000    0.000    0.000 
#    0.000    0.000    0.000    0.000    0.000    0.000 
#
# Total GULP energy -89142.501719 kJ/mol
# GULP energy per Si atom -5571.406357 kJ/mol
# Density = 2.599725 g / cm^3
# Si number density = 26.056555 Si / 1000 Ang^3
#
#
#
# Elastic Constant Matrix: (Units=GPa)
#
#
# Indices 1 2 3 4 5 6 
#
# 1 185.1158 41.5525 16.0997 18.0357 -0.4589 24.5038
# 2 41.5525 64.7118 11.7268 -0.4102 -11.8979 14.9606
# 3 16.0997 11.7268 48.4229 -3.4059 5.8264 11.1705
# 4 18.0357 -0.4102 -3.4059 36.2049 4.7784 -1.2922
# 5 -0.4589 -11.8979 5.8264 4.7784 36.8068 8.2716
# 6 24.5038 14.9606 11.1705 -1.2922 8.2716 61.3715
#
#
#
# Elastic Compliance Matrix: (Units=1/GPa)
#
#
# Indices 1 2 3 4 5 6 
#
# 1 0.006964 -0.003913 -0.001226 -0.003671 -0.000134 -0.001663
# 2 -0.003913 0.021088 -0.003832 0.000605 0.008189 -0.003972
# 3 -0.001226 -0.003832 0.023293 0.003332 -0.004905 -0.002084
# 4 -0.003671 0.000605 0.003332 0.030472 -0.004783 0.001998
# 5 -0.000134 0.008189 -0.004905 -0.004783 0.032453 -0.005525
# 6 -0.001663 -0.003972 -0.002084 0.001998 -0.005525 0.019092
#
#
# Mechanical properties :
#
#
# Convention : Reuss Voigt Hill
#
# Bulk Modulus (GPa) = 29.93917 48.55652 39.24784
# Shear Modulus (GPa) = 30.78054 42.13474 36.45764
#
# Velocity S-wave (km/s) = 3.44073 4.02562 3.74461
# Velocity P-wave (km/s) = 5.22493 6.34689 5.81304
#
# Compressibility (1/GPa) = 0.03340106
#
# Stress axis : x y z
#
# Youngs Moduli (GPa) = 143.58536 47.42051 42.93194
#
# Poissons Ratio (x) = 0.18557 0.05265
# Poissons Ratio (y) = 0.56188 0.16453
# Poissons Ratio (z) = 0.17609 0.18174
#
# Static dielectric constant tensor:
#      x y z
#    x 2.152320 -0.074870 -0.042890 
#    y -0.074870 2.162120 0.070390 
#    z -0.042890 0.070390 2.371300 
# 
# From -- ./inp_files/124814.got.cif
#   From: 2010.05.17/outbox.cif.g08.bks.cpg/sg2_63_cif.got.tgz:124814.got - 2010.06.03 11:33:40.
