data_PCOD9030176
_publ_section_title
;
Structure prediction by ZEFSAII (Michael W. Deem and Ramdas Pophale) SiO2 
 PCOD9030176
Probable space group: P -1
;
_chemical_formula_sum "Si O2"
_cell_formula_units_Z 16
_cell_length_a 11.781008
_cell_length_b 13.919741
_cell_length_c 7.348945
_cell_angle_alpha 50.282124
_cell_angle_beta 60.302030
_cell_angle_gamma 41.482816
_cell_volume 613.707683
_symmetry_space_group_name_H-M "P -1"
_symmetry_group_IT_number 2
_symmetry_cell_setting 'triclinic'
loop_
_space_group_symop_operation_xyz
x,y,z
-x,-y,-z
loop_
_atom_site_type_symbol
_atom_site_label
_atom_site_fract_x
_atom_site_fract_y
_atom_site_fract_z
Si Si1 0.497740 0.315980 0.051503
Si Si2 0.854141 0.657650 0.187003
Si Si3 0.365142 0.437161 0.642135
Si Si4 0.069263 0.148118 0.695390
Si Si5 0.213282 0.318024 0.357484
Si Si6 0.139959 0.801115 0.534108
Si Si7 0.709335 0.399125 0.855930
Si Si8 0.149712 0.056845 0.138285
O O1 0.504394 0.326437 0.818303
O O2 0.667299 0.277904 0.038778
O O3 0.406924 0.240816 0.255252
O O4 0.353159 0.494807 0.043278
O O5 0.813493 0.663557 0.425956
O O6 0.056114 0.501551 0.185302
O O7 0.255466 0.378714 0.784231
O O8 0.799309 0.834286 0.978873
O O9 0.254981 0.617144 0.599025
O O10 0.405768 0.462798 0.378499
O O11 0.999884 0.108627 0.632391
O O12 0.898906 0.306016 0.743805
O O13 0.171297 0.203047 0.469784
O O14 0.165713 0.035270 0.932560
O O15 0.043267 0.830888 0.761618
O O16 0.223226 0.886338 0.377036
#
# Coordination Sequence:
#
# PCOD9030176 Si02
#       8
#     2   2   2   2   2   2   2   2
#     4  11  21  30  53  78 110 135 172 214 265 301
#     4  10  18  31  53  76 110 130 168 216 267 299
#     4  11  20  34  54  77 107 138 172 212 263 306
#     4  10  19  35  55  72 108 138 170 210 266 302
#     4  10  17  32  51  78 106 136 164 218 263 303
#     4  10  20  33  49  77 109 136 172 210 258 310
#     4  10  20  36  46  78 111 138 168 215 261 311
#     4  10  21  32  49  80 109 134 170 214 261 306
#
# _framework density 26.071041999999998
#
# number of rings (size 3 to 8) (size 9 to 14) (size 15 to 20)
#    0.000    1.750    3.750    3.750    1.750    1.000 
#    0.000    0.000    0.000    0.000    0.000   29.750 
#    0.000    0.250    0.000    0.000    0.000    0.000 
#
# Total GULP energy -89416.421365 kJ/mol
# GULP energy per Si atom -5588.526335 kJ/mol
# Density = 2.601170 g / cm^3
# Si number density = 26.071042 Si / 1000 Ang^3
#
#
#
# Elastic Constant Matrix: (Units=GPa)
#
#
# Indices 1 2 3 4 5 6 
#
# 1 83.0176 8.8157 45.0779 -15.4673 -18.7715 12.0122
# 2 8.8157 69.7863 30.5166 -5.9940 -4.1162 16.2463
# 3 45.0779 30.5166 121.8649 -2.0220 -33.3292 22.2414
# 4 -15.4673 -5.9940 -2.0220 40.0231 17.3211 -7.4361
# 5 -18.7715 -4.1162 -33.3292 17.3211 62.4736 -1.9479
# 6 12.0122 16.2463 22.2414 -7.4361 -1.9479 29.0385
#
#
#
# Elastic Compliance Matrix: (Units=1/GPa)
#
#
# Indices 1 2 3 4 5 6 
#
# 1 0.016547 0.001427 -0.006083 0.005982 0.000117 -0.001444
# 2 0.001427 0.017629 -0.004043 0.002331 -0.001426 -0.006856
# 3 -0.006083 -0.004043 0.014835 -0.006907 0.007491 -0.007851
# 4 0.005982 0.002331 -0.006907 0.033717 -0.010788 0.009422
# 5 0.000117 -0.001426 0.007491 -0.010788 0.022741 -0.006225
# 6 -0.001444 -0.006856 -0.007851 0.009422 -0.006225 0.046878
#
#
# Mechanical properties :
#
#
# Convention : Reuss Voigt Hill
#
# Bulk Modulus (GPa) = 31.63232 49.27661 40.45447
# Shear Modulus (GPa) = 27.73396 38.99095 33.36246
#
# Velocity S-wave (km/s) = 3.26511 3.87145 3.58114
# Velocity P-wave (km/s) = 5.13557 6.23908 5.71402
#
# Compressibility (1/GPa) = 0.03161323
#
# Stress axis : x y z
#
# Youngs Moduli (GPa) = 60.43276 56.72461 67.40716
#
# Poissons Ratio (x) = -0.08093 0.41006
# Poissons Ratio (y) = -0.08622 0.27250
# Poissons Ratio (z) = 0.36763 0.22931
#
# Static dielectric constant tensor:
#      x y z
#    x 2.109520 -0.076210 0.006920 
#    y -0.076210 2.036030 -0.069350 
#    z 0.006920 -0.069350 2.075150 
# 
# From -- ./inp_files/264299.got.cif
#   From: 2010.05.17/outbox.cif.g08.bks.cpg/sg2_133_cif.got.tgz:264299.got - 2010.06.03 11:33:40.
