data_PCOD9030075
_publ_section_title
;
Structure prediction by ZEFSAII (Michael W. Deem and Ramdas Pophale) SiO2 
 PCOD9030075
Probable space group: P -1
;
_chemical_formula_sum "Si O2"
_cell_formula_units_Z 14
_cell_length_a 7.771322
_cell_length_b 15.002407
_cell_length_c 11.560222
_cell_angle_alpha 33.154962
_cell_angle_beta 127.250706
_cell_angle_gamma 127.600249
_cell_volume 569.950067
_symmetry_space_group_name_H-M "P -1"
_symmetry_group_IT_number 2
_symmetry_cell_setting 'triclinic'
loop_
_space_group_symop_operation_xyz
x,y,z
-x,-y,-z
loop_
_atom_site_type_symbol
_atom_site_label
_atom_site_fract_x
_atom_site_fract_y
_atom_site_fract_z
Si Si1 0.577271 0.665545 0.496191
Si Si2 0.651507 0.167936 0.432704
Si Si3 0.069959 0.331172 0.549640
Si Si4 0.067939 0.688922 0.232720
Si Si5 0.750370 0.484366 0.965048
Si Si6 0.302591 0.047923 0.597462
Si Si7 0.980000 0.810301 0.833798
O O1 0.694920 0.637841 0.453508
O O2 0.327670 0.688688 0.354874
O O3 0.718017 0.836261 0.427552
O O4 0.602157 0.524746 0.754304
O O5 0.647423 0.318381 0.177464
O O6 0.538531 0.146240 0.537465
O O7 0.906301 0.207170 0.532166
O O8 0.500000 0.000000 0.500000
O O9 0.983850 0.503204 0.343011
O O10 0.051612 0.278649 0.733276
O O11 0.024734 0.813478 0.982473
O O12 0.809293 0.640732 0.908040
O O13 0.000000 0.500000 0.000000
O O14 0.141564 0.056197 0.414660
O O15 0.221876 0.857383 0.816925
#
# Coordination Sequence:
#
# PCOD9030075 Si02
#       7
#     2   2   2   2   2   2   2
#     4  11  23  42  72  98 136 182 229 274 342 403
#     4  12  24  41  69 105 138 172 233 289 338 394
#     4  11  24  42  67 102 137 178 224 287 328 411
#     4  11  23  45  71  96 141 181 227 271 342 416
#     4  11  21  40  69  99 131 176 233 281 332 393
#     4  10  24  42  69 101 135 176 230 288 337 391
#     4  10  22  42  69  95 133 184 224 279 341 396
#
# _framework density 24.563555000000001
#
# number of rings (size 3 to 8) (size 9 to 14) (size 15 to 20)
#    0.000    1.143    4.286    1.286    4.000    5.143 
#    0.000    2.143    0.000    0.000    0.000    0.000 
#    0.000    0.000    0.000    0.000    0.000    0.000 
#
# Total GULP energy -78056.036889 kJ/mol
# GULP energy per Si atom -5575.431206 kJ/mol
# Density = 2.450765 g / cm^3
# Si number density = 24.563555 Si / 1000 Ang^3
#
#
#
# Elastic Constant Matrix: (Units=GPa)
#
#
# Indices 1 2 3 4 5 6 
#
# 1 145.5736 54.2345 37.4724 14.2111 -39.7720 -4.8284
# 2 54.2345 130.5610 51.1385 -6.8373 -18.0108 5.7632
# 3 37.4724 51.1385 117.6257 14.2344 -50.4469 3.4897
# 4 14.2111 -6.8373 14.2344 49.4112 3.3532 -9.7531
# 5 -39.7720 -18.0108 -50.4469 3.3532 35.3880 1.9687
# 6 -4.8284 5.7632 3.4897 -9.7531 1.9687 41.4001
#
#
#
# Elastic Compliance Matrix: (Units=1/GPa)
#
#
# Indices 1 2 3 4 5 6 
#
# 1 0.022310 -0.012121 0.025330 -0.020333 0.057239 -0.005358
# 2 -0.012121 0.016473 -0.020949 0.014948 -0.036705 0.003326
# 3 0.025330 -0.020949 0.061974 -0.038226 0.110532 -0.013615
# 4 -0.020333 0.014948 -0.038226 0.046893 -0.074925 0.013380
# 5 0.057239 -0.036705 0.110532 -0.074925 0.240054 -0.026598
# 6 -0.005358 0.003326 -0.013615 0.013380 -0.026598 0.028631
#
#
# Mechanical properties :
#
#
# Convention : Reuss Voigt Hill
#
# Bulk Modulus (GPa) = 11.72652 75.49455 43.61054
# Shear Modulus (GPa) = 10.86386 41.96754 26.41570
#
# Velocity S-wave (km/s) = 2.10532 4.13792 3.28289
# Velocity P-wave (km/s) = 3.27019 7.32331 5.67120
#
# Compressibility (1/GPa) = 0.08527677
#
# Stress axis : x y z
#
# Youngs Moduli (GPa) = 44.82205 60.70715 16.13568
#
# Poissons Ratio (x) = 0.73585 -0.40872
# Poissons Ratio (y) = 0.54330 0.33803
# Poissons Ratio (z) = -1.13536 1.27178
#
# Static dielectric constant tensor:
#      x y z
#    x 2.305060 0.025770 -0.052800 
#    y 0.025770 1.991510 -0.091460 
#    z -0.052800 -0.091460 2.033170 
# 
# From -- ./inp_files/402724.got.cif
#   From: 2010.05.17/outbox.cif.g08.bks.cpg/sg2_202_cif.got.tgz:402724.got - 2010.06.03 11:33:40.
