data_PCOD9030707
_publ_section_title
;
Structure prediction by ZEFSAII (Michael W. Deem and Ramdas Pophale) SiO2 
 PCOD9030707
Probable space group: P -1
;
_chemical_formula_sum "Si O2"
_cell_formula_units_Z 16
_cell_length_a 13.374150
_cell_length_b 8.387664
_cell_length_c 13.945618
_cell_angle_alpha 82.272029
_cell_angle_beta 147.337905
_cell_angle_gamma 77.565723
_cell_volume 660.132946
_symmetry_space_group_name_H-M "P -1"
_symmetry_group_IT_number 2
_symmetry_cell_setting 'triclinic'
loop_
_space_group_symop_operation_xyz
x,y,z
-x,-y,-z
loop_
_atom_site_type_symbol
_atom_site_label
_atom_site_fract_x
_atom_site_fract_y
_atom_site_fract_z
Si Si1 0.269429 0.384028 0.496514
Si Si2 0.834888 0.767269 0.379850
Si Si3 0.611634 0.123109 0.292544
Si Si4 0.935935 0.985396 0.750482
Si Si5 0.859867 0.793471 0.052837
Si Si6 0.602928 0.425558 0.863804
Si Si7 0.353145 0.962905 0.316817
Si Si8 0.624087 0.580139 0.152374
O O1 0.199439 0.314208 0.539389
O O2 0.401166 0.479824 0.623548
O O3 0.459746 0.208067 0.592620
O O4 0.034358 0.556949 0.237805
O O5 0.704057 0.727569 0.196535
O O6 0.113082 0.627186 0.594583
O O7 0.742602 0.994792 0.312595
O O8 0.400285 0.112500 0.134169
O O9 0.475483 0.364598 0.171451
O O10 0.787929 0.025004 0.532993
O O11 0.775707 0.082655 0.708098
O O12 0.133721 0.741619 0.944963
O O13 0.061376 0.089427 0.837811
O O14 0.838701 0.845107 0.919033
O O15 0.563708 0.312878 0.922845
O O16 0.500000 0.000000 0.500000
O O17 0.500000 0.500000 0.000000
#
# Coordination Sequence:
#
# PCOD9030707 Si02
#       8
#     2   2   2   2   2   2   2   2
#     4  11  24  45  68  99 137 181 228 278 339 402
#     4  10  22  45  68  98 144 168 221 286 325 405
#     4  12  25  43  71 104 133 183 228 271 344 399
#     4  12  25  47  69  97 141 182 224 287 335 395
#     4  12  25  42  69  97 135 180 228 275 337 400
#     4  11  25  45  72  99 136 178 227 280 340 404
#     4  12  25  44  67 100 138 181 232 281 335 395
#     4  10  22  42  73 100 131 181 218 272 345 398
#
# _framework density 24.237542999999999
#
# number of rings (size 3 to 8) (size 9 to 14) (size 15 to 20)
#    0.000    0.750    5.000    1.875    5.250    2.500 
#    0.000    0.625    0.000    0.000    0.000    0.000 
#    0.000    0.000    0.000    0.000    0.000    0.000 
#
# Total GULP energy -89273.636114 kJ/mol
# GULP energy per Si atom -5579.602257 kJ/mol
# Density = 2.418238 g / cm^3
# Si number density = 24.237543 Si / 1000 Ang^3
#
#
#
# Elastic Constant Matrix: (Units=GPa)
#
#
# Indices 1 2 3 4 5 6 
#
# 1 53.1293 25.5257 30.0074 7.3186 15.8147 -16.4573
# 2 25.5257 124.3136 37.9523 2.5963 12.1211 -5.8387
# 3 30.0074 37.9523 139.8934 15.0899 0.6274 1.4155
# 4 7.3186 2.5963 15.0899 47.7682 -0.5832 7.8272
# 5 15.8147 12.1211 0.6274 -0.5832 38.7504 -0.3091
# 6 -16.4573 -5.8387 1.4155 7.8272 -0.3091 25.2426
#
#
#
# Elastic Compliance Matrix: (Units=1/GPa)
#
#
# Indices 1 2 3 4 5 6 
#
# 1 0.037432 -0.002885 -0.006588 -0.007998 -0.014177 0.026413
# 2 -0.002885 0.009410 -0.001982 0.000498 -0.001725 0.000231
# 3 -0.006588 -0.001982 0.009238 -0.000954 0.003105 -0.004937
# 4 -0.007998 0.000498 -0.000954 0.024543 0.003393 -0.012615
# 5 -0.014177 -0.001725 0.003105 0.003393 0.032049 -0.010476
# 6 0.026413 0.000231 -0.004937 -0.012615 -0.010476 0.060950
#
#
# Mechanical properties :
#
#
# Convention : Reuss Voigt Hill
#
# Bulk Modulus (GPa) = 30.14690 56.03411 43.09051
# Shear Modulus (GPa) = 24.08605 37.27563 30.68084
#
# Velocity S-wave (km/s) = 3.15580 3.92590 3.56172
# Velocity P-wave (km/s) = 5.07384 6.61205 5.89334
#
# Compressibility (1/GPa) = 0.03317090
#
# Stress axis : x y z
#
# Youngs Moduli (GPa) = 26.71490 106.26503 108.24694
#
# Poissons Ratio (x) = 0.30657 0.71308
# Poissons Ratio (y) = 0.07707 0.21460
# Poissons Ratio (z) = 0.17598 0.21067
#
# Static dielectric constant tensor:
#      x y z
#    x 2.119450 -0.030430 -0.156500 
#    y -0.030430 2.036940 0.052260 
#    z -0.156500 0.052260 2.048820 
# 
# From -- ./inp_files/529829.got.cif
#   From: 2010.05.17/outbox.cif.g08.bks.cpg/sg2_265_cif.got.tgz:529829.got - 2010.06.03 11:33:40.
