data_PCOD9030378
_publ_section_title
;
Structure prediction by ZEFSAII (Michael W. Deem and Ramdas Pophale) SiO2 
 PCOD9030378
Probable space group: P -1
;
_chemical_formula_sum "Si O2"
_cell_formula_units_Z 14
_cell_length_a 14.909730
_cell_length_b 16.887056
_cell_length_c 14.684043
_cell_angle_alpha 155.889598
_cell_angle_beta 142.551233
_cell_angle_gamma 24.662973
_cell_volume 616.312584
_symmetry_space_group_name_H-M "P -1"
_symmetry_group_IT_number 2
_symmetry_cell_setting 'triclinic'
loop_
_space_group_symop_operation_xyz
x,y,z
-x,-y,-z
loop_
_atom_site_type_symbol
_atom_site_label
_atom_site_fract_x
_atom_site_fract_y
_atom_site_fract_z
Si Si1 0.654436 0.335819 0.189295
Si Si2 0.040004 0.714173 0.842562
Si Si3 0.568706 0.187387 0.151321
Si Si4 0.207339 0.849044 0.264571
Si Si5 0.706904 0.734657 0.661421
Si Si6 0.497379 0.122892 0.534197
Si Si7 0.863650 0.186232 0.495975
O O1 0.610296 0.272130 0.182058
O O2 0.429560 0.559612 0.187769
O O3 0.722828 0.489427 0.427050
O O4 0.844308 0.028263 0.969373
O O5 0.265076 0.464370 0.709033
O O6 0.930189 0.619937 0.686680
O O7 0.105115 0.777164 0.048472
O O8 0.727399 0.129150 0.292890
O O9 0.318337 0.471416 0.275018
O O10 0.629720 0.913326 0.879549
O O11 0.294221 0.939858 0.368068
O O12 0.034357 0.078222 0.441866
O O13 0.528408 0.951842 0.664186
O O14 0.500000 0.000000 0.500000
O O15 0.000000 0.000000 0.500000
#
# Coordination Sequence:
#
# PCOD9030378 Si02
#       7
#     2   2   2   2   2   2   2
#     4  10  22  42  70  96 141 173 230 274 335 408
#     4  11  24  44  69  97 134 189 222 276 344 393
#     4  10  22  42  70  99 133 179 225 276 345 404
#     4  11  23  44  68 101 135 181 226 283 337 398
#     4  10  23  45  68 101 137 179 226 285 334 401
#     4  11  27  43  69 103 141 177 235 278 336 406
#     4  11  21  40  74  97 132 180 223 276 346 407
#
# _framework density 22.715747
#
# number of rings (size 3 to 8) (size 9 to 14) (size 15 to 20)
#    0.000    1.429    4.286    0.857    6.000    2.286 
#    0.000    5.714    3.143    0.000    0.000    0.000 
#    0.000    0.000    0.000    0.000    0.000    0.000 
#
# Total GULP energy -78326.640607 kJ/mol
# GULP energy per Si atom -5594.760043 kJ/mol
# Density = 2.266405 g / cm^3
# Si number density = 22.715747 Si / 1000 Ang^3
#
#
#
# Elastic Constant Matrix: (Units=GPa)
#
#
# Indices 1 2 3 4 5 6 
#
# 1 70.5890 33.5865 23.8660 8.8838 -0.0769 -14.4293
# 2 33.5865 102.1681 9.1017 12.1756 2.3701 -12.8126
# 3 23.8660 9.1017 69.5072 16.2594 2.7320 -11.3422
# 4 8.8838 12.1756 16.2594 41.3693 -12.0807 -11.1676
# 5 -0.0769 2.3701 2.7320 -12.0807 40.0395 0.3525
# 6 -14.4293 -12.8126 -11.3422 -11.1676 0.3525 44.7245
#
#
#
# Elastic Compliance Matrix: (Units=1/GPa)
#
#
# Indices 1 2 3 4 5 6 
#
# 1 0.019280 -0.005540 -0.005584 0.000900 0.000987 0.003434
# 2 -0.005540 0.012052 0.001309 -0.003043 -0.001742 0.001251
# 3 -0.005584 0.001309 0.018124 -0.006912 -0.003423 0.001471
# 4 0.000900 -0.003043 -0.006912 0.032109 0.010292 0.005602
# 5 0.000987 -0.001742 -0.003423 0.010292 0.028408 0.001297
# 6 0.003434 0.001251 0.001471 0.005602 0.001297 0.025587
#
#
# Mechanical properties :
#
#
# Convention : Reuss Voigt Hill
#
# Bulk Modulus (GPa) = 33.52739 41.70810 37.61775
# Shear Modulus (GPa) = 30.27849 36.94066 33.60958
#
# Velocity S-wave (km/s) = 3.65489 4.03701 3.85069
# Velocity P-wave (km/s) = 5.70986 6.33488 6.03047
#
# Compressibility (1/GPa) = 0.02982636
#
# Stress axis : x y z
#
# Youngs Moduli (GPa) = 51.86687 82.97071 55.17458
#
# Poissons Ratio (x) = 0.45967 0.30807
# Poissons Ratio (y) = 0.28735 -0.07220
# Poissons Ratio (z) = 0.28960 -0.10857
#
# Static dielectric constant tensor:
#      x y z
#    x 1.872410 0.019460 -0.012890 
#    y 0.019460 1.856100 0.016710 
#    z -0.012890 0.016710 1.889520 
# 
# From -- ./inp_files/576328.got.cif
#   From: 2010.05.17/outbox.cif.g08.bks.cpg/sg2_289_cif.got.tgz:576328.got - 2010.06.03 11:33:40.
