data_PCOD9030198
_publ_section_title
;
Structure prediction by ZEFSAII (Michael W. Deem and Ramdas Pophale) SiO2 
 PCOD9030198
Probable space group: P -1
;
_chemical_formula_sum "Si O2"
_cell_formula_units_Z 13
_cell_length_a 7.261138
_cell_length_b 8.690232
_cell_length_c 14.835174
_cell_angle_alpha 147.234218
_cell_angle_beta 98.539329
_cell_angle_gamma 78.200971
_cell_volume 495.439558
_symmetry_space_group_name_H-M "P -1"
_symmetry_group_IT_number 2
_symmetry_cell_setting 'triclinic'
loop_
_space_group_symop_operation_xyz
x,y,z
-x,-y,-z
loop_
_atom_site_type_symbol
_atom_site_label
_atom_site_fract_x
_atom_site_fract_y
_atom_site_fract_z
Si Si1 0.212443 0.032244 0.838458
Si Si2 0.562920 0.664875 0.355881
Si Si3 0.791938 0.182365 0.077520
Si Si4 0.221505 0.052715 0.230060
Si Si5 0.745573 0.352887 0.808066
Si Si6 0.685512 0.323445 0.497795
Si Si7 0.000000 0.000000 0.500000
O O1 0.293096 0.928776 0.891839
O O2 0.323816 0.888929 0.690915
O O3 0.191323 0.374728 0.004919
O O4 0.004052 0.942856 0.774067
O O5 0.771586 0.526903 0.269478
O O6 0.429633 0.528406 0.210117
O O7 0.507033 0.614777 0.428634
O O8 0.500000 0.000000 0.500000
O O9 0.717248 0.113424 0.940524
O O10 0.000000 0.000000 0.000000
O O11 0.256921 0.377262 0.382897
O O12 0.307492 0.869082 0.230813
O O13 0.900955 0.182860 0.670652
O O14 0.838966 0.177414 0.508241
#
# Coordination Sequence:
#
# PCOD9030198 Si02
#       7
#     2   2   2   2   2   2   1
#     4  11  24  44  73 111 147 198 250 306 371 457
#     4  11  28  49  72 110 151 203 249 321 383 448
#     4  10  25  47  76 100 148 193 258 308 388 444
#     4  11  24  44  73 111 147 198 250 306 371 457
#     4  11  25  43  73 108 151 198 254 307 379 446
#     4  11  25  43  73 108 151 198 254 307 379 446
#     4  10  22  42  70 100 158 190 250 302 372 444
#
# _framework density 26.239322999999999
#
# number of rings (size 3 to 8) (size 9 to 14) (size 15 to 20)
#    0.000    1.231    1.538    2.769    4.308   11.077 
#    0.000    0.000    0.000    0.000    0.000    0.000 
#    0.000    0.000    0.000    0.000    0.000    0.000 
#
# Total GULP energy -72629.862095 kJ/mol
# GULP energy per Si atom -5586.912469 kJ/mol
# Density = 2.617960 g / cm^3
# Si number density = 26.239323 Si / 1000 Ang^3
#
#
#
# Elastic Constant Matrix: (Units=GPa)
#
#
# Indices 1 2 3 4 5 6 
#
# 1 81.6276 29.7016 60.0647 -9.2440 -20.5157 13.1384
# 2 29.7016 188.3195 87.6091 -28.1875 -5.0056 8.6108
# 3 60.0647 87.6091 255.5427 -14.8794 -42.2209 25.8459
# 4 -9.2440 -28.1875 -14.8794 52.4891 4.5877 0.3352
# 5 -20.5157 -5.0056 -42.2209 4.5877 50.7456 2.2681
# 6 13.1384 8.6108 25.8459 0.3352 2.2681 43.4448
#
#
#
# Elastic Compliance Matrix: (Units=1/GPa)
#
#
# Indices 1 2 3 4 5 6 
#
# 1 0.016159 -0.001025 -0.002247 0.001279 0.004607 -0.003597
# 2 -0.001025 0.006940 -0.002324 0.003056 -0.001957 0.000395
# 3 -0.002247 -0.002324 0.006190 -0.000235 0.004157 -0.002758
# 4 0.001279 0.003056 -0.000235 0.020965 -0.001230 -0.000950
# 5 0.004607 -0.001957 0.004157 -0.001230 0.025159 -0.004782
# 6 -0.003597 0.000395 -0.002758 -0.000950 -0.004782 0.025925
#
#
# Mechanical properties :
#
#
# Convention : Reuss Voigt Hill
#
# Bulk Modulus (GPa) = 55.25631 97.80449 76.53040
# Shear Modulus (GPa) = 42.17167 52.54354 47.35761
#
# Velocity S-wave (km/s) = 4.01333 4.47976 4.25294
# Velocity P-wave (km/s) = 6.52534 8.00703 7.30386
#
# Compressibility (1/GPa) = 0.01809748
#
# Stress axis : x y z
#
# Youngs Moduli (GPa) = 61.88500 144.08771 161.54404
#
# Poissons Ratio (x) = 0.14765 0.36305
# Poissons Ratio (y) = 0.06342 0.37541
# Poissons Ratio (z) = 0.13908 0.33484
#
# Static dielectric constant tensor:
#      x y z
#    x 1.598130 -0.096400 -0.141580 
#    y -0.096400 2.043110 0.054110 
#    z -0.141580 0.054110 2.041430 
# 
# From -- ./inp_files/152916.got.cif
#   From: 2010.05.17/outbox.cif.g08.bks.cpg/sg2_77_cif.got.tgz:152916.got - 2010.06.03 11:33:40.
