data_PCOD9030318
_publ_section_title
;
Structure prediction by ZEFSAII (Michael W. Deem and Ramdas Pophale) SiO2 
 PCOD9030318
Probable space group: P -1
;
_chemical_formula_sum "Si O2"
_cell_formula_units_Z 16
_cell_length_a 13.345797
_cell_length_b 6.424872
_cell_length_c 21.357757
_cell_angle_alpha 127.303673
_cell_angle_beta 38.076765
_cell_angle_gamma 139.291631
_cell_volume 736.411479
_symmetry_space_group_name_H-M "P -1"
_symmetry_group_IT_number 2
_symmetry_cell_setting 'triclinic'
loop_
_space_group_symop_operation_xyz
x,y,z
-x,-y,-z
loop_
_atom_site_type_symbol
_atom_site_label
_atom_site_fract_x
_atom_site_fract_y
_atom_site_fract_z
Si Si1 0.657616 0.293668 0.614378
Si Si2 0.290514 0.061096 0.249790
Si Si3 0.290411 0.216894 0.524758
Si Si4 0.313132 0.841181 0.878651
Si Si5 0.938441 0.676346 0.437222
Si Si6 0.003531 0.878740 0.250301
Si Si7 0.757274 0.124181 0.220573
Si Si8 0.018274 0.919755 0.107697
O O1 0.702558 0.616580 0.682217
O O2 0.808326 0.415246 0.504956
O O3 0.688469 0.022195 0.573448
O O4 0.421826 0.087217 0.681292
O O5 0.499112 0.120150 0.173627
O O6 0.197671 0.964384 0.208452
O O7 0.135293 0.776109 0.321664
O O8 0.500000 0.500000 0.500000
O O9 0.214288 0.386132 0.552405
O O10 0.122780 0.043172 0.629590
O O11 0.342015 0.974537 0.817823
O O12 0.145851 0.462158 0.885095
O O13 0.218152 0.984330 0.992662
O O14 0.000000 0.000000 0.500000
O O15 0.043314 0.016070 0.185868
O O16 0.858528 0.496486 0.245905
O O17 0.926786 0.067709 0.138548
#
# Coordination Sequence:
#
# PCOD9030318 Si02
#       8
#     2   2   2   2   2   2   2   2
#     4  11  23  39  68  88 126 177 212 247 317 380
#     4  10  22  45  60  97 133 169 207 267 320 378
#     4  11  23  39  61  93 127 168 212 260 307 372
#     4  10  22  42  70  92 127 162 215 271 313 378
#     4   9  23  38  57  87 129 162 209 255 301 377
#     4  10  24  41  61  95 138 157 211 272 312 375
#     4  11  22  40  66  95 125 166 217 263 311 382
#     4  10  22  43  69  95 120 168 216 265 320 377
#
# _framework density 21.726982
#
# number of rings (size 3 to 8) (size 9 to 14) (size 15 to 20)
#    0.000    1.750    2.500    0.375    5.250    7.500 
#    2.250    0.625    0.000    0.000    0.000    0.000 
#    0.000    0.000    0.000    0.000    0.000    0.000 
#
# Total GULP energy -89190.530372 kJ/mol
# GULP energy per Si atom -5574.408148 kJ/mol
# Density = 2.167753 g / cm^3
# Si number density = 21.726982 Si / 1000 Ang^3
#
#
#
# Elastic Constant Matrix: (Units=GPa)
#
#
# Indices 1 2 3 4 5 6 
#
# 1 67.6186 29.1300 -53.4600 -6.8376 -19.8297 28.4645
# 2 29.1300 47.7285 53.7999 -3.9224 -2.0605 -1.3699
# 3 -53.4600 53.7999 -142.8646 1.9804 -45.7148 6.5492
# 4 -6.8376 -3.9224 1.9804 22.7111 2.2128 -7.2414
# 5 -19.8297 -2.0605 -45.7148 2.2128 29.0732 -2.4699
# 6 28.4645 -1.3699 6.5492 -7.2414 -2.4699 18.4128
#
#
#
# Elastic Compliance Matrix: (Units=1/GPa)
#
#
# Indices 1 2 3 4 5 6 
#
# 1 0.020257 -0.003235 -0.009189 -0.002864 -0.003179 -0.029841
# 2 -0.003235 0.017454 0.005538 0.002855 0.008077 0.006536
# 3 -0.009189 0.005538 0.000544 0.003384 -0.003984 0.015220
# 4 -0.002864 0.002855 0.003384 0.050730 0.001715 0.023617
# 5 -0.003179 0.008077 -0.003984 0.001715 0.027363 0.011277
# 6 -0.029841 0.006536 0.015220 0.023617 0.011277 0.106315
#
#
# Mechanical properties :
#
#
# Convention : Reuss Voigt Hill
#
# Bulk Modulus (GPa) = 40.84243 3.49138 22.16690
# Shear Modulus (GPa) = 20.44177 10.24027 15.34102
#
# Velocity S-wave (km/s) = 3.07065 2.17334 2.66010
# Velocity P-wave (km/s) = 5.60452 2.81216 4.43390
#
# Compressibility (1/GPa) = 0.02448434
#
# Stress axis : x y z
#
# Youngs Moduli (GPa) = 49.36460 57.29219 1838.32905
#
# Poissons Ratio (x) = 0.18533 16.89252
# Poissons Ratio (y) = 0.15968 -10.18087
# Poissons Ratio (z) = 0.45361 -0.31729
#
# Static dielectric constant tensor:
#      x y z
#    x 1.855400 -0.031950 0.015360 
#    y -0.031950 1.850280 -0.036280 
#    z 0.015360 -0.036280 1.834640 
# 
# From -- ./inp_files/206137.got.cif
#   From: 2010.05.17/outbox.cif.g08.bks.cpg/sg2_104_cif.got.tgz:206137.got - 2010.06.03 11:33:40.
