data_PCOD9030138
_publ_section_title
;
Structure prediction by ZEFSAII (Michael W. Deem and Ramdas Pophale) SiO2 
 PCOD9030138
Probable space group: P -1
;
_chemical_formula_sum "Si O2"
_cell_formula_units_Z 13
_cell_length_a 13.858198
_cell_length_b 11.932386
_cell_length_c 8.696499
_cell_angle_alpha 51.220604
_cell_angle_beta 146.382366
_cell_angle_gamma 138.301777
_cell_volume 529.585447
_symmetry_space_group_name_H-M "P -1"
_symmetry_group_IT_number 2
_symmetry_cell_setting 'triclinic'
loop_
_space_group_symop_operation_xyz
x,y,z
-x,-y,-z
loop_
_atom_site_type_symbol
_atom_site_label
_atom_site_fract_x
_atom_site_fract_y
_atom_site_fract_z
Si Si1 0.496872 0.330537 0.176948
Si Si2 0.218276 0.526061 0.298441
Si Si3 0.173725 0.230762 0.086448
Si Si4 0.500000 0.500000 0.500000
Si Si5 0.830848 0.082340 0.540038
Si Si6 0.442708 0.023448 0.230902
Si Si7 0.972166 0.157730 0.327629
O O1 0.691934 0.386186 0.495636
O O2 0.299640 0.223567 0.114182
O O3 0.476132 0.210349 0.114998
O O4 0.500000 0.500000 0.000000
O O5 0.397134 0.607451 0.341303
O O6 0.176829 0.334377 0.409392
O O7 0.000000 0.500000 0.000000
O O8 0.313570 0.404689 0.208212
O O9 0.135628 0.075988 0.275562
O O10 0.966912 0.198875 0.762752
O O11 0.599046 0.019969 0.323194
O O12 0.905614 0.172580 0.398709
O O13 0.500000 0.000000 0.500000
O O14 0.212534 0.887807 0.994180
O O15 0.000000 0.000000 0.500000
#
# Coordination Sequence:
#
# PCOD9030138 Si02
#       7
#     2   2   2   1   2   2   2
#     4  11  23  44  66  99 136 182 228 292 352 419
#     4  11  25  45  70 100 143 179 237 288 361 420
#     4  10  22  42  69  98 138 185 232 284 361 417
#     4  10  24  40  70 102 136 186 230 288 354 428
#     4  11  24  43  70 103 141 180 239 292 351 421
#     4  12  25  44  73 104 140 185 241 291 349 428
#     4  12  26  46  72 103 141 186 236 296 355 424
#
# _framework density 24.547502000000001
#
# number of rings (size 3 to 8) (size 9 to 14) (size 15 to 20)
#    0.000    0.923    1.538    5.077    8.615    1.231 
#    8.308    1.538    0.000    0.000    0.000    0.000 
#    0.000    0.000    0.000    0.000    0.000    0.000 
#
# Total GULP energy -72545.442733 kJ/mol
# GULP energy per Si atom -5580.418672 kJ/mol
# Density = 2.449163 g / cm^3
# Si number density = 24.547502 Si / 1000 Ang^3
#
#
#
# Elastic Constant Matrix: (Units=GPa)
#
#
# Indices 1 2 3 4 5 6 
#
# 1 55.9309 -17.0640 -4.0362 -7.8504 -6.2951 -11.4601
# 2 -17.0640 99.3999 20.6480 17.4700 -9.2938 -19.6468
# 3 -4.0362 20.6480 117.4332 26.1347 -2.0118 -4.3170
# 4 -7.8504 17.4700 26.1347 47.9377 -2.0309 -6.4458
# 5 -6.2951 -9.2938 -2.0118 -2.0309 30.9348 2.7958
# 6 -11.4601 -19.6468 -4.3170 -6.4458 2.7958 26.8537
#
#
#
# Elastic Compliance Matrix: (Units=1/GPa)
#
#
# Indices 1 2 3 4 5 6 
#
# 1 0.024673 0.007415 -0.000679 0.004143 0.006011 0.016214
# 2 0.007415 0.014899 -0.001482 -0.001464 0.004618 0.012994
# 3 -0.000679 -0.001482 0.009843 -0.005079 -0.000187 -0.000991
# 4 0.004143 -0.001464 -0.005079 0.025689 0.001224 0.005919
# 5 0.006011 0.004618 -0.000187 0.001224 0.034771 0.002588
# 6 0.016214 0.012994 -0.000991 0.005919 0.002588 0.054657
#
#
# Mechanical properties :
#
#
# Convention : Reuss Voigt Hill
#
# Bulk Modulus (GPa) = 16.68793 30.20661 23.44727
# Shear Modulus (GPa) = 28.73597 39.35966 34.04782
#
# Velocity S-wave (km/s) = 3.42515 4.00860 3.72831
# Velocity P-wave (km/s) = 4.73869 5.81010 5.30153
#
# Compressibility (1/GPa) = 0.05992355
#
# Stress axis : x y z
#
# Youngs Moduli (GPa) = 40.53046 67.11992 101.59147
#
# Poissons Ratio (x) = -0.49771 0.06896
# Poissons Ratio (y) = -0.30054 0.15056
# Poissons Ratio (z) = 0.02751 0.09948
#
# Static dielectric constant tensor:
#      x y z
#    x 0.333320 -0.757040 0.097960 
#    y -0.757040 1.678400 0.014580 
#    z 0.097960 0.014580 1.967820 
# 
# From -- ./inp_files/147819.got.cif
#   From: 2010.05.17/outbox.cif.g08.bks.cpg/sg2_74_cif.got.tgz:147819.got - 2010.06.03 11:33:40.
