data_PCOD9030414
_publ_section_title
;
Structure prediction by ZEFSAII (Michael W. Deem and Ramdas Pophale) SiO2 
 PCOD9030414
Probable space group: P -1
;
_chemical_formula_sum "Si O2"
_cell_formula_units_Z 15
_cell_length_a 11.416073
_cell_length_b 15.580257
_cell_length_c 25.061728
_cell_angle_alpha 160.266199
_cell_angle_beta 147.534016
_cell_angle_gamma 39.922873
_cell_volume 798.760000
_symmetry_space_group_name_H-M "P -1"
_symmetry_group_IT_number 2
_symmetry_cell_setting 'triclinic'
loop_
_space_group_symop_operation_xyz
x,y,z
-x,-y,-z
loop_
_atom_site_type_symbol
_atom_site_label
_atom_site_fract_x
_atom_site_fract_y
_atom_site_fract_z
Si Si1 0.301151 0.030800 0.400307
Si Si2 0.217478 0.884291 0.998069
Si Si3 0.445632 0.772907 0.494600
Si Si4 0.454370 0.222696 0.845603
Si Si5 0.061307 0.334392 0.566314
Si Si6 0.014158 0.822763 0.303682
Si Si7 0.451347 0.629782 0.614497
Si Si8 0.000000 0.500000 0.000000
O O1 0.404105 0.143556 0.450268
O O2 0.164980 0.237431 0.495782
O O3 0.500000 0.000000 0.500000
O O4 0.152260 0.751991 0.175752
O O5 0.156066 0.623785 0.788467
O O6 0.355691 0.817920 0.063508
O O7 0.377835 0.109300 0.161668
O O8 0.000000 0.000000 0.000000
O O9 0.519482 0.554521 0.432642
O O10 0.195226 0.700394 0.335058
O O11 0.449912 0.014413 0.676053
O O12 0.218738 0.189794 0.764753
O O13 0.500000 0.500000 0.000000
O O14 0.797974 0.314126 0.449794
O O15 0.107531 0.123655 0.504792
O O16 0.986474 0.682301 0.154027
O O17 0.500000 0.500000 0.500000
#
# Coordination Sequence:
#
# PCOD9030414 Si02
#       8
#     2   2   2   2   2   2   2   1
#     4  11  24  44  70  99 136 177 224 287 340 401
#     4  12  25  42  69  95 135 184 218 274 349 404
#     4  12  24  44  67  98 140 177 227 285 340 400
#     4  12  25  37  66 104 134 167 234 285 334 409
#     4  11  23  44  70  97 133 181 226 275 343 404
#     4  11  23  42  70 101 133 178 224 289 339 404
#     4  12  24  47  65  98 142 179 224 282 337 410
#     4  10  22  42  70  98 138 170 220 278 354 390
#
# _framework density 18.779108000000001
#
# number of rings (size 3 to 8) (size 9 to 14) (size 15 to 20)
#    0.000    0.533    6.667    2.000    3.733    0.533 
#    2.400    0.667    0.000    0.000    0.000    0.000 
#    0.000    0.000    0.000    0.000    0.000    0.000 
#
# Total GULP energy -83581.063558 kJ/mol
# GULP energy per Si atom -5572.070904 kJ/mol
# Density = 1.873637 g / cm^3
# Si number density = 18.779108 Si / 1000 Ang^3
#
#
#
# Elastic Constant Matrix: (Units=GPa)
#
#
# Indices 1 2 3 4 5 6 
#
# 1 128.3379 63.4721 55.7507 -4.5515 7.8770 -3.0460
# 2 63.4721 88.7689 16.0449 3.1892 9.2691 8.0882
# 3 55.7507 16.0449 132.9322 26.0119 4.3213 -2.9621
# 4 -4.5515 3.1892 26.0119 29.6974 -4.7292 9.2190
# 5 7.8770 9.2691 4.3213 -4.7292 24.3183 7.3883
# 6 -3.0460 8.0882 -2.9621 9.2190 7.3883 39.8515
#
#
#
# Elastic Compliance Matrix: (Units=1/GPa)
#
#
# Indices 1 2 3 4 5 6 
#
# 1 0.017341 -0.011586 -0.008211 0.011514 0.002516 -0.000064
# 2 -0.011586 0.019820 0.004149 -0.007877 -0.005539 -0.001751
# 3 -0.008211 0.004149 0.013926 -0.016207 -0.005887 0.004406
# 4 0.011514 -0.007877 -0.016207 0.058211 0.018202 -0.015567
# 5 0.002516 -0.005539 -0.005887 0.018202 0.050882 -0.012765
# 6 -0.000064 -0.001751 0.004406 -0.015567 -0.012765 0.031739
#
#
# Mechanical properties :
#
#
# Convention : Reuss Voigt Hill
#
# Bulk Modulus (GPa) = 50.52288 68.95272 59.73780
# Shear Modulus (GPa) = 21.75701 33.09151 27.42426
#
# Velocity S-wave (km/s) = 3.40748 4.20235 3.82561
# Velocity P-wave (km/s) = 6.51486 7.76813 7.16893
#
# Compressibility (1/GPa) = 0.01979301
#
# Stress axis : x y z
#
# Youngs Moduli (GPa) = 57.66665 50.45311 71.80704
#
# Poissons Ratio (x) = 0.58454 0.58957
# Poissons Ratio (y) = 0.66812 -0.29794
# Poissons Ratio (z) = 0.47347 -0.20934
#
# Static dielectric constant tensor:
#      x y z
#    x 1.645500 0.007510 0.019190 
#    y 0.007510 1.627440 -0.005600 
#    z 0.019190 -0.005600 1.650240 
# 
# From -- ./inp_files/319182.got.cif
#   From: 2010.05.17/outbox.cif.g08.bks.cpg/sg2_160_cif.got.tgz:319182.got - 2010.06.03 11:33:40.
