data_PCOD9030642
_publ_section_title
;
Structure prediction by ZEFSAII (Michael W. Deem and Ramdas Pophale) SiO2 
 PCOD9030642
Probable space group: P -1
;
_chemical_formula_sum "Si O2"
_cell_formula_units_Z 13
_cell_length_a 5.491128
_cell_length_b 18.624666
_cell_length_c 5.171204
_cell_angle_alpha 112.262498
_cell_angle_beta 86.836280
_cell_angle_gamma 94.607937
_cell_volume 487.681136
_symmetry_space_group_name_H-M "P -1"
_symmetry_group_IT_number 2
_symmetry_cell_setting 'triclinic'
loop_
_space_group_symop_operation_xyz
x,y,z
-x,-y,-z
loop_
_atom_site_type_symbol
_atom_site_label
_atom_site_fract_x
_atom_site_fract_y
_atom_site_fract_z
Si Si1 0.051141 0.776048 0.656484
Si Si2 0.519218 0.590130 0.202902
Si Si3 0.789647 0.934386 0.913568
Si Si4 0.500000 0.000000 0.500000
Si Si5 0.777450 0.724401 0.083879
Si Si6 0.452792 0.856759 0.438559
Si Si7 0.001511 0.555198 0.329346
O O1 0.942825 0.739031 0.348872
O O2 0.326497 0.807669 0.614812
O O3 0.903574 0.852388 0.810535
O O4 0.970963 0.726209 0.843065
O O5 0.606825 0.646591 0.042010
O O6 0.256761 0.606754 0.358864
O O7 0.745899 0.594972 0.392395
O O8 0.500000 0.500000 0.000000
O O9 0.617316 0.952498 0.183435
O O10 0.638327 0.928799 0.639834
O O11 0.000000 0.000000 0.000000
O O12 0.722673 0.081875 0.583142
O O13 0.593802 0.794339 0.187429
O O14 0.000000 0.500000 0.500000
O O15 0.000000 0.500000 0.000000
#
# Coordination Sequence:
#
# PCOD9030642 Si02
#       7
#     2   2   2   1   2   2   2
#     4  11  26  45  68  98 146 187 239 298 372 438
#     4  10  24  48  76 112 149 196 252 311 377 450
#     4  11  24  40  63 100 133 181 239 297 356 432
#     4  12  22  40  72  90 134 180 242 290 358 418
#     4  11  27  46  69 102 145 189 241 300 372 442
#     4  11  26  42  66 102 137 191 237 302 364 438
#     4  10  22  42  72 107 144 183 238 303 366 439
#
# _framework density 26.656763000000002
#
# number of rings (size 3 to 8) (size 9 to 14) (size 15 to 20)
#    0.000    1.231    3.077    0.923    4.308    5.538 
#    0.000    0.000    0.000    0.000    0.000    0.000 
#    0.000    0.000    0.000    0.000    0.000    0.000 
#
# Total GULP energy -72600.564129 kJ/mol
# GULP energy per Si atom -5584.658779 kJ/mol
# Density = 2.659609 g / cm^3
# Si number density = 26.656763 Si / 1000 Ang^3
#
#
#
# Elastic Constant Matrix: (Units=GPa)
#
#
# Indices 1 2 3 4 5 6 
#
# 1 128.6238 32.3394 22.9797 -7.4452 -14.0584 26.5565
# 2 32.3394 183.1034 50.6476 -11.5628 -2.1147 35.3141
# 3 22.9797 50.6476 158.1464 -22.9138 -10.9587 22.5329
# 4 -7.4452 -11.5628 -22.9138 50.5406 8.2400 -13.1822
# 5 -14.0584 -2.1147 -10.9587 8.2400 37.7846 -6.7239
# 6 26.5565 35.3141 22.5329 -13.1822 -6.7239 47.5261
#
#
#
# Elastic Compliance Matrix: (Units=1/GPa)
#
#
# Indices 1 2 3 4 5 6 
#
# 1 0.009139 -0.000701 -0.000402 -0.000509 0.002614 -0.004166
# 2 -0.000701 0.006791 -0.001585 -0.000168 -0.001033 -0.004095
# 3 -0.000402 -0.001585 0.007513 0.002450 0.001172 -0.001314
# 4 -0.000509 -0.000168 0.002450 0.022674 -0.003537 0.005036
# 5 0.002614 -0.001033 0.001172 -0.003537 0.028821 0.001847
# 6 -0.004166 -0.004095 -0.001314 0.005036 0.001847 0.028693
#
#
# Mechanical properties :
#
#
# Convention : Reuss Voigt Hill
#
# Bulk Modulus (GPa) = 55.35570 75.75632 65.55601
# Shear Modulus (GPa) = 43.46654 51.43071 47.44863
#
# Velocity S-wave (km/s) = 4.04245 4.39722 4.22356
# Velocity P-wave (km/s) = 6.52685 7.36625 6.95922
#
# Compressibility (1/GPa) = 0.01806499
#
# Stress axis : x y z
#
# Youngs Moduli (GPa) = 109.41771 147.25197 133.10415
#
# Poissons Ratio (x) = 0.10326 0.05357
# Poissons Ratio (y) = 0.07673 0.21103
# Poissons Ratio (z) = 0.04403 0.23346
#
# Static dielectric constant tensor:
#      x y z
#    x 2.316310 -0.128120 0.261010 
#    y -0.128120 2.460340 -0.230080 
#    z 0.261010 -0.230080 2.327650 
# 
# From -- ./inp_files/6358.got.cif
#   From: 2010.05.17/outbox.cif.g08.bks.cpg/sg2_4_cif.got.tgz:6358.got - 2010.06.03 11:33:40.
