data_PCOD9030608
_publ_section_title
;
Structure prediction by ZEFSAII (Michael W. Deem and Ramdas Pophale) SiO2 
 PCOD9030608
Probable space group: P -1
;
_chemical_formula_sum "Si O2"
_cell_formula_units_Z 16
_cell_length_a 10.284416
_cell_length_b 7.905540
_cell_length_c 13.119470
_cell_angle_alpha 86.980035
_cell_angle_beta 134.845621
_cell_angle_gamma 74.560969
_cell_volume 682.388405
_symmetry_space_group_name_H-M "P -1"
_symmetry_group_IT_number 2
_symmetry_cell_setting 'triclinic'
loop_
_space_group_symop_operation_xyz
x,y,z
-x,-y,-z
loop_
_atom_site_type_symbol
_atom_site_label
_atom_site_fract_x
_atom_site_fract_y
_atom_site_fract_z
Si Si1 0.984438 0.595056 0.827569
Si Si2 0.085685 0.382896 0.704884
Si Si3 0.884941 0.156251 0.842825
Si Si4 0.042591 0.930748 0.734812
Si Si5 0.532011 0.161601 0.765450
Si Si6 0.070788 0.236807 0.501837
Si Si7 0.790697 0.725749 0.918889
Si Si8 0.522151 0.298499 0.978961
O O1 0.808153 0.692729 0.809187
O O2 0.939457 0.485718 0.713179
O O3 0.026054 0.757554 0.792081
O O4 0.193435 0.454288 0.004839
O O5 0.037031 0.251716 0.604710
O O6 0.311569 0.281072 0.877617
O O7 0.083106 0.558745 0.631972
O O8 0.653517 0.205149 0.740028
O O9 0.945518 0.090140 0.762121
O O10 0.986275 0.293146 0.923105
O O11 0.000000 0.000000 0.000000
O O12 0.947623 0.920565 0.573372
O O13 0.282767 0.863436 0.856031
O O14 0.296607 0.222371 0.613389
O O15 0.559337 0.261475 0.879343
O O16 0.631722 0.935774 0.847137
O O17 0.500000 0.500000 0.000000
#
# Coordination Sequence:
#
# PCOD9030608 Si02
#       8
#     2   2   2   2   2   2   2   2
#     4  10  18  31  53  77 105 134 167 212 260 298
#     4   9  19  33  48  78 103 134 168 215 252 295
#     4  10  17  32  52  76 103 125 173 221 252 288
#     4  11  18  33  56  81  98 131 174 217 254 295
#     4  10  19  32  50  79 105 132 167 215 257 299
#     4   9  19  31  49  77 106 129 168 216 249 303
#     4  10  19  32  52  80 103 133 169 218 253 299
#     4  11  17  28  54  76 100 127 176 214 245 291
#
# _framework density 23.447057000000001
#
# number of rings (size 3 to 8) (size 9 to 14) (size 15 to 20)
#    0.000    2.000    7.500    0.000    0.000    0.500 
#    0.000    2.500    0.000    3.750   16.250    0.000 
#    0.000    0.000    0.000    0.000    0.000    0.000 
#
# Total GULP energy -89222.069544 kJ/mol
# GULP energy per Si atom -5576.379346 kJ/mol
# Density = 2.339369 g / cm^3
# Si number density = 23.447057 Si / 1000 Ang^3
#
#
#
# Elastic Constant Matrix: (Units=GPa)
#
#
# Indices 1 2 3 4 5 6 
#
# 1 57.0961 34.0440 27.9175 17.2824 -18.2027 -32.7750
# 2 34.0440 119.3401 29.5746 31.2680 -7.3581 -30.1532
# 3 27.9175 29.5746 98.2524 35.6922 -0.9989 -24.2386
# 4 17.2824 31.2680 35.6922 47.7532 -13.5318 -16.2473
# 5 -18.2027 -7.3581 -0.9989 -13.5318 38.6502 9.5130
# 6 -32.7750 -30.1532 -24.2386 -16.2473 9.5130 46.2387
#
#
#
# Elastic Compliance Matrix: (Units=1/GPa)
#
#
# Indices 1 2 3 4 5 6 
#
# 1 0.036830 -0.004587 -0.005814 0.004147 0.013142 0.018820
# 2 -0.004587 0.011799 0.000860 -0.006442 -0.002943 0.003236
# 3 -0.005814 0.000860 0.016372 -0.011871 -0.006865 0.002263
# 4 0.004147 -0.006442 -0.011871 0.037132 0.012694 0.002952
# 5 0.013142 -0.002943 -0.006865 0.012694 0.035536 0.000946
# 6 0.018820 0.003236 0.002263 0.002952 0.000946 0.039106
#
#
# Mechanical properties :
#
#
# Convention : Reuss Voigt Hill
#
# Bulk Modulus (GPa) = 21.77738 50.86234 36.31986
# Shear Modulus (GPa) = 23.67847 38.73859 31.20853
#
# Velocity S-wave (km/s) = 3.18129 4.06910 3.65227
# Velocity P-wave (km/s) = 4.77517 6.61939 5.77142
#
# Compressibility (1/GPa) = 0.04591921
#
# Stress axis : x y z
#
# Youngs Moduli (GPa) = 27.15182 84.75628 61.08014
#
# Poissons Ratio (x) = 0.38874 0.35514
# Poissons Ratio (y) = 0.12453 -0.05254
# Poissons Ratio (z) = 0.15787 -0.07291
#
# Static dielectric constant tensor:
#      x y z
#    x 2.018120 0.071550 -0.052750 
#    y 0.071550 2.015000 -0.035970 
#    z -0.052750 -0.035970 1.909060 
# 
# From -- ./inp_files/514473.got.cif
#   From: 2010.05.17/outbox.cif.g08.bks.cpg/sg2_258_cif.got.tgz:514473.got - 2010.06.03 11:33:40.
