data_PCOD9030315
_publ_section_title
;
Structure prediction by ZEFSAII (Michael W. Deem and Ramdas Pophale) SiO2 
 PCOD9030315
Probable space group: P -1
;
_chemical_formula_sum "Si O2"
_cell_formula_units_Z 16
_cell_length_a 11.460208
_cell_length_b 19.355530
_cell_length_c 6.919211
_cell_angle_alpha 122.096900
_cell_angle_beta 126.947321
_cell_angle_gamma 32.882271
_cell_volume 664.689666
_symmetry_space_group_name_H-M "P -1"
_symmetry_group_IT_number 2
_symmetry_cell_setting 'triclinic'
loop_
_space_group_symop_operation_xyz
x,y,z
-x,-y,-z
loop_
_atom_site_type_symbol
_atom_site_label
_atom_site_fract_x
_atom_site_fract_y
_atom_site_fract_z
Si Si1 0.707067 0.578201 0.414180
Si Si2 0.984903 0.603906 0.882620
Si Si3 0.874280 0.104330 0.232005
Si Si4 0.623369 0.890222 0.800468
Si Si5 0.019233 0.792117 0.798668
Si Si6 0.768304 0.404911 0.600026
Si Si7 0.730691 0.285184 0.672320
Si Si8 0.635693 0.143260 0.703304
O O1 0.877520 0.560708 0.680715
O O2 0.543468 0.594780 0.408752
O O3 0.542705 0.712909 0.336733
O O4 0.835824 0.468738 0.223353
O O5 0.784743 0.755147 0.870324
O O6 0.126056 0.558997 0.150533
O O7 0.952276 0.145163 0.228693
O O8 0.781408 0.181539 0.450120
O O9 0.109318 0.955903 0.276549
O O10 0.684590 0.135966 0.969535
O O11 0.453998 0.905870 0.529433
O O12 0.777576 0.876160 0.783133
O O13 0.500000 0.000000 0.000000
O O14 0.111758 0.675800 0.595680
O O15 0.182182 0.741749 0.065517
O O16 0.500000 0.500000 0.500000
O O17 0.850680 0.303388 0.695005
#
# Coordination Sequence:
#
# PCOD9030315 Si02
#       8
#     2   2   2   2   2   2   2   2
#     4  10  22  42  70  91 133 181 212 272 328 386
#     4  10  23  44  65  98 132 170 226 264 325 400
#     4  10  23  42  65 101 131 167 225 275 315 398
#     4  11  24  44  69  95 134 176 215 271 335 388
#     4  11  23  42  67  98 134 171 216 276 324 389
#     4  11  25  40  68 101 131 171 221 267 325 395
#     4  11  22  41  68  97 132 172 219 268 333 383
#     4  10  22  43  63  97 133 171 220 271 322 387
#
# _framework density 24.071382
#
# number of rings (size 3 to 8) (size 9 to 14) (size 15 to 20)
#    0.000    1.500    2.500    1.500    5.250    3.000 
#    9.000    0.625    0.000    0.000    0.000    0.000 
#    0.000    0.000    0.000    0.000    0.000    0.000 
#
# Total GULP energy -89450.946564 kJ/mol
# GULP energy per Si atom -5590.684160 kJ/mol
# Density = 2.401659 g / cm^3
# Si number density = 24.071382 Si / 1000 Ang^3
#
#
#
# Elastic Constant Matrix: (Units=GPa)
#
#
# Indices 1 2 3 4 5 6 
#
# 1 72.5879 7.3183 48.0354 9.2049 -15.2369 -17.8778
# 2 7.3183 97.8840 61.1085 28.1739 -4.0805 -18.6051
# 3 48.0354 61.1085 213.9354 11.5867 18.4443 -26.9783
# 4 9.2049 28.1739 11.5867 51.5118 -9.9355 1.2423
# 5 -15.2369 -4.0805 18.4443 -9.9355 41.5066 -4.6921
# 6 -17.8778 -18.6051 -26.9783 1.2423 -4.6921 33.5524
#
#
#
# Elastic Compliance Matrix: (Units=1/GPa)
#
#
# Indices 1 2 3 4 5 6 
#
# 1 0.023747 0.006418 -0.006390 -0.004189 0.012655 0.012999
# 2 0.006418 0.017682 -0.005204 -0.008843 0.005435 0.010127
# 3 -0.006390 -0.005204 0.007981 0.001006 -0.006252 -0.000785
# 4 -0.004189 -0.008843 0.001006 0.025411 0.002445 -0.006926
# 5 0.012655 0.005435 -0.006252 0.002445 0.033693 0.009351
# 6 0.012999 0.010127 -0.000785 -0.006926 0.009351 0.043279
#
#
# Mechanical properties :
#
#
# Convention : Reuss Voigt Hill
#
# Bulk Modulus (GPa) = 25.60342 68.59242 47.09792
# Shear Modulus (GPa) = 28.54448 43.17717 35.86083
#
# Velocity S-wave (km/s) = 3.44732 4.23982 3.86394
# Velocity P-wave (km/s) = 5.14829 7.24744 6.28611
#
# Compressibility (1/GPa) = 0.03905729
#
# Stress axis : x y z
#
# Youngs Moduli (GPa) = 42.11056 56.55398 125.29499
#
# Poissons Ratio (x) = -0.36295 0.80065
# Poissons Ratio (y) = -0.27026 0.65207
# Poissons Ratio (z) = 0.26909 0.29432
#
# Static dielectric constant tensor:
#      x y z
#    x 1.988600 0.104180 -0.017040 
#    y 0.104180 2.013730 -0.078860 
#    z -0.017040 -0.078860 1.932950 
# 
# From -- ./inp_files/84556.got.cif
#   From: 2010.05.17/outbox.cif.g08.bks.cpg/sg2_43_cif.got.tgz:84556.got - 2010.06.03 11:33:40.
