data_PCOD9030946
_publ_section_title
;
Structure prediction by ZEFSAII (Michael W. Deem and Ramdas Pophale) SiO2 
 PCOD9030946
Probable space group: P -1
;
_chemical_formula_sum "Si O2"
_cell_formula_units_Z 12
_cell_length_a 12.814927
_cell_length_b 5.208815
_cell_length_c 8.143641
_cell_angle_alpha 90.041048
_cell_angle_beta 79.320626
_cell_angle_gamma 65.023982
_cell_volume 482.317495
_symmetry_space_group_name_H-M "P -1"
_symmetry_group_IT_number 2
_symmetry_cell_setting 'triclinic'
loop_
_space_group_symop_operation_xyz
x,y,z
-x,-y,-z
loop_
_atom_site_type_symbol
_atom_site_label
_atom_site_fract_x
_atom_site_fract_y
_atom_site_fract_z
Si Si1 0.494340 0.256579 0.389447
Si Si2 0.937478 0.813078 0.596797
Si Si3 0.226339 0.406098 0.074025
Si Si4 0.885166 0.299193 0.206829
Si Si5 0.293359 0.840683 0.910252
Si Si6 0.230649 0.616648 0.410997
O O1 0.500000 0.500000 0.500000
O O2 0.602980 0.168193 0.234765
O O3 0.366383 0.410603 0.347131
O O4 0.500000 0.000000 0.500000
O O5 0.000000 0.500000 0.500000
O O6 0.981783 0.803042 0.770872
O O7 0.805468 0.043590 0.593656
O O8 0.000000 0.000000 0.500000
O O9 0.313934 0.542853 0.988647
O O10 0.176539 0.531549 0.265648
O O11 0.135719 0.512274 0.948375
O O12 0.278059 0.071453 0.051504
O O13 0.825173 0.094306 0.163554
O O14 0.808638 0.437118 0.395295
#
# Coordination Sequence:
#
# PCOD9030946 Si02
#       6
#     2   2   2   2   2   2
#     4  12  24  42  72 100 134 183 230 277 339 409
#     4  10  24  41  69 101 133 178 227 281 333 404
#     4  10  24  41  66 102 135 174 225 279 335 409
#     4   9  22  44  67  91 142 172 219 282 337 389
#     4  10  22  43  62  98 138 177 216 283 337 388
#     4  11  24  44  71 101 130 185 234 270 343 410
#
# _framework density 24.87988
#
# number of rings (size 3 to 8) (size 9 to 14) (size 15 to 20)
#    1.000    0.667    1.667    2.000    4.667    8.667 
#    0.000    0.833    0.000    0.000    0.000    0.000 
#    0.000    0.000    0.000    0.000    0.000    0.000 
#
# Total GULP energy -66919.400732 kJ/mol
# GULP energy per Si atom -5576.616728 kJ/mol
# Density = 2.482325 g / cm^3
# Si number density = 24.879880 Si / 1000 Ang^3
#
#
#
# Elastic Constant Matrix: (Units=GPa)
#
#
# Indices 1 2 3 4 5 6 
#
# 1 104.9206 54.6210 36.0916 -3.4085 -18.7489 7.2500
# 2 54.6210 149.6970 39.8125 16.9102 4.8205 12.6984
# 3 36.0916 39.8125 157.6963 13.5116 -15.4051 9.7856
# 4 -3.4085 16.9102 13.5116 47.3011 0.5411 10.6477
# 5 -18.7489 4.8205 -15.4051 0.5411 41.3099 -6.4839
# 6 7.2500 12.6984 9.7856 10.6477 -6.4839 31.7832
#
#
#
# Elastic Compliance Matrix: (Units=1/GPa)
#
#
# Indices 1 2 3 4 5 6 
#
# 1 0.014072 -0.005271 -0.001533 0.003371 0.006312 -0.000474
# 2 -0.005271 0.009584 -0.001248 -0.002920 -0.004273 -0.002136
# 3 -0.001533 -0.001248 0.007390 -0.001707 0.002163 -0.000414
# 4 0.003371 -0.002920 -0.001707 0.024575 -0.000243 -0.007359
# 5 0.006312 -0.004273 0.002163 -0.000243 0.029268 0.005654
# 6 -0.000474 -0.002136 -0.000414 -0.007359 0.005654 0.036171
#
#
# Mechanical properties :
#
#
# Convention : Reuss Voigt Hill
#
# Bulk Modulus (GPa) = 66.91881 74.81825 70.86853
# Shear Modulus (GPa) = 35.17539 42.86474 39.02007
#
# Velocity S-wave (km/s) = 3.76414 4.15525 3.96452
# Velocity P-wave (km/s) = 6.77103 7.29099 7.03581
#
# Compressibility (1/GPa) = 0.01494348
#
# Stress axis : x y z
#
# Youngs Moduli (GPa) = 71.06102 104.34161 135.30964
#
# Poissons Ratio (x) = 0.54997 0.20741
# Poissons Ratio (y) = 0.37455 0.16886
# Poissons Ratio (z) = 0.10893 0.13021
#
# Static dielectric constant tensor:
#      x y z
#    x 2.557070 -0.088730 -0.013510 
#    y -0.088730 2.106620 -0.012860 
#    z -0.013510 -0.012860 1.972050 
# 
# From -- ./inp_files/287270.got.cif
#   From: 2010.05.17/outbox.cif.g08.bks.cpg/sg2_144_cif.got.tgz:287270.got - 2010.06.03 11:33:40.
