data_PCOD9030532
_publ_section_title
;
Structure prediction by ZEFSAII (Michael W. Deem and Ramdas Pophale) SiO2 
 PCOD9030532
Probable space group: P -1
;
_chemical_formula_sum "Si O2"
_cell_formula_units_Z 14
_cell_length_a 8.592206
_cell_length_b 17.302522
_cell_length_c 5.925039
_cell_angle_alpha 49.881864
_cell_angle_beta 64.339194
_cell_angle_gamma 66.860159
_cell_volume 598.818709
_symmetry_space_group_name_H-M "P -1"
_symmetry_group_IT_number 2
_symmetry_cell_setting 'triclinic'
loop_
_space_group_symop_operation_xyz
x,y,z
-x,-y,-z
loop_
_atom_site_type_symbol
_atom_site_label
_atom_site_fract_x
_atom_site_fract_y
_atom_site_fract_z
Si Si1 0.039837 0.668873 0.216719
Si Si2 0.193574 0.857685 0.689174
Si Si3 0.761755 0.754070 0.884260
Si Si4 0.319189 0.574187 0.517508
Si Si5 0.893925 0.954112 0.347319
Si Si6 0.531049 0.277761 0.549181
Si Si7 0.267494 0.402852 0.175445
O O1 0.214249 0.590455 0.317310
O O2 0.898327 0.629034 0.536930
O O3 0.096807 0.777455 0.037194
O O4 0.942454 0.692032 0.995157
O O5 0.351219 0.794987 0.564458
O O6 0.045071 0.909166 0.513265
O O7 0.234720 0.949576 0.645294
O O8 0.796729 0.857622 0.548720
O O9 0.690268 0.678727 0.899221
O O10 0.620001 0.774138 0.137699
O O11 0.500000 0.500000 0.500000
O O12 0.353030 0.678990 0.414366
O O13 0.228492 0.513401 0.878815
O O14 0.000000 0.000000 0.000000
O O15 0.428174 0.377086 0.295540
#
# Coordination Sequence:
#
# PCOD9030532 Si02
#       7
#     2   2   2   2   2   2   2
#     4  10  24  41  67  94 132 173 223 267 324 387
#     4  10  23  42  66  99 129 171 216 272 328 390
#     4  10  23  44  66  98 133 173 214 276 327 392
#     4  12  24  43  67  96 132 181 222 268 325 384
#     4  10  22  42  71  97 129 169 219 267 331 397
#     4  11  25  43  66  95 140 171 219 271 329 385
#     4  11  23  44  64  98 135 173 223 270 323 385
#
# _framework density 23.379363999999999
#
# number of rings (size 3 to 8) (size 9 to 14) (size 15 to 20)
#    0.000    1.429    1.429    2.571    6.000    2.286 
#    0.000    1.429    0.000    0.000    0.000    0.000 
#    0.000    0.000    0.000    0.000    0.000    0.000 
#
# Total GULP energy -78242.482263 kJ/mol
# GULP energy per Si atom -5588.748733 kJ/mol
# Density = 2.332615 g / cm^3
# Si number density = 23.379364 Si / 1000 Ang^3
#
#
#
# Elastic Constant Matrix: (Units=GPa)
#
#
# Indices 1 2 3 4 5 6 
#
# 1 69.9776 23.8426 30.0882 -0.4884 1.2382 -4.2879
# 2 23.8426 93.4693 14.7119 5.3207 -14.2523 -11.8054
# 3 30.0882 14.7119 113.0777 -24.3220 -19.5347 -0.2204
# 4 -0.4884 5.3207 -24.3220 26.5179 -0.3623 -2.5055
# 5 1.2382 -14.2523 -19.5347 -0.3623 30.5607 1.3605
# 6 -4.2879 -11.8054 -0.2204 -2.5055 1.3605 28.1787
#
#
#
# Elastic Compliance Matrix: (Units=1/GPa)
#
#
# Indices 1 2 3 4 5 6 
#
# 1 0.018866 -0.004464 -0.006764 -0.004979 -0.007267 0.000856
# 2 -0.004464 0.013478 0.000045 -0.002238 0.006270 0.004466
# 3 -0.006764 0.000045 0.015481 0.014195 0.010364 -0.000128
# 4 -0.004979 -0.002238 0.014195 0.051449 0.008727 0.002569
# 5 -0.007267 0.006270 0.010364 0.008727 0.042655 0.000319
# 6 0.000856 0.004466 -0.000128 0.002569 0.000319 0.037701
#
#
# Mechanical properties :
#
#
# Convention : Reuss Voigt Hill
#
# Bulk Modulus (GPa) = 39.28015 45.97889 42.62952
# Shear Modulus (GPa) = 23.75506 30.91023 27.33265
#
# Velocity S-wave (km/s) = 3.19104 3.64004 3.42291
# Velocity P-wave (km/s) = 5.51495 6.11356 5.82195
#
# Compressibility (1/GPa) = 0.02545815
#
# Stress axis : x y z
#
# Youngs Moduli (GPa) = 53.00591 74.19557 64.59630
#
# Poissons Ratio (x) = 0.33124 0.43691
# Poissons Ratio (y) = 0.23664 -0.00290
# Poissons Ratio (z) = 0.35852 -0.00333
#
# Static dielectric constant tensor:
#      x y z
#    x 1.866410 -0.008250 0.002830 
#    y -0.008250 1.883430 0.021150 
#    z 0.002830 0.021150 1.936760 
# 
# From -- ./inp_files/44104.got.cif
#   From: 2010.05.17/outbox.cif.g08.bks.cpg/sg2_23_cif.got.tgz:44104.got - 2010.06.03 11:33:40.
