data_PCOD9030883
_publ_section_title
;
Structure prediction by ZEFSAII (Michael W. Deem and Ramdas Pophale) SiO2 
 PCOD9030883
Probable space group: P -1
;
_chemical_formula_sum "Si O2"
_cell_formula_units_Z 16
_cell_length_a 10.293029
_cell_length_b 17.126795
_cell_length_c 7.072433
_cell_angle_alpha 77.844741
_cell_angle_beta 136.243415
_cell_angle_gamma 93.065437
_cell_volume 833.919443
_symmetry_space_group_name_H-M "P -1"
_symmetry_group_IT_number 2
_symmetry_cell_setting 'triclinic'
loop_
_space_group_symop_operation_xyz
x,y,z
-x,-y,-z
loop_
_atom_site_type_symbol
_atom_site_label
_atom_site_fract_x
_atom_site_fract_y
_atom_site_fract_z
Si Si1 0.054873 0.841916 0.328186
Si Si2 0.307372 0.907684 0.853983
Si Si3 0.999344 0.356125 0.154834
Si Si4 0.735673 0.903551 0.231300
Si Si5 0.429751 0.384072 0.615750
Si Si6 0.047137 0.827585 0.886736
Si Si7 0.243660 0.663489 0.740794
Si Si8 0.320840 0.570783 0.478556
O O1 0.179962 0.900296 0.538250
O O2 0.147960 0.751557 0.528324
O O3 0.846673 0.861062 0.190996
O O4 0.051270 0.850313 0.097160
O O5 0.228061 0.852041 0.955254
O O6 0.279150 0.999847 0.848117
O O7 0.526534 0.882531 0.049337
O O8 0.222193 0.359502 0.390961
O O9 0.962934 0.266887 0.100469
O O10 0.903019 0.370808 0.252545
O O11 0.880219 0.416347 0.850653
O O12 0.866426 0.874693 0.563101
O O13 0.402026 0.476520 0.613551
O O14 0.538661 0.385479 0.528971
O O15 0.568821 0.333232 0.937340
O O16 0.294075 0.609026 0.637388
#
# Coordination Sequence:
#
# PCOD9030883 Si02
#       8
#     2   2   2   2   2   2   2   2
#     4  11  22  39  60  91 122 157 197 246 295 352
#     4  10  23  43  64  88 121 157 194 247 296 355
#     4  11  22  39  61  90 119 157 201 246 297 353
#     4  10  23  42  64  89 119 156 200 240 299 356
#     4  10  24  40  63  86 122 161 200 248 298 351
#     4  11  22  39  61  90 124 155 196 246 297 349
#     4  11  22  39  61  89 122 155 203 246 299 350
#     4  10  22  43  60  89 122 156 201 251 299 350
#
# _framework density 19.186505
#
# number of rings (size 3 to 8) (size 9 to 14) (size 15 to 20)
#    0.000    1.500    3.750    2.250    1.750    4.500 
#    2.250    2.500    0.000    0.000    0.000    0.000 
#    0.000    0.000    0.000    0.000    0.000    0.000 
#
# Total GULP energy -89409.935858 kJ/mol
# GULP energy per Si atom -5588.120991 kJ/mol
# Density = 1.914284 g / cm^3
# Si number density = 19.186505 Si / 1000 Ang^3
#
#
#
# Elastic Constant Matrix: (Units=GPa)
#
#
# Indices 1 2 3 4 5 6 
#
# 1 202.1728 86.5627 78.6584 91.3543 10.4103 1.7995
# 2 86.5627 93.3792 6.0216 58.6767 1.1812 7.9636
# 3 78.6584 6.0216 63.9220 4.2407 1.0281 -19.8600
# 4 91.3543 58.6767 4.2407 110.8656 -7.2741 35.4272
# 5 10.4103 1.1812 1.0281 -7.2741 41.7198 7.3939
# 6 1.7995 7.9636 -19.8600 35.4272 7.3939 39.2797
#
#
#
# Elastic Compliance Matrix: (Units=1/GPa)
#
#
# Indices 1 2 3 4 5 6 
#
# 1 0.061375 -0.031610 -0.069532 -0.032957 -0.018753 0.001696
# 2 -0.031610 0.034388 0.038356 0.003597 0.004876 0.009707
# 3 -0.069532 0.038356 0.101026 0.028423 0.015554 0.017925
# 4 -0.032957 0.003597 0.028423 0.043333 0.019881 -0.027675
# 5 -0.018753 0.004876 0.015554 0.019881 0.034554 -0.016701
# 6 0.001696 0.009707 0.017925 -0.027675 -0.016701 0.060580
#
#
# Mechanical properties :
#
#
# Convention : Reuss Voigt Hill
#
# Bulk Modulus (GPa) = 14.04133 77.99548 46.01841
# Shear Modulus (GPa) = 10.31849 50.92177 30.62013
#
# Velocity S-wave (km/s) = 2.32157 5.15733 3.99923
# Velocity P-wave (km/s) = 3.81057 8.72946 6.73513
#
# Compressibility (1/GPa) = 0.07121833
#
# Stress axis : x y z
#
# Youngs Moduli (GPa) = 16.29318 29.08008 9.89841
#
# Poissons Ratio (x) = 0.91921 0.68826
# Poissons Ratio (y) = 0.51502 -0.37967
# Poissons Ratio (z) = 1.13290 -1.11540
#
# Static dielectric constant tensor:
#      x y z
#    x 1.656150 0.001370 0.006260 
#    y 0.001370 1.681420 -0.021440 
#    z 0.006260 -0.021440 1.649690 
# 
# From -- ./inp_files/48016.got.cif
#   From: 2010.05.17/outbox.cif.g08.bks.cpg/sg2_25_cif.got.tgz:48016.got - 2010.06.03 11:33:40.
