data_PCOD9030700
_publ_section_title
;
Structure prediction by ZEFSAII (Michael W. Deem and Ramdas Pophale) SiO2 
 PCOD9030700
Probable space group: P -1
;
_chemical_formula_sum "Si O2"
_cell_formula_units_Z 16
_cell_length_a 9.696538
_cell_length_b 12.925924
_cell_length_c 15.009165
_cell_angle_alpha 119.175241
_cell_angle_beta 136.171421
_cell_angle_gamma 37.893040
_cell_volume 785.179447
_symmetry_space_group_name_H-M "P -1"
_symmetry_group_IT_number 2
_symmetry_cell_setting 'triclinic'
loop_
_space_group_symop_operation_xyz
x,y,z
-x,-y,-z
loop_
_atom_site_type_symbol
_atom_site_label
_atom_site_fract_x
_atom_site_fract_y
_atom_site_fract_z
Si Si1 0.024041 0.676775 0.616211
Si Si2 0.464399 0.542818 0.103693
Si Si3 0.086894 0.907250 0.740785
Si Si4 0.236556 0.903693 0.147626
Si Si5 0.914917 0.134414 0.591061
Si Si6 0.737622 0.592152 0.539156
Si Si7 0.814556 0.722521 0.254444
Si Si8 0.736361 0.607809 0.988766
O O1 0.236900 0.602868 0.767381
O O2 0.977166 0.827411 0.618626
O O3 0.196156 0.528356 0.560091
O O4 0.772288 0.704134 0.552127
O O5 0.355201 0.721030 0.141607
O O6 0.254860 0.531947 0.035196
O O7 0.500000 0.500000 0.000000
O O8 0.427117 0.759910 0.860876
O O9 0.911954 0.994337 0.787664
O O10 0.028552 0.035389 0.696913
O O11 0.510190 0.861180 0.223283
O O12 0.000000 0.000000 0.000000
O O13 0.570063 0.289904 0.508704
O O14 0.041643 0.210057 0.660266
O O15 0.000000 0.000000 0.500000
O O16 0.981835 0.454366 0.667992
O O17 0.761162 0.684488 0.117342
O O18 0.000000 0.500000 0.000000
#
# Coordination Sequence:
#
# PCOD9030700 Si02
#       8
#     2   2   2   2   2   2   2   2
#     4  10  22  42  72  99 126 176 239 278 333 405
#     4  11  20  43  67 100 132 172 228 275 339 407
#     4  11  26  45  69 103 139 175 226 290 353 398
#     4  12  23  43  70 106 137 171 226 294 344 401
#     4  12  30  46  66 101 146 184 225 287 345 403
#     4  11  24  45  72  95 131 188 236 277 331 408
#     4  12  26  47  69 101 138 185 232 275 345 415
#     4  11  26  43  72 100 134 183 223 278 349 419
#
# _framework density 20.377507000000001
#
# number of rings (size 3 to 8) (size 9 to 14) (size 15 to 20)
#    0.000    0.750    3.750    2.625   10.500    2.000 
#    0.000    0.000    0.000    0.000    0.000    0.000 
#    0.000    0.000    0.000    0.000    0.000    0.000 
#
# Total GULP energy -89417.870583 kJ/mol
# GULP energy per Si atom -5588.616911 kJ/mol
# Density = 2.033113 g / cm^3
# Si number density = 20.377507 Si / 1000 Ang^3
#
#
#
# Elastic Constant Matrix: (Units=GPa)
#
#
# Indices 1 2 3 4 5 6 
#
# 1 167.7401 46.9076 35.8400 -1.2498 27.4428 -20.8378
# 2 46.9076 65.9570 12.1636 -1.0869 19.7917 -6.7028
# 3 35.8400 12.1636 66.4859 -5.4757 2.9172 -12.7251
# 4 -1.2498 -1.0869 -5.4757 40.3901 4.2999 2.0666
# 5 27.4428 19.7917 2.9172 4.2999 40.2797 0.0065
# 6 -20.8378 -6.7028 -12.7251 2.0666 0.0065 46.7971
#
#
#
# Elastic Compliance Matrix: (Units=1/GPa)
#
#
# Indices 1 2 3 4 5 6 
#
# 1 0.008759 -0.004289 -0.003325 -0.000032 -0.003616 0.002384
# 2 -0.004289 0.020657 -0.000918 0.001034 -0.007272 0.000754
# 3 -0.003325 -0.000918 0.017707 0.001984 0.001222 0.003115
# 4 -0.000032 0.001034 0.001984 0.025433 -0.003345 -0.000450
# 5 -0.003616 -0.007272 0.001222 -0.003345 0.031132 -0.002176
# 6 0.002384 0.000754 0.003115 -0.000450 -0.002176 0.023406
#
#
# Mechanical properties :
#
#
# Convention : Reuss Voigt Hill
#
# Bulk Modulus (GPa) = 33.26872 54.44504 43.85688
# Shear Modulus (GPa) = 32.43009 39.17816 35.80412
#
# Velocity S-wave (km/s) = 3.99364 4.38952 4.19626
# Velocity P-wave (km/s) = 6.13410 7.24339 6.71171
#
# Compressibility (1/GPa) = 0.03005826
#
# Stress axis : x y z
#
# Youngs Moduli (GPa) = 114.16940 48.40987 56.47488
#
# Poissons Ratio (x) = 0.20764 0.18776
# Poissons Ratio (y) = 0.48971 0.05186
# Poissons Ratio (z) = 0.37957 0.04446
#
# Static dielectric constant tensor:
#      x y z
#    x 1.704560 0.029950 0.008310 
#    y 0.029950 1.814170 0.013960 
#    z 0.008310 0.013960 1.731340 
# 
# From -- ./inp_files/298648.got.cif
#   From: 2010.05.17/outbox.cif.g08.bks.cpg/sg2_150_cif.got.tgz:298648.got - 2010.06.03 11:33:40.
