data_PCOD9030228
_publ_section_title
;
Structure prediction by ZEFSAII (Michael W. Deem and Ramdas Pophale) SiO2 
 PCOD9030228
Probable space group: P -1
;
_chemical_formula_sum "Si O2"
_cell_formula_units_Z 15
_cell_length_a 8.881424
_cell_length_b 11.416186
_cell_length_c 9.460192
_cell_angle_alpha 93.631491
_cell_angle_beta 128.605409
_cell_angle_gamma 69.388848
_cell_volume 685.382363
_symmetry_space_group_name_H-M "P -1"
_symmetry_group_IT_number 2
_symmetry_cell_setting 'triclinic'
loop_
_space_group_symop_operation_xyz
x,y,z
-x,-y,-z
loop_
_atom_site_type_symbol
_atom_site_label
_atom_site_fract_x
_atom_site_fract_y
_atom_site_fract_z
Si Si1 0.556033 0.041780 0.222389
Si Si2 0.000000 0.000000 0.000000
Si Si3 0.215863 0.632341 0.478850
Si Si4 0.929645 0.539404 0.803506
Si Si5 0.447083 0.800936 0.207206
Si Si6 0.139626 0.113466 0.823229
Si Si7 0.522383 0.755693 0.577912
Si Si8 0.316695 0.473955 0.812925
O O1 0.533691 0.910074 0.235717
O O2 0.755219 0.003649 0.233959
O O3 0.562789 0.113172 0.374645
O O4 0.343205 0.125220 0.017438
O O5 0.015661 0.082071 0.875033
O O6 0.801955 0.127339 0.958128
O O7 0.204976 0.534972 0.345593
O O8 0.413456 0.669960 0.578983
O O9 0.230065 0.564959 0.632536
O O10 0.010117 0.761925 0.339688
O O11 0.774110 0.687958 0.728564
O O12 0.126506 0.503459 0.812460
O O13 0.000000 0.500000 0.000000
O O14 0.471811 0.770864 0.385280
O O15 0.577398 0.672673 0.189033
O O16 0.500000 0.500000 0.000000
#
# Coordination Sequence:
#
# PCOD9030228 Si02
#       8
#     2   1   2   2   2   2   2   2
#     4  10  24  44  69 103 145 196 243 296 368 429
#     4  10  22  42  70 102 136 196 230 298 364 426
#     4  12  25  46  74 108 151 191 245 306 369 433
#     4  12  27  46  76 108 146 195 245 300 375 438
#     4  11  24  47  71 101 151 184 247 297 363 433
#     4  10  22  43  70  99 145 191 245 302 359 433
#     4  12  25  43  72 107 147 190 243 301 360 441
#     4  12  29  49  76 110 146 196 244 309 373 434
#
# _framework density 21.885594000000001
#
# number of rings (size 3 to 8) (size 9 to 14) (size 15 to 20)
#    0.000    0.800    2.667    3.600    3.733    8.000 
#    2.400    0.000    0.000    0.000    0.000    0.000 
#    0.000    0.000    0.000    0.000    0.000    0.000 
#
# Total GULP energy -83651.701208 kJ/mol
# GULP energy per Si atom -5576.780081 kJ/mol
# Density = 2.183578 g / cm^3
# Si number density = 21.885594 Si / 1000 Ang^3
#
#
#
# Elastic Constant Matrix: (Units=GPa)
#
#
# Indices 1 2 3 4 5 6 
#
# 1 150.7319 85.8180 24.6622 -2.4419 -15.6382 -22.0780
# 2 85.8180 118.5108 38.1293 1.5830 -10.2552 -10.1305
# 3 24.6622 38.1293 77.0546 -14.7556 -23.8199 4.9409
# 4 -2.4419 1.5830 -14.7556 51.4449 -4.4210 -0.5576
# 5 -15.6382 -10.2552 -23.8199 -4.4210 31.9950 -1.3665
# 6 -22.0780 -10.1305 4.9409 -0.5576 -1.3665 28.9290
#
#
#
# Elastic Compliance Matrix: (Units=1/GPa)
#
#
# Indices 1 2 3 4 5 6 
#
# 1 0.013071 -0.009066 0.001955 0.002006 0.005504 0.006765
# 2 -0.009066 0.017162 -0.007968 -0.003704 -0.005369 0.000127
# 3 0.001955 -0.007968 0.023379 0.008439 0.016788 -0.004336
# 4 0.002006 -0.003704 0.008439 0.022857 0.009221 -0.000331
# 5 0.005504 -0.005369 0.016788 0.009221 0.046074 0.001807
# 6 0.006765 0.000127 -0.004336 -0.000331 0.001807 0.040594
#
#
# Mechanical properties :
#
#
# Convention : Reuss Voigt Hill
#
# Bulk Modulus (GPa) = 42.63814 71.50181 57.06997
# Shear Modulus (GPa) = 24.86166 35.65296 30.25731
#
# Velocity S-wave (km/s) = 3.37409 4.04054 3.72226
# Velocity P-wave (km/s) = 5.89100 7.38306 6.67883
#
# Compressibility (1/GPa) = 0.02345318
#
# Stress axis : x y z
#
# Youngs Moduli (GPa) = 76.50772 58.26693 42.77407
#
# Poissons Ratio (x) = 0.52825 -0.08361
# Poissons Ratio (y) = 0.69362 0.34082
# Poissons Ratio (z) = -0.14955 0.46426
#
# Static dielectric constant tensor:
#      x y z
#    x 1.813110 0.001150 0.033520 
#    y 0.001150 1.810690 -0.016340 
#    z 0.033520 -0.016340 1.806610 
# 
# From -- ./inp_files/188842.got.cif
#   From: 2010.05.17/outbox.cif.g08.bks.cpg/sg2_95_cif.got.tgz:188842.got - 2010.06.03 11:33:40.
