data_PCOD9030446
_publ_section_title
;
Structure prediction by ZEFSAII (Michael W. Deem and Ramdas Pophale) SiO2 
 PCOD9030446
Probable space group: P -1
;
_chemical_formula_sum "Si O2"
_cell_formula_units_Z 14
_cell_length_a 16.982960
_cell_length_b 20.314141
_cell_length_c 11.733511
_cell_angle_alpha 27.476925
_cell_angle_beta 39.208054
_cell_angle_gamma 21.497431
_cell_volume 653.043708
_symmetry_space_group_name_H-M "P -1"
_symmetry_group_IT_number 2
_symmetry_cell_setting 'triclinic'
loop_
_space_group_symop_operation_xyz
x,y,z
-x,-y,-z
loop_
_atom_site_type_symbol
_atom_site_label
_atom_site_fract_x
_atom_site_fract_y
_atom_site_fract_z
Si Si1 0.316208 0.364628 0.220177
Si Si2 0.498024 0.485952 0.827686
Si Si3 0.077377 0.581421 0.747982
Si Si4 0.178357 0.891052 0.765574
Si Si5 0.491622 0.655052 0.346222
Si Si6 0.930594 0.839874 0.078064
Si Si7 0.192499 0.206722 0.486010
O O1 0.201642 0.365298 0.261003
O O2 0.150483 0.548335 0.230824
O O3 0.565509 0.062487 0.429359
O O4 0.361492 0.479309 0.945165
O O5 0.359237 0.686424 0.778995
O O6 0.531168 0.563159 0.571137
O O7 0.717014 0.216897 0.059579
O O8 0.319916 0.402839 0.792379
O O9 0.022231 0.628349 0.602352
O O10 0.921214 0.861306 0.531284
O O11 0.000000 0.500000 0.000000
O O12 0.003805 0.927917 0.899061
O O13 0.500000 0.500000 0.500000
O O14 0.253085 0.956957 0.125646
O O15 0.822825 0.859589 0.274252
#
# Coordination Sequence:
#
# PCOD9030446 Si02
#       7
#     2   2   2   2   2   2   2
#     4  10  23  40  72 101 133 187 227 285 335 417
#     4  10  22  42  71 100 134 177 240 279 342 403
#     4  12  28  45  66 101 141 181 226 286 354 405
#     4  10  22  44  69  98 134 186 229 286 334 419
#     4  12  26  42  68 106 138 178 229 290 343 411
#     4  11  24  43  70 102 138 180 240 277 347 411
#     4  11  24  44  70  96 143 187 226 280 350 419
#
# _framework density 21.438074
#
# number of rings (size 3 to 8) (size 9 to 14) (size 15 to 20)
#    0.000    1.143    2.857    2.143    6.000    4.571 
#    0.000    1.429    0.000    0.000    0.000    0.000 
#    0.000    0.000    0.000    0.000    0.000    0.000 
#
# Total GULP energy -78184.676487 kJ/mol
# GULP energy per Si atom -5584.619749 kJ/mol
# Density = 2.138928 g / cm^3
# Si number density = 21.438074 Si / 1000 Ang^3
#
#
#
# Elastic Constant Matrix: (Units=GPa)
#
#
# Indices 1 2 3 4 5 6 
#
# 1 110.8353 38.6730 35.5692 0.0810 -24.2284 -19.5674
# 2 38.6730 88.7789 48.7677 1.2023 -6.3868 -10.7845
# 3 35.5692 48.7677 99.9786 5.2500 -10.9575 6.2883
# 4 0.0810 1.2023 5.2500 24.3119 0.4641 -1.7740
# 5 -24.2284 -6.3868 -10.9575 0.4641 37.3816 3.0225
# 6 -19.5674 -10.7845 6.2883 -1.7740 3.0225 28.6625
#
#
#
# Elastic Compliance Matrix: (Units=1/GPa)
#
#
# Indices 1 2 3 4 5 6 
#
# 1 0.014184 -0.002629 -0.003631 0.001380 0.006947 0.008843
# 2 -0.002629 0.017746 -0.008430 0.001496 -0.001728 0.007007
# 3 -0.003631 -0.008430 0.016421 -0.003859 0.001851 -0.009687
# 4 0.001380 0.001496 -0.003859 0.042274 -0.000916 0.005064
# 5 0.006947 -0.001728 0.001851 -0.000916 0.031488 0.000310
# 6 0.008843 0.007007 -0.009687 0.005064 0.000310 0.045968
#
#
# Mechanical properties :
#
#
# Convention : Reuss Voigt Hill
#
# Bulk Modulus (GPa) = 52.71016 60.62362 56.66689
# Shear Modulus (GPa) = 24.53587 29.84341 27.18964
#
# Velocity S-wave (km/s) = 3.38672 3.73510 3.56517
# Velocity P-wave (km/s) = 6.31931 6.85136 6.59071
#
# Compressibility (1/GPa) = 0.01897167
#
# Stress axis : x y z
#
# Youngs Moduli (GPa) = 70.50277 56.35035 60.89900
#
# Poissons Ratio (x) = 0.14812 0.22114
# Poissons Ratio (y) = 0.18532 0.51336
# Poissons Ratio (z) = 0.25601 0.47501
#
# Static dielectric constant tensor:
#      x y z
#    x 1.798540 -0.017360 -0.004400 
#    y -0.017360 1.814430 -0.014260 
#    z -0.004400 -0.014260 1.752700 
# 
# From -- ./inp_files/467030.got.cif
#   From: 2010.05.17/outbox.cif.g08.bks.cpg/sg2_234_cif.got.tgz:467030.got - 2010.06.03 11:33:40.
