data_PCOD9030060
_publ_section_title
;
Structure prediction by ZEFSAII (Michael W. Deem and Ramdas Pophale) SiO2 
 PCOD9030060
Probable space group: P -1
;
_chemical_formula_sum "Si O2"
_cell_formula_units_Z 14
_cell_length_a 8.305537
_cell_length_b 17.852701
_cell_length_c 14.083073
_cell_angle_alpha 146.322563
_cell_angle_beta 144.123274
_cell_angle_gamma 31.922556
_cell_volume 572.505284
_symmetry_space_group_name_H-M "P -1"
_symmetry_group_IT_number 2
_symmetry_cell_setting 'triclinic'
loop_
_space_group_symop_operation_xyz
x,y,z
-x,-y,-z
loop_
_atom_site_type_symbol
_atom_site_label
_atom_site_fract_x
_atom_site_fract_y
_atom_site_fract_z
Si Si1 0.729501 0.566906 0.206364
Si Si2 0.539866 0.006084 0.139362
Si Si3 0.753725 0.077243 0.607860
Si Si4 0.226935 0.361095 0.386385
Si Si5 0.290565 0.978112 0.249752
Si Si6 0.667346 0.217557 0.104004
Si Si7 0.707154 0.442669 0.637009
O O1 0.504642 0.733946 0.329731
O O2 0.018688 0.430276 0.263654
O O3 0.924423 0.608381 0.265105
O O4 0.500000 0.500000 0.000000
O O5 0.295814 0.185851 0.249908
O O6 0.894967 0.963301 0.291933
O O7 0.500000 0.000000 0.000000
O O8 0.484978 0.874238 0.016936
O O9 0.762704 0.040682 0.686190
O O10 0.617396 0.977187 0.391179
O O11 0.581549 0.337231 0.513399
O O12 0.000000 0.500000 0.500000
O O13 0.280412 0.844684 0.043567
O O14 0.997633 0.147324 0.247871
O O15 0.440724 0.404202 0.204274
O O16 0.500000 0.500000 0.500000
#
# Coordination Sequence:
#
# PCOD9030060 Si02
#       7
#     2   2   2   2   2   2   2
#     4  11  24  43  69  98 137 177 222 281 345 407
#     4  12  24  43  72 101 134 183 233 276 338 420
#     4  11  24  43  68  97 138 174 226 280 347 402
#     4  11  27  45  68 100 141 178 227 282 347 404
#     4  10  24  39  69  95 133 171 233 280 333 392
#     4  11  23  42  70  99 131 180 238 277 328 417
#     4  10  22  42  69  94 136 183 222 266 352 413
#
# _framework density 24.453924000000001
#
# number of rings (size 3 to 8) (size 9 to 14) (size 15 to 20)
#    0.000    1.143    1.429    5.143   10.000    0.571 
#    2.571    1.429    0.000    0.000    0.000    0.000 
#    0.000    0.000    0.000    0.000    0.000    0.000 
#
# Total GULP energy -78381.902165 kJ/mol
# GULP energy per Si atom -5598.707297 kJ/mol
# Density = 2.439827 g / cm^3
# Si number density = 24.453924 Si / 1000 Ang^3
#
#
#
# Elastic Constant Matrix: (Units=GPa)
#
#
# Indices 1 2 3 4 5 6 
#
# 1 84.3492 -4.9506 35.3557 -16.8802 35.9888 -4.8305
# 2 -4.9506 80.4676 21.1172 -4.1680 15.2924 -13.9201
# 3 35.3557 21.1172 118.1497 -10.7906 44.8510 -6.5691
# 4 -16.8802 -4.1680 -10.7906 43.6133 -13.3597 7.5198
# 5 35.9888 15.2924 44.8510 -13.3597 51.2832 -2.9354
# 6 -4.8305 -13.9201 -6.5691 7.5198 -2.9354 32.6914
#
#
#
# Elastic Compliance Matrix: (Units=1/GPa)
#
#
# Indices 1 2 3 4 5 6 
#
# 1 0.018700 0.004442 -0.001260 0.003112 -0.012387 0.002573
# 2 0.004442 0.015331 -0.001397 -0.000143 -0.006138 0.006385
# 3 -0.001260 -0.001397 0.012932 -0.000710 -0.010133 0.001071
# 4 0.003112 -0.000143 -0.000710 0.026418 0.005054 -0.005366
# 5 -0.012387 -0.006138 -0.010133 0.005054 0.039969 -0.004054
# 6 0.002573 0.006385 0.001071 -0.005366 -0.004054 0.034774
#
#
# Mechanical properties :
#
#
# Convention : Reuss Voigt Hill
#
# Bulk Modulus (GPa) = 19.78973 42.89012 31.33992
# Shear Modulus (GPa) = 30.97935 40.94720 35.96327
#
# Velocity S-wave (km/s) = 3.56314 4.09646 3.83907
# Velocity P-wave (km/s) = 5.00382 6.32075 5.70044
#
# Compressibility (1/GPa) = 0.05053127
#
# Stress axis : x y z
#
# Youngs Moduli (GPa) = 53.47699 65.22729 77.32901
#
# Poissons Ratio (x) = -0.28971 0.09744
# Poissons Ratio (y) = -0.23752 0.10804
# Poissons Ratio (z) = 0.06738 0.09113
#
# Static dielectric constant tensor:
#      x y z
#    x 2.000970 0.003560 -0.006900 
#    y 0.003560 1.932930 -0.027100 
#    z -0.006900 -0.027100 1.903880 
# 
# From -- ./inp_files/244468.got.cif
#   From: 2010.05.17/outbox.cif.g08.bks.cpg/sg2_123_cif.got.tgz:244468.got - 2010.06.03 11:33:40.
