data_PCOD9030460
_publ_section_title
;
Structure prediction by ZEFSAII (Michael W. Deem and Ramdas Pophale) SiO2 
 PCOD9030460
Probable space group: P -1
;
_chemical_formula_sum "Si O2"
_cell_formula_units_Z 16
_cell_length_a 18.258946
_cell_length_b 9.703699
_cell_length_c 8.434515
_cell_angle_alpha 43.818809
_cell_angle_beta 38.537830
_cell_angle_gamma 45.115324
_cell_volume 609.089745
_symmetry_space_group_name_H-M "P -1"
_symmetry_group_IT_number 2
_symmetry_cell_setting 'triclinic'
loop_
_space_group_symop_operation_xyz
x,y,z
-x,-y,-z
loop_
_atom_site_type_symbol
_atom_site_label
_atom_site_fract_x
_atom_site_fract_y
_atom_site_fract_z
Si Si1 0.261468 0.037082 0.074581
Si Si2 0.530630 0.794729 0.291496
Si Si3 0.780879 0.465215 0.655235
Si Si4 0.597878 0.343884 0.647760
Si Si5 0.001831 0.734296 0.761686
Si Si6 0.941757 0.775801 0.177879
Si Si7 0.191217 0.755646 0.891859
Si Si8 0.621553 0.887599 0.488995
O O1 0.113576 0.141696 0.258584
O O2 0.338737 0.800399 0.192660
O O3 0.340023 0.161626 0.934704
O O4 0.275922 0.074921 0.831357
O O5 0.538810 0.593069 0.553950
O O6 0.500273 0.740831 0.210195
O O7 0.413596 0.987682 0.391612
O O8 0.867819 0.305013 0.513942
O O9 0.755457 0.343226 0.948923
O O10 0.657057 0.638815 0.656570
O O11 0.862771 0.617419 0.435101
O O12 0.709473 0.313441 0.357676
O O13 0.984013 0.832357 0.885206
O O14 0.000000 0.500000 0.000000
O O15 0.072805 0.679943 0.123110
O O16 0.862927 0.992204 0.214610
O O17 0.500000 0.000000 0.500000
#
# Coordination Sequence:
#
# PCOD9030460 Si02
#       8
#     2   2   2   2   2   2   2   2
#     4  11  23  45  71 102 134 177 223 284 335 402
#     4  10  25  47  69  98 136 177 230 279 335 397
#     4  11  23  45  69 100 136 181 221 278 337 400
#     4  11  26  43  69 103 134 182 224 275 339 401
#     4  10  22  42  71 101 136 175 227 272 341 404
#     4  10  23  44  63 101 136 178 223 270 330 405
#     4  11  26  42  67 100 142 177 223 273 335 401
#     4  10  22  43  70  99 129 175 227 278 336 390
#
# _framework density 26.268705000000001
#
# number of rings (size 3 to 8) (size 9 to 14) (size 15 to 20)
#    0.000    1.500    2.500    1.500    7.000    7.000 
#    4.500    0.000    0.000    0.000    0.000    0.000 
#    0.000    0.000    0.000    0.000    0.000    0.000 
#
# Total GULP energy -89640.474242 kJ/mol
# GULP energy per Si atom -5602.529640 kJ/mol
# Density = 2.620892 g / cm^3
# Si number density = 26.268705 Si / 1000 Ang^3
#
#
#
# Elastic Constant Matrix: (Units=GPa)
#
#
# Indices 1 2 3 4 5 6 
#
# 1 98.1131 31.0696 -1.0171 -11.2655 -12.8131 -21.7279
# 2 31.0696 121.2587 23.0043 -0.8583 -2.6827 -27.7918
# 3 -1.0171 23.0043 76.2157 -16.7026 12.3851 -10.4022
# 4 -11.2655 -0.8583 -16.7026 40.1848 -9.8023 6.9505
# 5 -12.8131 -2.6827 12.3851 -9.8023 36.8090 -12.7020
# 6 -21.7279 -27.7918 -10.4022 6.9505 -12.7020 43.9052
#
#
#
# Elastic Compliance Matrix: (Units=1/GPa)
#
#
# Indices 1 2 3 4 5 6 
#
# 1 0.014261 -0.001960 0.001654 0.005340 0.008373 0.007786
# 2 -0.001960 0.010876 -0.003378 -0.002111 0.002849 0.006272
# 3 0.001654 -0.003378 0.016128 0.006203 -0.003245 0.000581
# 4 0.005340 -0.002111 0.006203 0.030807 0.007884 0.000179
# 5 0.008373 0.002849 -0.003245 0.007884 0.038701 0.015127
# 6 0.007786 0.006272 0.000581 0.000179 0.015127 0.035085
#
#
# Mechanical properties :
#
#
# Convention : Reuss Voigt Hill
#
# Bulk Modulus (GPa) = 29.50209 44.63344 37.06776
# Shear Modulus (GPa) = 30.39026 40.34851 35.36939
#
# Velocity S-wave (km/s) = 3.40501 3.92342 3.67338
# Velocity P-wave (km/s) = 5.16857 6.12800 5.66862
#
# Compressibility (1/GPa) = 0.03389591
#
# Stress axis : x y z
#
# Youngs Moduli (GPa) = 70.12076 91.94812 62.00236
#
# Poissons Ratio (x) = 0.18025 -0.10256
# Poissons Ratio (y) = 0.13746 0.20947
# Poissons Ratio (z) = -0.11599 0.31064
#
# Static dielectric constant tensor:
#      x y z
#    x 2.113200 0.017940 -0.042820 
#    y 0.017940 2.101730 0.032930 
#    z -0.042820 0.032930 2.054540 
# 
# From -- ./inp_files/345819.got.cif
#   From: 2010.05.17/outbox.cif.g08.bks.cpg/sg2_173_cif.got.tgz:345819.got - 2010.06.03 11:33:40.
