data_PCOD9030512
_publ_section_title
;
Structure prediction by ZEFSAII (Michael W. Deem and Ramdas Pophale) SiO2 
 PCOD9030512
Probable space group: P -1
;
_chemical_formula_sum "Si O2"
_cell_formula_units_Z 15
_cell_length_a 6.494177
_cell_length_b 9.867689
_cell_length_c 9.948234
_cell_angle_alpha 59.686921
_cell_angle_beta 77.450315
_cell_angle_gamma 92.478593
_cell_volume 528.279796
_symmetry_space_group_name_H-M "P -1"
_symmetry_group_IT_number 2
_symmetry_cell_setting 'triclinic'
loop_
_space_group_symop_operation_xyz
x,y,z
-x,-y,-z
loop_
_atom_site_type_symbol
_atom_site_label
_atom_site_fract_x
_atom_site_fract_y
_atom_site_fract_z
Si Si1 0.101524 0.876787 0.851954
Si Si2 0.073663 0.538893 0.157645
Si Si3 0.805059 0.063352 0.646725
Si Si4 0.445957 0.124733 0.838566
Si Si5 0.477132 0.805083 0.678247
Si Si6 0.689865 0.571309 0.334200
Si Si7 0.500000 0.500000 0.000000
Si Si8 0.195262 0.321964 0.463649
O O1 0.239250 0.833206 0.727641
O O2 0.249888 0.025421 0.831155
O O3 0.078501 0.725115 0.030637
O O4 0.895114 0.939505 0.794776
O O5 0.194608 0.482944 0.299490
O O6 0.825116 0.477330 0.265306
O O7 0.223332 0.477456 0.055613
O O8 0.659152 0.164368 0.699460
O O9 0.011215 0.182686 0.504287
O O10 0.640123 0.965962 0.614675
O O11 0.387826 0.290788 0.810953
O O12 0.500000 0.000000 0.000000
O O13 0.511117 0.676399 0.851564
O O14 0.580235 0.736118 0.567913
O O15 0.500000 0.500000 0.500000
O O16 0.851260 0.654556 0.385788
#
# Coordination Sequence:
#
# PCOD9030512 Si02
#       8
#     2   2   2   2   2   2   1   2
#     4  10  22  43  67 100 128 174 233 280 332 398
#     4  10  22  42  71  91 134 178 220 281 337 396
#     4  11  22  42  67  99 130 176 230 276 341 393
#     4  11  25  41  66  96 137 175 226 282 331 405
#     4   9  21  42  67  95 136 174 223 284 337 395
#     4  12  26  43  63 104 138 182 226 272 347 412
#     4   8  18  44  66  98 126 172 230 274 330 390
#     4  11  23  43  65  95 140 177 220 283 336 409
#
# _framework density 28.394045999999999
#
# number of rings (size 3 to 8) (size 9 to 14) (size 15 to 20)
#    0.000    1.600    1.333    2.400    3.733    1.600 
#   12.000    3.333    0.000    0.000    0.000    0.000 
#    0.000    0.000    0.000    0.000    0.000    0.000 
#
# Total GULP energy -83742.793901 kJ/mol
# GULP energy per Si atom -5582.852927 kJ/mol
# Density = 2.832942 g / cm^3
# Si number density = 28.394046 Si / 1000 Ang^3
#
#
#
# Elastic Constant Matrix: (Units=GPa)
#
#
# Indices 1 2 3 4 5 6 
#
# 1 136.5110 47.2939 36.5473 12.6974 -19.5583 -29.3949
# 2 47.2939 79.8231 21.4540 8.2021 -7.0234 -31.6036
# 3 36.5473 21.4540 140.5375 -16.2807 6.2330 -3.0124
# 4 12.6974 8.2021 -16.2807 46.1723 -15.7260 -2.2102
# 5 -19.5583 -7.0234 6.2330 -15.7260 71.8173 0.3828
# 6 -29.3949 -31.6036 -3.0124 -2.2102 0.3828 59.9551
#
#
#
# Elastic Compliance Matrix: (Units=1/GPa)
#
#
# Indices 1 2 3 4 5 6 
#
# 1 0.010481 -0.004052 -0.002391 -0.002128 0.002185 0.002790
# 2 -0.004052 0.018789 -0.001945 -0.002427 0.000330 0.007729
# 3 -0.002391 -0.001945 0.008455 0.003644 -0.000768 -0.001633
# 4 -0.002128 -0.002427 0.003644 0.025412 0.004438 -0.001231
# 5 0.002185 0.000330 -0.000768 0.004438 0.015583 0.001271
# 6 0.002790 0.007729 -0.001633 -0.001231 0.001271 0.021986
#
#
# Mechanical properties :
#
#
# Convention : Reuss Voigt Hill
#
# Bulk Modulus (GPa) = 47.72950 63.05132 55.39041
# Shear Modulus (GPa) = 40.17221 52.36070 46.26646
#
# Velocity S-wave (km/s) = 3.76548 4.29893 4.04101
# Velocity P-wave (km/s) = 5.97924 6.84800 6.42831
#
# Compressibility (1/GPa) = 0.02095140
#
# Stress axis : x y z
#
# Youngs Moduli (GPa) = 95.41151 53.22203 118.26762
#
# Poissons Ratio (x) = 0.21563 0.28274
# Poissons Ratio (y) = 0.38657 0.23001
# Poissons Ratio (z) = 0.22810 0.10351
#
# Static dielectric constant tensor:
#      x y z
#    x 2.500480 -0.058300 -0.075310 
#    y -0.058300 2.302130 0.053990 
#    z -0.075310 0.053990 2.300850 
# 
# From -- ./inp_files/67590.got.cif
#   From: 2010.05.17/outbox.cif.g08.bks.cpg/sg2_34_cif.got.tgz:67590.got - 2010.06.03 11:33:40.
