data_PCOD9030085
_publ_section_title
;
Structure prediction by ZEFSAII (Michael W. Deem and Ramdas Pophale) SiO2 
 PCOD9030085
Probable space group: P -1
;
_chemical_formula_sum "Si O2"
_cell_formula_units_Z 16
_cell_length_a 19.865550
_cell_length_b 11.971002
_cell_length_c 17.246854
_cell_angle_alpha 151.684538
_cell_angle_beta 22.118164
_cell_angle_gamma 139.602812
_cell_volume 698.214738
_symmetry_space_group_name_H-M "P -1"
_symmetry_group_IT_number 2
_symmetry_cell_setting 'triclinic'
loop_
_space_group_symop_operation_xyz
x,y,z
-x,-y,-z
loop_
_atom_site_type_symbol
_atom_site_label
_atom_site_fract_x
_atom_site_fract_y
_atom_site_fract_z
Si Si1 0.281822 0.352082 0.924963
Si Si2 0.401106 0.531077 0.755170
Si Si3 0.582146 0.194076 0.625326
Si Si4 0.222771 0.050127 0.179111
Si Si5 0.100796 0.110295 0.624905
Si Si6 0.427246 0.024142 0.337984
Si Si7 0.153486 0.572548 0.774111
Si Si8 0.869351 0.411273 0.363342
O O1 0.327718 0.529070 0.919555
O O2 0.384103 0.352419 0.897267
O O3 0.377668 0.083775 0.619650
O O4 0.064635 0.377032 0.176598
O O5 0.358026 0.309429 0.616775
O O6 0.625266 0.471458 0.479625
O O7 0.307686 0.795065 0.977967
O O8 0.737912 0.297761 0.484440
O O9 0.588716 0.159440 0.688961
O O10 0.228561 0.297102 0.366141
O O11 0.008470 0.069959 0.401070
O O12 0.356999 0.030785 0.949960
O O13 0.302040 0.003692 0.385348
O O14 0.113889 0.311371 0.670153
O O15 0.962991 0.255282 0.929029
O O16 0.093778 0.690666 0.825656
#
# Coordination Sequence:
#
# PCOD9030085 Si02
#       8
#     2   2   2   2   2   2   2   2
#     4  10  22  42  69  96 127 169 218 275 318 377
#     4  11  20  42  70  97 130 167 219 272 321 384
#     4  10  23  43  69  93 124 176 225 268 312 376
#     4  12  26  41  65  98 139 172 206 268 333 392
#     4  11  23  40  67  97 127 172 215 264 322 385
#     4  11  23  43  68  95 129 173 224 270 311 379
#     4  11  21  40  69  96 129 168 218 267 319 388
#     4  12  26  43  65 100 136 169 214 267 328 389
#
# _framework density 22.915586999999999
#
# number of rings (size 3 to 8) (size 9 to 14) (size 15 to 20)
#    0.000    1.000    3.750    4.500    0.000    5.000 
#    0.000    1.250    0.000    0.000    0.000    0.000 
#    0.000    0.000    0.000    0.000    0.000    0.000 
#
# Total GULP energy -89574.334543 kJ/mol
# GULP energy per Si atom -5598.395909 kJ/mol
# Density = 2.286343 g / cm^3
# Si number density = 22.915587 Si / 1000 Ang^3
#
#
#
# Elastic Constant Matrix: (Units=GPa)
#
#
# Indices 1 2 3 4 5 6 
#
# 1 59.9164 109.7600 54.9817 7.2372 -32.6415 46.5518
# 2 109.7600 224.2547 74.4742 5.5828 -37.5226 103.8814
# 3 54.9817 74.4742 87.1779 0.4028 -31.8459 67.2207
# 4 7.2372 5.5828 0.4028 49.3050 4.0080 44.4930
# 5 -32.6415 -37.5226 -31.8459 4.0080 40.0365 -55.9379
# 6 46.5518 103.8814 67.2207 44.4930 -55.9379 184.6866
#
#
#
# Elastic Compliance Matrix: (Units=1/GPa)
#
#
# Indices 1 2 3 4 5 6 
#
# 1 -0.046211 0.022375 0.014576 0.035532 -0.050883 -0.030214
# 2 0.022375 -0.003676 -0.010895 -0.014084 0.022244 0.010523
# 3 0.014576 -0.010895 0.015637 -0.007793 0.022521 0.005461
# 4 0.035532 -0.014084 -0.007793 0.014913 0.009668 0.001137
# 5 -0.050883 0.022244 0.022521 0.009668 0.012166 -0.006527
# 6 -0.030214 0.010523 0.005461 0.001137 -0.006527 0.002872
#
#
# Mechanical properties :
#
#
# Convention : Reuss Voigt Hill
#
# Bulk Modulus (GPa) = 55.98401 94.42010 75.20205
# Shear Modulus (GPa) = -99.09352 63.61450 -17.73951
#
# Velocity S-wave (km/s) = -6.58306 5.27453 -2.78533
# Velocity P-wave (km/s) = 5.77050 8.85365 4.74807
#
# Compressibility (1/GPa) = 0.01786224
#
# Stress axis : x y z
#
# Youngs Moduli (GPa) = -21.63989 -272.02207 63.95062
#
# Poissons Ratio (x) = 6.08641 -0.93215
# Poissons Ratio (y) = 0.48419 0.69671
# Poissons Ratio (z) = 0.31542 -2.96356
#
# Static dielectric constant tensor:
#      x y z
#    x 1.861400 0.014500 0.002570 
#    y 0.014500 1.827540 0.035250 
#    z 0.002570 0.035250 1.862280 
# 
# From -- ./inp_files/398096.got.cif
#   From: 2010.05.17/outbox.cif.g08.bks.cpg/sg2_200_cif.got.tgz:398096.got - 2010.06.03 11:33:40.
