data_PCOD9030830
_publ_section_title
;
Structure prediction by ZEFSAII (Michael W. Deem and Ramdas Pophale) SiO2 
 PCOD9030830
Probable space group: P -1
;
_chemical_formula_sum "Si O2"
_cell_formula_units_Z 14
_cell_length_a 11.314557
_cell_length_b 9.283443
_cell_length_c 11.628817
_cell_angle_alpha 79.428992
_cell_angle_beta 36.233222
_cell_angle_gamma 57.840656
_cell_volume 532.319742
_symmetry_space_group_name_H-M "P -1"
_symmetry_group_IT_number 2
_symmetry_cell_setting 'triclinic'
loop_
_space_group_symop_operation_xyz
x,y,z
-x,-y,-z
loop_
_atom_site_type_symbol
_atom_site_label
_atom_site_fract_x
_atom_site_fract_y
_atom_site_fract_z
Si Si1 0.872798 0.344066 0.026513
Si Si2 0.668393 0.714625 0.469849
Si Si3 0.513800 0.249418 0.628208
Si Si4 0.933444 0.623908 0.650990
Si Si5 0.092052 0.048727 0.300723
Si Si6 0.497705 0.388733 0.914766
Si Si7 0.698838 0.958526 0.108142
O O1 0.108099 0.295214 0.767986
O O2 0.034578 0.154045 0.006720
O O3 0.730421 0.518870 0.204640
O O4 0.626747 0.454625 0.114246
O O5 0.456620 0.793926 0.523970
O O6 0.821613 0.502346 0.432383
O O7 0.534301 0.851628 0.665217
O O8 0.790694 0.164691 0.477174
O O9 0.393370 0.166095 0.799451
O O10 0.866003 0.827811 0.670261
O O11 0.000000 0.500000 0.500000
O O12 0.707178 0.640805 0.889289
O O13 0.773320 0.164941 0.724491
O O14 0.248877 0.008526 0.064111
O O15 0.500000 0.500000 0.000000
#
# Coordination Sequence:
#
# PCOD9030830 Si02
#       7
#     2   2   2   2   2   2   2
#     4  10  22  43  71 104 149 194 242 304 378 437
#     4  10  22  42  75 108 147 196 243 314 378 439
#     4  11  24  43  76 109 151 190 251 307 384 445
#     4  11  25  47  71 106 153 194 252 310 374 444
#     4  12  28  48  77 114 148 200 253 312 374 451
#     4  11  27  47  73 105 153 198 249 303 376 453
#     4  11  23  46  77 107 151 194 246 316 375 441
#
# _framework density 26.299982
#
# number of rings (size 3 to 8) (size 9 to 14) (size 15 to 20)
#    0.000    1.143    0.000    7.286    8.000    4.571 
#    0.000    0.000    0.000    0.000    0.000    0.000 
#    0.000    0.000    0.000    0.000    0.000    0.000 
#
# Total GULP energy -78350.379579 kJ/mol
# GULP energy per Si atom -5596.455684 kJ/mol
# Density = 2.624012 g / cm^3
# Si number density = 26.299982 Si / 1000 Ang^3
#
#
#
# Elastic Constant Matrix: (Units=GPa)
#
#
# Indices 1 2 3 4 5 6 
#
# 1 147.8263 48.8490 35.6464 -1.2809 4.4692 -11.6672
# 2 48.8490 54.7048 11.6752 7.3688 -6.5198 1.1769
# 3 35.6464 11.6752 125.8299 -8.7846 -4.6783 15.0086
# 4 -1.2809 7.3688 -8.7846 54.7499 1.0554 0.5827
# 5 4.4692 -6.5198 -4.6783 1.0554 57.4318 2.0878
# 6 -11.6672 1.1769 15.0086 0.5827 2.0878 45.4395
#
#
#
# Elastic Compliance Matrix: (Units=1/GPa)
#
#
# Indices 1 2 3 4 5 6 
#
# 1 0.011075 -0.009834 -0.002721 0.001148 -0.002370 0.004091
# 2 -0.009834 0.028069 0.000484 -0.003973 0.004193 -0.003553
# 3 -0.002721 0.000484 0.009270 0.001378 0.001136 -0.003843
# 4 0.001148 -0.003973 0.001378 0.019065 -0.000769 -0.000266
# 5 -0.002370 0.004193 0.001136 -0.000769 0.018249 -0.001921
# 6 0.004091 -0.003553 -0.003843 -0.000266 -0.001921 0.024511
#
#
# Mechanical properties :
#
#
# Convention : Reuss Voigt Hill
#
# Bulk Modulus (GPa) = 41.19938 57.85582 49.52760
# Shear Modulus (GPa) = 35.09478 47.00361 41.04919
#
# Velocity S-wave (km/s) = 3.65691 4.23213 3.95499
# Velocity P-wave (km/s) = 5.79050 6.77697 6.30306
#
# Compressibility (1/GPa) = 0.02427221
#
# Stress axis : x y z
#
# Youngs Moduli (GPa) = 90.29480 35.62619 107.87566
#
# Poissons Ratio (x) = 0.35034 0.29352
# Poissons Ratio (y) = 0.88794 -0.05218
# Poissons Ratio (z) = 0.24568 -0.01723
#
# Static dielectric constant tensor:
#      x y z
#    x 2.096930 -0.030600 -0.006200 
#    y -0.030600 2.138360 -0.028480 
#    z -0.006200 -0.028480 2.126570 
# 
# From -- ./inp_files/428307.got.cif
#   From: 2010.05.17/outbox.cif.g08.bks.cpg/sg2_215_cif.got.tgz:428307.got - 2010.06.03 11:33:40.
