data_PCOD9030145
_publ_section_title
;
Structure prediction by ZEFSAII (Michael W. Deem and Ramdas Pophale) SiO2 
 PCOD9030145
Probable space group: P -1
;
_chemical_formula_sum "Si O2"
_cell_formula_units_Z 14
_cell_length_a 10.785666
_cell_length_b 11.808326
_cell_length_c 7.253213
_cell_angle_alpha 136.975183
_cell_angle_beta 110.196548
_cell_angle_gamma 92.764494
_cell_volume 522.312090
_symmetry_space_group_name_H-M "P -1"
_symmetry_group_IT_number 2
_symmetry_cell_setting 'triclinic'
loop_
_space_group_symop_operation_xyz
x,y,z
-x,-y,-z
loop_
_atom_site_type_symbol
_atom_site_label
_atom_site_fract_x
_atom_site_fract_y
_atom_site_fract_z
Si Si1 0.904629 0.193154 0.254263
Si Si2 0.521610 0.856931 0.204363
Si Si3 0.882764 0.834576 0.932287
Si Si4 0.641950 0.465957 0.507194
Si Si5 0.669518 0.160863 0.365840
Si Si6 0.672619 0.664107 0.264376
Si Si7 0.122316 0.530354 0.943092
O O1 0.745686 0.150684 0.201038
O O2 0.963383 0.153941 0.047836
O O3 0.008050 0.416109 0.588321
O O4 0.927658 0.052300 0.244634
O O5 0.647926 0.809904 0.295689
O O6 0.500000 0.000000 0.500000
O O7 0.563126 0.958524 0.147918
O O8 0.381940 0.652061 0.837171
O O9 0.793324 0.663675 0.821332
O O10 0.757696 0.767111 0.620334
O O11 0.500000 0.500000 0.500000
O O12 0.632258 0.328117 0.501510
O O13 0.771919 0.250878 0.710052
O O14 0.777559 0.578705 0.140667
O O15 0.500000 0.500000 0.000000
O O16 0.000000 0.500000 0.000000
#
# Coordination Sequence:
#
# PCOD9030145 Si02
#       7
#     2   2   2   2   2   2   2
#     4   9  21  43  67  96 134 178 225 287 335 421
#     4  12  27  41  67 106 145 184 227 286 355 423
#     4  10  22  42  69  99 134 175 232 277 353 411
#     4  12  26  43  69 100 140 184 227 290 351 414
#     4  11  24  43  66  98 140 175 233 280 345 412
#     4  11  21  41  70  99 137 179 228 284 347 413
#     4   9  20  42  68  95 132 180 225 282 340 410
#
# _framework density 26.803895000000001
#
# number of rings (size 3 to 8) (size 9 to 14) (size 15 to 20)
#    0.000    1.429    1.429    3.000    6.000    0.571 
#    0.000   20.000    0.000    0.000    0.000    0.000 
#    0.000    0.000    0.000    0.000    0.000    0.000 
#
# Total GULP energy -78018.655108 kJ/mol
# GULP energy per Si atom -5572.761079 kJ/mol
# Density = 2.674289 g / cm^3
# Si number density = 26.803895 Si / 1000 Ang^3
#
#
#
# Elastic Constant Matrix: (Units=GPa)
#
#
# Indices 1 2 3 4 5 6 
#
# 1 173.1673 44.2089 13.2089 24.8213 -2.7409 -2.6778
# 2 44.2089 142.4456 3.2408 24.3375 11.8719 2.6618
# 3 13.2089 3.2408 107.7514 16.9409 13.6495 25.5614
# 4 24.8213 24.3375 16.9409 38.7750 11.0793 4.2579
# 5 -2.7409 11.8719 13.6495 11.0793 48.5120 16.7872
# 6 -2.6778 2.6618 25.5614 4.2579 16.7872 13.9391
#
#
#
# Elastic Compliance Matrix: (Units=1/GPa)
#
#
# Indices 1 2 3 4 5 6 
#
# 1 0.006872 -0.001642 -0.001552 -0.003315 0.000143 0.005321
# 2 -0.001642 0.008333 0.001065 -0.004209 -0.000994 -0.001377
# 3 -0.001552 0.001065 0.022140 -0.007329 0.014650 -0.056506
# 4 -0.003315 -0.004209 -0.007329 0.035043 -0.010463 0.015503
# 5 0.000143 -0.000994 0.014650 -0.010463 0.046717 -0.079713
# 6 0.005321 -0.001377 -0.056506 0.015503 -0.079713 0.267912
#
#
# Mechanical properties :
#
#
# Convention : Reuss Voigt Hill
#
# Bulk Modulus (GPa) = 30.22352 60.52017 45.37184
# Shear Modulus (GPa) = 12.42838 44.42558 28.42698
#
# Velocity S-wave (km/s) = 2.15565 4.07557 3.26015
# Velocity P-wave (km/s) = 4.18283 6.69141 5.57992
#
# Compressibility (1/GPa) = 0.03308682
#
# Stress axis : x y z
#
# Youngs Moduli (GPa) = 145.51377 119.99781 45.16707
#
# Poissons Ratio (x) = 0.19709 0.07011
# Poissons Ratio (y) = 0.23900 -0.04811
# Poissons Ratio (z) = 0.22586 -0.12781
#
# Static dielectric constant tensor:
#      x y z
#    x 2.237470 -0.251150 0.061510 
#    y -0.251150 2.591620 0.016790 
#    z 0.061510 0.016790 2.702760 
# 
# From -- ./inp_files/261149.got.cif
#   From: 2010.05.17/outbox.cif.g08.bks.cpg/sg2_131_cif.got.tgz:261149.got - 2010.06.03 11:33:40.
