data_PCOD9030886
_publ_section_title
;
Structure prediction by ZEFSAII (Michael W. Deem and Ramdas Pophale) SiO2 
 PCOD9030886
Probable space group: P -1
;
_chemical_formula_sum "Si O2"
_cell_formula_units_Z 12
_cell_length_a 19.620399
_cell_length_b 5.137384
_cell_length_c 5.520021
_cell_angle_alpha 96.260965
_cell_angle_beta 65.034033
_cell_angle_gamma 113.108504
_cell_volume 462.870767
_symmetry_space_group_name_H-M "P -1"
_symmetry_group_IT_number 2
_symmetry_cell_setting 'triclinic'
loop_
_space_group_symop_operation_xyz
x,y,z
-x,-y,-z
loop_
_atom_site_type_symbol
_atom_site_label
_atom_site_fract_x
_atom_site_fract_y
_atom_site_fract_z
Si Si1 0.203208 0.720538 0.279420
Si Si2 0.521473 0.801014 0.757614
Si Si3 0.603410 0.399330 0.471161
Si Si4 0.943717 0.247717 0.229596
Si Si5 0.246605 0.693471 0.717076
Si Si6 0.890638 0.767374 0.917111
O O1 0.117734 0.745213 0.468104
O O2 0.258897 0.812850 0.441191
O O3 0.167958 0.379586 0.234615
O O4 0.252123 0.860525 0.976988
O O5 0.568078 0.587833 0.709822
O O6 0.438969 0.607262 0.723305
O O7 0.577500 0.060577 0.527875
O O8 0.500000 0.000000 0.000000
O O9 0.699320 0.495409 0.349842
O O10 0.014029 0.167855 0.246885
O O11 0.000000 0.500000 0.000000
O O12 0.888607 0.031279 0.089817
O O13 0.152173 0.480956 0.845683
#
# Coordination Sequence:
#
# PCOD9030886 Si02
#       6
#     2   2   2   2   2   2
#     4  10  22  43  60  92 131 169 225 269 339 398
#     4  10  22  43  72 102 133 180 224 274 340 413
#     4  10  23  43  67 102 139 172 231 275 340 412
#     4  11  19  41  64  87 125 175 218 281 325 400
#     4  10  23  44  61  97 132 173 217 281 336 401
#     4   9  23  38  60  93 123 165 228 266 339 384
#
# _framework density 25.925165
#
# number of rings (size 3 to 8) (size 9 to 14) (size 15 to 20)
#    1.000    1.000    1.667    1.000    2.333    2.000 
#    6.000    0.000    0.000    0.000    0.000    0.000 
#    0.000    0.000    0.000    0.000    0.000    0.000 
#
# Total GULP energy -66802.878636 kJ/mol
# GULP energy per Si atom -5566.906553 kJ/mol
# Density = 2.586616 g / cm^3
# Si number density = 25.925165 Si / 1000 Ang^3
#
#
#
# Elastic Constant Matrix: (Units=GPa)
#
#
# Indices 1 2 3 4 5 6 
#
# 1 128.1649 3.8292 55.7121 8.6053 -15.6061 -5.9634
# 2 3.8292 78.2188 7.6092 18.2009 3.3543 -8.0912
# 3 55.7121 7.6092 169.4375 22.0303 11.1269 -9.7971
# 4 8.6053 18.2009 22.0303 32.1389 -10.3086 3.7887
# 5 -15.6061 3.3543 11.1269 -10.3086 41.1655 5.3627
# 6 -5.9634 -8.0912 -9.7971 3.7887 5.3627 19.5158
#
#
#
# Elastic Compliance Matrix: (Units=1/GPa)
#
#
# Indices 1 2 3 4 5 6 
#
# 1 0.010093 -0.001215 -0.004143 0.002957 0.006010 -0.001725
# 2 -0.001215 0.018337 0.003191 -0.016826 -0.008927 0.014553
# 3 -0.004143 0.003191 0.009669 -0.011148 -0.008461 0.009400
# 4 0.002957 -0.016826 -0.011148 0.058715 0.024076 -0.029683
# 5 0.006010 -0.008927 -0.008461 0.024076 0.038393 -0.021336
# 6 -0.001725 0.014553 0.009400 -0.029683 -0.021336 0.073091
#
#
# Mechanical properties :
#
#
# Convention : Reuss Voigt Hill
#
# Bulk Modulus (GPa) = 29.61577 56.68024 43.14801
# Shear Modulus (GPa) = 22.33264 39.14208 30.73736
#
# Velocity S-wave (km/s) = 2.93819 3.88984 3.44702
# Velocity P-wave (km/s) = 4.79155 6.48729 5.70281
#
# Compressibility (1/GPa) = 0.03376579
#
# Stress axis : x y z
#
# Youngs Moduli (GPa) = 99.08206 54.53426 103.41922
#
# Poissons Ratio (x) = 0.06628 0.42845
# Poissons Ratio (y) = 0.12041 -0.33006
# Poissons Ratio (z) = 0.41048 -0.17404
#
# Static dielectric constant tensor:
#      x y z
#    x 2.138230 -0.060620 -0.012180 
#    y -0.060620 2.113600 -0.066100 
#    z -0.012180 -0.066100 2.173510 
# 
# From -- ./inp_files/113582.got.cif
#   From: 2010.05.17/outbox.cif.g08.bks.cpg/sg2_57_cif.got.tgz:113582.got - 2010.06.03 11:33:40.
