data_PCOD9030978
_publ_section_title
;
Structure prediction by ZEFSAII (Michael W. Deem and Ramdas Pophale) SiO2 
 PCOD9030978
Probable space group: P -1
;
_chemical_formula_sum "Si O2"
_cell_formula_units_Z 16
_cell_length_a 24.019388
_cell_length_b 6.766334
_cell_length_c 16.585522
_cell_angle_alpha 110.845144
_cell_angle_beta 20.715662
_cell_angle_gamma 120.747624
_cell_volume 750.150548
_symmetry_space_group_name_H-M "P -1"
_symmetry_group_IT_number 2
_symmetry_cell_setting 'triclinic'
loop_
_space_group_symop_operation_xyz
x,y,z
-x,-y,-z
loop_
_atom_site_type_symbol
_atom_site_label
_atom_site_fract_x
_atom_site_fract_y
_atom_site_fract_z
Si Si1 0.209446 0.554337 0.718783
Si Si2 0.956915 0.776454 0.466036
Si Si3 0.311588 0.490946 0.737089
Si Si4 0.041861 0.994766 0.828039
Si Si5 0.005377 0.901165 0.685400
Si Si6 0.325054 0.776566 0.251807
Si Si7 0.264002 0.637470 0.000960
Si Si8 0.349512 0.871062 0.414786
O O1 0.311016 0.639318 0.680442
O O2 0.321498 0.723636 0.514594
O O3 0.170855 0.281561 0.716350
O O4 0.000000 0.500000 0.000000
O O5 0.770633 0.504029 0.695081
O O6 0.941214 0.882931 0.418017
O O7 0.127031 0.732497 0.222474
O O8 0.000000 0.000000 0.500000
O O9 0.500000 0.500000 0.500000
O O10 0.259139 0.579465 0.903151
O O11 0.153026 0.196712 0.893189
O O12 0.162217 0.871834 0.658987
O O13 0.983311 0.988922 0.814578
O O14 0.166812 0.842856 0.467483
O O15 0.818582 0.630182 0.881809
O O16 0.368712 0.771387 0.287073
O O17 0.500000 0.000000 0.000000
O O18 0.471012 0.849702 0.776863
#
# Coordination Sequence:
#
# PCOD9030978 Si02
#       8
#     2   2   2   2   2   2   2   2
#     4  12  25  39  70  96 135 183 231 285 343 417
#     4  11  25  43  69 101 136 180 234 285 358 424
#     4  11  24  43  69  99 136 183 231 284 353 415
#     4  10  22  43  63  92 134 175 227 283 345 414
#     4   9  22  43  68  91 134 181 219 291 349 412
#     4  10  24  44  71  99 137 178 228 291 354 421
#     4  10  25  43  66  97 142 177 227 287 349 417
#     4  11  24  44  67 100 133 181 231 286 349 419
#
# _framework density 21.329052999999998
#
# number of rings (size 3 to 8) (size 9 to 14) (size 15 to 20)
#    0.000    1.500    1.250    2.625    7.000    5.000 
#    2.250    0.000    0.000    0.000    0.000    0.000 
#    0.000    0.000    0.000    0.000    0.000    0.000 
#
# Total GULP energy -89328.555511 kJ/mol
# GULP energy per Si atom -5583.034719 kJ/mol
# Density = 2.128051 g / cm^3
# Si number density = 21.329053 Si / 1000 Ang^3
#
#
#
# Elastic Constant Matrix: (Units=GPa)
#
#
# Indices 1 2 3 4 5 6 
#
# 1 69.6566 13.7115 34.6734 -10.4513 7.1090 -15.6837
# 2 13.7115 60.1498 29.4849 -14.6895 9.6511 5.3290
# 3 34.6734 29.4849 115.4322 -31.8612 0.3707 -1.1923
# 4 -10.4513 -14.6895 -31.8612 36.9402 0.4808 -0.6654
# 5 7.1090 9.6511 0.3707 0.4808 33.0501 -3.5048
# 6 -15.6837 5.3290 -1.1923 -0.6654 -3.5048 30.6373
#
#
#
# Elastic Compliance Matrix: (Units=1/GPa)
#
#
# Indices 1 2 3 4 5 6 
#
# 1 0.020015 -0.002433 -0.005147 0.000472 -0.002463 0.010198
# 2 -0.002433 0.021624 -0.003483 0.004886 -0.006436 -0.005772
# 3 -0.005147 -0.003483 0.013500 0.008760 0.001727 -0.001116
# 4 0.000472 0.004886 0.008760 0.036735 -0.002131 0.000287
# 5 -0.002463 -0.006436 0.001727 -0.002131 0.033066 0.003662
# 6 0.010198 -0.005772 -0.001116 0.000287 0.003662 0.039246
#
#
# Mechanical properties :
#
#
# Convention : Reuss Voigt Hill
#
# Bulk Modulus (GPa) = 30.29078 44.55315 37.42196
# Shear Modulus (GPa) = 25.33986 31.28342 28.31164
#
# Velocity S-wave (km/s) = 3.45054 3.83391 3.64727
# Velocity P-wave (km/s) = 5.48703 6.36650 5.94305
#
# Compressibility (1/GPa) = 0.03301335
#
# Stress axis : x y z
#
# Youngs Moduli (GPa) = 49.96149 46.24416 74.07588
#
# Poissons Ratio (x) = 0.11249 0.38130
# Poissons Ratio (y) = 0.12153 0.25801
# Poissons Ratio (z) = 0.25717 0.16107
#
# Static dielectric constant tensor:
#      x y z
#    x 1.837130 0.053460 0.056750 
#    y 0.053460 1.746110 -0.000100 
#    z 0.056750 -0.000100 1.794410 
# 
# From -- ./inp_files/578741.got.cif
#   From: 2010.05.17/outbox.cif.g08.bks.cpg/sg2_290_cif.got.tgz:578741.got - 2010.06.03 11:33:40.
