data_PCOD9030654
_publ_section_title
;
Structure prediction by ZEFSAII (Michael W. Deem and Ramdas Pophale) SiO2 
 PCOD9030654
Probable space group: P -1
;
_chemical_formula_sum "Si O2"
_cell_formula_units_Z 10
_cell_length_a 14.194468
_cell_length_b 9.075388
_cell_length_c 5.041607
_cell_angle_alpha 77.232927
_cell_angle_beta 72.694151
_cell_angle_gamma 36.288739
_cell_volume 366.782864
_symmetry_space_group_name_H-M "P -1"
_symmetry_group_IT_number 2
_symmetry_cell_setting 'triclinic'
loop_
_space_group_symop_operation_xyz
x,y,z
-x,-y,-z
loop_
_atom_site_type_symbol
_atom_site_label
_atom_site_fract_x
_atom_site_fract_y
_atom_site_fract_z
Si Si1 0.889531 0.676895 0.270360
Si Si2 0.238604 0.567878 0.401228
Si Si3 0.435035 0.946882 0.881488
Si Si4 0.034014 0.786423 0.997251
Si Si5 0.606665 0.320160 0.733809
O O1 0.000000 0.500000 0.500000
O O2 0.712402 0.832198 0.281707
O O3 0.000000 0.500000 0.000000
O O4 0.882513 0.868014 0.175430
O O5 0.114849 0.666714 0.691935
O O6 0.424605 0.287841 0.338548
O O7 0.241951 0.747780 0.353207
O O8 0.000000 0.000000 0.000000
O O9 0.825910 0.418012 0.826458
O O10 0.373400 0.883522 0.152748
O O11 0.500000 0.000000 0.000000
O O12 0.500000 0.500000 0.500000
O O13 0.500000 0.500000 0.000000
#
# Coordination Sequence:
#
# PCOD9030654 Si02
#       5
#     2   2   2   2   2
#     4  12  29  51  75 112 160 207 256 319 394 464
#     4  11  24  47  77 112 147 196 258 315 376 459
#     4  11  26  51  81 114 156 209 263 321 383 463
#     4  12  26  49  78 110 151 199 250 316 390 458
#     4  10  22  42  72 110 148 189 250 319 378 444
#
# _framework density 27.264084
#
# number of rings (size 3 to 8) (size 9 to 14) (size 15 to 20)
#    0.000    0.800    0.000    6.600    0.000    9.600 
#    0.000   15.000    0.000    0.000    0.000    0.000 
#    0.000    0.000    0.000    0.000    0.000    0.000 
#
# Total GULP energy -56026.908011 kJ/mol
# GULP energy per Si atom -5602.690801 kJ/mol
# Density = 2.720203 g / cm^3
# Si number density = 27.264084 Si / 1000 Ang^3
#
#
#
# Elastic Constant Matrix: (Units=GPa)
#
#
# Indices 1 2 3 4 5 6 
#
# 1 196.2068 17.3094 44.5038 -20.4922 -31.3569 -8.9276
# 2 17.3094 131.7709 35.5503 -13.8823 12.8891 -6.5000
# 3 44.5038 35.5503 177.7334 -8.8173 12.6850 -11.7073
# 4 -20.4922 -13.8823 -8.8173 36.9309 -6.1954 7.3714
# 5 -31.3569 12.8891 12.6850 -6.1954 70.6021 -3.0906
# 6 -8.9276 -6.5000 -11.7073 7.3714 -3.0906 48.7551
#
#
#
# Elastic Compliance Matrix: (Units=1/GPa)
#
#
# Indices 1 2 3 4 5 6 
#
# 1 0.006449 -0.000368 -0.001589 0.003569 0.003549 0.000436
# 2 -0.000368 0.008388 -0.001362 0.002359 -0.001230 0.000289
# 3 -0.001589 -0.001362 0.006462 -0.000324 -0.001602 0.001027
# 4 0.003569 0.002359 -0.000324 0.031221 0.003795 -0.003589
# 5 0.003549 -0.001230 -0.001602 0.003795 0.016611 0.000580
# 6 0.000436 0.000289 0.001027 -0.003589 0.000580 0.021455
#
#
# Mechanical properties :
#
#
# Convention : Reuss Voigt Hill
#
# Bulk Modulus (GPa) = 68.20156 77.82646 73.01401
# Shear Modulus (GPa) = 48.96614 58.48080 53.72347
#
# Velocity S-wave (km/s) = 4.24251 4.63641 4.44383
# Velocity P-wave (km/s) = 7.00486 7.56764 7.29168
#
# Compressibility (1/GPa) = 0.01466242
#
# Stress axis : x y z
#
# Youngs Moduli (GPa) = 155.05374 119.22024 154.73993
#
# Poissons Ratio (x) = 0.04390 0.24585
# Poissons Ratio (y) = 0.05709 0.21070
# Poissons Ratio (z) = 0.24635 0.16233
#
# Static dielectric constant tensor:
#      x y z
#    x 2.323510 0.071400 -0.084470 
#    y 0.071400 2.016540 -0.134590 
#    z -0.084470 -0.134590 2.151430 
# 
# From -- ./inp_files/93144.got.cif
#   From: 2010.05.17/outbox.cif.g08.bks.cpg/sg2_47_cif.got.tgz:93144.got - 2010.06.03 11:33:40.
