data_PCOD9030948
_publ_section_title
;
Structure prediction by ZEFSAII (Michael W. Deem and Ramdas Pophale) SiO2 
 PCOD9030948
Probable space group: P -1
;
_chemical_formula_sum "Si O2"
_cell_formula_units_Z 16
_cell_length_a 7.422550
_cell_length_b 5.257663
_cell_length_c 18.184269
_cell_angle_alpha 75.355125
_cell_angle_beta 91.377730
_cell_angle_gamma 72.729052
_cell_volume 651.850141
_symmetry_space_group_name_H-M "P -1"
_symmetry_group_IT_number 2
_symmetry_cell_setting 'triclinic'
loop_
_space_group_symop_operation_xyz
x,y,z
-x,-y,-z
loop_
_atom_site_type_symbol
_atom_site_label
_atom_site_fract_x
_atom_site_fract_y
_atom_site_fract_z
Si Si1 0.524980 0.282617 0.950603
Si Si2 0.650675 0.426032 0.732299
Si Si3 0.104835 0.827135 0.696075
Si Si4 0.085389 0.901900 0.121249
Si Si5 0.836193 0.338071 0.591670
Si Si6 0.127343 0.512457 0.862663
Si Si7 0.570014 0.963159 0.286671
Si Si8 0.768140 0.517102 0.418287
O O1 0.728804 0.198084 0.920162
O O2 0.350610 0.430891 0.884283
O O3 0.500000 0.500000 0.000000
O O4 0.500000 0.000000 0.000000
O O5 0.835302 0.233540 0.789276
O O6 0.696359 0.481569 0.644607
O O7 0.508485 0.241608 0.746423
O O8 0.570838 0.728523 0.744049
O O9 0.078730 0.614699 0.770972
O O10 0.226446 0.677997 0.637592
O O11 0.224455 0.998934 0.727171
O O12 0.914029 0.021889 0.643357
O O13 0.936990 0.753920 0.103271
O O14 0.988758 0.228287 0.107047
O O15 0.751974 0.385709 0.505980
O O16 0.025921 0.432240 0.584980
O O17 0.608108 0.807533 0.377840
#
# Coordination Sequence:
#
# PCOD9030948 Si02
#       8
#     2   2   2   2   2   2   2   2
#     4  12  29  52  79 118 156 193 238 299 367 446
#     4  12  24  45  65 104 137 182 236 313 348 429
#     4  11  22  45  67 101 137 189 249 289 362 432
#     4  12  27  49  78 117 149 194 250 298 363 440
#     4  10  23  39  68  93 142 180 246 297 361 421
#     4  12  27  47  83 110 152 202 242 302 367 433
#     4  11  25  40  66  91 141 184 240 301 371 418
#     4  10  22  43  62  99 131 198 234 303 356 435
#
# _framework density 24.545521000000001
#
# number of rings (size 3 to 8) (size 9 to 14) (size 15 to 20)
#    0.000    0.750    2.500    4.125    3.500    5.000 
#    0.000    0.000    0.000    0.000    0.000    0.000 
#    0.000    0.000    0.000    0.000    0.000    0.000 
#
# Total GULP energy -89586.449747 kJ/mol
# GULP energy per Si atom -5599.153109 kJ/mol
# Density = 2.448965 g / cm^3
# Si number density = 24.545521 Si / 1000 Ang^3
#
#
#
# Elastic Constant Matrix: (Units=GPa)
#
#
# Indices 1 2 3 4 5 6 
#
# 1 68.6522 17.7759 25.0313 9.4782 2.5088 10.9251
# 2 17.7759 137.5535 34.4539 7.5458 6.9576 4.2672
# 3 25.0313 34.4539 83.0345 8.2700 -10.5464 -0.1387
# 4 9.4782 7.5458 8.2700 32.4489 -11.8654 1.7709
# 5 2.5088 6.9576 -10.5464 -11.8654 33.9985 -0.2349
# 6 10.9251 4.2672 -0.1387 1.7709 -0.2349 43.0347
#
#
#
# Elastic Compliance Matrix: (Units=1/GPa)
#
#
# Indices 1 2 3 4 5 6 
#
# 1 0.018274 -0.000308 -0.005471 -0.005424 -0.004906 -0.004430
# 2 -0.000308 0.008570 -0.003706 -0.002264 -0.003676 -0.000710
# 3 -0.005471 -0.003706 0.015978 0.000608 0.006343 0.001818
# 4 -0.005424 -0.002264 0.000608 0.038002 0.014315 0.000118
# 5 -0.004906 -0.003676 0.006343 0.014315 0.037500 0.001246
# 6 -0.004430 -0.000710 0.001818 0.000118 0.001246 0.024440
#
#
# Mechanical properties :
#
#
# Convention : Reuss Voigt Hill
#
# Bulk Modulus (GPa) = 41.92479 49.30692 45.61586
# Shear Modulus (GPa) = 29.46646 36.02834 32.74740
#
# Velocity S-wave (km/s) = 3.46856 3.83537 3.65656
# Velocity P-wave (km/s) = 5.75836 6.30436 6.03753
#
# Compressibility (1/GPa) = 0.02385224
#
# Stress axis : x y z
#
# Youngs Moduli (GPa) = 54.72291 116.68566 62.58456
#
# Poissons Ratio (x) = 0.03593 0.34242
# Poissons Ratio (y) = 0.01685 0.23192
# Poissons Ratio (z) = 0.29941 0.43241
#
# Static dielectric constant tensor:
#      x y z
#    x 1.966250 0.005320 -0.005350 
#    y 0.005320 1.953430 0.011920 
#    z -0.005350 0.011920 1.944900 
# 
# From -- ./inp_files/553358.got.cif
#   From: 2010.05.17/outbox.cif.g08.bks.cpg/sg2_277_cif.got.tgz:553358.got - 2010.06.03 11:33:40.
