data_PCOD9030253
_publ_section_title
;
Structure prediction by ZEFSAII (Michael W. Deem and Ramdas Pophale) SiO2 
 PCOD9030253
Probable space group: P -1
;
_chemical_formula_sum "Si O2"
_cell_formula_units_Z 10
_cell_length_a 5.362664
_cell_length_b 20.711659
_cell_length_c 9.149665
_cell_angle_alpha 31.878740
_cell_angle_beta 129.535406
_cell_angle_gamma 136.134109
_cell_volume 371.099060
_symmetry_space_group_name_H-M "P -1"
_symmetry_group_IT_number 2
_symmetry_cell_setting 'triclinic'
loop_
_space_group_symop_operation_xyz
x,y,z
-x,-y,-z
loop_
_atom_site_type_symbol
_atom_site_label
_atom_site_fract_x
_atom_site_fract_y
_atom_site_fract_z
Si Si1 0.500834 0.998901 0.829520
Si Si2 0.862836 0.590600 0.054745
Si Si3 0.255580 0.196718 0.811766
Si Si4 0.526470 0.869213 0.693814
Si Si5 0.710751 0.508899 0.758316
O O1 0.341854 0.084284 0.511892
O O2 0.924481 0.105265 0.760788
O O3 0.500000 0.000000 0.000000
O O4 0.445860 0.852237 0.032411
O O5 0.682638 0.597825 0.126947
O O6 0.121549 0.514692 0.284210
O O7 0.500000 0.500000 0.000000
O O8 0.139437 0.737428 0.814862
O O9 0.306285 0.348178 0.520280
O O10 0.217701 0.160605 0.040435
O O11 0.500000 0.000000 0.500000
O O12 0.000000 0.500000 0.000000
#
# Coordination Sequence:
#
# PCOD9030253 Si02
#       5
#     2   2   2   2   2
#     4  10  22  43  71 102 142 196 242 302 369 441
#     4  10  22  44  71 105 144 194 241 302 366 435
#     4  10  23  43  68 105 146 189 246 300 370 434
#     4  10  23  48  70 108 146 188 248 306 367 437
#     4  10  22  42  70 103 144 190 244 297 363 436
#
# _framework density 26.946984
#
# number of rings (size 3 to 8) (size 9 to 14) (size 15 to 20)
#    0.000    2.000    0.000    2.400    2.800    2.400 
#   28.800    0.000    0.000    0.000    0.000    0.000 
#    0.000    0.000    0.000    0.000    0.000    0.000 
#
# Total GULP energy -55784.163271 kJ/mol
# GULP energy per Si atom -5578.416327 kJ/mol
# Density = 2.688565 g / cm^3
# Si number density = 26.946984 Si / 1000 Ang^3
#
#
#
# Elastic Constant Matrix: (Units=GPa)
#
#
# Indices 1 2 3 4 5 6 
#
# 1 167.2419 17.3350 41.9825 -3.9101 6.9731 -6.7977
# 2 17.3350 124.8461 50.3229 -9.1404 7.1683 22.3372
# 3 41.9825 50.3229 215.4515 4.9731 12.2866 -8.6252
# 4 -3.9101 -9.1404 4.9731 53.5383 -15.9630 -8.3625
# 5 6.9731 7.1683 12.2866 -15.9630 22.1232 -1.4751
# 6 -6.7977 22.3372 -8.6252 -8.3625 -1.4751 41.4830
#
#
#
# Elastic Compliance Matrix: (Units=1/GPa)
#
#
# Indices 1 2 3 4 5 6 
#
# 1 0.006393 -0.000619 -0.001010 0.000376 -0.000901 0.001214
# 2 -0.000619 0.010317 -0.002436 0.000414 -0.001906 -0.006148
# 3 -0.001010 -0.002436 0.005699 -0.001657 -0.003127 0.001886
# 4 0.000376 0.000414 -0.001657 0.025571 0.019475 0.005342
# 5 -0.000901 -0.001906 -0.003127 0.019475 0.062317 0.006370
# 6 0.001214 -0.006148 0.001886 0.005342 0.006370 0.029311
#
#
# Mechanical properties :
#
#
# Convention : Reuss Voigt Hill
#
# Bulk Modulus (GPa) = 70.02741 80.75780 75.39260
# Shear Modulus (GPa) = 32.78722 49.95550 41.37136
#
# Velocity S-wave (km/s) = 3.49195 4.31030 3.92253
# Velocity P-wave (km/s) = 6.50398 7.40309 6.96806
#
# Compressibility (1/GPa) = 0.01428012
#
# Stress axis : x y z
#
# Youngs Moduli (GPa) = 156.42802 96.92277 175.45907
#
# Poissons Ratio (x) = 0.05995 0.17719
# Poissons Ratio (y) = 0.09676 0.42747
# Poissons Ratio (z) = 0.15797 0.23613
#
# Static dielectric constant tensor:
#      x y z
#    x 2.438200 0.000920 -0.049900 
#    y 0.000920 2.304250 0.128250 
#    z -0.049900 0.128250 2.167980 
# 
# From -- ./inp_files/139738.got.cif
#   From: 2010.05.17/outbox.cif.g08.bks.cpg/sg2_70_cif.got.tgz:139738.got - 2010.06.03 11:33:40.
