data_PCOD9030383
_publ_section_title
;
Structure prediction by ZEFSAII (Michael W. Deem and Ramdas Pophale) SiO2 
 PCOD9030383
Probable space group: P -1
;
_chemical_formula_sum "Si O2"
_cell_formula_units_Z 12
_cell_length_a 14.977379
_cell_length_b 9.764230
_cell_length_c 9.740138
_cell_angle_alpha 124.134831
_cell_angle_beta 135.872150
_cell_angle_gamma 27.832869
_cell_volume 451.025668
_symmetry_space_group_name_H-M "P -1"
_symmetry_group_IT_number 2
_symmetry_cell_setting 'triclinic'
loop_
_space_group_symop_operation_xyz
x,y,z
-x,-y,-z
loop_
_atom_site_type_symbol
_atom_site_label
_atom_site_fract_x
_atom_site_fract_y
_atom_site_fract_z
Si Si1 0.939500 0.216145 0.664472
Si Si2 0.772109 0.627980 0.492683
Si Si3 0.049470 0.209816 0.302990
Si Si4 0.520920 0.451223 0.675734
Si Si5 0.623263 0.159802 0.898182
Si Si6 0.439142 0.253056 0.045290
O O1 0.904480 0.426511 0.662170
O O2 0.680979 0.442937 0.549415
O O3 0.000000 0.000000 0.500000
O O4 0.119378 0.054950 0.895372
O O5 0.814114 0.767251 0.565364
O O6 0.500633 0.863528 0.329417
O O7 0.915978 0.365783 0.388064
O O8 0.228872 0.870996 0.284979
O O9 0.838451 0.429570 0.085742
O O10 0.532455 0.396747 0.823322
O O11 0.460245 0.708058 0.730813
O O12 0.534270 0.200043 0.971755
O O13 0.500000 0.000000 0.000000
#
# Coordination Sequence:
#
# PCOD9030383 Si02
#       6
#     2   2   2   2   2   2
#     4  11  22  39  69  97 134 176 229 272 333 408
#     4   9  22  43  68  93 133 184 218 273 345 399
#     4  10  22  43  69  96 140 176 221 283 340 394
#     4  11  24  43  70 102 134 176 229 283 329 398
#     4  10  22  42  70  97 131 179 223 270 338 404
#     4  11  22  41  69  97 134 179 224 270 342 404
#
# _framework density 26.606021999999999
#
# number of rings (size 3 to 8) (size 9 to 14) (size 15 to 20)
#    0.000    1.667    1.667    2.000    4.667    2.667 
#    0.000   15.000    0.000    0.000    0.000    0.000 
#    0.000    0.000    0.000    0.000    0.000    0.000 
#
# Total GULP energy -67036.040577 kJ/mol
# GULP energy per Si atom -5586.336715 kJ/mol
# Density = 2.654547 g / cm^3
# Si number density = 26.606022 Si / 1000 Ang^3
#
#
#
# Elastic Constant Matrix: (Units=GPa)
#
#
# Indices 1 2 3 4 5 6 
#
# 1 129.2292 52.3888 42.3393 5.4379 -12.9754 19.5014
# 2 52.3888 106.4309 42.2076 -6.0801 10.7960 13.5556
# 3 42.3393 42.2076 184.1601 -36.8463 18.7406 20.6263
# 4 5.4379 -6.0801 -36.8463 45.0428 2.1602 10.3629
# 5 -12.9754 10.7960 18.7406 2.1602 32.7936 -0.6928
# 6 19.5014 13.5556 20.6263 10.3629 -0.6928 49.3061
#
#
#
# Elastic Compliance Matrix: (Units=1/GPa)
#
#
# Indices 1 2 3 4 5 6 
#
# 1 0.012557 -0.005977 -0.003497 -0.005497 0.009285 -0.000575
# 2 -0.005977 0.013554 -0.000133 0.003260 -0.007010 -0.002091
# 3 -0.003497 -0.000133 0.009463 0.009575 -0.007477 -0.004656
# 4 -0.005497 0.003260 0.009575 0.033980 -0.011170 -0.010026
# 5 0.009285 -0.007010 -0.007477 -0.011170 0.041575 0.004315
# 6 -0.000575 -0.002091 -0.004656 -0.010026 0.004315 0.025199
#
#
# Mechanical properties :
#
#
# Convention : Reuss Voigt Hill
#
# Bulk Modulus (GPa) = 61.12426 77.07684 69.10055
# Shear Modulus (GPa) = 31.05691 44.28745 37.67218
#
# Velocity S-wave (km/s) = 3.42027 4.08433 3.76696
# Velocity P-wave (km/s) = 6.21461 7.16065 6.70434
#
# Compressibility (1/GPa) = 0.01636012
#
# Stress axis : x y z
#
# Youngs Moduli (GPa) = 79.63505 73.77956 105.67886
#
# Poissons Ratio (x) = 0.44096 0.36961
# Poissons Ratio (y) = 0.47596 0.01401
# Poissons Ratio (z) = 0.27852 0.00978
#
# Static dielectric constant tensor:
#      x y z
#    x 2.122580 -0.106960 -0.061270 
#    y -0.106960 2.157760 0.069770 
#    z -0.061270 0.069770 2.165370 
# 
# From -- ./inp_files/540719.got.cif
#   From: 2010.05.17/outbox.cif.g08.bks.cpg/sg2_271_cif.got.tgz:540719.got - 2010.06.03 11:33:40.
