data_PCOD9030722
_publ_section_title
;
Structure prediction by ZEFSAII (Michael W. Deem and Ramdas Pophale) SiO2 
 PCOD9030722
Probable space group: P -1
;
_chemical_formula_sum "Si O2"
_cell_formula_units_Z 16
_cell_length_a 11.918059
_cell_length_b 7.738474
_cell_length_c 18.594703
_cell_angle_alpha 67.159159
_cell_angle_beta 156.122374
_cell_angle_gamma 107.278177
_cell_volume 631.986738
_symmetry_space_group_name_H-M "P -1"
_symmetry_group_IT_number 2
_symmetry_cell_setting 'triclinic'
loop_
_space_group_symop_operation_xyz
x,y,z
-x,-y,-z
loop_
_atom_site_type_symbol
_atom_site_label
_atom_site_fract_x
_atom_site_fract_y
_atom_site_fract_z
Si Si1 0.410393 0.875485 0.688227
Si Si2 0.357365 0.425973 0.021289
Si Si3 0.476148 0.470126 0.575675
Si Si4 0.919013 0.513748 0.286879
Si Si5 0.778379 0.144077 0.073930
Si Si6 0.657220 0.103170 0.516545
Si Si7 0.383403 0.764796 0.180840
Si Si8 0.813560 0.770270 0.323397
O O1 0.602904 0.691368 0.863743
O O2 0.080997 0.847486 0.500362
O O3 0.462965 0.912998 0.630096
O O4 0.499608 0.046203 0.757825
O O5 0.666499 0.398499 0.172224
O O6 0.259107 0.649004 0.943771
O O7 0.162990 0.365525 0.853991
O O8 0.500000 0.500000 0.500000
O O9 0.696865 0.347993 0.778019
O O10 0.199171 0.379898 0.448154
O O11 0.395416 0.677715 0.528119
O O12 0.915733 0.636478 0.337474
O O13 0.851179 0.181834 0.026528
O O14 0.463596 0.090200 0.890557
O O15 0.019569 0.998356 0.274797
O O16 0.500000 0.000000 0.500000
O O17 0.648290 0.661127 0.304024
#
# Coordination Sequence:
#
# PCOD9030722 Si02
#       8
#     2   2   2   2   2   2   2   2
#     4  12  23  42  73 107 148 182 236 283 355 427
#     4  10  23  43  71 111 141 184 224 298 356 425
#     4  12  26  47  72  98 139 193 235 295 349 414
#     4  10  22  42  73 103 149 179 236 280 365 415
#     4   9  24  46  70 102 145 176 234 293 359 409
#     4  12  28  49  70 101 139 192 244 295 347 421
#     4  10  24  44  69 110 142 182 236 287 354 423
#     4   9  21  43  73 106 144 181 224 294 354 419
#
# _framework density 25.316986
#
# number of rings (size 3 to 8) (size 9 to 14) (size 15 to 20)
#    0.750    0.750    1.250    2.625    5.250    2.000 
#    9.000    2.500    0.000    0.000    0.000    0.000 
#    0.000    0.000    0.000    0.000    0.000    0.000 
#
# Total GULP energy -89357.996917 kJ/mol
# GULP energy per Si atom -5584.874807 kJ/mol
# Density = 2.525936 g / cm^3
# Si number density = 25.316986 Si / 1000 Ang^3
#
#
#
# Elastic Constant Matrix: (Units=GPa)
#
#
# Indices 1 2 3 4 5 6 
#
# 1 124.0288 3.6020 26.7983 5.9536 -39.7369 -8.5733
# 2 3.6020 76.6390 25.0017 -2.8053 -8.1037 -24.9236
# 3 26.7983 25.0017 90.1301 -11.2173 -30.7338 -11.3439
# 4 5.9536 -2.8053 -11.2173 27.6487 2.0018 -11.2746
# 5 -39.7369 -8.1037 -30.7338 2.0018 55.3252 5.6568
# 6 -8.5733 -24.9236 -11.3439 -11.2746 5.6568 39.6832
#
#
#
# Elastic Compliance Matrix: (Units=1/GPa)
#
#
# Indices 1 2 3 4 5 6 
#
# 1 0.010815 0.000729 -0.001271 -0.003079 0.007227 0.000526
# 2 0.000729 0.018194 -0.003020 0.005460 0.000059 0.012264
# 3 -0.001271 -0.003020 0.016040 0.007414 0.006926 0.003533
# 4 -0.003079 0.005460 0.007414 0.048077 -0.000943 0.018677
# 5 0.007227 0.000059 0.006926 -0.000943 0.027214 -0.000569
# 6 0.000526 0.012264 0.003533 0.018677 -0.000569 0.039413
#
#
# Mechanical properties :
#
#
# Convention : Reuss Voigt Hill
#
# Bulk Modulus (GPa) = 26.36830 44.62243 35.49536
# Shear Modulus (GPa) = 27.85219 40.22448 34.03834
#
# Velocity S-wave (km/s) = 3.32043 3.99034 3.67070
# Velocity P-wave (km/s) = 5.01380 6.23652 5.65829
#
# Compressibility (1/GPa) = 0.03792433
#
# Stress axis : x y z
#
# Youngs Moduli (GPa) = 92.45992 54.96424 62.34555
#
# Poissons Ratio (x) = -0.04005 0.07922
# Poissons Ratio (y) = -0.06738 0.18830
# Poissons Ratio (z) = 0.11749 0.16601
#
# Static dielectric constant tensor:
#      x y z
#    x 2.067550 0.098670 -0.010030 
#    y 0.098670 2.123710 0.061410 
#    z -0.010030 0.061410 2.151270 
# 
# From -- ./inp_files/565827.got.cif
#   From: 2010.05.17/outbox.cif.g08.bks.cpg/sg2_283_cif.got.tgz:565827.got - 2010.06.03 11:33:40.
