data_PCOD9030928
_publ_section_title
;
Structure prediction by ZEFSAII (Michael W. Deem and Ramdas Pophale) SiO2 
 PCOD9030928
Probable space group: P -1
;
_chemical_formula_sum "Si O2"
_cell_formula_units_Z 14
_cell_length_a 14.850083
_cell_length_b 9.967053
_cell_length_c 9.740539
_cell_angle_alpha 148.497603
_cell_angle_beta 56.259485
_cell_angle_gamma 115.558073
_cell_volume 623.498186
_symmetry_space_group_name_H-M "P -1"
_symmetry_group_IT_number 2
_symmetry_cell_setting 'triclinic'
loop_
_space_group_symop_operation_xyz
x,y,z
-x,-y,-z
loop_
_atom_site_type_symbol
_atom_site_label
_atom_site_fract_x
_atom_site_fract_y
_atom_site_fract_z
Si Si1 0.292981 0.781914 0.335791
Si Si2 0.587133 0.883441 0.014128
Si Si3 0.461568 0.430901 0.624379
Si Si4 0.287773 0.147256 0.403890
Si Si5 0.960327 0.724734 0.334551
Si Si6 0.082541 0.540169 0.344105
Si Si7 0.701736 0.772006 0.093802
O O1 0.506377 0.658575 0.873487
O O2 0.171827 0.745144 0.464593
O O3 0.282090 0.910381 0.307366
O O4 0.343629 0.977957 0.565896
O O5 0.678843 0.801650 0.977881
O O6 0.524718 0.149415 0.351730
O O7 0.636740 0.920118 0.852045
O O8 0.500000 0.500000 0.500000
O O9 0.337738 0.368144 0.645549
O O10 0.346982 0.488543 0.041414
O O11 0.169776 0.241054 0.529419
O O12 0.011668 0.629109 0.351055
O O13 0.000000 0.000000 0.500000
O O14 0.000000 0.500000 0.000000
O O15 0.000000 0.500000 0.500000
O O16 0.169633 0.288594 0.034733
#
# Coordination Sequence:
#
# PCOD9030928 Si02
#       7
#     2   2   2   2   2   2   2
#     4  10  23  40  63  89 133 167 206 261 329 370
#     4  11  23  43  70  99 125 171 222 265 324 389
#     4  10  23  41  67 101 129 164 219 272 326 380
#     4  11  23  44  68  95 132 172 215 276 318 379
#     4  12  25  43  65 100 131 170 220 264 320 389
#     4  10  23  43  63  92 130 172 214 264 320 384
#     4  10  22  43  62  93 131 163 213 262 319 388
#
# _framework density 22.453955000000001
#
# number of rings (size 3 to 8) (size 9 to 14) (size 15 to 20)
#    0.857    0.571    1.429    4.286    0.000    7.429 
#    2.571    4.286    0.000    0.000    0.000    0.000 
#    0.000    0.000    0.000    0.000    0.000    0.000 
#
# Total GULP energy -78193.055756 kJ/mol
# GULP energy per Si atom -5585.218268 kJ/mol
# Density = 2.240285 g / cm^3
# Si number density = 22.453955 Si / 1000 Ang^3
#
#
#
# Elastic Constant Matrix: (Units=GPa)
#
#
# Indices 1 2 3 4 5 6 
#
# 1 104.2858 57.0820 37.3890 21.9451 -2.8552 -10.3453
# 2 57.0820 149.5399 50.0852 -2.4404 20.0270 3.2762
# 3 37.3890 50.0852 78.0975 22.7983 12.0084 16.9198
# 4 21.9451 -2.4404 22.7983 48.0275 8.6286 4.1766
# 5 -2.8552 20.0270 12.0084 8.6286 38.5639 -7.9208
# 6 -10.3453 3.2762 16.9198 4.1766 -7.9208 44.4901
#
#
#
# Elastic Compliance Matrix: (Units=1/GPa)
#
#
# Indices 1 2 3 4 5 6 
#
# 1 0.018564 -0.007046 -0.005489 -0.009007 0.010747 0.009682
# 2 -0.007046 0.012268 -0.005014 0.007834 -0.007645 -0.002732
# 3 -0.005489 -0.005014 0.023856 -0.007138 -0.005757 -0.010335
# 4 -0.009007 0.007834 -0.007138 0.031006 -0.010420 -0.004723
# 5 0.010747 -0.007645 -0.005757 -0.010420 0.037471 0.012901
# 6 0.009682 -0.002732 -0.010335 -0.004723 0.012901 0.031600
#
#
# Mechanical properties :
#
#
# Convention : Reuss Voigt Hill
#
# Bulk Modulus (GPa) = 51.04898 69.00397 60.02647
# Shear Modulus (GPa) = 25.45929 38.70744 32.08337
#
# Velocity S-wave (km/s) = 3.37091 4.15644 3.78412
# Velocity P-wave (km/s) = 6.15914 7.33708 6.77376
#
# Compressibility (1/GPa) = 0.01958903
#
# Stress axis : x y z
#
# Youngs Moduli (GPa) = 53.86755 81.51576 41.91888
#
# Poissons Ratio (x) = 0.57437 0.23011
# Poissons Ratio (y) = 0.37956 0.21017
# Poissons Ratio (z) = 0.29570 0.40869
#
# Static dielectric constant tensor:
#      x y z
#    x 1.811900 0.014710 0.000930 
#    y 0.014710 1.854060 -0.038730 
#    z 0.000930 -0.038730 2.042400 
# 
# From -- ./inp_files/296575.got.cif
#   From: 2010.05.17/outbox.cif.g08.bks.cpg/sg2_149_cif.got.tgz:296575.got - 2010.06.03 11:33:40.
