data_PCOD9030064
_publ_section_title
;
Structure prediction by ZEFSAII (Michael W. Deem and Ramdas Pophale) SiO2 
 PCOD9030064
Probable space group: P -1
;
_chemical_formula_sum "Si O2"
_cell_formula_units_Z 16
_cell_length_a 11.407909
_cell_length_b 12.387728
_cell_length_c 12.707450
_cell_angle_alpha 140.570480
_cell_angle_beta 72.417334
_cell_angle_gamma 76.778917
_cell_volume 702.652832
_symmetry_space_group_name_H-M "P -1"
_symmetry_group_IT_number 2
_symmetry_cell_setting 'triclinic'
loop_
_space_group_symop_operation_xyz
x,y,z
-x,-y,-z
loop_
_atom_site_type_symbol
_atom_site_label
_atom_site_fract_x
_atom_site_fract_y
_atom_site_fract_z
Si Si1 0.974509 0.852759 0.260582
Si Si2 0.385809 0.956757 0.458219
Si Si3 0.227426 0.270225 0.131254
Si Si4 0.622385 0.468210 0.156062
Si Si5 0.199597 0.399971 0.471576
Si Si6 0.693812 0.019928 0.746258
Si Si7 0.478730 0.343370 0.444749
Si Si8 0.118857 0.671720 0.320579
O O1 0.076808 0.706464 0.234262
O O2 0.181514 0.130951 0.700674
O O3 0.156727 0.700971 0.024155
O O4 0.855282 0.155364 0.531930
O O5 0.500000 0.000000 0.500000
O O6 0.525264 0.656797 0.224349
O O7 0.348370 0.993898 0.371659
O O8 0.230412 0.367141 0.313986
O O9 0.251530 0.385762 0.119007
O O10 0.016523 0.409912 0.294649
O O11 0.368811 0.961683 0.856637
O O12 0.518707 0.636801 0.416120
O O13 0.597561 0.294006 0.015831
O O14 0.275641 0.486708 0.570973
O O15 0.324517 0.113350 0.268499
O O16 0.914945 0.841636 0.553836
O O17 0.500000 0.500000 0.500000
#
# Coordination Sequence:
#
# PCOD9030064 Si02
#       8
#     2   2   2   2   2   2   2   2
#     4   9  20  39  63  94 132 166 210 266 318 379
#     4  11  23  38  62  99 133 169 213 262 322 382
#     4  10  22  42  69  95 125 168 218 266 322 386
#     4  11  24  41  64  91 126 174 215 260 324 387
#     4  10  22  43  69  93 122 168 216 270 327 377
#     4   9  19  41  66  92 127 163 214 268 318 379
#     4  12  27  43  61  95 135 168 212 268 323 382
#     4   8  17  37  67  96 122 165 216 265 314 368
#
# _framework density 22.770848999999998
#
# number of rings (size 3 to 8) (size 9 to 14) (size 15 to 20)
#    0.000    2.000    0.000    3.000    0.000    7.000 
#    0.000    0.000    0.000    0.000    0.000    0.000 
#    0.000    0.000    0.000    0.000    0.000    0.000 
#
# Total GULP energy -89409.332604 kJ/mol
# GULP energy per Si atom -5588.083288 kJ/mol
# Density = 2.271902 g / cm^3
# Si number density = 22.770849 Si / 1000 Ang^3
#
#
#
# Elastic Constant Matrix: (Units=GPa)
#
#
# Indices 1 2 3 4 5 6 
#
# 1 106.6615 34.5765 6.3121 2.2957 3.6999 10.5656
# 2 34.5765 80.9703 11.5940 19.1997 1.4000 14.0487
# 3 6.3121 11.5940 51.6136 5.5076 -11.7715 6.2656
# 4 2.2957 19.1997 5.5076 24.2172 -0.1104 -1.0816
# 5 3.6999 1.4000 -11.7715 -0.1104 26.9083 1.1604
# 6 10.5656 14.0487 6.2656 -1.0816 1.1604 29.6889
#
#
#
# Elastic Compliance Matrix: (Units=1/GPa)
#
#
# Indices 1 2 3 4 5 6 
#
# 1 0.011207 -0.005196 -0.000745 0.003166 -0.001532 -0.001197
# 2 -0.005196 0.019714 -0.001385 -0.015169 -0.000647 -0.007715
# 3 -0.000745 -0.001385 0.023174 -0.004256 0.010491 -0.004535
# 4 0.003166 -0.015169 -0.004256 0.054382 -0.001673 0.008996
# 5 -0.001532 -0.000647 0.010491 -0.001673 0.042123 -0.003070
# 6 -0.001197 -0.007715 -0.004535 0.008996 -0.003070 0.039164
#
#
# Mechanical properties :
#
#
# Convention : Reuss Voigt Hill
#
# Bulk Modulus (GPa) = 25.35293 38.24562 31.79927
# Shear Modulus (GPa) = 22.98172 28.61372 25.79772
#
# Velocity S-wave (km/s) = 3.18033 3.54869 3.36955
# Velocity P-wave (km/s) = 4.96429 5.79856 5.39757
#
# Compressibility (1/GPa) = 0.03944318
#
# Stress axis : x y z
#
# Youngs Moduli (GPa) = 89.22639 50.72561 43.15107
#
# Poissons Ratio (x) = 0.26355 0.03217
# Poissons Ratio (y) = 0.46358 0.05978
# Poissons Ratio (z) = 0.06651 0.07027
#
# Static dielectric constant tensor:
#      x y z
#    x 1.874930 0.021370 -0.059820 
#    y 0.021370 1.857110 0.022280 
#    z -0.059820 0.022280 1.877160 
# 
# From -- ./inp_files/429071.got.cif
#   From: 2010.05.17/outbox.cif.g08.bks.cpg/sg2_215_cif.got.tgz:429071.got - 2010.06.03 11:33:40.
