data_PCOD9030234
_publ_section_title
;
Structure prediction by ZEFSAII (Michael W. Deem and Ramdas Pophale) SiO2 
 PCOD9030234
Probable space group: P -1
;
_chemical_formula_sum "Si O2"
_cell_formula_units_Z 12
_cell_length_a 7.627767
_cell_length_b 14.701575
_cell_length_c 14.229449
_cell_angle_alpha 159.952640
_cell_angle_beta 103.857440
_cell_angle_gamma 68.134854
_cell_volume 476.131336
_symmetry_space_group_name_H-M "P -1"
_symmetry_group_IT_number 2
_symmetry_cell_setting 'triclinic'
loop_
_space_group_symop_operation_xyz
x,y,z
-x,-y,-z
loop_
_atom_site_type_symbol
_atom_site_label
_atom_site_fract_x
_atom_site_fract_y
_atom_site_fract_z
Si Si1 0.606799 0.084065 0.836164
Si Si2 0.515428 0.530416 0.643186
Si Si3 0.038754 0.956211 0.740950
Si Si4 0.553259 0.665662 0.273953
Si Si5 0.068789 0.684628 0.756444
Si Si6 0.846023 0.179129 0.734723
O O1 0.848237 0.915310 0.717590
O O2 0.544046 0.895181 0.574310
O O3 0.508329 0.178897 0.018656
O O4 0.556436 0.387067 0.064016
O O5 0.500000 0.500000 0.500000
O O6 0.309607 0.521634 0.641033
O O7 0.736510 0.290280 0.463533
O O8 0.969758 0.016123 0.683794
O O9 0.027410 0.228330 0.067966
O O10 0.363591 0.806086 0.316410
O O11 0.754375 0.520967 0.093739
O O12 0.000000 0.500000 0.500000
O O13 0.000000 0.000000 0.000000
O O14 0.000000 0.000000 0.500000
#
# Coordination Sequence:
#
# PCOD9030234 Si02
#       6
#     2   2   2   2   2   2
#     4  10  24  45  69 101 140 182 228 282 349 411
#     4  11  23  45  71 104 138 183 235 291 345 414
#     4  10  23  43  68 103 137 182 230 284 346 413
#     4  10  23  46  69  98 140 184 223 283 346 411
#     4  11  25  48  70  97 137 182 227 287 350 409
#     4  10  22  42  70 102 139 181 233 283 341 412
#
# _framework density 25.203130000000002
#
# number of rings (size 3 to 8) (size 9 to 14) (size 15 to 20)
#    0.000    1.667    1.667    1.000    0.000   17.333 
#    6.000    5.000    0.000    0.000    0.000    0.000 
#    0.000    0.000    0.000    0.000    0.000    0.000 
#
# Total GULP energy -67007.104299 kJ/mol
# GULP energy per Si atom -5583.925358 kJ/mol
# Density = 2.514577 g / cm^3
# Si number density = 25.203130 Si / 1000 Ang^3
#
#
#
# Elastic Constant Matrix: (Units=GPa)
#
#
# Indices 1 2 3 4 5 6 
#
# 1 66.8767 61.7914 75.5212 6.2652 -27.5403 -25.1571
# 2 61.7914 248.5467 110.0909 -27.3721 -21.8693 -39.9070
# 3 75.5212 110.0909 256.7616 -42.8961 -26.3957 -15.3012
# 4 6.2652 -27.3721 -42.8961 70.7073 -3.1736 -14.9181
# 5 -27.5403 -21.8693 -26.3957 -3.1736 74.8033 3.2325
# 6 -25.1571 -39.9070 -15.3012 -14.9181 3.2325 54.2336
#
#
#
# Elastic Compliance Matrix: (Units=1/GPa)
#
#
# Indices 1 2 3 4 5 6 
#
# 1 0.035820 -0.003694 -0.008878 -0.007770 0.008267 0.008762
# 2 -0.003694 0.006207 -0.000870 0.002927 0.000125 0.003406
# 3 -0.008878 -0.000870 0.007526 0.004713 -0.000611 -0.001302
# 4 -0.007770 0.002927 0.004713 0.019966 0.000274 0.005355
# 5 0.008267 0.000125 -0.000611 0.000274 0.016120 0.002868
# 6 0.008762 0.003406 -0.001302 0.005355 0.002868 0.025944
#
#
# Mechanical properties :
#
#
# Convention : Reuss Voigt Hill
#
# Bulk Modulus (GPa) = 44.11348 118.55467 81.33407
# Shear Modulus (GPa) = 34.24061 61.60094 47.92078
#
# Velocity S-wave (km/s) = 3.68990 4.94923 4.36521
# Velocity P-wave (km/s) = 5.97453 8.93317 7.59923
#
# Compressibility (1/GPa) = 0.02266881
#
# Stress axis : x y z
#
# Youngs Moduli (GPa) = 27.91722 161.09700 132.87134
#
# Poissons Ratio (x) = 0.59515 1.17962
# Poissons Ratio (y) = 0.10314 0.11562
# Poissons Ratio (z) = 0.24785 0.14019
#
# Static dielectric constant tensor:
#      x y z
#    x 2.119980 0.127720 0.078840 
#    y 0.127720 1.986930 0.011690 
#    z 0.078840 0.011690 2.100260 
# 
# From -- ./inp_files/507179.got.cif
#   From: 2010.05.17/outbox.cif.g08.bks.cpg/sg2_254_cif.got.tgz:507179.got - 2010.06.03 11:33:40.
