data_PCOD9030347
_publ_section_title
;
Structure prediction by ZEFSAII (Michael W. Deem and Ramdas Pophale) SiO2 
 PCOD9030347
Probable space group: P -1
;
_chemical_formula_sum "Si O2"
_cell_formula_units_Z 12
_cell_length_a 9.462255
_cell_length_b 12.115261
_cell_length_c 13.131753
_cell_angle_alpha 36.760857
_cell_angle_beta 123.783949
_cell_angle_gamma 142.537290
_cell_volume 534.650153
_symmetry_space_group_name_H-M "P -1"
_symmetry_group_IT_number 2
_symmetry_cell_setting 'triclinic'
loop_
_space_group_symop_operation_xyz
x,y,z
-x,-y,-z
loop_
_atom_site_type_symbol
_atom_site_label
_atom_site_fract_x
_atom_site_fract_y
_atom_site_fract_z
Si Si1 0.510229 0.702422 0.407511
Si Si2 0.165077 0.880734 0.236452
Si Si3 0.281780 0.846875 0.105911
Si Si4 0.676916 0.739982 0.819125
Si Si5 0.023048 0.716264 0.902986
Si Si6 0.643837 0.329975 0.418732
O O1 0.500000 0.500000 0.500000
O O2 0.293166 0.661518 0.306590
O O3 0.477779 0.653488 0.549729
O O4 0.749121 0.999987 0.259687
O O5 0.296327 0.004795 0.087810
O O6 0.309011 0.835050 0.391690
O O7 0.905849 0.612283 0.298608
O O8 0.143330 0.026968 0.201226
O O9 0.063560 0.710583 0.043991
O O10 0.500000 0.000000 0.000000
O O11 0.525929 0.772241 0.669497
O O12 0.804112 0.691035 0.831978
O O13 0.500000 0.500000 0.000000
O O14 0.000000 0.500000 0.000000
#
# Coordination Sequence:
#
# PCOD9030347 Si02
#       6
#     2   2   2   2   2   2
#     4  10  22  42  70  95 128 184 232 276 337 405
#     4  10  22  46  66  99 133 176 229 281 343 397
#     4   9  21  41  68  90 134 182 217 277 343 405
#     4  12  27  40  69 102 135 181 228 277 337 412
#     4  11  26  44  63 104 142 179 222 281 348 405
#     4  10  23  43  69  97 134 176 222 290 338 398
#
# _framework density 22.444583999999999
#
# number of rings (size 3 to 8) (size 9 to 14) (size 15 to 20)
#    0.000    1.667    0.000    2.500    9.333    4.667 
#    9.000    0.000    0.000    0.000    0.000    0.000 
#    0.000    0.000    0.000    0.000    0.000    0.000 
#
# Total GULP energy -66981.465793 kJ/mol
# GULP energy per Si atom -5581.788816 kJ/mol
# Density = 2.239350 g / cm^3
# Si number density = 22.444584 Si / 1000 Ang^3
#
#
#
# Elastic Constant Matrix: (Units=GPa)
#
#
# Indices 1 2 3 4 5 6 
#
# 1 128.2621 50.7009 32.7361 -7.8186 -2.3605 -19.8698
# 2 50.7009 98.1050 35.0075 16.6022 3.5541 -14.6618
# 3 32.7361 35.0075 60.6131 17.6367 -12.9368 -7.1745
# 4 -7.8186 16.6022 17.6367 39.0789 -0.8120 5.3521
# 5 -2.3605 3.5541 -12.9368 -0.8120 37.9475 2.6348
# 6 -19.8698 -14.6618 -7.1745 5.3521 2.6348 43.0505
#
#
#
# Elastic Compliance Matrix: (Units=1/GPa)
#
#
# Indices 1 2 3 4 5 6 
#
# 1 0.011846 -0.005010 -0.005304 0.006593 -0.000606 0.002095
# 2 -0.005010 0.016415 -0.005489 -0.006044 -0.004083 0.003365
# 3 -0.005304 -0.005489 0.027971 -0.011319 0.009396 0.001176
# 4 0.006593 -0.006044 -0.011319 0.035257 -0.001769 -0.005177
# 5 -0.000606 -0.004083 0.009396 -0.001769 0.029982 -0.001720
# 6 0.002095 0.003365 0.001176 -0.005177 -0.001720 0.026286
#
#
# Mechanical properties :
#
#
# Convention : Reuss Voigt Hill
#
# Bulk Modulus (GPa) = 40.60861 58.20768 49.40815
# Shear Modulus (GPa) = 26.65662 35.25109 30.95385
#
# Velocity S-wave (km/s) = 3.44999 3.96736 3.71768
# Velocity P-wave (km/s) = 5.83112 6.85396 6.36313
#
# Compressibility (1/GPa) = 0.02462532
#
# Stress axis : x y z
#
# Youngs Moduli (GPa) = 84.41750 60.92111 35.75131
#
# Poissons Ratio (x) = 0.30521 0.18963
# Poissons Ratio (y) = 0.42293 0.19624
# Poissons Ratio (z) = 0.44775 0.33440
#
# Static dielectric constant tensor:
#      x y z
#    x 1.852500 0.050640 0.024000 
#    y 0.050640 1.873880 -0.013450 
#    z 0.024000 -0.013450 1.851880 
# 
# From -- ./inp_files/118689.got.cif
#   From: 2010.05.17/outbox.cif.g08.bks.cpg/sg2_60_cif.got.tgz:118689.got - 2010.06.03 11:33:40.
