data_PCOD9030997
_publ_section_title
;
Structure prediction by ZEFSAII (Michael W. Deem and Ramdas Pophale) SiO2 
 PCOD9030997
Probable space group: P -1
;
_chemical_formula_sum "Si O2"
_cell_formula_units_Z 16
_cell_length_a 7.528818
_cell_length_b 11.976470
_cell_length_c 8.414729
_cell_angle_alpha 97.258400
_cell_angle_beta 69.229299
_cell_angle_gamma 109.647375
_cell_volume 668.106811
_symmetry_space_group_name_H-M "P -1"
_symmetry_group_IT_number 2
_symmetry_cell_setting 'triclinic'
loop_
_space_group_symop_operation_xyz
x,y,z
-x,-y,-z
loop_
_atom_site_type_symbol
_atom_site_label
_atom_site_fract_x
_atom_site_fract_y
_atom_site_fract_z
Si Si1 0.774539 0.814449 0.506544
Si Si2 0.550725 0.744069 0.102004
Si Si3 0.308682 0.549106 0.349297
Si Si4 0.062078 0.557020 0.748529
Si Si5 0.267153 0.979995 0.949251
Si Si6 0.019327 0.961712 0.720754
Si Si7 0.246410 0.381560 0.775818
Si Si8 0.392805 0.759598 0.824568
O O1 0.824607 0.934662 0.409215
O O2 0.921239 0.851557 0.617617
O O3 0.801819 0.711264 0.370316
O O4 0.551541 0.774594 0.636743
O O5 0.379348 0.680722 0.272097
O O6 0.729074 0.693977 0.091838
O O7 0.621245 0.885096 0.112462
O O8 0.192608 0.546988 0.548460
O O9 0.524253 0.529928 0.300417
O O10 0.159384 0.466366 0.253685
O O11 0.090381 0.452474 0.831929
O O12 0.178564 0.678884 0.818181
O O13 0.152039 0.985658 0.150135
O O14 0.531352 0.293013 0.054046
O O15 0.390929 0.889508 0.900513
O O16 0.111843 0.931087 0.845950
#
# Coordination Sequence:
#
# PCOD9030997 Si02
#       8
#     2   2   2   2   2   2   2   2
#     4  11  22  41  66 101 127 176 230 273 336 402
#     4  10  22  43  63  95 133 179 218 276 350 391
#     4   9  22  42  66  98 130 176 230 276 339 405
#     4  11  23  44  69  99 132 184 228 277 342 398
#     4  11  23  45  65  97 144 175 217 284 342 409
#     4  10  23  42  65  99 133 179 226 269 345 409
#     4  10  22  45  67  92 142 176 221 289 333 402
#     4  12  25  41  68 100 137 177 228 276 337 408
#
# _framework density 23.948267999999999
#
# number of rings (size 3 to 8) (size 9 to 14) (size 15 to 20)
#    0.750    0.750    3.750    0.750    0.000    4.500 
#    2.250    0.000    0.000    0.000    0.000    0.000 
#    0.000    0.000    0.000    0.000    0.000    0.000 
#
# Total GULP energy -89493.816105 kJ/mol
# GULP energy per Si atom -5593.363507 kJ/mol
# Density = 2.389376 g / cm^3
# Si number density = 23.948268 Si / 1000 Ang^3
#
#
#
# Elastic Constant Matrix: (Units=GPa)
#
#
# Indices 1 2 3 4 5 6 
#
# 1 71.7210 36.3070 50.0179 12.6193 23.9944 16.6173
# 2 36.3070 113.3137 44.0228 8.5041 11.5860 11.2952
# 3 50.0179 44.0228 91.0939 8.9638 14.0117 -1.3473
# 4 12.6193 8.5041 8.9638 39.5899 7.1078 8.5075
# 5 23.9944 11.5860 14.0117 7.1078 29.4853 10.0125
# 6 16.6173 11.2952 -1.3473 8.5075 10.0125 38.5120
#
#
#
# Elastic Compliance Matrix: (Units=1/GPa)
#
#
# Indices 1 2 3 4 5 6 
#
# 1 0.032946 -0.002202 -0.014639 -0.001893 -0.015237 -0.009702
# 2 -0.002202 0.011488 -0.004404 -0.000268 0.000316 -0.002597
# 3 -0.014639 -0.004404 0.021228 -0.001168 0.001002 0.008348
# 4 -0.001893 -0.000268 -0.001168 0.027679 -0.002945 -0.004494
# 5 -0.015237 0.000316 0.001002 -0.002945 0.048250 -0.005377
# 6 -0.009702 -0.002597 0.008348 -0.004494 -0.005377 0.033597
#
#
# Mechanical properties :
#
#
# Convention : Reuss Voigt Hill
#
# Bulk Modulus (GPa) = 43.15410 59.64711 51.40061
# Shear Modulus (GPa) = 22.18274 31.23615 26.70945
#
# Velocity S-wave (km/s) = 3.04678 3.61545 3.34323
# Velocity P-wave (km/s) = 5.51688 6.51071 6.03429
#
# Compressibility (1/GPa) = 0.02317277
#
# Stress axis : x y z
#
# Youngs Moduli (GPa) = 30.35315 87.04860 47.10714
#
# Poissons Ratio (x) = 0.19164 0.68961
# Poissons Ratio (y) = 0.06682 0.20744
# Poissons Ratio (z) = 0.44435 0.38333
#
# Static dielectric constant tensor:
#      x y z
#    x 1.967280 0.025270 0.013620 
#    y 0.025270 1.907130 -0.019390 
#    z 0.013620 -0.019390 1.912100 
# 
# From -- ./inp_files/396070.got.cif
#   From: 2010.05.17/outbox.cif.g08.bks.cpg/sg2_199_cif.got.tgz:396070.got - 2010.06.03 11:33:40.
