data_PCOD9030109
_publ_section_title
;
Structure prediction by ZEFSAII (Michael W. Deem and Ramdas Pophale) SiO2 
 PCOD9030109
Probable space group: P -1
;
_chemical_formula_sum "Si O2"
_cell_formula_units_Z 16
_cell_length_a 12.404258
_cell_length_b 9.781603
_cell_length_c 9.161018
_cell_angle_alpha 135.599014
_cell_angle_beta 70.322298
_cell_angle_gamma 95.818322
_cell_volume 715.765398
_symmetry_space_group_name_H-M "P -1"
_symmetry_group_IT_number 2
_symmetry_cell_setting 'triclinic'
loop_
_space_group_symop_operation_xyz
x,y,z
-x,-y,-z
loop_
_atom_site_type_symbol
_atom_site_label
_atom_site_fract_x
_atom_site_fract_y
_atom_site_fract_z
Si Si1 0.454412 0.775139 0.884161
Si Si2 0.046700 0.639614 0.201214
Si Si3 0.125559 0.504140 0.369566
Si Si4 0.745006 0.925757 0.963142
Si Si5 0.624100 0.033354 0.655958
Si Si6 0.452582 0.353509 0.555668
Si Si7 0.297920 0.794657 0.543715
Si Si8 0.140759 0.994175 0.296634
O O1 0.372000 0.961149 0.980531
O O2 0.392582 0.583868 0.782160
O O3 0.549110 0.699180 0.655859
O O4 0.471632 0.838848 0.091429
O O5 0.109380 0.505201 0.202658
O O6 0.118312 0.780923 0.192014
O O7 0.951804 0.813144 0.457937
O O8 0.000000 0.500000 0.000000
O O9 0.187359 0.690181 0.511821
O O10 0.000000 0.500000 0.500000
O O11 0.219548 0.311038 0.232748
O O12 0.737074 0.007745 0.192117
O O13 0.845355 0.995397 0.875004
O O14 0.656688 0.151774 0.593358
O O15 0.740435 0.984400 0.662418
O O16 0.590392 0.822768 0.474564
O O17 0.587402 0.335829 0.529864
#
# Coordination Sequence:
#
# PCOD9030109 Si02
#       8
#     2   2   2   2   2   2   2   2
#     4   9  22  42  65  98 131 176 225 270 314 401
#     4  11  25  43  68  93 129 173 227 274 335 389
#     4  12  26  46  67  99 133 179 222 275 335 393
#     4  10  24  42  69  95 134 177 217 271 335 385
#     4  11  22  40  67  96 139 171 219 276 327 390
#     4  10  22  42  69  97 131 179 221 264 338 392
#     4  11  26  43  65 101 138 171 224 276 330 397
#     4  10  23  43  63  98 130 172 223 278 320 399
#
# _framework density 22.353693
#
# number of rings (size 3 to 8) (size 9 to 14) (size 15 to 20)
#    0.000    1.500    2.500    0.750    3.500   12.000 
#    0.000    0.000    0.000    0.000    0.000    0.000 
#    0.000    0.000    0.000    0.000    0.000    0.000 
#
# Total GULP energy -89278.209842 kJ/mol
# GULP energy per Si atom -5579.888115 kJ/mol
# Density = 2.230282 g / cm^3
# Si number density = 22.353693 Si / 1000 Ang^3
#
#
#
# Elastic Constant Matrix: (Units=GPa)
#
#
# Indices 1 2 3 4 5 6 
#
# 1 66.5799 18.9311 13.0696 5.9199 12.6063 9.8178
# 2 18.9311 136.5631 47.8072 -1.0737 1.6909 9.3429
# 3 13.0696 47.8072 79.2461 -4.0807 7.4570 2.6977
# 4 5.9199 -1.0737 -4.0807 39.5049 0.9557 -0.1608
# 5 12.6063 1.6909 7.4570 0.9557 30.9033 5.3332
# 6 9.8178 9.3429 2.6977 -0.1608 5.3332 35.9950
#
#
#
# Elastic Compliance Matrix: (Units=1/GPa)
#
#
# Indices 1 2 3 4 5 6 
#
# 1 0.017662 -0.001694 -0.001339 -0.002697 -0.006122 -0.003382
# 2 -0.001694 0.009642 -0.005654 -0.000121 0.001858 -0.001893
# 3 -0.001339 -0.005654 0.016629 0.001851 -0.003404 0.001099
# 4 -0.002697 -0.000121 0.001851 0.025915 -0.000277 0.000785
# 5 -0.006122 0.001858 -0.003404 -0.000277 0.036263 -0.003932
# 6 -0.003382 -0.001893 0.001099 0.000785 -0.003932 0.029699
#
#
# Mechanical properties :
#
#
# Convention : Reuss Voigt Hill
#
# Bulk Modulus (GPa) = 37.65119 49.11164 43.38142
# Shear Modulus (GPa) = 30.85712 34.78605 32.82159
#
# Velocity S-wave (km/s) = 3.71941 3.94911 3.83598
# Velocity P-wave (km/s) = 5.94351 6.54308 6.25049
#
# Compressibility (1/GPa) = 0.02655958
#
# Stress axis : x y z
#
# Youngs Moduli (GPa) = 56.62014 103.70885 60.13569
#
# Poissons Ratio (x) = 0.17565 0.08050
# Poissons Ratio (y) = 0.09590 0.34003
# Poissons Ratio (z) = 0.07580 0.58640
#
# Static dielectric constant tensor:
#      x y z
#    x 1.884360 0.031170 -0.045520 
#    y 0.031170 1.844050 -0.001460 
#    z -0.045520 -0.001460 1.868510 
# 
# From -- ./inp_files/288466.got.cif
#   From: 2010.05.17/outbox.cif.g08.bks.cpg/sg2_145_cif.got.tgz:288466.got - 2010.06.03 11:33:40.
