data_PCOD9030644
_publ_section_title
;
Structure prediction by ZEFSAII (Michael W. Deem and Ramdas Pophale) SiO2 
 PCOD9030644
Probable space group: P -1
;
_chemical_formula_sum "Si O2"
_cell_formula_units_Z 16
_cell_length_a 5.575060
_cell_length_b 5.229188
_cell_length_c 24.196220
_cell_angle_alpha 61.063592
_cell_angle_beta 87.705895
_cell_angle_gamma 85.820672
_cell_volume 615.679291
_symmetry_space_group_name_H-M "P -1"
_symmetry_group_IT_number 2
_symmetry_cell_setting 'triclinic'
loop_
_space_group_symop_operation_xyz
x,y,z
-x,-y,-z
loop_
_atom_site_type_symbol
_atom_site_label
_atom_site_fract_x
_atom_site_fract_y
_atom_site_fract_z
Si Si1 0.018695 0.389232 0.866224
Si Si2 0.711772 0.751276 0.016733
Si Si3 0.909617 0.651614 0.310070
Si Si4 0.001291 0.920938 0.572933
Si Si5 0.279076 0.731478 0.215884
Si Si6 0.387933 0.255120 0.102824
Si Si7 0.679172 0.276101 0.253705
Si Si8 0.492271 0.154044 0.544300
O O1 0.935369 0.216826 0.831707
O O2 0.777854 0.562337 0.871829
O O3 0.112116 0.214210 0.937301
O O4 0.206200 0.607006 0.816406
O O5 0.608903 0.435057 0.062480
O O6 0.768169 0.764643 0.950140
O O7 0.500000 0.000000 0.000000
O O8 0.962020 0.426424 0.382630
O O9 0.812662 0.439522 0.285209
O O10 0.156021 0.774703 0.271525
O O11 0.726997 0.929090 0.292257
O O12 0.235803 0.068312 0.579440
O O13 0.000000 0.000000 0.500000
O O14 0.737226 0.034374 0.585112
O O15 0.407128 0.409681 0.246282
O O16 0.461128 0.954894 0.165260
O O17 0.500000 0.500000 0.500000
O O18 0.500000 0.000000 0.500000
#
# Coordination Sequence:
#
# PCOD9030644 Si02
#       8
#     2   2   2   2   2   2   2   2
#     4  11  23  43  65  97 136 185 240 300 374 437
#     4  11  25  41  63 102 137 184 237 302 382 446
#     4  11  27  47  74 111 148 198 251 313 379 460
#     4  10  24  48  76 118 158 205 257 323 393 468
#     4  11  26  46  72  99 141 194 248 309 373 452
#     4  11  23  41  68  94 138 184 238 304 370 448
#     4  11  26  46  74 104 149 193 254 307 378 450
#     4  10  22  42  72 107 151 201 245 303 376 456
#
# _framework density 25.987556999999999
#
# number of rings (size 3 to 8) (size 9 to 14) (size 15 to 20)
#    0.000    1.250    1.250    3.000    5.250    8.000 
#    0.000    0.000    0.000    0.000    0.000    0.000 
#    0.000    0.000    0.000    0.000    0.000    0.000 
#
# Total GULP energy -89571.400953 kJ/mol
# GULP energy per Si atom -5598.212560 kJ/mol
# Density = 2.592841 g / cm^3
# Si number density = 25.987557 Si / 1000 Ang^3
#
#
#
# Elastic Constant Matrix: (Units=GPa)
#
#
# Indices 1 2 3 4 5 6 
#
# 1 127.8367 21.3335 23.6483 -21.1917 8.9521 -3.0354
# 2 21.3335 100.1623 42.5563 -29.5274 -0.4796 -2.9834
# 3 23.6483 42.5563 172.1479 -26.0931 -3.9168 -3.4488
# 4 -21.1917 -29.5274 -26.0931 56.1520 -4.8494 5.1080
# 5 8.9521 -0.4796 -3.9168 -4.8494 19.7668 -16.9439
# 6 -3.0354 -2.9834 -3.4488 5.1080 -16.9439 35.5830
#
#
#
# Elastic Compliance Matrix: (Units=1/GPa)
#
#
# Indices 1 2 3 4 5 6 
#
# 1 0.008845 -0.001001 -0.000822 0.002155 -0.005784 -0.002473
# 2 -0.001001 0.012756 -0.002093 0.005481 0.002852 0.001352
# 3 -0.000822 -0.002093 0.006859 0.001929 0.003845 0.001973
# 4 0.002155 0.005481 0.001929 0.022845 0.005144 0.000000
# 5 -0.005784 0.002852 0.003845 0.005144 0.092546 0.043449
# 6 -0.002473 0.001352 0.001973 0.000000 0.043449 0.048886
#
#
# Mechanical properties :
#
#
# Convention : Reuss Voigt Hill
#
# Bulk Modulus (GPa) = 48.47801 63.91368 56.19585
# Shear Modulus (GPa) = 24.10284 43.14096 33.62190
#
# Velocity S-wave (km/s) = 3.04875 4.07881 3.60080
# Velocity P-wave (km/s) = 5.57566 6.84321 6.24170
#
# Compressibility (1/GPa) = 0.02062791
#
# Stress axis : x y z
#
# Youngs Moduli (GPa) = 113.05625 78.39545 145.79957
#
# Poissons Ratio (x) = 0.07844 0.11987
# Poissons Ratio (y) = 0.11312 0.30519
# Poissons Ratio (z) = 0.09295 0.16410
#
# Static dielectric constant tensor:
#      x y z
#    x 2.155110 0.105740 0.026540 
#    y 0.105740 2.070680 0.020090 
#    z 0.026540 0.020090 2.006900 
# 
# From -- ./inp_files/14621.got.cif
#   From: 2010.05.17/outbox.cif.g08.bks.cpg/sg2_8_cif.got.tgz:14621.got - 2010.06.03 11:33:40.
