data_PCOD9030545
_publ_section_title
;
Structure prediction by ZEFSAII (Michael W. Deem and Ramdas Pophale) SiO2 
 PCOD9030545
Probable space group: P -1
;
_chemical_formula_sum "Si O2"
_cell_formula_units_Z 10
_cell_length_a 15.182474
_cell_length_b 7.247607
_cell_length_c 15.618198
_cell_angle_alpha 59.062092
_cell_angle_beta 161.541501
_cell_angle_gamma 129.078363
_cell_volume 397.064360
_symmetry_space_group_name_H-M "P -1"
_symmetry_group_IT_number 2
_symmetry_cell_setting 'triclinic'
loop_
_space_group_symop_operation_xyz
x,y,z
-x,-y,-z
loop_
_atom_site_type_symbol
_atom_site_label
_atom_site_fract_x
_atom_site_fract_y
_atom_site_fract_z
Si Si1 0.376143 0.725256 0.792304
Si Si2 0.765068 0.561235 0.519280
Si Si3 0.376415 0.583742 0.001430
Si Si4 0.263192 0.359141 0.234436
Si Si5 0.806622 0.180156 0.992463
O O1 0.593956 0.628828 0.971604
O O2 0.000000 0.500000 0.500000
O O3 0.453391 0.958348 0.748546
O O4 0.469019 0.787854 0.962621
O O5 0.618463 0.650723 0.288264
O O6 0.470343 0.333092 0.356778
O O7 0.020513 0.499948 0.727964
O O8 0.966590 0.771243 0.727597
O O9 0.500000 0.500000 0.500000
O O10 0.179315 0.558407 0.070832
O O11 0.948340 0.137234 0.045732
#
# Coordination Sequence:
#
# PCOD9030545 Si02
#       5
#     2   2   2   2   2
#     4  11  25  44  65  95 141 178 213 264 336 396
#     4  11  21  44  69  96 132 168 225 273 317 388
#     4  11  24  44  65  95 139 173 214 271 326 394
#     4   9  20  40  69  98 131 164 224 274 328 377
#     4  10  22  42  71  98 130 176 219 270 327 388
#
# _framework density 25.184835
#
# number of rings (size 3 to 8) (size 9 to 14) (size 15 to 20)
#    0.000    1.600    4.000    0.000    0.000    8.000 
#    0.000    2.000    0.000    0.000    0.000    0.000 
#    0.000    0.000    0.000    0.000    0.000    0.000 
#
# Total GULP energy -55874.326529 kJ/mol
# GULP energy per Si atom -5587.432653 kJ/mol
# Density = 2.512751 g / cm^3
# Si number density = 25.184835 Si / 1000 Ang^3
#
#
#
# Elastic Constant Matrix: (Units=GPa)
#
#
# Indices 1 2 3 4 5 6 
#
# 1 252.7063 40.3134 85.1098 -24.7068 -0.0183 24.6337
# 2 40.3134 93.0999 52.0427 25.5658 28.6376 49.1289
# 3 85.1098 52.0427 142.9168 -18.5725 10.4901 26.7436
# 4 -24.7068 25.5658 -18.5725 56.5659 32.5617 12.8184
# 5 -0.0183 28.6376 10.4901 32.5617 99.9693 8.6334
# 6 24.6337 49.1289 26.7436 12.8184 8.6334 54.5967
#
#
#
# Elastic Compliance Matrix: (Units=1/GPa)
#
#
# Indices 1 2 3 4 5 6 
#
# 1 0.005192 -0.001303 -0.002187 0.002342 -0.000105 -0.000632
# 2 -0.001303 0.029275 -0.007446 -0.010413 -0.002550 -0.019260
# 3 -0.002187 -0.007446 0.011968 0.007096 -0.001468 0.000391
# 4 0.002342 -0.010413 0.007096 0.030328 -0.007546 -0.001090
# 5 -0.000105 -0.002550 -0.001468 -0.007546 0.013107 0.002760
# 6 -0.000632 -0.019260 0.000391 -0.001090 0.002760 0.035560
#
#
# Mechanical properties :
#
#
# Convention : Reuss Voigt Hill
#
# Bulk Modulus (GPa) = 40.71349 93.73942 67.22645
# Shear Modulus (GPa) = 32.15602 62.97688 47.56645
#
# Velocity S-wave (km/s) = 3.57711 5.00601 4.35063
# Velocity P-wave (km/s) = 5.76732 8.40922 7.21030
#
# Compressibility (1/GPa) = 0.02456188
#
# Stress axis : x y z
#
# Youngs Moduli (GPa) = 192.59309 34.15845 83.55635
#
# Poissons Ratio (x) = 0.04451 0.18276
# Poissons Ratio (y) = 0.25097 0.62220
# Poissons Ratio (z) = 0.42126 0.25436
#
# Static dielectric constant tensor:
#      x y z
#    x 2.029310 0.001280 0.033010 
#    y 0.001280 2.122580 0.035030 
#    z 0.033010 0.035030 2.056080 
# 
# From -- ./inp_files/20715.got.cif
#   From: 2010.05.17/outbox.cif.g08.bks.cpg/sg2_11_cif.got.tgz:20715.got - 2010.06.03 11:33:40.
