data_PCOD9030838
_publ_section_title
;
Structure prediction by ZEFSAII (Michael W. Deem and Ramdas Pophale) SiO2 
 PCOD9030838
Probable space group: P -1
;
_chemical_formula_sum "Si O2"
_cell_formula_units_Z 15
_cell_length_a 9.039652
_cell_length_b 10.221095
_cell_length_c 11.444154
_cell_angle_alpha 43.364729
_cell_angle_beta 94.560378
_cell_angle_gamma 76.163079
_cell_volume 652.078973
_symmetry_space_group_name_H-M "P -1"
_symmetry_group_IT_number 2
_symmetry_cell_setting 'triclinic'
loop_
_space_group_symop_operation_xyz
x,y,z
-x,-y,-z
loop_
_atom_site_type_symbol
_atom_site_label
_atom_site_fract_x
_atom_site_fract_y
_atom_site_fract_z
Si Si1 0.810539 0.483300 0.086579
Si Si2 0.805651 0.191208 0.557068
Si Si3 0.657052 0.998581 0.077787
Si Si4 0.472698 0.483153 0.799357
Si Si5 0.102205 0.313034 0.534989
Si Si6 0.795609 0.507408 0.801094
Si Si7 0.000000 0.000000 0.500000
Si Si8 0.881381 0.847391 0.973734
O O1 0.633529 0.497592 0.104303
O O2 0.931641 0.240874 0.279843
O O3 0.824844 0.539498 0.917410
O O4 0.835992 0.658565 0.052000
O O5 0.658693 0.420904 0.377680
O O6 0.824276 0.073272 0.512115
O O7 0.982943 0.201348 0.567717
O O8 0.798702 0.051739 0.753601
O O9 0.592845 0.238510 0.953852
O O10 0.809812 0.915774 0.052416
O O11 0.500000 0.000000 0.000000
O O12 0.728781 0.844691 0.291754
O O13 0.600645 0.583602 0.733096
O O14 0.146670 0.390700 0.366797
O O15 0.000000 0.500000 0.500000
O O16 0.920835 0.257885 0.952516
#
# Coordination Sequence:
#
# PCOD9030838 Si02
#       8
#     2   2   2   2   2   2   1   2
#     4  11  24  48  74 109 147 192 242 304 366 437
#     4  11  26  46  72 109 141 198 242 299 367 436
#     4  12  26  48  73 103 149 193 241 314 364 428
#     4  11  26  46  71 106 151 188 245 305 367 433
#     4  12  27  47  73 106 148 192 249 301 361 440
#     4  12  25  45  73 108 146 190 242 305 363 437
#     4  10  22  42  76 100 146 182 242 290 362 428
#     4  12  25  46  78 104 144 196 246 296 368 441
#
# _framework density 23.003347000000002
#
# number of rings (size 3 to 8) (size 9 to 14) (size 15 to 20)
#    0.000    0.533    4.000    4.000    5.600    1.600 
#    0.000    1.333    0.000    0.000    0.000    0.000 
#    0.000    0.000    0.000    0.000    0.000    0.000 
#
# Total GULP energy -83585.108390 kJ/mol
# GULP energy per Si atom -5572.340559 kJ/mol
# Density = 2.295099 g / cm^3
# Si number density = 23.003347 Si / 1000 Ang^3
#
#
#
# Elastic Constant Matrix: (Units=GPa)
#
#
# Indices 1 2 3 4 5 6 
#
# 1 111.8432 24.1921 36.1213 2.5500 6.3768 -8.2663
# 2 24.1921 74.1552 52.8329 0.2776 -10.3301 -31.9852
# 3 36.1213 52.8329 197.9722 9.6139 -5.2268 1.8910
# 4 2.5500 0.2776 9.6139 38.1604 -10.8186 -0.1316
# 5 6.3768 -10.3301 -5.2268 -10.8186 44.3572 2.2528
# 6 -8.2663 -31.9852 1.8910 -0.1316 2.2528 27.9155
#
#
#
# Elastic Compliance Matrix: (Units=1/GPa)
#
#
# Indices 1 2 3 4 5 6 
#
# 1 0.010079 -0.002884 -0.001082 -0.001092 -0.002512 -0.000050
# 2 -0.002884 0.048756 -0.013062 0.005828 0.008847 0.055208
# 3 -0.001082 -0.013062 0.008968 -0.002619 -0.001667 -0.015772
# 4 -0.001092 0.005828 -0.002619 0.029190 0.008019 0.006022
# 5 -0.002512 0.008847 -0.001667 0.008019 0.026348 0.007418
# 6 -0.000050 0.055208 -0.015772 0.006022 0.007418 0.099563
#
#
# Mechanical properties :
#
#
# Convention : Reuss Voigt Hill
#
# Bulk Modulus (GPa) = 29.63287 67.80701 48.71994
# Shear Modulus (GPa) = 18.64213 40.14156 29.39184
#
# Velocity S-wave (km/s) = 2.84986 4.18189 3.57840
# Velocity P-wave (km/s) = 4.87225 7.27039 6.18860
#
# Compressibility (1/GPa) = 0.03374631
#
# Stress axis : x y z
#
# Youngs Moduli (GPa) = 99.21692 20.51035 111.50378
#
# Poissons Ratio (x) = 0.05916 0.12065
# Poissons Ratio (y) = 0.28618 1.45646
# Poissons Ratio (z) = 0.10735 0.26791
#
# Static dielectric constant tensor:
#      x y z
#    x 1.929360 0.043610 -0.015750 
#    y 0.043610 1.901930 -0.039290 
#    z -0.015750 -0.039290 1.830590 
# 
# From -- ./inp_files/388815.got.cif
#   From: 2010.05.17/outbox.cif.g08.bks.cpg/sg2_195_cif.got.tgz:388815.got - 2010.06.03 11:33:40.
