data_PCOD9030242
_publ_section_title
;
Structure prediction by ZEFSAII (Michael W. Deem and Ramdas Pophale) SiO2 
 PCOD9030242
Probable space group: P -1
;
_chemical_formula_sum "Si O2"
_cell_formula_units_Z 12
_cell_length_a 5.026485
_cell_length_b 19.195346
_cell_length_c 19.665697
_cell_angle_alpha 165.543085
_cell_angle_beta 76.086846
_cell_angle_gamma 103.730770
_cell_volume 459.723429
_symmetry_space_group_name_H-M "P -1"
_symmetry_group_IT_number 2
_symmetry_cell_setting 'triclinic'
loop_
_space_group_symop_operation_xyz
x,y,z
-x,-y,-z
loop_
_atom_site_type_symbol
_atom_site_label
_atom_site_fract_x
_atom_site_fract_y
_atom_site_fract_z
Si Si1 0.559912 0.687315 0.068807
Si Si2 0.790356 0.751630 0.261614
Si Si3 0.807992 0.260571 0.345975
Si Si4 0.343811 0.376905 0.571974
Si Si5 0.178852 0.766797 0.827491
Si Si6 0.841604 0.182277 0.894375
O O1 0.855229 0.697523 0.024707
O O2 0.336645 0.855139 0.198510
O O3 0.622282 0.793693 0.241983
O O4 0.424637 0.378965 0.794566
O O5 0.000000 0.000000 0.500000
O O6 0.000000 0.500000 0.000000
O O7 0.619031 0.221629 0.386180
O O8 0.670211 0.201235 0.224278
O O9 0.913288 0.578524 0.643723
O O10 0.059551 0.049747 0.131388
O O11 0.301821 0.576152 0.697687
O O12 0.140317 0.118456 0.355325
O O13 0.324063 0.591774 0.837995
#
# Coordination Sequence:
#
# PCOD9030242 Si02
#       6
#     2   2   2   2   2   2
#     4  11  28  54  74 122 155 202 260 318 381 466
#     4  11  26  50  87 115 151 200 257 321 380 449
#     4  10  22  42  70 102 140 190 258 330 386 446
#     4  12  27  44  70 105 148 210 254 314 390 473
#     4  10  22  42  70 102 140 190 258 330 386 446
#     4  12  30  45  77 106 164 206 252 314 390 470
#
# _framework density 26.102651999999999
#
# number of rings (size 3 to 8) (size 9 to 14) (size 15 to 20)
#    0.000    1.000    1.667    2.500    9.333    5.333 
#    0.000    6.667    0.000    0.000    0.000    0.000 
#    0.000    0.000    0.000    0.000    0.000    0.000 
#
# Total GULP energy -67202.158063 kJ/mol
# GULP energy per Si atom -5600.179839 kJ/mol
# Density = 2.604324 g / cm^3
# Si number density = 26.102652 Si / 1000 Ang^3
#
#
#
# Elastic Constant Matrix: (Units=GPa)
#
#
# Indices 1 2 3 4 5 6 
#
# 1 146.0365 52.1954 37.6391 15.3778 4.2259 -2.3305
# 2 52.1954 115.7413 49.6989 8.8881 -0.8677 13.2139
# 3 37.6391 49.6989 166.7515 16.6536 6.1841 11.5769
# 4 15.3778 8.8881 16.6536 29.4833 -4.6892 3.6553
# 5 4.2259 -0.8677 6.1841 -4.6892 38.1639 3.7780
# 6 -2.3305 13.2139 11.5769 3.6553 3.7780 46.4865
#
#
#
# Elastic Compliance Matrix: (Units=1/GPa)
#
#
# Indices 1 2 3 4 5 6 
#
# 1 0.008776 -0.003663 -0.000608 -0.003639 -0.001606 0.002049
# 2 -0.003663 0.011710 -0.002549 0.000424 0.001437 -0.003028
# 3 -0.000608 -0.002549 0.007321 -0.003193 -0.001494 -0.000757
# 4 -0.003639 0.000424 -0.003193 0.038824 0.006002 -0.003048
# 5 -0.001606 0.001437 -0.001494 0.006002 0.027674 -0.002838
# 6 0.002049 -0.003028 -0.000757 -0.003048 -0.002838 0.023134
#
#
# Mechanical properties :
#
#
# Convention : Reuss Voigt Hill
#
# Bulk Modulus (GPa) = 70.58866 78.62179 74.60522
# Shear Modulus (GPa) = 36.81858 42.09312 39.45585
#
# Velocity S-wave (km/s) = 3.75978 4.02007 3.89210
# Velocity P-wave (km/s) = 6.77859 7.19261 6.98867
#
# Compressibility (1/GPa) = 0.01416658
#
# Stress axis : x y z
#
# Youngs Moduli (GPa) = 113.94712 85.39620 136.59744
#
# Poissons Ratio (x) = 0.31280 0.08312
# Poissons Ratio (y) = 0.41739 0.34815
# Poissons Ratio (z) = 0.06933 0.21765
#
# Static dielectric constant tensor:
#      x y z
#    x 2.084050 -0.014830 -0.029780 
#    y -0.014830 2.145760 -0.039870 
#    z -0.029780 -0.039870 2.021830 
# 
# From -- ./inp_files/8391.got.cif
#   From: 2010.05.17/outbox.cif.g08.bks.cpg/sg2_5_cif.got.tgz:8391.got - 2010.06.03 11:33:40.
