data_PCOD9030472
_publ_section_title
;
Structure prediction by ZEFSAII (Michael W. Deem and Ramdas Pophale) SiO2 
 PCOD9030472
Probable space group: P -1
;
_chemical_formula_sum "Si O2"
_cell_formula_units_Z 16
_cell_length_a 9.867004
_cell_length_b 9.095530
_cell_length_c 14.254605
_cell_angle_alpha 34.633432
_cell_angle_beta 115.124698
_cell_angle_gamma 96.615890
_cell_volume 586.162436
_symmetry_space_group_name_H-M "P -1"
_symmetry_group_IT_number 2
_symmetry_cell_setting 'triclinic'
loop_
_space_group_symop_operation_xyz
x,y,z
-x,-y,-z
loop_
_atom_site_type_symbol
_atom_site_label
_atom_site_fract_x
_atom_site_fract_y
_atom_site_fract_z
Si Si1 0.874661 0.132605 0.999774
Si Si2 0.937214 0.232865 0.176596
Si Si3 0.541289 0.628971 0.039238
Si Si4 0.686054 0.263836 0.449794
Si Si5 0.426163 0.371288 0.464131
Si Si6 0.127364 0.332612 0.928880
Si Si7 0.752803 0.794998 0.251013
Si Si8 0.846019 0.808438 0.465686
O O1 0.867431 0.235236 0.051957
O O2 0.833317 0.865393 0.146023
O O3 0.721246 0.368314 0.772927
O O4 0.055863 0.095918 0.036470
O O5 0.851769 0.109908 0.293970
O O6 0.897326 0.546493 0.035965
O O7 0.130786 0.001169 0.361467
O O8 0.500000 0.500000 0.000000
O O9 0.608395 0.362788 0.272763
O O10 0.686379 0.728855 0.010232
O O11 0.571614 0.200985 0.522146
O O12 0.696925 0.549623 0.342046
O O13 0.500000 0.500000 0.500000
O O14 0.399129 0.904125 0.911489
O O15 0.331077 0.188410 0.565808
O O16 0.986251 0.600870 0.687405
O O17 0.879821 0.690107 0.431151
#
# Coordination Sequence:
#
# PCOD9030472 Si02
#       8
#     2   2   2   2   2   2   2   2
#     4  10  24  45  72 104 141 191 244 303 355 429
#     4  11  24  46  73 104 148 189 246 298 366 442
#     4  12  26  45  75 107 147 191 246 301 365 435
#     4  12  26  46  75 110 147 197 238 304 371 435
#     4  11  23  46  69 101 150 187 241 298 361 435
#     4  11  24  47  72 107 145 189 246 301 364 429
#     4  11  24  47  75 106 145 191 248 299 366 437
#     4  10  22  42  71 102 142 190 236 298 353 433
#
# _framework density 27.296187
#
# number of rings (size 3 to 8) (size 9 to 14) (size 15 to 20)
#    0.000    1.000    3.750    2.625    1.750    3.000 
#    0.000    5.000    0.000    0.000    0.000    0.000 
#    0.000    0.000    0.000    0.000    0.000    0.000 
#
# Total GULP energy -89752.524295 kJ/mol
# GULP energy per Si atom -5609.532768 kJ/mol
# Density = 2.723406 g / cm^3
# Si number density = 27.296187 Si / 1000 Ang^3
#
#
#
# Elastic Constant Matrix: (Units=GPa)
#
#
# Indices 1 2 3 4 5 6 
#
# 1 250.1906 40.1609 46.6760 -22.2657 -8.8018 11.1454
# 2 40.1609 136.4725 28.1233 6.5700 10.7821 12.4479
# 3 46.6760 28.1233 136.5785 17.9696 5.9547 -3.9859
# 4 -22.2657 6.5700 17.9696 46.2378 4.0865 -0.1949
# 5 -8.8018 10.7821 5.9547 4.0865 54.4006 -13.1739
# 6 11.1454 12.4479 -3.9859 -0.1949 -13.1739 38.7710
#
#
#
# Elastic Compliance Matrix: (Units=1/GPa)
#
#
# Indices 1 2 3 4 5 6 
#
# 1 0.004896 -0.001174 -0.001913 0.003196 0.000764 -0.000952
# 2 -0.001174 0.008471 -0.001188 -0.001103 -0.002467 -0.003348
# 3 -0.001913 -0.001188 0.008830 -0.004149 -0.000314 0.001711
# 4 0.003196 -0.001103 -0.004149 0.025017 -0.000979 -0.001198
# 5 0.000764 -0.002467 -0.000314 -0.000979 0.020957 0.007656
# 6 -0.000952 -0.003348 0.001711 -0.001198 0.007656 0.029912
#
#
# Mechanical properties :
#
#
# Convention : Reuss Voigt Hill
#
# Bulk Modulus (GPa) = 73.27830 83.68468 78.48149
# Shear Modulus (GPa) = 44.97103 55.10064 50.03584
#
# Velocity S-wave (km/s) = 4.06337 4.49778 4.28608
# Velocity P-wave (km/s) = 6.99418 7.59592 7.30125
#
# Compressibility (1/GPa) = 0.01364660
#
# Stress axis : x y z
#
# Youngs Moduli (GPa) = 204.24633 118.04704 113.25284
#
# Poissons Ratio (x) = 0.13858 0.21667
# Poissons Ratio (y) = 0.23978 0.13456
# Poissons Ratio (z) = 0.39075 0.14025
#
# Static dielectric constant tensor:
#      x y z
#    x 2.172970 0.018830 -0.036500 
#    y 0.018830 2.167640 0.018940 
#    z -0.036500 0.018940 2.126860 
# 
# From -- ./inp_files/497510.got.cif
#   From: 2010.05.17/outbox.cif.g08.bks.cpg/sg2_249_cif.got.tgz:497510.got - 2010.06.03 11:33:40.
