data_PCOD9030345
_publ_section_title
;
Structure prediction by ZEFSAII (Michael W. Deem and Ramdas Pophale) SiO2 
 PCOD9030345
Probable space group: P -1
;
_chemical_formula_sum "Si O2"
_cell_formula_units_Z 14
_cell_length_a 8.948970
_cell_length_b 9.516352
_cell_length_c 8.367208
_cell_angle_alpha 103.072146
_cell_angle_beta 61.626918
_cell_angle_gamma 107.437389
_cell_volume 595.167028
_symmetry_space_group_name_H-M "P -1"
_symmetry_group_IT_number 2
_symmetry_cell_setting 'triclinic'
loop_
_space_group_symop_operation_xyz
x,y,z
-x,-y,-z
loop_
_atom_site_type_symbol
_atom_site_label
_atom_site_fract_x
_atom_site_fract_y
_atom_site_fract_z
Si Si1 0.602577 0.416442 0.744614
Si Si2 0.148387 0.139650 0.003487
Si Si3 0.230283 0.455560 0.905065
Si Si4 0.289466 0.668063 0.648171
Si Si5 0.155939 0.713182 0.208451
Si Si6 0.648002 0.065826 0.068183
Si Si7 0.058099 0.309621 0.370446
O O1 0.425897 0.469940 0.880604
O O2 0.578381 0.344319 0.562763
O O3 0.664509 0.299423 0.797442
O O4 0.778200 0.549363 0.680742
O O5 0.129720 0.184840 0.209004
O O6 0.148102 0.284332 0.936059
O O7 0.316726 0.072391 0.886654
O O8 0.000000 0.000000 0.000000
O O9 0.256250 0.519551 0.731594
O O10 0.129246 0.564297 0.076668
O O11 0.361815 0.803851 0.767230
O O12 0.109620 0.678604 0.651640
O O13 0.016333 0.715497 0.419070
O O14 0.193804 0.851197 0.106345
O O15 0.500000 0.000000 0.000000
#
# Coordination Sequence:
#
# PCOD9030345 Si02
#       7
#     2   2   2   2   2   2   2
#     4  11  22  42  72 103 129 167 229 289 318 382
#     4  12  26  43  65  97 142 174 219 273 333 398
#     4  11  24  42  71  99 130 176 228 271 333 389
#     4  10  23  44  68  99 133 174 225 273 328 400
#     4  10  22  42  70  95 126 178 224 268 329 395
#     4  11  25  45  67  96 139 181 218 271 336 397
#     4  11  24  43  69  99 136 169 225 279 330 389
#
# _framework density 23.52281
#
# number of rings (size 3 to 8) (size 9 to 14) (size 15 to 20)
#    0.000    1.143    2.857    3.429    4.000    3.429 
#    2.571    2.143    0.000    0.000    0.000    0.000 
#    0.000    0.000    0.000    0.000    0.000    0.000 
#
# Total GULP energy -78218.742238 kJ/mol
# GULP energy per Si atom -5587.053017 kJ/mol
# Density = 2.346927 g / cm^3
# Si number density = 23.522810 Si / 1000 Ang^3
#
#
#
# Elastic Constant Matrix: (Units=GPa)
#
#
# Indices 1 2 3 4 5 6 
#
# 1 80.0285 30.9057 -1.4444 9.5876 9.5151 21.9735
# 2 30.9057 156.4264 44.7802 11.4239 9.6681 3.6032
# 3 -1.4444 44.7802 82.3969 12.3528 18.3645 8.3475
# 4 9.5876 11.4239 12.3528 35.9631 1.8240 8.2671
# 5 9.5151 9.6681 18.3645 1.8240 38.3099 -0.3780
# 6 21.9735 3.6032 8.3475 8.2671 -0.3780 47.1728
#
#
#
# Elastic Compliance Matrix: (Units=1/GPa)
#
#
# Indices 1 2 3 4 5 6 
#
# 1 0.017491 -0.004165 0.005111 -0.002906 -0.005686 -0.008270
# 2 -0.004165 0.008604 -0.005233 -0.000425 0.001414 0.002295
# 3 0.005111 -0.005233 0.018072 -0.004453 -0.008444 -0.004466
# 4 -0.002906 -0.000425 -0.004453 0.030914 0.001460 -0.003232
# 5 -0.005686 0.001414 -0.008444 0.001460 0.031176 0.004029
# 6 -0.008270 0.002295 -0.004466 -0.003232 0.004029 0.026265
#
#
# Mechanical properties :
#
#
# Convention : Reuss Voigt Hill
#
# Bulk Modulus (GPa) = 28.09507 51.92609 40.01058
# Shear Modulus (GPa) = 32.68793 40.59652 36.64223
#
# Velocity S-wave (km/s) = 3.73181 4.15883 3.95109
# Velocity P-wave (km/s) = 5.52614 6.72189 6.15313
#
# Compressibility (1/GPa) = 0.03559343
#
# Stress axis : x y z
#
# Youngs Moduli (GPa) = 57.17198 116.21836 55.33391
#
# Poissons Ratio (x) = 0.48401 -0.28281
# Poissons Ratio (y) = 0.23810 0.28958
# Poissons Ratio (z) = -0.29220 0.60821
#
# Static dielectric constant tensor:
#      x y z
#    x 2.026170 0.046390 0.006130 
#    y 0.046390 1.877980 0.024700 
#    z 0.006130 0.024700 1.897550 
# 
# From -- ./inp_files/159132.got.cif
#   From: 2010.05.17/outbox.cif.g08.bks.cpg/sg2_80_cif.got.tgz:159132.got - 2010.06.03 11:33:40.
