data_PCOD9030069
_publ_section_title
;
Structure prediction by ZEFSAII (Michael W. Deem and Ramdas Pophale) SiO2 
 PCOD9030069
Probable space group: P -1
;
_chemical_formula_sum "Si O2"
_cell_formula_units_Z 16
_cell_length_a 13.261428
_cell_length_b 10.684492
_cell_length_c 9.525853
_cell_angle_alpha 122.594481
_cell_angle_beta 49.269988
_cell_angle_gamma 88.434121
_cell_volume 693.645464
_symmetry_space_group_name_H-M "P -1"
_symmetry_group_IT_number 2
_symmetry_cell_setting 'triclinic'
loop_
_space_group_symop_operation_xyz
x,y,z
-x,-y,-z
loop_
_atom_site_type_symbol
_atom_site_label
_atom_site_fract_x
_atom_site_fract_y
_atom_site_fract_z
Si Si1 0.018949 0.923703 0.675282
Si Si2 0.492311 0.420387 0.602616
Si Si3 0.703802 0.031555 0.143384
Si Si4 0.696270 0.693281 0.915819
Si Si5 0.853281 0.408025 0.847835
Si Si6 0.809723 0.370081 0.406520
Si Si7 0.370889 0.994492 0.516168
Si Si8 0.954108 0.750084 0.150482
O O1 0.058900 0.782718 0.430987
O O2 0.091936 0.797321 0.672517
O O3 0.824232 0.055262 0.961169
O O4 0.073762 0.054373 0.676099
O O5 0.500000 0.500000 0.500000
O O6 0.643095 0.390627 0.534594
O O7 0.526381 0.225540 0.416730
O O8 0.319841 0.542468 0.910415
O O9 0.738244 0.010166 0.266037
O O10 0.720996 0.852434 0.967168
O O11 0.802994 0.568662 0.878545
O O12 0.756249 0.554468 0.648874
O O13 0.499004 0.809341 0.199650
O O14 0.962736 0.376892 0.864571
O O15 0.920546 0.335032 0.148023
O O16 0.500000 0.000000 0.500000
O O17 0.233641 0.176137 0.666078
#
# Coordination Sequence:
#
# PCOD9030069 Si02
#       8
#     2   2   2   2   2   2   2   2
#     4  11  23  40  70 104 132 184 231 283 337 408
#     4  12  23  41  69  99 143 176 227 286 347 393
#     4  11  21  45  70  92 138 183 229 272 344 413
#     4  10  25  44  70  99 134 189 226 280 335 414
#     4  11  25  40  66 107 140 174 229 292 339 400
#     4  11  23  39  68 106 128 183 234 276 334 412
#     4  10  22  42  69  95 130 184 226 271 335 413
#     4  12  22  43  69 104 137 178 227 286 349 400
#
# _framework density 23.066538000000001
#
# number of rings (size 3 to 8) (size 9 to 14) (size 15 to 20)
#    0.000    1.000    5.000    1.500    1.750    3.000 
#    0.000    3.125    8.250    0.000    0.000    0.000 
#    0.000    0.000    0.000    0.000    0.000    0.000 
#
# Total GULP energy -89434.802635 kJ/mol
# GULP energy per Si atom -5589.675165 kJ/mol
# Density = 2.301404 g / cm^3
# Si number density = 23.066538 Si / 1000 Ang^3
#
#
#
# Elastic Constant Matrix: (Units=GPa)
#
#
# Indices 1 2 3 4 5 6 
#
# 1 120.7201 31.6692 52.4710 -3.1651 -7.1480 -16.5873
# 2 31.6692 77.0540 11.6438 11.9361 13.3623 -9.6645
# 3 52.4710 11.6438 123.0887 8.3202 1.2331 -17.8271
# 4 -3.1651 11.9361 8.3202 26.9168 7.2367 -0.8160
# 5 -7.1480 13.3623 1.2331 7.2367 35.6114 2.5322
# 6 -16.5873 -9.6645 -17.8271 -0.8160 2.5322 32.4529
#
#
#
# Elastic Compliance Matrix: (Units=1/GPa)
#
#
# Indices 1 2 3 4 5 6 
#
# 1 0.012412 -0.005459 -0.004839 0.004446 0.003669 0.001886
# 2 -0.005459 0.017681 0.001749 -0.007132 -0.006610 0.003773
# 3 -0.004839 0.001749 0.010906 -0.004207 -0.001438 0.004045
# 4 0.004446 -0.007132 -0.004207 0.043481 -0.005074 -0.000673
# 5 0.003669 -0.006610 -0.001438 -0.005074 0.032631 -0.003556
# 6 0.001886 0.003773 0.004045 -0.000673 -0.003556 0.035384
#
#
# Mechanical properties :
#
#
# Convention : Reuss Voigt Hill
#
# Bulk Modulus (GPa) = 41.83692 56.93677 49.38685
# Shear Modulus (GPa) = 28.15958 34.00146 31.08052
#
# Velocity S-wave (km/s) = 3.49778 3.84351 3.67472
# Velocity P-wave (km/s) = 5.87278 6.66589 6.28186
#
# Compressibility (1/GPa) = 0.02390233
#
# Stress axis : x y z
#
# Youngs Moduli (GPa) = 80.56871 56.55699 91.69197
#
# Poissons Ratio (x) = 0.30872 0.44368
# Poissons Ratio (y) = 0.43980 -0.16037
# Poissons Ratio (z) = 0.38986 -0.09892
#
# Static dielectric constant tensor:
#      x y z
#    x 1.981560 0.012180 -0.038500 
#    y 0.012180 1.936980 0.000160 
#    z -0.038500 0.000160 1.878860 
# 
# From -- ./inp_files/263325.got.cif
#   From: 2010.05.17/outbox.cif.g08.bks.cpg/sg2_132_cif.got.tgz:263325.got - 2010.06.03 11:33:40.
