data_PCOD9030478
_publ_section_title
;
Structure prediction by ZEFSAII (Michael W. Deem and Ramdas Pophale) SiO2 
 PCOD9030478
Probable space group: P -1
;
_chemical_formula_sum "Si O2"
_cell_formula_units_Z 14
_cell_length_a 9.051983
_cell_length_b 10.649283
_cell_length_c 9.282846
_cell_angle_alpha 112.185915
_cell_angle_beta 63.042765
_cell_angle_gamma 136.621794
_cell_volume 546.113140
_symmetry_space_group_name_H-M "P -1"
_symmetry_group_IT_number 2
_symmetry_cell_setting 'triclinic'
loop_
_space_group_symop_operation_xyz
x,y,z
-x,-y,-z
loop_
_atom_site_type_symbol
_atom_site_label
_atom_site_fract_x
_atom_site_fract_y
_atom_site_fract_z
Si Si1 0.946756 0.865209 0.201836
Si Si2 0.353481 0.729039 0.965051
Si Si3 0.235705 0.560148 0.470958
Si Si4 0.080699 0.717996 0.296770
Si Si5 0.738946 0.092364 0.126821
Si Si6 0.515295 0.521430 0.831525
Si Si7 0.297914 0.010292 0.573113
O O1 0.698555 0.671289 0.221295
O O2 0.907659 0.994601 0.331293
O O3 0.080178 0.843868 0.242725
O O4 0.053521 0.885698 0.009578
O O5 0.269461 0.761715 0.874505
O O6 0.476881 0.654520 0.857857
O O7 0.159102 0.631292 0.130492
O O8 0.534333 0.913608 0.054580
O O9 0.279523 0.456395 0.302024
O O10 0.462982 0.777956 0.465871
O O11 0.000000 0.500000 0.500000
O O12 0.162553 0.450920 0.605823
O O13 0.236187 0.862588 0.418648
O O14 0.708926 0.057737 0.293952
O O15 0.500000 0.500000 0.000000
#
# Coordination Sequence:
#
# PCOD9030478 Si02
#       7
#     2   2   2   2   2   2   2
#     4  10  24  45  72 109 143 192 247 302 372 430
#     4  10  23  46  69 110 144 189 250 290 371 439
#     4  11  26  47  75 108 145 191 245 305 372 432
#     4  11  25  47  71 109 150 192 239 307 370 432
#     4  10  22  42  71 103 147 193 243 299 357 442
#     4  11  24  44  74 106 145 190 249 305 357 449
#     4  11  24  45  75 108 147 192 251 297 369 443
#
# _framework density 25.635715000000001
#
# number of rings (size 3 to 8) (size 9 to 14) (size 15 to 20)
#    0.000    1.429    0.000    4.286    4.000    6.857 
#   15.429    0.000    0.000    0.000    0.000    0.000 
#    0.000    0.000    0.000    0.000    0.000    0.000 
#
# Total GULP energy -78268.534845 kJ/mol
# GULP energy per Si atom -5590.609632 kJ/mol
# Density = 2.557737 g / cm^3
# Si number density = 25.635715 Si / 1000 Ang^3
#
#
#
# Elastic Constant Matrix: (Units=GPa)
#
#
# Indices 1 2 3 4 5 6 
#
# 1 111.3698 23.9463 55.2745 -11.2677 -14.7421 -7.9474
# 2 23.9463 117.9755 50.4295 -5.0993 6.3047 8.6188
# 3 55.2745 50.4295 159.0962 -16.1140 -18.3130 -14.7698
# 4 -11.2677 -5.0993 -16.1140 23.6116 -3.7504 3.1655
# 5 -14.7421 6.3047 -18.3130 -3.7504 57.3284 5.3075
# 6 -7.9474 8.6188 -14.7698 3.1655 5.3075 26.8351
#
#
#
# Elastic Compliance Matrix: (Units=1/GPa)
#
#
# Indices 1 2 3 4 5 6 
#
# 1 0.011384 -0.001156 -0.002863 0.003408 0.002241 0.001322
# 2 -0.001156 0.010855 -0.003850 -0.000461 -0.002247 -0.005449
# 3 -0.002863 -0.003850 0.009661 0.004181 0.002612 0.004696
# 4 0.003408 -0.000461 0.004181 0.048088 0.005718 -0.003345
# 5 0.002241 -0.002247 0.002612 0.005718 0.019636 -0.001735
# 6 0.001322 -0.005449 0.004696 -0.003345 -0.001735 0.042729
#
#
# Mechanical properties :
#
#
# Convention : Reuss Voigt Hill
#
# Bulk Modulus (GPa) = 61.87597 71.97134 66.92366
# Shear Modulus (GPa) = 30.58498 38.80777 34.69637
#
# Velocity S-wave (km/s) = 3.45782 3.89500 3.68290
# Velocity P-wave (km/s) = 6.33491 6.95440 6.65187
#
# Compressibility (1/GPa) = 0.01616136
#
# Stress axis : x y z
#
# Youngs Moduli (GPa) = 87.84018 92.12291 103.51166
#
# Poissons Ratio (x) = 0.10649 0.29636
# Poissons Ratio (y) = 0.10154 0.39856
# Poissons Ratio (z) = 0.25149 0.35471
#
# Static dielectric constant tensor:
#      x y z
#    x 2.206550 -0.060110 -0.065490 
#    y -0.060110 2.073810 -0.063570 
#    z -0.065490 -0.063570 2.201750 
# 
# From -- ./inp_files/387765.got.cif
#   From: 2010.05.17/outbox.cif.g08.bks.cpg/sg2_194_cif.got.tgz:387765.got - 2010.06.03 11:33:40.
