data_PCOD9030607
_publ_section_title
;
Structure prediction by ZEFSAII (Michael W. Deem and Ramdas Pophale) SiO2 
 PCOD9030607
Probable space group: P -1
;
_chemical_formula_sum "Si O2"
_cell_formula_units_Z 16
_cell_length_a 10.067750
_cell_length_b 14.598105
_cell_length_c 8.216672
_cell_angle_alpha 141.501773
_cell_angle_beta 75.329492
_cell_angle_gamma 115.057134
_cell_volume 674.395142
_symmetry_space_group_name_H-M "P -1"
_symmetry_group_IT_number 2
_symmetry_cell_setting 'triclinic'
loop_
_space_group_symop_operation_xyz
x,y,z
-x,-y,-z
loop_
_atom_site_type_symbol
_atom_site_label
_atom_site_fract_x
_atom_site_fract_y
_atom_site_fract_z
Si Si1 0.157299 0.128871 0.194646
Si Si2 0.405520 0.907688 0.153588
Si Si3 0.977522 0.316542 0.565279
Si Si4 0.559684 0.675787 0.812428
Si Si5 0.335330 0.805690 0.659158
Si Si6 0.357727 0.470904 0.112129
Si Si7 0.125586 0.960734 0.307753
Si Si8 0.969762 0.654734 0.045589
O O1 0.314424 0.185425 0.135321
O O2 0.120048 0.286343 0.423300
O O3 0.171861 0.070947 0.290300
O O4 0.000000 0.000000 0.000000
O O5 0.274649 0.955486 0.335854
O O6 0.549999 0.067467 0.319250
O O7 0.438683 0.756145 0.998013
O O8 0.360223 0.863186 0.916772
O O9 0.828640 0.217981 0.380051
O O10 0.001226 0.497996 0.790645
O O11 0.959952 0.275941 0.706289
O O12 0.500000 0.500000 0.500000
O O13 0.635474 0.644264 0.906627
O O14 0.357170 0.638642 0.409106
O O15 0.205199 0.392153 0.953093
O O16 0.500000 0.500000 0.000000
O O17 0.000000 0.000000 0.500000
O O18 0.034753 0.774416 0.044229
#
# Coordination Sequence:
#
# PCOD9030607 Si02
#       8
#     2   2   2   2   2   2   2   2
#     4  12  25  46  72 103 149 189 244 304 358 450
#     4  11  24  44  72 103 153 186 242 303 365 439
#     4  10  22  42  72 102 146 187 245 296 360 432
#     4  12  27  46  75 110 143 196 250 299 375 440
#     4  10  22  45  71 110 142 196 238 300 371 434
#     4  11  26  45  74 108 149 188 243 306 369 442
#     4  12  26  44  72 105 144 194 241 300 372 431
#     4  10  24  43  68 104 146 189 242 299 366 426
#
# _framework density 23.724964
#
# number of rings (size 3 to 8) (size 9 to 14) (size 15 to 20)
#    0.000    1.000    2.500    3.750    5.250    2.000 
#    0.000    4.375    0.000    0.000    0.000    0.000 
#    0.000    0.000    0.000    0.000    0.000    0.000 
#
# Total GULP energy -89467.952997 kJ/mol
# GULP energy per Si atom -5591.747062 kJ/mol
# Density = 2.367097 g / cm^3
# Si number density = 23.724964 Si / 1000 Ang^3
#
#
#
# Elastic Constant Matrix: (Units=GPa)
#
#
# Indices 1 2 3 4 5 6 
#
# 1 134.3906 33.4611 35.3211 9.7629 -42.0776 -16.1646
# 2 33.4611 111.4419 21.0455 16.3250 -19.0827 -0.5768
# 3 35.3211 21.0455 33.0044 5.6227 -5.2250 -11.2595
# 4 9.7629 16.3250 5.6227 21.4531 -3.9702 -6.4937
# 5 -42.0776 -19.0827 -5.2250 -3.9702 38.5153 2.3640
# 6 -16.1646 -0.5768 -11.2595 -6.4937 2.3640 41.9887
#
#
#
# Elastic Compliance Matrix: (Units=1/GPa)
#
#
# Indices 1 2 3 4 5 6 
#
# 1 0.016461 0.000775 -0.014974 -0.000768 0.016177 0.001303
# 2 0.000775 0.012146 -0.007478 -0.007574 0.005254 -0.003007
# 3 -0.014974 -0.007478 0.052080 -0.001034 -0.013640 0.008706
# 4 -0.000768 -0.007574 -0.001034 0.055474 0.000504 0.007874
# 5 0.016177 0.005254 -0.013640 0.000504 0.044428 0.000219
# 6 0.001303 -0.003007 0.008706 0.007874 0.000219 0.027816
#
#
# Mechanical properties :
#
#
# Convention : Reuss Voigt Hill
#
# Bulk Modulus (GPa) = 26.78704 50.94358 38.86531
# Shear Modulus (GPa) = 18.92472 32.99204 25.95838
#
# Velocity S-wave (km/s) = 2.82737 3.73313 3.31136
# Velocity P-wave (km/s) = 4.68763 6.33252 5.57112
#
# Compressibility (1/GPa) = 0.03733149
#
# Stress axis : x y z
#
# Youngs Moduli (GPa) = 60.74880 82.32874 19.20133
#
# Poissons Ratio (x) = -0.06377 0.28753
# Poissons Ratio (y) = -0.04705 0.14359
# Poissons Ratio (z) = 0.90967 0.61567
#
# Static dielectric constant tensor:
#      x y z
#    x 1.920210 0.035350 -0.017790 
#    y 0.035350 1.980850 0.000460 
#    z -0.017790 0.000460 1.971240 
# 
# From -- ./inp_files/209290.got.cif
#   From: 2010.05.17/outbox.cif.g08.bks.cpg/sg2_105_cif.got.tgz:209290.got - 2010.06.03 11:33:40.
