data_PCOD9030132
_publ_section_title
;
Structure prediction by ZEFSAII (Michael W. Deem and Ramdas Pophale) SiO2 
 PCOD9030132
Probable space group: P -1
;
_chemical_formula_sum "Si O2"
_cell_formula_units_Z 16
_cell_length_a 13.583673
_cell_length_b 8.394007
_cell_length_c 23.818769
_cell_angle_alpha 147.413159
_cell_angle_beta 33.020459
_cell_angle_gamma 127.671356
_cell_volume 753.842602
_symmetry_space_group_name_H-M "P -1"
_symmetry_group_IT_number 2
_symmetry_cell_setting 'triclinic'
loop_
_space_group_symop_operation_xyz
x,y,z
-x,-y,-z
loop_
_atom_site_type_symbol
_atom_site_label
_atom_site_fract_x
_atom_site_fract_y
_atom_site_fract_z
Si Si1 0.598274 0.583390 0.619376
Si Si2 0.557195 0.697990 0.080313
Si Si3 0.996732 0.709471 0.693135
Si Si4 0.628864 0.232555 0.010590
Si Si5 0.055643 0.474412 0.210488
Si Si6 0.616854 0.600172 0.424425
Si Si7 0.437513 0.697381 0.328525
Si Si8 0.952349 0.120079 0.494669
O O1 0.778529 0.361576 0.432468
O O2 0.418937 0.552294 0.661659
O O3 0.616528 0.445267 0.631683
O O4 0.580851 0.948099 0.739000
O O5 0.500000 0.500000 0.000000
O O6 0.567791 0.491811 0.068898
O O7 0.765312 0.714892 0.968502
O O8 0.924841 0.648521 0.771088
O O9 0.989614 0.446255 0.573439
O O10 0.850218 0.031351 0.838262
O O11 0.599909 0.419457 0.138361
O O12 0.500000 0.000000 0.000000
O O13 0.843625 0.500074 0.299177
O O14 0.060307 0.831009 0.317842
O O15 0.500000 0.500000 0.500000
O O16 0.532688 0.977382 0.573908
O O17 0.266612 0.796548 0.394139
O O18 0.000000 0.000000 0.500000
#
# Coordination Sequence:
#
# PCOD9030132 Si02
#       8
#     2   2   2   2   2   2   2   2
#     4  12  26  44  70 102 136 187 232 286 338 411
#     4  12  27  44  70 104 143 179 227 281 356 411
#     4  11  22  39  69  98 137 172 230 277 352 404
#     4  12  25  43  65 103 143 178 219 285 348 416
#     4  10  22  42  69  98 135 181 229 283 340 407
#     4  11  23  46  73  99 135 183 240 284 342 402
#     4  11  24  43  67  97 142 179 229 287 343 406
#     4   9  20  35  66  97 130 175 222 276 345 407
#
# _framework density 21.224589000000002
#
# number of rings (size 3 to 8) (size 9 to 14) (size 15 to 20)
#    0.000    1.000    2.500    4.125    8.750    1.000 
#    0.000    0.625    0.000    0.000    0.000    0.000 
#    0.000    0.000    0.000    0.000    0.000    0.000 
#
# Total GULP energy -89381.281456 kJ/mol
# GULP energy per Si atom -5586.330091 kJ/mol
# Density = 2.117628 g / cm^3
# Si number density = 21.224589 Si / 1000 Ang^3
#
#
#
# Elastic Constant Matrix: (Units=GPa)
#
#
# Indices 1 2 3 4 5 6 
#
# 1 85.5920 29.1003 27.9773 7.8170 1.4543 5.7394
# 2 29.1003 102.2338 41.2935 11.0495 -1.3376 -17.8457
# 3 27.9773 41.2935 122.1285 7.7129 -10.9360 -10.1028
# 4 7.8170 11.0495 7.7129 42.3969 -1.4857 0.2077
# 5 1.4543 -1.3376 -10.9360 -1.4857 23.0888 -2.1286
# 6 5.7394 -17.8457 -10.1028 0.2077 -2.1286 40.6716
#
#
#
# Elastic Compliance Matrix: (Units=1/GPa)
#
#
# Indices 1 2 3 4 5 6 
#
# 1 0.014229 -0.003688 -0.002547 -0.001276 -0.002804 -0.004399
# 2 -0.003688 0.013282 -0.003047 -0.002257 -0.000070 0.005600
# 3 -0.002547 -0.003047 0.010441 -0.000467 0.005073 0.001884
# 4 -0.001276 -0.002257 -0.000467 0.024543 0.001216 -0.000988
# 5 -0.002804 -0.000070 0.005073 0.001216 0.046338 0.004044
# 6 -0.004399 0.005600 0.001884 -0.000988 0.004044 0.028350
#
#
# Mechanical properties :
#
#
# Convention : Reuss Voigt Hill
#
# Bulk Modulus (GPa) = 51.57531 56.29962 53.93746
# Shear Modulus (GPa) = 30.82446 35.33700 33.08073
#
# Velocity S-wave (km/s) = 3.81504 4.08476 3.95220
# Velocity P-wave (km/s) = 6.61503 6.98786 6.80400
#
# Compressibility (1/GPa) = 0.01938912
#
# Stress axis : x y z
#
# Youngs Moduli (GPa) = 70.27942 75.28775 95.77337
#
# Poissons Ratio (x) = 0.27767 0.24393
# Poissons Ratio (y) = 0.25920 0.29178
# Poissons Ratio (z) = 0.17900 0.22937
#
# Static dielectric constant tensor:
#      x y z
#    x 1.784140 0.020820 -0.007290 
#    y 0.020820 1.791120 -0.030360 
#    z -0.007290 -0.030360 1.826090 
# 
# From -- ./inp_files/328593.got.cif
#   From: 2010.05.17/outbox.cif.g08.bks.cpg/sg2_165_cif.got.tgz:328593.got - 2010.06.03 11:33:40.
