data_PCOD9030105
_publ_section_title
;
Structure prediction by ZEFSAII (Michael W. Deem and Ramdas Pophale) SiO2 
 PCOD9030105
Probable space group: P -1
;
_chemical_formula_sum "Si O2"
_cell_formula_units_Z 16
_cell_length_a 11.264383
_cell_length_b 9.028579
_cell_length_c 16.265057
_cell_angle_alpha 51.081628
_cell_angle_beta 45.803291
_cell_angle_gamma 84.352340
_cell_volume 732.109832
_symmetry_space_group_name_H-M "P -1"
_symmetry_group_IT_number 2
_symmetry_cell_setting 'triclinic'
loop_
_space_group_symop_operation_xyz
x,y,z
-x,-y,-z
loop_
_atom_site_type_symbol
_atom_site_label
_atom_site_fract_x
_atom_site_fract_y
_atom_site_fract_z
Si Si1 0.280378 0.597372 0.556985
Si Si2 0.449466 0.165248 0.133394
Si Si3 0.778992 0.038096 0.510999
Si Si4 0.772399 0.365094 0.616344
Si Si5 0.085221 0.345181 0.009705
Si Si6 0.270081 0.175018 0.700293
Si Si7 0.209095 0.354067 0.133555
Si Si8 0.444674 0.391255 0.358983
O O1 0.232726 0.746482 0.582637
O O2 0.183877 0.570856 0.523952
O O3 0.210156 0.339145 0.708397
O O4 0.532840 0.768841 0.364878
O O5 0.374650 0.298329 0.073232
O O6 0.327958 0.066318 0.313403
O O7 0.377363 0.925076 0.204680
O O8 0.683982 0.381086 0.973453
O O9 0.021120 0.158945 0.350594
O O10 0.659523 0.829759 0.575509
O O11 0.644010 0.461909 0.672158
O O12 0.000000 0.500000 0.500000
O O13 0.119686 0.313507 0.099646
O O14 0.309163 0.467035 0.817470
O O15 0.916582 0.097477 0.130914
O O16 0.000000 0.500000 0.000000
O O17 0.367179 0.290938 0.523187
#
# Coordination Sequence:
#
# PCOD9030105 Si02
#       8
#     2   2   2   2   2   2   2   2
#     4   9  22  40  64  96 124 170 217 268 320 387
#     4  10  23  42  64  92 135 162 218 270 319 386
#     4  11  20  39  68  93 129 165 214 259 332 379
#     4  10  22  42  69  97 130 170 212 269 333 384
#     4  12  26  40  66  99 132 173 220 267 321 382
#     4  10  22  44  64  89 135 169 219 270 318 379
#     4  11  23  40  63  96 128 172 215 268 321 382
#     4  11  23  41  69  98 130 174 217 264 321 390
#
# _framework density 21.854642999999999
#
# number of rings (size 3 to 8) (size 9 to 14) (size 15 to 20)
#    0.000    1.500    2.500    1.875    5.250    3.000 
#    0.000    6.250    0.000    0.000    0.000    0.000 
#    0.000    0.000    0.000    0.000    0.000    0.000 
#
# Total GULP energy -89400.490772 kJ/mol
# GULP energy per Si atom -5587.530673 kJ/mol
# Density = 2.180490 g / cm^3
# Si number density = 21.854643 Si / 1000 Ang^3
#
#
#
# Elastic Constant Matrix: (Units=GPa)
#
#
# Indices 1 2 3 4 5 6 
#
# 1 98.4129 39.4045 20.8826 -8.5180 -16.2938 6.5970
# 2 39.4045 160.2747 36.1264 -34.1499 -17.3443 -4.0851
# 3 20.8826 36.1264 108.8782 -17.0657 -27.7961 10.1827
# 4 -8.5180 -34.1499 -17.0657 35.5924 11.4728 -7.9298
# 5 -16.2938 -17.3443 -27.7961 11.4728 33.1843 -4.6430
# 6 6.5970 -4.0851 10.1827 -7.9298 -4.6430 30.6706
#
#
#
# Elastic Compliance Matrix: (Units=1/GPa)
#
#
# Indices 1 2 3 4 5 6 
#
# 1 0.012160 -0.002968 -0.000261 -0.002152 0.004554 -0.002791
# 2 -0.002968 0.009232 -0.001677 0.008465 -0.000325 0.004564
# 3 -0.000261 -0.001677 0.012405 0.000859 0.008705 -0.002746
# 4 -0.002152 0.008465 0.000859 0.041294 -0.008698 0.010665
# 5 0.004554 -0.000325 0.008705 -0.008698 0.042539 0.000278
# 6 -0.002791 0.004564 -0.002746 0.010665 0.000278 0.037524
#
#
# Mechanical properties :
#
#
# Convention : Reuss Voigt Hill
#
# Bulk Modulus (GPa) = 41.69283 62.26587 51.97935
# Shear Modulus (GPa) = 28.90864 37.96628 33.43746
#
# Velocity S-wave (km/s) = 3.64093 4.17252 3.91576
# Velocity P-wave (km/s) = 6.06580 7.19486 6.65432
#
# Compressibility (1/GPa) = 0.02398494
#
# Stress axis : x y z
#
# Youngs Moduli (GPa) = 82.23856 108.32318 80.61419
#
# Poissons Ratio (x) = 0.32145 0.02106
# Poissons Ratio (y) = 0.24405 0.13518
# Poissons Ratio (z) = 0.02148 0.18164
#
# Static dielectric constant tensor:
#      x y z
#    x 1.811700 -0.020540 0.010280 
#    y -0.020540 1.828950 0.007360 
#    z 0.010280 0.007360 1.812620 
# 
# From -- ./inp_files/390434.got.cif
#   From: 2010.05.17/outbox.cif.g08.bks.cpg/sg2_196_cif.got.tgz:390434.got - 2010.06.03 11:33:40.
