data_PCOD9030032
_publ_section_title
;
Structure prediction by ZEFSAII (Michael W. Deem and Ramdas Pophale) SiO2 
 PCOD9030032
Probable space group: P -1
;
_chemical_formula_sum "Si O2"
_cell_formula_units_Z 16
_cell_length_a 8.965118
_cell_length_b 15.614215
_cell_length_c 15.050161
_cell_angle_alpha 122.468198
_cell_angle_beta 38.139179
_cell_angle_gamma 142.987446
_cell_volume 759.307708
_symmetry_space_group_name_H-M "P -1"
_symmetry_group_IT_number 2
_symmetry_cell_setting 'triclinic'
loop_
_space_group_symop_operation_xyz
x,y,z
-x,-y,-z
loop_
_atom_site_type_symbol
_atom_site_label
_atom_site_fract_x
_atom_site_fract_y
_atom_site_fract_z
Si Si1 0.159072 0.459265 0.339517
Si Si2 0.774310 0.675751 0.465437
Si Si3 0.027210 0.935839 0.034810
Si Si4 0.652038 0.249704 0.293941
Si Si5 0.732153 0.639847 0.031966
Si Si6 0.760995 0.062078 0.737018
Si Si7 0.851438 0.968590 0.325414
Si Si8 0.938408 0.227478 0.433374
O O1 0.530309 0.594089 0.193591
O O2 0.000000 0.500000 0.500000
O O3 0.894625 0.350438 0.321623
O O4 0.200952 0.373971 0.334600
O O5 0.500000 0.500000 0.500000
O O6 0.563266 0.715044 0.604688
O O7 0.042026 0.734839 0.452337
O O8 0.996044 0.778745 0.333395
O O9 0.421946 0.015902 0.907861
O O10 0.785870 0.765752 0.034342
O O11 0.899705 0.946256 0.190569
O O12 0.000000 0.000000 0.000000
O O13 0.406200 0.075772 0.327151
O O14 0.886095 0.294119 0.122067
O O15 0.500000 0.500000 0.000000
O O16 0.975449 0.059877 0.705637
O O17 0.441860 0.860714 0.475567
O O18 0.005333 0.128494 0.345131
#
# Coordination Sequence:
#
# PCOD9030032 Si02
#       8
#     2   2   2   2   2   2   2   2
#     4  11  22  40  67 100 138 179 228 284 347 408
#     4  12  25  43  66 101 134 171 226 287 344 401
#     4  11  24  41  71 101 133 173 230 286 332 408
#     4  10  22  42  69  91 135 183 228 272 345 416
#     4   9  22  41  65  94 134 178 219 268 348 405
#     4  11  24  45  69  95 134 185 225 275 351 406
#     4  11  24  43  67  99 136 174 232 281 330 410
#     4  11  25  39  67 102 131 174 231 281 332 404
#
# _framework density 21.071825
#
# number of rings (size 3 to 8) (size 9 to 14) (size 15 to 20)
#    0.000    1.250    1.250    3.750    8.750    4.000 
#    0.000    0.625    0.000    0.000    0.000    0.000 
#    0.000    0.000    0.000    0.000    0.000    0.000 
#
# Total GULP energy -89316.528233 kJ/mol
# GULP energy per Si atom -5582.283015 kJ/mol
# Density = 2.102386 g / cm^3
# Si number density = 21.071825 Si / 1000 Ang^3
#
#
#
# Elastic Constant Matrix: (Units=GPa)
#
#
# Indices 1 2 3 4 5 6 
#
# 1 91.4039 9.0389 4.9030 -10.5809 10.4926 -13.2653
# 2 9.0389 121.4268 28.3946 -11.2244 15.2364 -23.8382
# 3 4.9030 28.3946 100.3112 -8.3790 11.1773 -14.9273
# 4 -10.5809 -11.2244 -8.3790 29.5488 -1.4640 15.2650
# 5 10.4926 15.2364 11.1773 -1.4640 23.6294 -2.0154
# 6 -13.2653 -23.8382 -14.9273 15.2650 -2.0154 33.7956
#
#
#
# Elastic Compliance Matrix: (Units=1/GPa)
#
#
# Indices 1 2 3 4 5 6 
#
# 1 0.012389 0.000694 0.000668 0.002431 -0.005755 0.004206
# 2 0.000694 0.010573 -0.001359 0.000112 -0.005902 0.006728
# 3 0.000668 -0.001359 0.011441 0.000825 -0.004464 0.003718
# 4 0.002431 0.000112 0.000825 0.044688 -0.000378 -0.018810
# 5 -0.005755 -0.005902 -0.004464 -0.000378 0.050324 -0.005223
# 6 0.004206 0.006728 0.003718 -0.018810 -0.005223 0.045813
#
#
# Mechanical properties :
#
#
# Convention : Reuss Voigt Hill
#
# Bulk Modulus (GPa) = 29.06141 44.20166 36.63154
# Shear Modulus (GPa) = 26.78233 35.44846 31.11540
#
# Velocity S-wave (km/s) = 3.56898 4.10600 3.84687
# Velocity P-wave (km/s) = 5.55023 6.59554 6.09533
#
# Compressibility (1/GPa) = 0.03440989
#
# Stress axis : x y z
#
# Youngs Moduli (GPa) = 80.72000 94.57877 87.40835
#
# Poissons Ratio (x) = -0.06566 -0.05841
# Poissons Ratio (y) = -0.05603 0.11876
# Poissons Ratio (z) = -0.05394 0.12850
#
# Static dielectric constant tensor:
#      x y z
#    x 1.737810 0.033190 -0.006720 
#    y 0.033190 1.786250 -0.047740 
#    z -0.006720 -0.047740 1.740880 
# 
# From -- ./inp_files/314174.got.cif
#   From: 2010.05.17/outbox.cif.g08.bks.cpg/sg2_158_cif.got.tgz:314174.got - 2010.06.03 11:33:40.
