data_PCOD9030749
_publ_section_title
;
Structure prediction by ZEFSAII (Michael W. Deem and Ramdas Pophale) SiO2 
 PCOD9030749
Probable space group: P -1
;
_chemical_formula_sum "Si O2"
_cell_formula_units_Z 12
_cell_length_a 8.896886
_cell_length_b 9.227249
_cell_length_c 9.289336
_cell_angle_alpha 94.362609
_cell_angle_beta 59.569386
_cell_angle_gamma 119.247585
_cell_volume 558.630427
_symmetry_space_group_name_H-M "P -1"
_symmetry_group_IT_number 2
_symmetry_cell_setting 'triclinic'
loop_
_space_group_symop_operation_xyz
x,y,z
-x,-y,-z
loop_
_atom_site_type_symbol
_atom_site_label
_atom_site_fract_x
_atom_site_fract_y
_atom_site_fract_z
Si Si1 0.809990 0.466065 0.190876
Si Si2 0.641447 0.865995 0.113968
Si Si3 0.537118 0.650518 0.888186
Si Si4 0.995198 0.894094 0.629148
Si Si5 0.662755 0.186862 0.494840
Si Si6 0.958277 0.836869 0.134785
O O1 0.618946 0.401417 0.170305
O O2 0.743828 0.330952 0.342484
O O3 0.882388 0.655323 0.228077
O O4 0.000000 0.500000 0.000000
O O5 0.463316 0.796856 0.312124
O O6 0.795095 0.803927 0.086497
O O7 0.543436 0.793202 0.001188
O O8 0.809157 0.069103 0.032564
O O9 0.767997 0.734137 0.731801
O O10 0.500000 0.500000 0.000000
O O11 0.150812 0.829850 0.543126
O O12 0.044027 0.025019 0.747987
O O13 0.000000 0.000000 0.500000
O O14 0.500000 0.000000 0.500000
#
# Coordination Sequence:
#
# PCOD9030749 Si02
#       6
#     2   2   2   2   2   2
#     4  12  26  43  72 105 136 177 230 283 338 399
#     4  10  22  42  73  96 137 183 225 276 336 404
#     4  11  23  43  68  99 136 178 225 275 338 401
#     4  11  25  45  70  99 136 181 226 280 341 405
#     4  12  24  43  70 102 137 175 231 281 335 399
#     4  10  22  44  71  96 137 184 224 271 348 402
#
# _framework density 21.481107000000002
#
# number of rings (size 3 to 8) (size 9 to 14) (size 15 to 20)
#    0.000    1.000    3.333    3.000    2.333    3.333 
#    0.000    6.667    0.000    0.000    0.000    0.000 
#    0.000    0.000    0.000    0.000    0.000    0.000 
#
# Total GULP energy -67036.605883 kJ/mol
# GULP energy per Si atom -5586.383824 kJ/mol
# Density = 2.143222 g / cm^3
# Si number density = 21.481107 Si / 1000 Ang^3
#
#
#
# Elastic Constant Matrix: (Units=GPa)
#
#
# Indices 1 2 3 4 5 6 
#
# 1 144.5157 51.3258 78.9540 -26.1295 -6.1877 2.6075
# 2 51.3258 89.3699 46.7327 -41.5848 -4.9934 -4.4334
# 3 78.9540 46.7327 155.8475 -41.3029 -12.0283 -7.9058
# 4 -26.1295 -41.5848 -41.3029 48.5950 -4.1326 8.5053
# 5 -6.1877 -4.9934 -12.0283 -4.1326 38.6396 -10.1948
# 6 2.6075 -4.4334 -7.9058 8.5053 -10.1948 29.1853
#
#
#
# Elastic Compliance Matrix: (Units=1/GPa)
#
#
# Indices 1 2 3 4 5 6 
#
# 1 0.010953 -0.004933 -0.004879 -0.002084 -0.001398 -0.002931
# 2 -0.004933 0.021718 0.000815 0.016894 0.004211 0.000508
# 3 -0.004879 0.000815 0.011072 0.007339 0.004329 0.002932
# 4 -0.002084 0.016894 0.007339 0.041621 0.007310 -0.004835
# 5 -0.001398 0.004211 0.004329 0.007310 0.031150 0.010688
# 6 -0.002931 0.000508 0.002932 -0.004835 0.010688 0.040540
#
#
# Mechanical properties :
#
#
# Convention : Reuss Voigt Hill
#
# Bulk Modulus (GPa) = 38.83590 82.63979 60.73785
# Shear Modulus (GPa) = 27.22872 37.46536 32.34704
#
# Velocity S-wave (km/s) = 3.56415 4.18078 3.88472
# Velocity P-wave (km/s) = 5.92080 7.86509 6.96116
#
# Compressibility (1/GPa) = 0.02574937
#
# Stress axis : x y z
#
# Youngs Moduli (GPa) = 91.29797 46.04504 90.31950
#
# Poissons Ratio (x) = 0.22712 0.44065
# Poissons Ratio (y) = 0.45034 -0.07358
# Poissons Ratio (z) = 0.44543 -0.03751
#
# Static dielectric constant tensor:
#      x y z
#    x 2.065220 0.006520 -0.070630 
#    y 0.006520 1.872200 0.049120 
#    z -0.070630 0.049120 1.843570 
# 
# From -- ./inp_files/148857.got.cif
#   From: 2010.05.17/outbox.cif.g08.bks.cpg/sg2_75_cif.got.tgz:148857.got - 2010.06.03 11:33:40.
