data_PCOD9030471
_publ_section_title
;
Structure prediction by ZEFSAII (Michael W. Deem and Ramdas Pophale) SiO2 
 PCOD9030471
Probable space group: P -1
;
_chemical_formula_sum "Si O2"
_cell_formula_units_Z 14
_cell_length_a 13.719964
_cell_length_b 14.633505
_cell_length_c 8.874207
_cell_angle_alpha 50.129922
_cell_angle_beta 111.163509
_cell_angle_gamma 149.698973
_cell_volume 598.705369
_symmetry_space_group_name_H-M "P -1"
_symmetry_group_IT_number 2
_symmetry_cell_setting 'triclinic'
loop_
_space_group_symop_operation_xyz
x,y,z
-x,-y,-z
loop_
_atom_site_type_symbol
_atom_site_label
_atom_site_fract_x
_atom_site_fract_y
_atom_site_fract_z
Si Si1 0.318180 0.606150 0.141249
Si Si2 0.002231 0.482941 0.199778
Si Si3 0.604145 0.978457 0.128027
Si Si4 0.527287 0.755742 0.575503
Si Si5 0.033364 0.906285 0.689676
Si Si6 0.301272 0.982147 0.296410
Si Si7 0.024325 0.158432 0.914711
O O1 0.146792 0.507707 0.250631
O O2 0.500159 0.762755 0.207024
O O3 0.167952 0.371515 0.203720
O O4 0.485948 0.839516 0.873475
O O5 0.806623 0.245037 0.450723
O O6 0.000000 0.500000 0.000000
O O7 0.135714 0.734338 0.060958
O O8 0.542114 0.898518 0.351215
O O9 0.500000 0.000000 0.000000
O O10 0.284367 0.457366 0.733487
O O11 0.730491 0.898309 0.450497
O O12 0.599919 0.841061 0.697867
O O13 0.000000 0.000000 0.500000
O O14 0.026973 0.899442 0.873854
O O15 0.130834 0.898692 0.197998
O O16 0.000000 0.000000 0.000000
#
# Coordination Sequence:
#
# PCOD9030471 Si02
#       7
#     2   2   2   2   2   2   2
#     4  11  24  44  70 104 145 180 241 292 354 426
#     4  11  22  44  70 104 142 189 234 290 361 415
#     4  10  22  42  71 102 141 188 234 289 355 421
#     4  12  25  48  74 102 151 184 235 305 352 430
#     4  12  27  46  75 104 141 194 240 294 366 425
#     4  12  25  45  74 104 146 187 237 299 354 428
#     4  12  29  46  73 108 139 190 246 291 362 427
#
# _framework density 23.383790000000001
#
# number of rings (size 3 to 8) (size 9 to 14) (size 15 to 20)
#    0.000    0.571    4.286    3.429    4.000    2.857 
#    0.000    0.000    0.000    0.000    0.000    0.000 
#    0.000    0.000    0.000    0.000    0.000    0.000 
#
# Total GULP energy -78053.102889 kJ/mol
# GULP energy per Si atom -5575.221635 kJ/mol
# Density = 2.333057 g / cm^3
# Si number density = 23.383790 Si / 1000 Ang^3
#
#
#
# Elastic Constant Matrix: (Units=GPa)
#
#
# Indices 1 2 3 4 5 6 
#
# 1 69.1714 38.2964 40.4200 2.7443 -10.2898 -8.3607
# 2 38.2964 152.0171 45.6873 2.4420 11.1492 -8.2246
# 3 40.4200 45.6873 129.0234 -0.1289 -19.4667 15.8586
# 4 2.7443 2.4420 -0.1289 48.0662 4.9666 -3.1518
# 5 -10.2898 11.1492 -19.4667 4.9666 40.7983 5.4404
# 6 -8.3607 -8.2246 15.8586 -3.1518 5.4404 29.8990
#
#
#
# Elastic Compliance Matrix: (Units=1/GPa)
#
#
# Indices 1 2 3 4 5 6 
#
# 1 0.021107 -0.003246 -0.006048 -0.000799 0.002395 0.007697
# 2 -0.003246 0.009167 -0.003675 0.000613 -0.005776 0.004679
# 3 -0.006048 -0.003675 0.013474 -0.000953 0.007533 -0.011320
# 4 -0.000799 0.000613 -0.000953 0.021443 -0.003890 0.003419
# 5 0.002395 -0.005776 0.007533 -0.003890 0.032254 -0.011194
# 6 0.007697 0.004679 -0.011320 0.003419 -0.011194 0.045287
#
#
# Mechanical properties :
#
#
# Convention : Reuss Voigt Hill
#
# Bulk Modulus (GPa) = 56.15212 66.55769 61.35491
# Shear Modulus (GPa) = 28.63572 38.80658 33.72115
#
# Velocity S-wave (km/s) = 3.50322 4.07818 3.80158
# Velocity P-wave (km/s) = 6.35837 7.12042 6.75015
#
# Compressibility (1/GPa) = 0.01780877
#
# Stress axis : x y z
#
# Youngs Moduli (GPa) = 47.37864 109.08158 74.21784
#
# Poissons Ratio (x) = 0.35406 0.44889
# Poissons Ratio (y) = 0.15378 0.27278
# Poissons Ratio (z) = 0.28656 0.40092
#
# Static dielectric constant tensor:
#      x y z
#    x 1.590190 -0.638670 -0.255500 
#    y -0.638670 1.205990 -0.370920 
#    z -0.255500 -0.370920 1.767090 
# 
# From -- ./inp_files/314701.got.cif
#   From: 2010.05.17/outbox.cif.g08.bks.cpg/sg2_158_cif.got.tgz:314701.got - 2010.06.03 11:33:40.
