data_PCOD9030409
_publ_section_title
;
Structure prediction by ZEFSAII (Michael W. Deem and Ramdas Pophale) SiO2 
 PCOD9030409
Probable space group: P -1
;
_chemical_formula_sum "Si O2"
_cell_formula_units_Z 15
_cell_length_a 10.263691
_cell_length_b 15.337848
_cell_length_c 18.089571
_cell_angle_alpha 23.998041
_cell_angle_beta 45.283306
_cell_angle_gamma 32.817480
_cell_volume 600.517359
_symmetry_space_group_name_H-M "P -1"
_symmetry_group_IT_number 2
_symmetry_cell_setting 'triclinic'
loop_
_space_group_symop_operation_xyz
x,y,z
-x,-y,-z
loop_
_atom_site_type_symbol
_atom_site_label
_atom_site_fract_x
_atom_site_fract_y
_atom_site_fract_z
Si Si1 0.482658 0.760322 0.188150
Si Si2 0.521483 0.397770 0.330113
Si Si3 0.224217 0.479549 0.122493
Si Si4 0.500000 0.500000 0.500000
Si Si5 0.777731 0.560710 0.458837
Si Si6 0.913862 0.293725 0.837149
Si Si7 0.029438 0.193897 0.438959
Si Si8 0.220858 0.949232 0.712577
O O1 0.467094 0.665203 0.187631
O O2 0.306232 0.813769 0.281546
O O3 0.725718 0.424529 0.386159
O O4 0.500000 0.000000 0.000000
O O5 0.400578 0.315402 0.495467
O O6 0.376447 0.473924 0.252975
O O7 0.815659 0.120245 0.416660
O O8 0.077436 0.674431 0.103822
O O9 0.086705 0.371697 0.237025
O O10 0.506697 0.197610 0.253191
O O11 0.236868 0.678157 0.912694
O O12 0.600807 0.629927 0.408751
O O13 0.913843 0.670197 0.299594
O O14 0.010976 0.210326 0.649611
O O15 0.000000 0.000000 0.000000
O O16 0.140156 0.118634 0.535650
#
# Coordination Sequence:
#
# PCOD9030409 Si02
#       8
#     2   2   2   1   2   2   2   2
#     4  11  26  44  73 100 134 184 237 283 348 418
#     4  11  26  43  68 102 141 184 228 290 353 404
#     4  11  24  40  69 103 133 184 230 279 350 411
#     4  10  22  42  70  98 134 176 236 280 330 412
#     4  11  23  43  68  99 139 186 229 284 347 405
#     4  12  24  40  67 104 146 181 233 289 343 413
#     4  12  23  46  70  98 143 178 229 291 344 413
#     4  11  22  41  69  99 134 183 230 277 345 415
#
# _framework density 24.978463000000001
#
# number of rings (size 3 to 8) (size 9 to 14) (size 15 to 20)
#    0.000    0.800    4.000    2.800    7.467    2.133 
#    0.000    0.000    0.000    4.000    0.000    0.000 
#    0.000    0.000    0.000    0.000    0.000    0.000 
#
# Total GULP energy -83719.448592 kJ/mol
# GULP energy per Si atom -5581.296573 kJ/mol
# Density = 2.492161 g / cm^3
# Si number density = 24.978463 Si / 1000 Ang^3
#
#
#
# Elastic Constant Matrix: (Units=GPa)
#
#
# Indices 1 2 3 4 5 6 
#
# 1 82.8551 10.4496 23.8815 -4.7621 -24.4606 -15.2885
# 2 10.4496 92.1916 17.8909 -21.2675 1.1831 -12.8336
# 3 23.8815 17.8909 115.7253 15.3250 -37.3918 -10.2211
# 4 -4.7621 -21.2675 15.3250 42.0277 -7.6872 3.7720
# 5 -24.4606 1.1831 -37.3918 -7.6872 41.3981 -2.5855
# 6 -15.2885 -12.8336 -10.2211 3.7720 -2.5855 45.8088
#
#
#
# Elastic Compliance Matrix: (Units=1/GPa)
#
#
# Indices 1 2 3 4 5 6 
#
# 1 0.016536 -0.000602 0.000370 0.002929 0.011028 0.005814
# 2 -0.000602 0.013669 -0.003602 0.007525 -0.002474 0.002065
# 3 0.000370 -0.003602 0.014048 -0.004955 0.012299 0.003351
# 4 0.002929 0.007525 -0.004955 0.030255 0.002636 -0.000362
# 5 0.011028 -0.002474 0.012299 0.002636 0.042836 0.007932
# 6 0.005814 0.002065 0.003351 -0.000362 0.007932 0.025574
#
#
# Mechanical properties :
#
#
# Convention : Reuss Voigt Hill
#
# Bulk Modulus (GPa) = 27.33544 43.91289 35.62417
# Shear Modulus (GPa) = 30.71585 41.75024 36.23305
#
# Velocity S-wave (km/s) = 3.51050 4.09277 3.81277
# Velocity P-wave (km/s) = 5.23439 6.32083 5.80309
#
# Compressibility (1/GPa) = 0.03658254
#
# Stress axis : x y z
#
# Youngs Moduli (GPa) = 60.47543 73.15567 71.18601
#
# Poissons Ratio (x) = 0.04407 -0.02632
# Poissons Ratio (y) = 0.03643 0.25644
# Poissons Ratio (z) = -0.02236 0.26354
#
# Static dielectric constant tensor:
#      x y z
#    x 2.123510 0.158280 0.133310 
#    y 0.158280 3.084410 0.392260 
#    z 0.133310 0.392260 2.188880 
# 
# From -- ./inp_files/595932.got.cif
#   From: 2010.05.17/outbox.cif.g08.bks.cpg/sg2_298_cif.got.tgz:595932.got - 2010.06.03 11:33:40.
