data_PCOD9030714
_publ_section_title
;
Structure prediction by ZEFSAII (Michael W. Deem and Ramdas Pophale) SiO2 
 PCOD9030714
Probable space group: P -1
;
_chemical_formula_sum "Si O2"
_cell_formula_units_Z 16
_cell_length_a 21.144447
_cell_length_b 7.742832
_cell_length_c 22.982570
_cell_angle_alpha 144.783928
_cell_angle_beta 162.174562
_cell_angle_gamma 44.080433
_cell_volume 625.477539
_symmetry_space_group_name_H-M "P -1"
_symmetry_group_IT_number 2
_symmetry_cell_setting 'triclinic'
loop_
_space_group_symop_operation_xyz
x,y,z
-x,-y,-z
loop_
_atom_site_type_symbol
_atom_site_label
_atom_site_fract_x
_atom_site_fract_y
_atom_site_fract_z
Si Si1 0.148255 0.314933 0.525671
Si Si2 0.324165 0.884716 0.241294
Si Si3 0.773327 0.324709 0.063506
Si Si4 0.843638 0.668168 0.333564
Si Si5 0.291325 0.270925 0.993523
Si Si6 0.170974 0.346960 0.288419
Si Si7 0.384907 0.897816 0.551759
Si Si8 0.766510 0.316221 0.445960
O O1 0.251339 0.406632 0.705174
O O2 0.080103 0.614016 0.527931
O O3 0.281118 0.157338 0.556994
O O4 0.914483 0.037208 0.257516
O O5 0.311330 0.521271 0.132531
O O6 0.302380 0.099289 0.334967
O O7 0.530932 0.049922 0.426095
O O8 0.089562 0.836299 0.989241
O O9 0.747988 0.556716 0.052692
O O10 0.609756 0.982815 0.809349
O O11 0.719393 0.441903 0.110629
O O12 0.029514 0.366761 0.303704
O O13 0.150178 0.976733 0.573838
O O14 0.528411 0.236727 0.188370
O O15 0.228953 0.549435 0.335347
O O16 0.244656 0.614392 0.476088
#
# Coordination Sequence:
#
# PCOD9030714 Si02
#       8
#     2   2   2   2   2   2   2   2
#     4  11  24  43  69 103 141 182 236 282 349 415
#     4  10  22  42  73 102 136 183 227 286 355 413
#     4  11  25  44  65 103 137 183 235 280 347 408
#     4  11  25  43  67 101 140 189 235 282 343 415
#     4  11  24  45  70  99 140 182 231 294 344 413
#     4  11  21  44  71 102 139 181 230 286 349 415
#     4  11  21  43  70 102 143 178 226 288 344 420
#     4  12  24  45  70  97 142 184 234 289 343 409
#
# _framework density 25.580452999999999
#
# number of rings (size 3 to 8) (size 9 to 14) (size 15 to 20)
#    0.000    1.000    6.250    0.750    5.250    4.000 
#    0.000    0.000    0.000    1.500    0.000    0.000 
#    0.000    0.000    0.000    0.000    0.000    0.000 
#
# Total GULP energy -89451.741016 kJ/mol
# GULP energy per Si atom -5590.733813 kJ/mol
# Density = 2.552223 g / cm^3
# Si number density = 25.580453 Si / 1000 Ang^3
#
#
#
# Elastic Constant Matrix: (Units=GPa)
#
#
# Indices 1 2 3 4 5 6 
#
# 1 90.9085 30.9942 33.2293 -1.6348 9.0612 -9.1442
# 2 30.9942 92.3191 6.2489 -3.7306 18.2727 -21.6553
# 3 33.2293 6.2489 88.5501 -11.0238 26.0848 1.3554
# 4 -1.6348 -3.7306 -11.0238 40.5396 -12.3967 3.7893
# 5 9.0612 18.2727 26.0848 -12.3967 44.8738 -5.8624
# 6 -9.1442 -21.6553 1.3554 3.7893 -5.8624 38.5817
#
#
#
# Elastic Compliance Matrix: (Units=1/GPa)
#
#
# Indices 1 2 3 4 5 6 
#
# 1 0.014695 -0.004679 -0.006023 -0.000886 0.002392 0.001519
# 2 -0.004679 0.014848 0.002228 -0.000559 -0.005723 0.006332
# 3 -0.006023 0.002228 0.016300 0.001873 -0.008948 -0.002293
# 4 -0.000886 -0.000559 0.001873 0.027309 0.006565 -0.002274
# 5 0.002392 -0.005723 -0.008948 0.006565 0.031382 0.001793
# 6 0.001519 0.006332 -0.002293 -0.002274 0.001793 0.030409
#
#
# Mechanical properties :
#
#
# Convention : Reuss Voigt Hill
#
# Bulk Modulus (GPa) = 34.60870 45.85805 40.23337
# Shear Modulus (GPa) = 30.95542 38.21937 34.58740
#
# Velocity S-wave (km/s) = 3.48245 3.86953 3.68108
# Velocity P-wave (km/s) = 5.45240 6.15876 5.81631
#
# Compressibility (1/GPa) = 0.02889447
#
# Stress axis : x y z
#
# Youngs Moduli (GPa) = 68.04989 67.35131 61.34929
#
# Poissons Ratio (x) = 0.31514 0.36948
# Poissons Ratio (y) = 0.31841 -0.13666
# Poissons Ratio (z) = 0.40984 -0.15003
#
# Static dielectric constant tensor:
#      x y z
#    x 2.130890 0.024930 -0.015970 
#    y 0.024930 2.053320 -0.016350 
#    z -0.015970 -0.016350 2.032620 
# 
# From -- ./inp_files/613543.got.cif
#   From: 2010.05.17/outbox.cif.g08.bks.cpg/sg2_307_cif.got.tgz:613543.got - 2010.06.03 11:33:40.
