data_PCOD9030113
_publ_section_title
;
Structure prediction by ZEFSAII (Michael W. Deem and Ramdas Pophale) SiO2 
 PCOD9030113
Probable space group: P -1
;
_chemical_formula_sum "Si O2"
_cell_formula_units_Z 14
_cell_length_a 7.839996
_cell_length_b 7.183206
_cell_length_c 15.900221
_cell_angle_alpha 89.501263
_cell_angle_beta 145.051880
_cell_angle_gamma 90.707406
_cell_volume 512.899227
_symmetry_space_group_name_H-M "P -1"
_symmetry_group_IT_number 2
_symmetry_cell_setting 'triclinic'
loop_
_space_group_symop_operation_xyz
x,y,z
-x,-y,-z
loop_
_atom_site_type_symbol
_atom_site_label
_atom_site_fract_x
_atom_site_fract_y
_atom_site_fract_z
Si Si1 0.408067 0.317212 0.662191
Si Si2 0.781070 0.848678 0.165759
Si Si3 0.604998 0.292080 0.555505
Si Si4 0.483101 0.774029 0.888859
Si Si5 0.233070 0.123420 0.256540
Si Si6 0.957593 0.223276 0.993115
Si Si7 0.237227 0.735092 0.623248
O O1 0.539100 0.250095 0.626664
O O2 0.644617 0.285245 0.831019
O O3 0.342998 0.538032 0.629480
O O4 0.085831 0.224656 0.542260
O O5 0.042307 0.737214 0.317795
O O6 0.597101 0.004035 0.140887
O O7 0.557251 0.732692 0.016096
O O8 0.983864 0.973168 0.182416
O O9 0.500000 0.500000 0.500000
O O10 0.395754 0.176301 0.408396
O O11 0.228284 0.707563 0.721128
O O12 0.776626 0.704539 0.959146
O O13 0.515348 0.114130 0.306350
O O14 0.037519 0.268298 0.121573
O O15 0.000000 0.000000 0.000000
#
# Coordination Sequence:
#
# PCOD9030113 Si02
#       7
#     2   2   2   2   2   2   2
#     4  11  23  46  67  97 144 174 222 282 335 401
#     4  11  23  43  70  99 140 174 222 286 331 400
#     4  12  24  43  67 100 137 180 222 274 335 401
#     4  10  22  42  69  97 133 176 224 273 338 395
#     4  11  23  42  69 103 131 177 226 272 340 397
#     4  11  22  42  68  99 132 177 225 276 328 402
#     4  10  24  42  70 100 134 180 223 275 342 400
#
# _framework density 27.295808999999998
#
# number of rings (size 3 to 8) (size 9 to 14) (size 15 to 20)
#    0.000    1.143    4.286    1.286    0.000    5.714 
#    0.000    5.000    0.000    7.714    0.000    0.000 
#    0.000    0.000    0.000    0.000    0.000    0.000 
#
# Total GULP energy -78278.255926 kJ/mol
# GULP energy per Si atom -5591.303995 kJ/mol
# Density = 2.723368 g / cm^3
# Si number density = 27.295809 Si / 1000 Ang^3
#
#
#
# Elastic Constant Matrix: (Units=GPa)
#
#
# Indices 1 2 3 4 5 6 
#
# 1 98.5234 18.9322 65.6158 1.7665 1.3921 -11.3804
# 2 18.9322 63.1951 39.6660 -8.6535 12.4400 -6.1164
# 3 65.6158 39.6660 245.6714 -34.1903 -0.2595 -23.1152
# 4 1.7665 -8.6535 -34.1903 41.8652 -18.4590 -1.4431
# 5 1.3921 12.4400 -0.2595 -18.4590 59.8007 8.5355
# 6 -11.3804 -6.1164 -23.1152 -1.4431 8.5355 36.9310
#
#
#
# Elastic Compliance Matrix: (Units=1/GPa)
#
#
# Indices 1 2 3 4 5 6 
#
# 1 0.013291 -0.001782 -0.003758 -0.004659 -0.001628 0.001643
# 2 -0.001782 0.018874 -0.002333 0.000341 -0.004086 0.002074
# 3 -0.003758 -0.002333 0.006502 0.006004 0.002131 0.002267
# 4 -0.004659 0.000341 0.006004 0.033623 0.010253 0.001323
# 5 -0.001628 -0.004086 0.002131 0.010253 0.021411 -0.004393
# 6 0.001643 0.002074 0.002267 0.001323 -0.004393 0.030413
#
#
# Mechanical properties :
#
#
# Convention : Reuss Voigt Hill
#
# Bulk Modulus (GPa) = 43.62671 72.86867 58.24769
# Shear Modulus (GPa) = 33.89816 46.59779 40.24798
#
# Velocity S-wave (km/s) = 3.52786 4.13624 3.84410
# Velocity P-wave (km/s) = 5.71069 7.04025 6.41004
#
# Compressibility (1/GPa) = 0.02292174
#
# Stress axis : x y z
#
# Youngs Moduli (GPa) = 75.23780 52.98296 153.79836
#
# Poissons Ratio (x) = 0.09440 0.57794
# Poissons Ratio (y) = 0.13405 0.35885
# Poissons Ratio (z) = 0.28273 0.12362
#
# Static dielectric constant tensor:
#      x y z
#    x 2.150820 0.047670 -0.033470 
#    y 0.047670 2.204100 0.007410 
#    z -0.033470 0.007410 2.137220 
# 
# From -- ./inp_files/283430.got.cif
#   From: 2010.05.17/outbox.cif.g08.bks.cpg/sg2_142_cif.got.tgz:283430.got - 2010.06.03 11:33:40.
