data_PCOD9030822
_publ_section_title
;
Structure prediction by ZEFSAII (Michael W. Deem and Ramdas Pophale) SiO2 
 PCOD9030822
Probable space group: P -1
;
_chemical_formula_sum "Si O2"
_cell_formula_units_Z 13
_cell_length_a 8.667725
_cell_length_b 11.871130
_cell_length_c 8.561476
_cell_angle_alpha 100.610744
_cell_angle_beta 68.876696
_cell_angle_gamma 52.819542
_cell_volume 550.715361
_symmetry_space_group_name_H-M "P -1"
_symmetry_group_IT_number 2
_symmetry_cell_setting 'triclinic'
loop_
_space_group_symop_operation_xyz
x,y,z
-x,-y,-z
loop_
_atom_site_type_symbol
_atom_site_label
_atom_site_fract_x
_atom_site_fract_y
_atom_site_fract_z
Si Si1 0.284627 0.877783 0.346888
Si Si2 0.113026 0.135135 0.234679
Si Si3 0.988791 0.624794 0.443095
Si Si4 0.000000 0.000000 0.000000
Si Si5 0.835354 0.753037 0.052617
Si Si6 0.720365 0.544146 0.023142
Si Si7 0.576860 0.093050 0.362312
O O1 0.375519 0.872139 0.480568
O O2 0.431214 0.692182 0.184592
O O3 0.000000 0.000000 0.500000
O O4 0.296955 0.971639 0.235882
O O5 0.980869 0.106586 0.172683
O O6 0.957050 0.293432 0.447526
O O7 0.214391 0.174914 0.083295
O O8 0.706359 0.773840 0.534982
O O9 0.000000 0.500000 0.500000
O O10 0.166547 0.534508 0.207322
O O11 0.731037 0.083036 0.171843
O O12 0.769868 0.653836 0.068183
O O13 0.123720 0.610145 0.952342
O O14 0.702083 0.904696 0.259493
#
# Coordination Sequence:
#
# PCOD9030822 Si02
#       7
#     2   2   2   1   2   2   2
#     4  12  26  46  74 104 146 200 241 294 370 447
#     4  11  24  47  74 109 141 194 247 292 364 433
#     4  12  26  43  74 114 144 188 249 309 358 424
#     4  10  24  44  76 102 144 196 244 290 354 448
#     4  10  22  42  75 104 139 191 237 306 358 420
#     4  11  24  44  69 108 148 180 244 307 360 423
#     4  11  24  46  72 106 148 194 245 298 365 429
#
# _framework density 23.60566
#
# number of rings (size 3 to 8) (size 9 to 14) (size 15 to 20)
#    0.000    0.923    3.077    3.692    4.308    4.923 
#    0.000    7.692    0.000    0.000    0.000    0.000 
#    0.000    0.000    0.000    0.000    0.000    0.000 
#
# Total GULP energy -72456.478095 kJ/mol
# GULP energy per Si atom -5573.575238 kJ/mol
# Density = 2.355193 g / cm^3
# Si number density = 23.605660 Si / 1000 Ang^3
#
#
#
# Elastic Constant Matrix: (Units=GPa)
#
#
# Indices 1 2 3 4 5 6 
#
# 1 91.5205 2.1231 60.2452 18.8758 18.8022 1.9001
# 2 2.1231 134.2842 58.1374 11.1848 -2.3101 -15.6100
# 3 60.2452 58.1374 202.9751 23.4256 10.6819 -10.6899
# 4 18.8758 11.1848 23.4256 48.9176 6.8298 -1.4846
# 5 18.8022 -2.3101 10.6819 6.8298 54.4491 7.4596
# 6 1.9001 -15.6100 -10.6899 -1.4846 7.4596 15.3983
#
#
#
# Elastic Compliance Matrix: (Units=1/GPa)
#
#
# Indices 1 2 3 4 5 6 
#
# 1 0.015447 0.001761 -0.004567 -0.003726 -0.003637 -0.001888
# 2 0.001761 0.009581 -0.002679 -0.001269 -0.000585 0.007796
# 3 -0.004567 -0.002679 0.007336 -0.001013 -0.000255 0.002967
# 4 -0.003726 -0.001269 -0.001013 0.022930 -0.001648 0.001479
# 5 -0.003637 -0.000585 -0.000255 -0.001648 0.021336 -0.010816
# 6 -0.001888 0.007796 0.002967 0.001479 -0.010816 0.080521
#
#
# Mechanical properties :
#
#
# Convention : Reuss Voigt Hill
#
# Bulk Modulus (GPa) = 46.74229 74.42124 60.58177
# Shear Modulus (GPa) = 28.53024 44.30458 36.41741
#
# Velocity S-wave (km/s) = 3.48029 4.33698 3.93203
# Velocity P-wave (km/s) = 5.99952 7.52824 6.80693
#
# Compressibility (1/GPa) = 0.02139390
#
# Stress axis : x y z
#
# Youngs Moduli (GPa) = 64.73695 104.37427 136.30862
#
# Poissons Ratio (x) = -0.18385 0.62258
# Poissons Ratio (y) = -0.11403 0.36519
# Poissons Ratio (z) = 0.29568 0.27964
#
# Static dielectric constant tensor:
#      x y z
#    x 1.944580 -0.013040 -0.091590 
#    y -0.013040 1.922250 0.004160 
#    z -0.091590 0.004160 1.946230 
# 
# From -- ./inp_files/180010.got.cif
#   From: 2010.05.17/outbox.cif.g08.bks.cpg/sg2_91_cif.got.tgz:180010.got - 2010.06.03 11:33:40.
