data_PCOD9030920
_publ_section_title
;
Structure prediction by ZEFSAII (Michael W. Deem and Ramdas Pophale) SiO2 
 PCOD9030920
Probable space group: P -1
;
_chemical_formula_sum "Si O2"
_cell_formula_units_Z 14
_cell_length_a 20.019623
_cell_length_b 21.377089
_cell_length_c 9.010883
_cell_angle_alpha 32.955149
_cell_angle_beta 148.564095
_cell_angle_gamma 159.478364
_cell_volume 687.964933
_symmetry_space_group_name_H-M "P -1"
_symmetry_group_IT_number 2
_symmetry_cell_setting 'triclinic'
loop_
_space_group_symop_operation_xyz
x,y,z
-x,-y,-z
loop_
_atom_site_type_symbol
_atom_site_label
_atom_site_fract_x
_atom_site_fract_y
_atom_site_fract_z
Si Si1 0.128335 0.357691 0.777231
Si Si2 0.321346 0.702227 0.120105
Si Si3 0.893725 0.392092 0.792738
Si Si4 0.149414 0.007453 0.838321
Si Si5 0.558541 0.605104 0.251344
Si Si6 0.657564 0.529337 0.326657
Si Si7 0.617120 0.029098 0.806971
O O1 0.084485 0.460988 0.511835
O O2 0.149346 0.349851 0.656285
O O3 0.349005 0.489018 0.004226
O O4 0.974251 0.164468 0.947712
O O5 0.236967 0.695643 0.126964
O O6 0.436422 0.663524 0.450444
O O7 0.452765 0.880461 0.917043
O O8 0.123572 0.519923 0.016734
O O9 0.778482 0.232048 0.776080
O O10 0.317304 0.194626 0.875028
O O11 0.264171 0.004665 0.945606
O O12 0.000000 0.000000 0.500000
O O13 0.500000 0.500000 0.500000
O O14 0.687584 0.610868 0.378559
O O15 0.500000 0.500000 0.000000
O O16 0.500000 0.000000 0.500000
#
# Coordination Sequence:
#
# PCOD9030920 Si02
#       7
#     2   2   2   2   2   2   2
#     4  10  22  43  62  91 130 161 221 270 319 389
#     4  10  22  43  68  96 129 166 224 273 326 392
#     4  10  23  43  69  96 126 173 218 276 328 390
#     4  12  26  39  62  98 129 170 219 266 320 385
#     4  11  21  39  63  88 129 170 208 263 329 381
#     4   9  21  39  65  92 124 173 209 264 329 383
#     4  12  26  42  67  99 134 176 219 268 333 395
#
# _framework density 20.349875000000001
#
# number of rings (size 3 to 8) (size 9 to 14) (size 15 to 20)
#    0.000    1.429    1.429    3.000    4.000    4.000 
#    0.000    8.571    0.000    0.000    0.000    0.000 
#    0.000    0.000    0.000    0.000    0.000    0.000 
#
# Total GULP energy -78217.580360 kJ/mol
# GULP energy per Si atom -5586.970026 kJ/mol
# Density = 2.030356 g / cm^3
# Si number density = 20.349875 Si / 1000 Ang^3
#
#
#
# Elastic Constant Matrix: (Units=GPa)
#
#
# Indices 1 2 3 4 5 6 
#
# 1 83.9976 45.4179 22.3805 -13.0210 1.6530 -17.1976
# 2 45.4179 116.3146 15.0181 -17.3297 -6.4583 -8.1599
# 3 22.3805 15.0181 96.8359 -7.1387 -2.3439 6.8335
# 4 -13.0210 -17.3297 -7.1387 35.4124 5.8038 -7.9410
# 5 1.6530 -6.4583 -2.3439 5.8038 36.0375 -7.2230
# 6 -17.1976 -8.1599 6.8335 -7.9410 -7.2230 29.9855
#
#
#
# Elastic Compliance Matrix: (Units=1/GPa)
#
#
# Indices 1 2 3 4 5 6 
#
# 1 0.019336 -0.005235 -0.004048 0.006575 -0.000710 0.012158
# 2 -0.005235 0.011460 -0.000366 0.003650 0.002013 0.001651
# 3 -0.004048 -0.000366 0.011650 -0.000475 -0.000093 -0.005224
# 4 0.006575 0.003650 -0.000475 0.035866 -0.002705 0.013719
# 5 -0.000710 0.002013 -0.000093 -0.002705 0.029904 0.006649
# 6 0.012158 0.001651 -0.005224 0.013719 0.006649 0.047197
#
#
# Mechanical properties :
#
#
# Convention : Reuss Voigt Hill
#
# Bulk Modulus (GPa) = 43.19670 51.42011 47.30840
# Shear Modulus (GPa) = 27.40799 34.57588 30.99193
#
# Velocity S-wave (km/s) = 3.67391 4.12645 3.90674
# Velocity P-wave (km/s) = 6.26657 6.93010 6.60667
#
# Compressibility (1/GPa) = 0.02314992
#
# Stress axis : x y z
#
# Youngs Moduli (GPa) = 51.71591 87.25924 85.83386
#
# Poissons Ratio (x) = 0.45677 0.34742
# Poissons Ratio (y) = 0.27071 0.03143
# Poissons Ratio (z) = 0.20933 0.03196
#
# Static dielectric constant tensor:
#      x y z
#    x 1.767050 0.019050 0.024280 
#    y 0.019050 1.686240 0.036130 
#    z 0.024280 0.036130 1.761670 
# 
# From -- ./inp_files/319540.got.cif
#   From: 2010.05.17/outbox.cif.g08.bks.cpg/sg2_160_cif.got.tgz:319540.got - 2010.06.03 11:33:40.
