data_PCOD9030620
_publ_section_title
;
Structure prediction by ZEFSAII (Michael W. Deem and Ramdas Pophale) SiO2 
 PCOD9030620
Probable space group: P -1
;
_chemical_formula_sum "Si O2"
_cell_formula_units_Z 15
_cell_length_a 9.462539
_cell_length_b 11.817452
_cell_length_c 9.623931
_cell_angle_alpha 71.811778
_cell_angle_beta 131.659782
_cell_angle_gamma 130.397443
_cell_volume 598.852557
_symmetry_space_group_name_H-M "P -1"
_symmetry_group_IT_number 2
_symmetry_cell_setting 'triclinic'
loop_
_space_group_symop_operation_xyz
x,y,z
-x,-y,-z
loop_
_atom_site_type_symbol
_atom_site_label
_atom_site_fract_x
_atom_site_fract_y
_atom_site_fract_z
Si Si1 0.764370 0.667156 0.379270
Si Si2 0.095268 0.538148 0.201838
Si Si3 0.177469 0.647030 0.655725
Si Si4 0.421680 0.888391 0.360405
Si Si5 0.500000 0.500000 0.500000
Si Si6 0.853027 0.886145 0.572686
Si Si7 0.955573 0.105948 0.010321
Si Si8 0.370848 0.323704 0.008645
O O1 0.554460 0.493794 0.351375
O O2 0.735778 0.721935 0.491555
O O3 0.036555 0.719418 0.523822
O O4 0.719733 0.732053 0.190575
O O5 0.225126 0.703074 0.295992
O O6 0.282821 0.504971 0.329735
O O7 0.872852 0.413968 0.198284
O O8 0.000000 0.500000 0.000000
O O9 0.454892 0.711766 0.799509
O O10 0.000000 0.500000 0.500000
O O11 0.658419 0.908131 0.472193
O O12 0.500000 0.000000 0.500000
O O13 0.305863 0.937614 0.160145
O O14 0.987267 0.894530 0.792792
O O15 0.000000 0.000000 0.500000
O O16 0.144418 0.256620 0.986590
O O17 0.000000 0.000000 0.000000
O O18 0.500000 0.500000 0.000000
#
# Coordination Sequence:
#
# PCOD9030620 Si02
#       8
#     2   2   2   2   1   2   2   2
#     4  11  25  42  70 108 149 194 259 324 393 460
#     4  11  25  45  74 113 150 198 263 325 396 467
#     4  11  25  41  69 111 150 202 251 325 399 469
#     4  12  28  50  82 113 158 214 268 330 403 490
#     4  10  22  42  72 104 152 198 242 326 392 450
#     4  12  29  51  78 111 155 204 269 332 398 478
#     4  12  29  50  79 111 155 216 266 326 405 490
#     4  12  26  45  74 113 156 200 266 332 397 477
#
# _framework density 25.047899999999998
#
# number of rings (size 3 to 8) (size 9 to 14) (size 15 to 20)
#    0.000    0.533    4.000    2.400    7.467    1.600 
#    0.000    0.000    0.000    0.000    0.000    0.000 
#    0.000    0.000    0.000    0.000    0.000    0.000 
#
# Total GULP energy -83534.574257 kJ/mol
# GULP energy per Si atom -5568.971617 kJ/mol
# Density = 2.499089 g / cm^3
# Si number density = 25.047900 Si / 1000 Ang^3
#
#
#
# Elastic Constant Matrix: (Units=GPa)
#
#
# Indices 1 2 3 4 5 6 
#
# 1 124.5191 21.4194 78.4188 -7.8422 23.4961 -26.1547
# 2 21.4194 86.4238 23.5559 -4.3981 -0.1201 -12.8370
# 3 78.4188 23.5559 198.9037 -14.9546 -6.0697 -13.1210
# 4 -7.8422 -4.3981 -14.9546 26.8119 -9.1855 -6.5126
# 5 23.4961 -0.1201 -6.0697 -9.1855 57.2627 -15.1589
# 6 -26.1547 -12.8370 -13.1210 -6.5126 -15.1589 44.1819
#
#
#
# Elastic Compliance Matrix: (Units=1/GPa)
#
#
# Indices 1 2 3 4 5 6 
#
# 1 0.013140 -0.001263 -0.004851 0.000406 -0.004671 0.004428
# 2 -0.001263 0.012764 -0.000450 0.003151 0.002061 0.003999
# 3 -0.004851 -0.000450 0.007505 0.004265 0.003774 0.001150
# 4 0.000406 0.003151 0.004265 0.047472 0.011440 0.013345
# 5 -0.004671 0.002061 0.003774 0.011440 0.023966 0.008863
# 6 0.004428 0.003999 0.001150 0.013345 0.008863 0.031767
#
#
# Mechanical properties :
#
#
# Convention : Reuss Voigt Hill
#
# Bulk Modulus (GPa) = 49.30588 72.95941 61.13264
# Shear Modulus (GPa) = 31.94845 44.74814 38.34829
#
# Velocity S-wave (km/s) = 3.57528 4.23129 3.91704
# Velocity P-wave (km/s) = 6.06390 7.28443 6.70201
#
# Compressibility (1/GPa) = 0.02028156
#
# Stress axis : x y z
#
# Youngs Moduli (GPa) = 76.10206 78.34705 133.24253
#
# Poissons Ratio (x) = 0.09892 0.64636
# Poissons Ratio (y) = 0.09608 0.05999
# Poissons Ratio (z) = 0.36917 0.03527
#
# Static dielectric constant tensor:
#      x y z
#    x 2.113520 -0.066040 -0.266890 
#    y -0.066040 1.615610 -0.196140 
#    z -0.266890 -0.196140 2.092080 
# 
# From -- ./inp_files/187145.got.cif
#   From: 2010.05.17/outbox.cif.g08.bks.cpg/sg2_94_cif.got.tgz:187145.got - 2010.06.03 11:33:40.
