data_PCOD9030108
_publ_section_title
;
Structure prediction by ZEFSAII (Michael W. Deem and Ramdas Pophale) SiO2 
 PCOD9030108
Probable space group: P -1
;
_chemical_formula_sum "Si O2"
_cell_formula_units_Z 12
_cell_length_a 15.822966
_cell_length_b 9.422186
_cell_length_c 8.766045
_cell_angle_alpha 121.961376
_cell_angle_beta 66.716629
_cell_angle_gamma 152.473345
_cell_volume 503.191492
_symmetry_space_group_name_H-M "P -1"
_symmetry_group_IT_number 2
_symmetry_cell_setting 'triclinic'
loop_
_space_group_symop_operation_xyz
x,y,z
-x,-y,-z
loop_
_atom_site_type_symbol
_atom_site_label
_atom_site_fract_x
_atom_site_fract_y
_atom_site_fract_z
Si Si1 0.206684 0.276184 0.963597
Si Si2 0.309363 0.755589 0.576625
Si Si3 0.467840 0.993282 0.191844
Si Si4 0.078417 0.993643 0.565653
Si Si5 0.791664 0.077206 0.091459
Si Si6 0.787131 0.120407 0.765466
O O1 0.199653 0.244023 0.766318
O O2 0.250819 0.173130 0.958548
O O3 0.340120 0.634856 0.127353
O O4 0.000000 0.000000 0.000000
O O5 0.293958 0.924527 0.730610
O O6 0.111732 0.387292 0.442855
O O7 0.500000 0.000000 0.500000
O O8 0.338586 0.708141 0.689867
O O9 0.360231 0.996948 0.283558
O O10 0.500000 0.000000 0.000000
O O11 0.180850 0.007154 0.408635
O O12 0.000000 0.000000 0.500000
O O13 0.014485 0.467845 0.148845
O O14 0.730594 0.009202 0.920502
#
# Coordination Sequence:
#
# PCOD9030108 Si02
#       6
#     2   2   2   2   2   2
#     4  12  24  42  72 100 130 173 234 270 319 405
#     4  11  25  42  66  99 141 167 214 282 341 380
#     4  12  24  45  68  99 135 178 214 276 343 386
#     4  11  25  45  70  97 131 179 229 268 321 404
#     4  10  22  42  69  97 130 182 223 266 330 402
#     4  10  22  43  72  93 135 179 225 263 335 403
#
# _framework density 23.84778
#
# number of rings (size 3 to 8) (size 9 to 14) (size 15 to 20)
#    0.000    1.000    3.333    3.000    4.667    2.000 
#    3.000    1.667    0.000    0.000    0.000    0.000 
#    0.000    0.000    0.000    0.000    0.000    0.000 
#
# Total GULP energy -67143.993861 kJ/mol
# GULP energy per Si atom -5595.332822 kJ/mol
# Density = 2.379350 g / cm^3
# Si number density = 23.847780 Si / 1000 Ang^3
#
#
#
# Elastic Constant Matrix: (Units=GPa)
#
#
# Indices 1 2 3 4 5 6 
#
# 1 157.6674 19.4824 23.3466 17.3113 -34.8642 -18.9451
# 2 19.4824 72.8699 24.8511 -0.0018 -19.5009 -8.0673
# 3 23.3466 24.8511 106.7035 7.8113 -8.6656 -8.1934
# 4 17.3113 -0.0018 7.8113 35.2626 12.8848 6.8776
# 5 -34.8642 -19.5009 -8.6656 12.8848 41.9604 -5.7097
# 6 -18.9451 -8.0673 -8.1934 6.8776 -5.7097 36.8324
#
#
#
# Elastic Compliance Matrix: (Units=1/GPa)
#
#
# Indices 1 2 3 4 5 6 
#
# 1 0.014062 0.003247 0.000197 -0.017236 0.020483 0.014381
# 2 0.003247 0.018606 -0.002592 -0.008055 0.014497 0.008920
# 3 0.000197 -0.002592 0.010707 -0.004125 0.002863 0.003129
# 4 -0.017236 -0.008055 -0.004125 0.058207 -0.040699 -0.028726
# 5 0.020483 0.014497 0.002863 -0.040699 0.065035 0.032029
# 6 0.014381 0.008920 0.003129 -0.028726 0.032029 0.047526
#
#
# Mechanical properties :
#
#
# Convention : Reuss Voigt Hill
#
# Bulk Modulus (GPa) = 22.18386 52.51121 37.34753
# Shear Modulus (GPa) = 21.98132 40.78180 31.38156
#
# Velocity S-wave (km/s) = 3.03930 4.13981 3.63148
# Velocity P-wave (km/s) = 4.65177 6.70207 5.76874
#
# Compressibility (1/GPa) = 0.04507782
#
# Stress axis : x y z
#
# Youngs Moduli (GPa) = 71.11402 53.74689 93.39651
#
# Poissons Ratio (x) = -0.17449 -0.01837
# Poissons Ratio (y) = -0.23087 0.24205
# Poissons Ratio (z) = -0.01399 0.13929
#
# Static dielectric constant tensor:
#      x y z
#    x 1.962910 -0.126580 0.019210 
#    y -0.126580 1.986030 -0.092080 
#    z 0.019210 -0.092080 1.836560 
# 
# From -- ./inp_files/144960.got.cif
#   From: 2010.05.17/outbox.cif.g08.bks.cpg/sg2_73_cif.got.tgz:144960.got - 2010.06.03 11:33:40.
