data_PCOD9030771
_publ_section_title
;
Structure prediction by ZEFSAII (Michael W. Deem and Ramdas Pophale) SiO2 
 PCOD9030771
Probable space group: P -1
;
_chemical_formula_sum "Si O2"
_cell_formula_units_Z 15
_cell_length_a 9.045780
_cell_length_b 13.406539
_cell_length_c 8.497430
_cell_angle_alpha 62.892919
_cell_angle_beta 133.067766
_cell_angle_gamma 125.195787
_cell_volume 611.870518
_symmetry_space_group_name_H-M "P -1"
_symmetry_group_IT_number 2
_symmetry_cell_setting 'triclinic'
loop_
_space_group_symop_operation_xyz
x,y,z
-x,-y,-z
loop_
_atom_site_type_symbol
_atom_site_label
_atom_site_fract_x
_atom_site_fract_y
_atom_site_fract_z
Si Si1 0.347352 0.020520 0.008814
Si Si2 0.879931 0.821382 0.844803
Si Si3 0.392853 0.690736 0.593630
Si Si4 0.598229 0.292274 0.035953
Si Si5 0.670346 0.574305 0.377741
Si Si6 0.950442 0.214558 0.694711
Si Si7 0.054263 0.381675 0.153723
Si Si8 0.500000 0.000000 0.500000
O O1 0.406740 0.995420 0.249244
O O2 0.089077 0.935518 0.849640
O O3 0.500000 0.000000 0.000000
O O4 0.404294 0.164084 0.940918
O O5 0.627806 0.802843 0.641259
O O6 0.897351 0.696228 0.891468
O O7 0.912937 0.826665 0.051841
O O8 0.368182 0.560205 0.610749
O O9 0.192343 0.720649 0.366822
O O10 0.383386 0.687747 0.778193
O O11 0.538112 0.396907 0.839048
O O12 0.825644 0.293460 0.135410
O O13 0.876965 0.678928 0.362596
O O14 0.744600 0.587830 0.601263
O O15 0.751496 0.098779 0.557727
O O16 0.000000 0.500000 0.000000
#
# Coordination Sequence:
#
# PCOD9030771 Si02
#       8
#     2   2   2   2   2   2   2   1
#     4  11  23  48  74 105 146 188 240 298 365 433
#     4  11  26  43  71 104 140 178 239 296 350 425
#     4  12  24  43  70 104 136 185 240 289 348 428
#     4  12  25  45  74 101 141 187 237 297 359 424
#     4  12  26  43  72 103 141 186 243 284 358 431
#     4  11  23  42  72 101 136 185 236 287 351 417
#     4  12  26  45  68 102 145 185 230 297 362 423
#     4  10  22  42  74 102 134 188 246 282 354 432
#
# _framework density 24.514990999999998
#
# number of rings (size 3 to 8) (size 9 to 14) (size 15 to 20)
#    0.000    0.533    5.333    2.400    1.867    4.800 
#    0.000    0.667    0.000    0.000    0.000    0.000 
#    0.000    0.000    0.000    0.000    0.000    0.000 
#
# Total GULP energy -83763.759647 kJ/mol
# GULP energy per Si atom -5584.250643 kJ/mol
# Density = 2.445919 g / cm^3
# Si number density = 24.514991 Si / 1000 Ang^3
#
#
#
# Elastic Constant Matrix: (Units=GPa)
#
#
# Indices 1 2 3 4 5 6 
#
# 1 102.6492 4.2927 16.4883 16.6549 15.1197 20.9830
# 2 4.2927 89.2733 -3.4894 13.9301 -7.1810 14.6188
# 3 16.4883 -3.4894 66.5212 12.9663 14.7160 0.5999
# 4 16.6549 13.9301 12.9663 37.7856 3.3714 9.0696
# 5 15.1197 -7.1810 14.7160 3.3714 36.7596 4.1845
# 6 20.9830 14.6188 0.5999 9.0696 4.1845 46.5696
#
#
#
# Elastic Compliance Matrix: (Units=1/GPa)
#
#
# Indices 1 2 3 4 5 6 
#
# 1 0.011955 0.000378 -0.001458 -0.003525 -0.003425 -0.004492
# 2 0.000378 0.012735 0.000875 -0.004562 0.002804 -0.003543
# 3 -0.001458 0.000875 0.017879 -0.005708 -0.006069 0.001809
# 4 -0.003525 -0.004562 -0.005708 0.032416 0.000240 -0.003241
# 5 -0.003425 0.002804 -0.006069 0.000240 0.031814 -0.002164
# 6 -0.004492 -0.003543 0.001809 -0.003241 -0.002164 0.025412
#
#
# Mechanical properties :
#
#
# Convention : Reuss Voigt Hill
#
# Bulk Modulus (GPa) = 23.71941 32.55856 28.13898
# Shear Modulus (GPa) = 34.08931 40.29975 37.19453
#
# Velocity S-wave (km/s) = 3.73305 4.05888 3.89937
# Velocity P-wave (km/s) = 5.31765 5.93935 5.63708
#
# Compressibility (1/GPa) = 0.04215957
#
# Stress axis : x y z
#
# Youngs Moduli (GPa) = 83.64728 78.52340 55.93134
#
# Poissons Ratio (x) = -0.02970 0.08156
# Poissons Ratio (y) = -0.03164 -0.04895
# Poissons Ratio (z) = 0.12197 -0.06872
#
# Static dielectric constant tensor:
#      x y z
#    x 1.960510 0.114520 0.010240 
#    y 0.114520 1.924510 -0.033050 
#    z 0.010240 -0.033050 1.896880 
# 
# From -- ./inp_files/186246.got.cif
#   From: 2010.05.17/outbox.cif.g08.bks.cpg/sg2_94_cif.got.tgz:186246.got - 2010.06.03 11:33:40.
