data_PCOD9030759
_publ_section_title
;
Structure prediction by ZEFSAII (Michael W. Deem and Ramdas Pophale) SiO2 
 PCOD9030759
Probable space group: P -1
;
_chemical_formula_sum "Si O2"
_cell_formula_units_Z 16
_cell_length_a 9.437217
_cell_length_b 9.329697
_cell_length_c 14.405309
_cell_angle_alpha 117.889160
_cell_angle_beta 139.541734
_cell_angle_gamma 75.699885
_cell_volume 714.189475
_symmetry_space_group_name_H-M "P -1"
_symmetry_group_IT_number 2
_symmetry_cell_setting 'triclinic'
loop_
_space_group_symop_operation_xyz
x,y,z
-x,-y,-z
loop_
_atom_site_type_symbol
_atom_site_label
_atom_site_fract_x
_atom_site_fract_y
_atom_site_fract_z
Si Si1 0.242781 0.465173 0.625645
Si Si2 0.063716 0.169349 0.138591
Si Si3 0.056353 0.663277 0.137699
Si Si4 0.187673 0.089247 0.549210
Si Si5 0.750533 0.997896 0.652995
Si Si6 0.413171 0.749592 0.098560
Si Si7 0.609260 0.511676 0.658078
Si Si8 0.398412 0.373949 0.024634
O O1 0.198658 0.284680 0.596212
O O2 0.415210 0.473375 0.627402
O O3 0.375193 0.607944 0.800805
O O4 0.000000 0.500000 0.500000
O O5 0.232978 0.307014 0.206535
O O6 0.181324 0.137735 0.285531
O O7 0.824951 0.222845 0.047323
O O8 0.000000 0.000000 0.000000
O O9 0.182345 0.829760 0.205675
O O10 0.222713 0.616213 0.284238
O O11 0.000000 0.500000 0.000000
O O12 0.827552 0.712403 0.068574
O O13 0.435711 0.103279 0.722437
O O14 0.147966 0.010733 0.402734
O O15 0.000000 0.000000 0.500000
O O16 0.500000 0.000000 0.500000
O O17 0.366002 0.565736 0.064090
O O18 0.570047 0.713188 0.081478
O O19 0.500000 0.500000 0.500000
#
# Coordination Sequence:
#
# PCOD9030759 Si02
#       8
#     2   2   2   2   2   2   2   2
#     4  11  26  43  72 105 146 191 247 300 368 446
#     4  12  26  45  73 110 150 190 244 308 368 437
#     4  12  23  45  72 100 136 194 252 291 359 441
#     4  11  25  49  69 102 145 191 238 300 373 441
#     4  12  27  44  71 106 149 191 237 303 379 429
#     4  10  23  43  71 105 139 190 243 302 361 440
#     4  12  26  44  72 106 141 190 246 305 355 436
#     4  10  22  42  73  99 139 189 249 299 359 423
#
# _framework density 22.403017999999999
#
# number of rings (size 3 to 8) (size 9 to 14) (size 15 to 20)
#    0.000    0.750    2.500    4.500    5.250    4.000 
#    0.000    1.250    0.000    0.000    0.000    0.000 
#    0.000    0.000    0.000    0.000    0.000    0.000 
#
# Total GULP energy -89303.118567 kJ/mol
# GULP energy per Si atom -5581.444910 kJ/mol
# Density = 2.235203 g / cm^3
# Si number density = 22.403018 Si / 1000 Ang^3
#
#
#
# Elastic Constant Matrix: (Units=GPa)
#
#
# Indices 1 2 3 4 5 6 
#
# 1 123.4023 29.9388 43.3376 3.6494 19.5865 27.7417
# 2 29.9388 85.7953 50.2716 -6.7725 18.5049 16.8170
# 3 43.3376 50.2716 138.2508 -13.2179 20.2754 7.4704
# 4 3.6494 -6.7725 -13.2179 50.2848 -1.2688 0.7184
# 5 19.5865 18.5049 20.2754 -1.2688 46.2243 0.9447
# 6 27.7417 16.8170 7.4704 0.7184 0.9447 31.4700
#
#
#
# Elastic Compliance Matrix: (Units=1/GPa)
#
#
# Indices 1 2 3 4 5 6 
#
# 1 0.011893 0.000090 -0.002846 -0.001553 -0.003671 -0.009711
# 2 0.000090 0.017226 -0.005109 0.000971 -0.004504 -0.007959
# 3 -0.002846 -0.005109 0.010216 0.002133 -0.001228 0.002802
# 4 -0.001553 0.000971 0.002133 0.020690 -0.000096 -0.000125
# 5 -0.003671 -0.004504 -0.001228 -0.000096 0.025423 0.005174
# 6 -0.009711 -0.007959 0.002802 -0.000125 0.005174 0.043772
#
#
# Mechanical properties :
#
#
# Convention : Reuss Voigt Hill
#
# Bulk Modulus (GPa) = 42.36339 66.06050 54.21194
# Shear Modulus (GPa) = 32.71887 40.52253 36.62070
#
# Velocity S-wave (km/s) = 3.82575 4.25761 4.04745
# Velocity P-wave (km/s) = 6.20209 7.32946 6.78922
#
# Compressibility (1/GPa) = 0.02360529
#
# Stress axis : x y z
#
# Youngs Moduli (GPa) = 84.08345 58.05300 97.88814
#
# Poissons Ratio (x) = -0.00525 0.27862
# Poissons Ratio (y) = -0.00760 0.50007
# Poissons Ratio (z) = 0.23933 0.29657
#
# Static dielectric constant tensor:
#      x y z
#    x 1.864390 0.036040 -0.026230 
#    y 0.036040 1.730560 -0.029770 
#    z -0.026230 -0.029770 1.938120 
# 
# From -- ./inp_files/495549.got.cif
#   From: 2010.05.17/outbox.cif.g08.bks.cpg/sg2_248_cif.got.tgz:495549.got - 2010.06.03 11:33:40.
