data_PCOD9030028
_publ_section_title
;
Structure prediction by ZEFSAII (Michael W. Deem and Ramdas Pophale) SiO2 
 PCOD9030028
Probable space group: P -1
;
_chemical_formula_sum "Si O2"
_cell_formula_units_Z 16
_cell_length_a 16.148887
_cell_length_b 12.957264
_cell_length_c 8.673950
_cell_angle_alpha 105.687752
_cell_angle_beta 28.309843
_cell_angle_gamma 117.019627
_cell_volume 729.838802
_symmetry_space_group_name_H-M "P -1"
_symmetry_group_IT_number 2
_symmetry_cell_setting 'triclinic'
loop_
_space_group_symop_operation_xyz
x,y,z
-x,-y,-z
loop_
_atom_site_type_symbol
_atom_site_label
_atom_site_fract_x
_atom_site_fract_y
_atom_site_fract_z
Si Si1 0.133465 0.694866 0.113947
Si Si2 0.340025 0.897172 0.615673
Si Si3 0.828293 0.778688 0.785782
Si Si4 0.138369 0.049362 0.940738
Si Si5 0.502416 0.272409 0.277542
Si Si6 0.761402 0.475474 0.528921
Si Si7 0.488038 0.206822 0.922029
Si Si8 0.472718 0.487879 0.782693
O O1 0.995680 0.751433 0.426582
O O2 0.987634 0.562447 0.231562
O O3 0.260634 0.776477 0.797706
O O4 0.279356 0.694909 0.006819
O O5 0.450891 0.892246 0.276970
O O6 0.500000 0.000000 0.500000
O O7 0.172303 0.936483 0.884829
O O8 0.922890 0.893998 0.791843
O O9 0.693772 0.798561 0.883691
O O10 0.671794 0.653155 0.078744
O O11 0.344321 0.165067 0.598596
O O12 0.000000 0.000000 0.000000
O O13 0.495179 0.400372 0.333546
O O14 0.457694 0.215957 0.155759
O O15 0.682180 0.333303 0.613578
O O16 0.679835 0.503680 0.516437
O O17 0.642049 0.497816 0.873899
#
# Coordination Sequence:
#
# PCOD9030028 Si02
#       8
#     2   2   2   2   2   2   2   2
#     4  11  23  39  67  95 126 160 204 256 311 363
#     4  12  25  47  61  86 127 168 207 258 304 362
#     4  10  22  44  66  92 124 168 202 247 317 372
#     4  12  29  45  61  90 125 163 217 258 298 367
#     4  11  23  41  64  97 125 159 204 262 309 355
#     4   8  17  36  62  96 121 159 202 244 310 378
#     4  10  22  42  69  90 126 166 202 250 311 370
#     4   8  17  36  64  91 126 157 200 250 306 374
#
# _framework density 21.922650000000001
#
# number of rings (size 3 to 8) (size 9 to 14) (size 15 to 20)
#    0.000    1.750    2.500    2.250    5.250    7.500 
#    0.000    0.000    0.000    0.000    0.000    0.000 
#    0.000    0.000    0.000    0.000    0.000    0.000 
#
# Total GULP energy -89366.094143 kJ/mol
# GULP energy per Si atom -5585.380884 kJ/mol
# Density = 2.187275 g / cm^3
# Si number density = 21.922650 Si / 1000 Ang^3
#
#
#
# Elastic Constant Matrix: (Units=GPa)
#
#
# Indices 1 2 3 4 5 6 
#
# 1 76.5046 9.1714 12.0990 8.5515 -7.9271 8.3438
# 2 9.1714 46.9430 -4.2112 18.7129 5.0833 13.4894
# 3 12.0990 -4.2112 45.4073 -0.9585 -1.2606 9.9290
# 4 8.5515 18.7129 -0.9585 31.8472 7.0637 5.7500
# 5 -7.9271 5.0833 -1.2606 7.0637 33.6726 -7.4667
# 6 8.3438 13.4894 9.9290 5.7500 -7.4667 37.0222
#
#
#
# Elastic Compliance Matrix: (Units=1/GPa)
#
#
# Indices 1 2 3 4 5 6 
#
# 1 0.014883 -0.002280 -0.004152 -0.003798 0.004509 0.000089
# 2 -0.002280 0.031911 0.005574 -0.014954 -0.004490 -0.011191
# 3 -0.004152 0.005574 0.025473 0.000824 -0.002956 -0.008651
# 4 -0.003798 -0.014954 0.000824 0.043481 -0.008244 -0.002332
# 5 0.004509 -0.004490 -0.002956 -0.008244 0.035228 0.009798
# 6 0.000089 -0.011191 -0.008651 -0.002332 0.009798 0.035727
#
#
# Mechanical properties :
#
#
# Convention : Reuss Voigt Hill
#
# Bulk Modulus (GPa) = 14.17408 22.55257 18.36333
# Shear Modulus (GPa) = 23.59200 30.62811 27.11006
#
# Velocity S-wave (km/s) = 3.28403 3.74183 3.52038
# Velocity P-wave (km/s) = 4.56720 5.38313 4.99186
#
# Compressibility (1/GPa) = 0.07055130
#
# Stress axis : x y z
#
# Youngs Moduli (GPa) = 67.19076 31.33705 39.25710
#
# Poissons Ratio (x) = 0.07146 0.16298
# Poissons Ratio (y) = 0.15321 -0.21882
# Poissons Ratio (z) = 0.27895 -0.17467
#
# Static dielectric constant tensor:
#      x y z
#    x 1.730940 0.059800 0.041130 
#    y 0.059800 1.815270 -0.001050 
#    z 0.041130 -0.001050 1.794630 
# 
# From -- ./inp_files/242655.got.cif
#   From: 2010.05.17/outbox.cif.g08.bks.cpg/sg2_122_cif.got.tgz:242655.got - 2010.06.03 11:33:40.
