data_PCOD9030808
_publ_section_title
;
Structure prediction by ZEFSAII (Michael W. Deem and Ramdas Pophale) SiO2 
 PCOD9030808
Probable space group: P -1
;
_chemical_formula_sum "Si O2"
_cell_formula_units_Z 15
_cell_length_a 19.119801
_cell_length_b 17.486856
_cell_length_c 10.986637
_cell_angle_alpha 133.502113
_cell_angle_beta 145.781859
_cell_angle_gamma 22.425605
_cell_volume 736.931543
_symmetry_space_group_name_H-M "P -1"
_symmetry_group_IT_number 2
_symmetry_cell_setting 'triclinic'
loop_
_space_group_symop_operation_xyz
x,y,z
-x,-y,-z
loop_
_atom_site_type_symbol
_atom_site_label
_atom_site_fract_x
_atom_site_fract_y
_atom_site_fract_z
Si Si1 0.336360 0.561081 0.984149
Si Si2 0.412159 0.194461 0.839983
Si Si3 0.538310 0.637094 0.289048
Si Si4 0.500000 0.000000 0.000000
Si Si5 0.187041 0.921612 0.772559
Si Si6 0.863259 0.680441 0.660459
Si Si7 0.934812 0.479351 0.767103
Si Si8 0.097238 0.109530 0.077727
O O1 0.383596 0.647249 0.111738
O O2 0.602266 0.318139 0.145656
O O3 0.289016 0.525340 0.756277
O O4 0.119685 0.716575 0.943143
O O5 0.483633 0.057271 0.895292
O O6 0.318695 0.216489 0.600409
O O7 0.157098 0.443813 0.788153
O O8 0.642826 0.106963 0.063615
O O9 0.723366 0.546572 0.557902
O O10 0.337734 0.874069 0.224391
O O11 0.194193 0.237307 0.830594
O O12 0.000000 0.000000 0.500000
O O13 0.032841 0.081889 0.841096
O O14 0.825809 0.635803 0.675721
O O15 0.836971 0.823415 0.802139
O O16 0.000000 0.500000 0.000000
#
# Coordination Sequence:
#
# PCOD9030808 Si02
#       8
#     2   2   2   1   2   2   2   2
#     4  10  22  45  63  94 129 170 230 274 323 397
#     4  10  22  45  67 100 131 176 222 272 340 391
#     4  10  24  41  67  93 131 173 219 281 329 392
#     4  10  26  42  64  94 138 172 208 276 336 390
#     4  11  25  41  64  95 133 177 219 272 336 403
#     4  10  22  42  74  94 131 173 225 277 325 404
#     4  11  26  43  61 103 135 169 218 273 340 398
#     4  11  23  41  70  97 121 179 229 273 332 400
#
# _framework density 20.354672999999998
#
# number of rings (size 3 to 8) (size 9 to 14) (size 15 to 20)
#    0.000    1.600    1.333    2.000    9.333    1.600 
#    4.800    0.000    0.000    0.000    0.000    0.000 
#    0.000    0.000    0.000    0.000    0.000    0.000 
#
# Total GULP energy -83518.576649 kJ/mol
# GULP energy per Si atom -5567.905110 kJ/mol
# Density = 2.030834 g / cm^3
# Si number density = 20.354673 Si / 1000 Ang^3
#
#
#
# Elastic Constant Matrix: (Units=GPa)
#
#
# Indices 1 2 3 4 5 6 
#
# 1 78.9970 31.0210 27.3379 -10.5674 -12.1987 4.8466
# 2 31.0210 91.6503 27.4618 5.1828 2.8341 11.8573
# 3 27.3379 27.4618 137.1553 2.8247 -13.9399 7.0888
# 4 -10.5674 5.1828 2.8247 16.2945 0.8109 -6.6540
# 5 -12.1987 2.8341 -13.9399 0.8109 24.1319 -9.4824
# 6 4.8466 11.8573 7.0888 -6.6540 -9.4824 40.8165
#
#
#
# Elastic Compliance Matrix: (Units=1/GPa)
#
#
# Indices 1 2 3 4 5 6 
#
# 1 0.020671 -0.008670 -0.001842 0.018418 0.012232 0.006228
# 2 -0.008670 0.016513 -0.001921 -0.013285 -0.010109 -0.007948
# 3 -0.001842 -0.001921 0.008528 -0.002311 0.004263 -0.000091
# 4 0.018418 -0.013285 -0.002311 0.085095 0.014242 0.019255
# 5 0.012232 -0.010109 0.004263 0.014242 0.057221 0.016359
# 6 0.006228 -0.007948 -0.000091 0.019255 0.016359 0.033025
#
#
# Mechanical properties :
#
#
# Convention : Reuss Voigt Hill
#
# Bulk Modulus (GPa) = 47.97123 53.27155 50.62139
# Shear Modulus (GPa) = 19.77300 31.04738 25.41019
#
# Velocity S-wave (km/s) = 3.12015 3.90977 3.53706
# Velocity P-wave (km/s) = 6.04973 6.82717 6.45017
#
# Compressibility (1/GPa) = 0.02084583
#
# Stress axis : x y z
#
# Youngs Moduli (GPa) = 48.37616 60.55663 117.25471
#
# Poissons Ratio (x) = 0.52504 0.21602
# Poissons Ratio (y) = 0.41943 0.22528
# Poissons Ratio (z) = 0.08912 0.11634
#
# Static dielectric constant tensor:
#      x y z
#    x 1.788540 0.003400 -0.002470 
#    y 0.003400 1.724390 0.026160 
#    z -0.002470 0.026160 1.697770 
# 
# From -- ./inp_files/389351.got.cif
#   From: 2010.05.17/outbox.cif.g08.bks.cpg/sg2_195_cif.got.tgz:389351.got - 2010.06.03 11:33:40.
