data_PCOD9030780
_publ_section_title
;
Structure prediction by ZEFSAII (Michael W. Deem and Ramdas Pophale) SiO2 
 PCOD9030780
Probable space group: P -1
;
_chemical_formula_sum "Si O2"
_cell_formula_units_Z 11
_cell_length_a 17.140958
_cell_length_b 7.083260
_cell_length_c 13.478519
_cell_angle_alpha 42.275936
_cell_angle_beta 156.568711
_cell_angle_gamma 141.701992
_cell_volume 401.991914
_symmetry_space_group_name_H-M "P -1"
_symmetry_group_IT_number 2
_symmetry_cell_setting 'triclinic'
loop_
_space_group_symop_operation_xyz
x,y,z
-x,-y,-z
loop_
_atom_site_type_symbol
_atom_site_label
_atom_site_fract_x
_atom_site_fract_y
_atom_site_fract_z
Si Si1 0.359670 0.246695 0.321084
Si Si2 0.665217 0.996307 0.886354
Si Si3 0.500000 0.500000 0.000000
Si Si4 0.611271 0.188323 0.961855
Si Si5 0.937874 0.466201 0.555208
Si Si6 0.027469 0.146738 0.118064
O O1 0.512098 0.097741 0.601000
O O2 0.473873 0.557075 0.272178
O O3 0.175052 0.998859 0.135904
O O4 0.231260 0.361804 0.208973
O O5 0.587233 0.968763 0.923132
O O6 0.621807 0.640165 0.973982
O O7 0.910456 0.192063 0.063011
O O8 0.735376 0.543741 0.305295
O O9 0.862051 0.344177 0.216360
O O10 0.500000 0.000000 0.000000
O O11 0.889379 0.116675 0.659095
O O12 0.000000 0.500000 0.500000
#
# Coordination Sequence:
#
# PCOD9030780 Si02
#       6
#     2   2   1   2   2   2
#     4  10  23  46  71 102 144 185 237 293 356 428
#     4  12  24  43  73 108 140 187 239 292 360 423
#     4  12  24  40  76 102 136 190 234 288 350 418
#     4  11  27  46  72 107 150 188 232 301 361 423
#     4  11  22  46  69 100 145 186 236 288 353 425
#     4  10  22  42  74 104 134 190 241 295 347 419
#
# _framework density 27.363734999999998
#
# number of rings (size 3 to 8) (size 9 to 14) (size 15 to 20)
#    0.000    1.091    3.636    2.182    2.545    1.455 
#    0.000    3.636    0.000    0.000    0.000    0.000 
#    0.000    0.000    0.000    0.000    0.000    0.000 
#
# Total GULP energy -61430.556047 kJ/mol
# GULP energy per Si atom -5584.596004 kJ/mol
# Density = 2.730145 g / cm^3
# Si number density = 27.363735 Si / 1000 Ang^3
#
#
#
# Elastic Constant Matrix: (Units=GPa)
#
#
# Indices 1 2 3 4 5 6 
#
# 1 130.7554 32.1082 21.8901 -16.8527 1.2217 35.8728
# 2 32.1082 62.2257 25.3804 -8.2198 -14.7706 29.3463
# 3 21.8901 25.3804 206.5830 -33.4493 -0.9744 12.9751
# 4 -16.8527 -8.2198 -33.4493 46.5766 8.8651 -8.2724
# 5 1.2217 -14.7706 -0.9744 8.8651 50.0589 4.7900
# 6 35.8728 29.3463 12.9751 -8.2724 4.7900 58.8043
#
#
#
# Elastic Compliance Matrix: (Units=1/GPa)
#
#
# Indices 1 2 3 4 5 6 
#
# 1 0.009855 -0.003174 0.000000 0.002538 -0.001247 -0.003969
# 2 -0.003174 0.026071 -0.002437 -0.002107 0.009204 -0.011583
# 3 0.000000 -0.002437 0.005754 0.004080 -0.001390 0.000634
# 4 0.002538 -0.002107 0.004080 0.026500 -0.005563 0.002784
# 5 -0.001247 0.009204 -0.001390 -0.005563 0.024283 -0.006287
# 6 -0.003969 -0.011583 0.000634 0.002784 -0.006287 0.025972
#
#
# Mechanical properties :
#
#
# Convention : Reuss Voigt Hill
#
# Bulk Modulus (GPa) = 32.83058 62.03572 47.43315
# Shear Modulus (GPa) = 35.76309 52.43365 44.09837
#
# Velocity S-wave (km/s) = 3.61910 4.38216 4.01878
# Velocity P-wave (km/s) = 5.43026 6.95158 6.23747
#
# Compressibility (1/GPa) = 0.03045940
#
# Stress axis : x y z
#
# Youngs Moduli (GPa) = 101.47142 38.35614 173.78437
#
# Poissons Ratio (x) = 0.12173 -0.00001
# Poissons Ratio (y) = 0.32204 0.42350
# Poissons Ratio (z) = 0.00000 0.09347
#
# Static dielectric constant tensor:
#      x y z
#    x 2.323450 0.281110 -0.082180 
#    y 0.281110 0.501500 0.595650 
#    z -0.082180 0.595650 1.779750 
# 
# From -- ./inp_files/291317.got.cif
#   From: 2010.05.17/outbox.cif.g08.bks.cpg/sg2_146_cif.got.tgz:291317.got - 2010.06.03 11:33:40.
