data_PCOD9030424
_publ_section_title
;
Structure prediction by ZEFSAII (Michael W. Deem and Ramdas Pophale) SiO2 
 PCOD9030424
Probable space group: P -1
;
_chemical_formula_sum "Si O2"
_cell_formula_units_Z 16
_cell_length_a 14.864595
_cell_length_b 9.152787
_cell_length_c 9.129810
_cell_angle_alpha 86.812429
_cell_angle_beta 106.420900
_cell_angle_gamma 40.471547
_cell_volume 696.448244
_symmetry_space_group_name_H-M "P -1"
_symmetry_group_IT_number 2
_symmetry_cell_setting 'triclinic'
loop_
_space_group_symop_operation_xyz
x,y,z
-x,-y,-z
loop_
_atom_site_type_symbol
_atom_site_label
_atom_site_fract_x
_atom_site_fract_y
_atom_site_fract_z
Si Si1 0.895783 0.505005 0.378132
Si Si2 0.691395 0.233964 0.120867
Si Si3 0.362817 0.957635 0.671430
Si Si4 0.078623 0.057428 0.032739
Si Si5 0.315000 0.773468 0.430191
Si Si6 0.753745 0.397320 0.367443
Si Si7 0.513677 0.017294 0.829946
Si Si8 0.873604 0.558042 0.016581
O O1 0.898648 0.332991 0.441204
O O2 0.905768 0.497509 0.208701
O O3 0.000000 0.500000 0.500000
O O4 0.724415 0.780945 0.338887
O O5 0.689368 0.092584 0.228751
O O6 0.754609 0.299885 0.226475
O O7 0.500000 0.500000 0.000000
O O8 0.807645 0.060078 0.048179
O O9 0.321156 0.922557 0.508563
O O10 0.529844 0.831491 0.768399
O O11 0.199524 0.928305 0.230918
O O12 0.919762 0.353770 0.964706
O O13 0.000000 0.000000 0.000000
O O14 0.500000 0.500000 0.500000
O O15 0.251810 0.718669 0.504009
O O16 0.593575 0.701564 0.274211
O O17 0.696073 0.841532 0.901710
O O18 0.500000 0.000000 0.000000
O O19 0.000000 0.500000 0.000000
#
# Coordination Sequence:
#
# PCOD9030424 Si02
#       8
#     2   2   2   2   2   2   2   2
#     4  11  23  45  67  95 139 185 232 280 356 427
#     4  11  23  40  75  99 134 185 239 278 346 431
#     4  10  22  42  70  99 129 187 238 280 337 437
#     4  12  28  45  68 110 146 180 231 301 365 403
#     4  11  26  45  69 103 149 185 235 297 357 422
#     4  10  23  44  75 102 131 191 243 283 338 437
#     4  11  22  43  78 103 136 184 248 286 347 435
#     4  12  27  43  71 106 145 174 231 312 359 404
#
# _framework density 22.973710000000001
#
# number of rings (size 3 to 8) (size 9 to 14) (size 15 to 20)
#    0.000    1.000    2.500    4.500    7.000    2.000 
#    0.000    4.375    0.000    0.000    0.000    0.000 
#    0.000    0.000    0.000    0.000    0.000    0.000 
#
# Total GULP energy -89203.587137 kJ/mol
# GULP energy per Si atom -5575.224196 kJ/mol
# Density = 2.292142 g / cm^3
# Si number density = 22.973710 Si / 1000 Ang^3
#
#
#
# Elastic Constant Matrix: (Units=GPa)
#
#
# Indices 1 2 3 4 5 6 
#
# 1 101.2743 14.1233 22.1208 23.6710 16.3104 18.9332
# 2 14.1233 108.0482 14.9333 16.7753 -1.9704 1.2408
# 3 22.1208 14.9333 54.6719 21.8268 12.7858 -2.7276
# 4 23.6710 16.7753 21.8268 29.2741 7.3469 3.3549
# 5 16.3104 -1.9704 12.7858 7.3469 22.4905 19.1423
# 6 18.9332 1.2408 -2.7276 3.3549 19.1423 42.5409
#
#
#
# Elastic Compliance Matrix: (Units=1/GPa)
#
#
# Indices 1 2 3 4 5 6 
#
# 1 0.013426 -0.000211 -0.001701 -0.008381 -0.002333 -0.004368
# 2 -0.000211 0.010620 -0.002331 -0.005528 0.006732 -0.002959
# 3 -0.001701 -0.002331 0.033496 -0.017601 -0.025891 0.016011
# 4 -0.008381 -0.005528 -0.017601 0.058021 -0.002934 -0.000493
# 5 -0.002333 0.006732 -0.025891 -0.002934 0.101978 -0.046474
# 6 -0.004368 -0.002959 0.016011 -0.000493 -0.046474 0.047514
#
#
# Mechanical properties :
#
#
# Convention : Reuss Voigt Hill
#
# Bulk Modulus (GPa) = 20.38424 40.70548 30.54486
# Shear Modulus (GPa) = 17.24775 33.04891 25.14833
#
# Velocity S-wave (km/s) = 2.74297 3.79694 3.31215
# Velocity P-wave (km/s) = 4.35017 6.08104 5.28692
#
# Compressibility (1/GPa) = 0.04905752
#
# Stress axis : x y z
#
# Youngs Moduli (GPa) = 74.48014 94.16367 29.85393
#
# Poissons Ratio (x) = 0.01987 0.05078
# Poissons Ratio (y) = 0.01572 0.06958
# Poissons Ratio (z) = 0.12669 0.21945
#
# Static dielectric constant tensor:
#      x y z
#    x 1.532120 0.119630 -0.194890 
#    y 0.119630 1.706650 0.057190 
#    z -0.194890 0.057190 1.723000 
# 
# From -- ./inp_files/298879.got.cif
#   From: 2010.05.17/outbox.cif.g08.bks.cpg/sg2_150_cif.got.tgz:298879.got - 2010.06.03 11:33:40.
