data_PCOD9030745
_publ_section_title
;
Structure prediction by ZEFSAII (Michael W. Deem and Ramdas Pophale) SiO2 
 PCOD9030745
Probable space group: P -1
;
_chemical_formula_sum "Si O2"
_cell_formula_units_Z 14
_cell_length_a 13.690911
_cell_length_b 9.501896
_cell_length_c 9.010712
_cell_angle_alpha 85.626259
_cell_angle_beta 47.309373
_cell_angle_gamma 52.298506
_cell_volume 554.415573
_symmetry_space_group_name_H-M "P -1"
_symmetry_group_IT_number 2
_symmetry_cell_setting 'triclinic'
loop_
_space_group_symop_operation_xyz
x,y,z
-x,-y,-z
loop_
_atom_site_type_symbol
_atom_site_label
_atom_site_fract_x
_atom_site_fract_y
_atom_site_fract_z
Si Si1 0.125175 0.439895 0.647575
Si Si2 0.088756 0.224004 0.381214
Si Si3 0.064656 0.230039 0.944338
Si Si4 0.477246 0.531856 0.346041
Si Si5 0.418228 0.869052 0.829771
Si Si6 0.287922 0.623538 0.134540
Si Si7 0.916705 0.965486 0.331820
O O1 0.960948 0.590291 0.671132
O O2 0.068006 0.358072 0.819312
O O3 0.361494 0.234841 0.373162
O O4 0.092961 0.603686 0.775173
O O5 0.850397 0.358933 0.616320
O O6 0.142449 0.125562 0.500636
O O7 0.276058 0.009422 0.108510
O O8 0.027892 0.126753 0.884042
O O9 0.283467 0.034094 0.816806
O O10 0.500000 0.500000 0.500000
O O11 0.527545 0.336927 0.245650
O O12 0.260624 0.777376 0.513077
O O13 0.636450 0.502452 0.090898
O O14 0.106406 0.872775 0.239401
O O15 0.500000 0.500000 0.000000
#
# Coordination Sequence:
#
# PCOD9030745 Si02
#       7
#     2   2   2   2   2   2   2
#     4  10  22  42  73  94 130 180 222 273 339 387
#     4   9  24  42  64  99 130 177 223 273 329 399
#     4  10  22  44  67 101 132 172 223 283 326 393
#     4  12  26  41  66  99 135 179 218 270 340 394
#     4  11  23  42  67  96 136 175 228 263 332 403
#     4  10  25  45  65  92 136 179 221 269 333 400
#     4  10  25  43  64  99 138 168 226 275 326 403
#
# _framework density 25.251816999999999
#
# number of rings (size 3 to 8) (size 9 to 14) (size 15 to 20)
#    0.857    0.857    1.429    1.286    6.000    5.714 
#    0.000    0.714    0.000    0.000    0.000    0.000 
#    0.000    0.000    0.000    0.000    0.000    0.000 
#
# Total GULP energy -78064.378647 kJ/mol
# GULP energy per Si atom -5576.027046 kJ/mol
# Density = 2.519434 g / cm^3
# Si number density = 25.251817 Si / 1000 Ang^3
#
#
#
# Elastic Constant Matrix: (Units=GPa)
#
#
# Indices 1 2 3 4 5 6 
#
# 1 42.4955 29.5202 44.5363 3.2389 9.9137 -14.3448
# 2 29.5202 173.0022 50.1407 10.2050 3.6144 -31.9053
# 3 44.5363 50.1407 178.8621 -1.3526 7.6308 -15.0574
# 4 3.2389 10.2050 -1.3526 40.9912 -19.6486 -10.0709
# 5 9.9137 3.6144 7.6308 -19.6486 39.8548 -7.0933
# 6 -14.3448 -31.9053 -15.0574 -10.0709 -7.0933 33.0417
#
#
#
# Elastic Compliance Matrix: (Units=1/GPa)
#
#
# Indices 1 2 3 4 5 6 
#
# 1 0.038535 -0.002446 -0.007957 -0.005365 -0.009216 0.007128
# 2 -0.002446 0.007598 -0.001052 0.000527 0.001498 0.006278
# 3 -0.007957 -0.001052 0.007816 0.001857 0.001490 -0.000023
# 4 -0.005365 0.000527 0.001857 0.040056 0.023579 0.016297
# 5 -0.009216 0.001498 0.001490 0.023579 0.041103 0.014135
# 6 0.007128 0.006278 -0.000023 0.016297 0.014135 0.047412
#
#
# Mechanical properties :
#
#
# Convention : Reuss Voigt Hill
#
# Bulk Modulus (GPa) = 32.21773 71.41714 51.81744
# Shear Modulus (GPa) = 23.17221 40.78838 31.98030
#
# Velocity S-wave (km/s) = 3.03255 4.02340 3.56259
# Velocity P-wave (km/s) = 5.00481 7.06590 6.12271
#
# Compressibility (1/GPa) = 0.03103881
#
# Stress axis : x y z
#
# Youngs Moduli (GPa) = 25.95039 131.61487 127.94754
#
# Poissons Ratio (x) = 0.32189 1.01806
# Poissons Ratio (y) = 0.06347 0.13465
# Poissons Ratio (z) = 0.20648 0.13851
#
# Static dielectric constant tensor:
#      x y z
#    x 2.124180 0.075040 -0.001460 
#    y 0.075040 2.043580 -0.064240 
#    z -0.001460 -0.064240 2.049000 
# 
# From -- ./inp_files/331888.got.cif
#   From: 2010.05.17/outbox.cif.g08.bks.cpg/sg2_166_cif.got.tgz:331888.got - 2010.06.03 11:33:40.
