data_PCOD9030031
_publ_section_title
;
Structure prediction by ZEFSAII (Michael W. Deem and Ramdas Pophale) SiO2 
 PCOD9030031
Probable space group: P -1
;
_chemical_formula_sum "Si O2"
_cell_formula_units_Z 14
_cell_length_a 13.461646
_cell_length_b 8.214092
_cell_length_c 8.816131
_cell_angle_alpha 129.014252
_cell_angle_beta 107.982131
_cell_angle_gamma 92.802537
_cell_volume 680.306038
_symmetry_space_group_name_H-M "P -1"
_symmetry_group_IT_number 2
_symmetry_cell_setting 'triclinic'
loop_
_space_group_symop_operation_xyz
x,y,z
-x,-y,-z
loop_
_atom_site_type_symbol
_atom_site_label
_atom_site_fract_x
_atom_site_fract_y
_atom_site_fract_z
Si Si1 0.310739 0.935198 0.667845
Si Si2 0.307440 0.974801 0.031899
Si Si3 0.528204 0.290229 0.454155
Si Si4 0.553721 0.677200 0.257196
Si Si5 0.117088 0.087531 0.189268
Si Si6 0.884327 0.975770 0.506201
Si Si7 0.240770 0.452841 0.658584
O O1 0.382469 0.097010 0.667085
O O2 0.184792 0.894306 0.538215
O O3 0.360268 0.735027 0.575081
O O4 0.327720 0.044568 0.906144
O O5 0.423848 0.077110 0.231869
O O6 0.213689 0.052550 0.112466
O O7 0.264272 0.707796 0.851972
O O8 0.500000 0.500000 0.500000
O O9 0.531240 0.302908 0.644807
O O10 0.645281 0.597866 0.340332
O O11 0.500000 0.500000 0.000000
O O12 0.107861 0.964577 0.276275
O O13 0.157849 0.343631 0.417010
O O14 0.000000 0.000000 0.000000
O O15 0.813955 0.711718 0.323316
O O16 0.000000 0.000000 0.500000
#
# Coordination Sequence:
#
# PCOD9030031 Si02
#       7
#     2   2   2   2   2   2   2
#     4  11  23  36  65  96 127 174 217 269 332 392
#     4  12  22  42  65  93 133 172 224 272 326 399
#     4  12  24  41  64  98 135 177 223 268 328 404
#     4  11  21  41  62  92 134 167 213 276 331 389
#     4  10  22  42  69  91 129 174 225 274 330 385
#     4   9  20  44  64  94 132 163 221 282 326 389
#     4   9  22  40  66  93 127 172 220 266 334 388
#
# _framework density 20.578972
#
# number of rings (size 3 to 8) (size 9 to 14) (size 15 to 20)
#    0.857    0.571    1.429    4.286    0.000    1.714 
#    0.000    0.714    3.143    0.000    0.000    0.000 
#    0.000    0.000    0.000    0.000    0.000    0.000 
#
# Total GULP energy -78130.997112 kJ/mol
# GULP energy per Si atom -5580.785508 kJ/mol
# Density = 2.053213 g / cm^3
# Si number density = 20.578972 Si / 1000 Ang^3
#
#
#
# Elastic Constant Matrix: (Units=GPa)
#
#
# Indices 1 2 3 4 5 6 
#
# 1 138.7286 24.3602 39.5651 -7.6051 -10.7476 -6.1768
# 2 24.3602 69.4613 25.4544 4.0296 -6.5354 -7.3857
# 3 39.5651 25.4544 124.4682 -6.7040 3.6933 -10.3051
# 4 -7.6051 4.0296 -6.7040 43.6383 7.7296 -4.0471
# 5 -10.7476 -6.5354 3.6933 7.7296 41.7029 -12.2269
# 6 -6.1768 -7.3857 -10.3051 -4.0471 -12.2269 29.6358
#
#
#
# Elastic Compliance Matrix: (Units=1/GPa)
#
#
# Indices 1 2 3 4 5 6 
#
# 1 0.008472 -0.001823 -0.002196 0.001039 0.002391 0.001676
# 2 -0.001823 0.017076 -0.002829 -0.002678 0.004202 0.004260
# 3 -0.002196 -0.002829 0.009602 0.001813 -0.001690 0.001726
# 4 0.001039 -0.002678 0.001813 0.024555 -0.004355 0.001736
# 5 0.002391 0.004202 -0.001690 -0.004355 0.029939 0.012715
# 6 0.001676 0.004260 0.001726 0.001736 0.012715 0.041237
#
#
# Mechanical properties :
#
#
# Convention : Reuss Voigt Hill
#
# Bulk Modulus (GPa) = 46.61440 56.82417 51.71929
# Shear Modulus (GPa) = 32.95368 39.21396 36.08382
#
# Velocity S-wave (km/s) = 4.00600 4.36998 4.19194
# Velocity P-wave (km/s) = 6.64064 7.28937 6.97255
#
# Compressibility (1/GPa) = 0.02145260
#
# Stress axis : x y z
#
# Youngs Moduli (GPa) = 118.04043 58.56069 104.14996
#
# Poissons Ratio (x) = 0.10678 0.22874
# Poissons Ratio (y) = 0.21523 0.29463
# Poissons Ratio (z) = 0.25924 0.16566
#
# Static dielectric constant tensor:
#      x y z
#    x 1.724880 -0.000600 0.000050 
#    y -0.000600 1.794520 0.003920 
#    z 0.000050 0.003920 1.733570 
# 
# From -- ./inp_files/293539.got.cif
#   From: 2010.05.17/outbox.cif.g08.bks.cpg/sg2_147_cif.got.tgz:293539.got - 2010.06.03 11:33:40.
