data_PCOD9030553
_publ_section_title
;
Structure prediction by ZEFSAII (Michael W. Deem and Ramdas Pophale) SiO2 
 PCOD9030553
Probable space group: P -1
;
_chemical_formula_sum "Si O2"
_cell_formula_units_Z 16
_cell_length_a 23.270768
_cell_length_b 7.740293
_cell_length_c 16.010800
_cell_angle_alpha 35.681236
_cell_angle_beta 160.528534
_cell_angle_gamma 139.686700
_cell_volume 560.629703
_symmetry_space_group_name_H-M "P -1"
_symmetry_group_IT_number 2
_symmetry_cell_setting 'triclinic'
loop_
_space_group_symop_operation_xyz
x,y,z
-x,-y,-z
loop_
_atom_site_type_symbol
_atom_site_label
_atom_site_fract_x
_atom_site_fract_y
_atom_site_fract_z
Si Si1 0.621745 0.676355 0.227208
Si Si2 0.457835 0.130132 0.693937
Si Si3 0.422400 0.106299 0.210309
Si Si4 0.090780 0.405798 0.574342
Si Si5 0.947437 0.336262 0.819774
Si Si6 0.199020 0.522142 0.968398
Si Si7 0.183060 0.052528 0.462947
Si Si8 0.809316 0.113348 0.886670
O O1 0.502782 0.432181 0.206782
O O2 0.787629 0.495629 0.490331
O O3 0.524361 0.850555 0.951597
O O4 0.700320 0.906510 0.311559
O O5 0.612733 0.353966 0.824976
O O6 0.446706 0.050269 0.612814
O O7 0.278618 0.231394 0.450278
O O8 0.359835 0.908472 0.279234
O O9 0.246408 0.178170 0.890652
O O10 0.172699 0.722265 0.541096
O O11 0.000000 0.500000 0.500000
O O12 0.940578 0.301579 0.349036
O O13 0.861538 0.326407 0.798076
O O14 0.115944 0.503005 0.953584
O O15 0.000000 0.000000 0.000000
O O16 0.198632 0.203435 0.047404
O O17 0.982972 0.126186 0.174492
#
# Coordination Sequence:
#
# PCOD9030553 Si02
#       8
#     2   2   2   2   2   2   2   2
#     4  12  26  42  72 102 140 181 226 279 350 409
#     4  12  26  40  69 113 144 166 223 290 354 403
#     4  12  25  40  66 105 141 177 223 280 343 408
#     4  11  20  38  68 100 141 177 216 272 347 411
#     4  10  25  47  73  94 133 187 240 279 329 400
#     4  10  22  42  71  98 136 178 227 277 345 395
#     4  11  24  41  70 103 140 179 219 280 345 413
#     4  10  24  47  71  93 136 192 233 269 337 405
#
# _framework density 28.539335999999999
#
# number of rings (size 3 to 8) (size 9 to 14) (size 15 to 20)
#    0.000    1.000    3.750    3.000    7.000    2.000 
#    0.000    0.625    0.000    0.000    0.000    0.000 
#    0.000    0.000    0.000    0.000    0.000    0.000 
#
# Total GULP energy -89663.539596 kJ/mol
# GULP energy per Si atom -5603.971225 kJ/mol
# Density = 2.847438 g / cm^3
# Si number density = 28.539336 Si / 1000 Ang^3
#
#
#
# Elastic Constant Matrix: (Units=GPa)
#
#
# Indices 1 2 3 4 5 6 
#
# 1 200.9566 48.8223 42.0735 16.6980 35.7972 20.5143
# 2 48.8223 148.6905 26.9357 36.6071 12.3947 18.3816
# 3 42.0735 26.9357 119.2681 14.9796 18.1798 6.6282
# 4 16.6980 36.6071 14.9796 50.8067 4.9537 13.6975
# 5 35.7972 12.3947 18.1798 4.9537 52.7480 9.4242
# 6 20.5143 18.3816 6.6282 13.6975 9.4242 55.3827
#
#
#
# Elastic Compliance Matrix: (Units=1/GPa)
#
#
# Indices 1 2 3 4 5 6 
#
# 1 0.006301 -0.001403 -0.001338 -0.000038 -0.003278 -0.001141
# 2 -0.001403 0.008773 -0.000731 -0.005372 -0.000184 -0.000945
# 3 -0.001338 -0.000731 0.009541 -0.001745 -0.002114 0.000388
# 4 -0.000038 -0.005372 -0.001745 0.025205 0.000287 -0.004277
# 5 -0.003278 -0.000184 -0.002114 0.000287 0.022346 -0.002345
# 6 -0.001141 -0.000945 0.000388 -0.004277 -0.002345 0.020203
#
#
# Mechanical properties :
#
#
# Convention : Reuss Voigt Hill
#
# Bulk Modulus (GPa) = 56.58873 78.28645 67.43759
# Shear Modulus (GPa) = 47.52674 55.19304 51.35989
#
# Velocity S-wave (km/s) = 4.08524 4.40242 4.24679
# Velocity P-wave (km/s) = 6.49027 7.30290 6.90854
#
# Compressibility (1/GPa) = 0.01767136
#
# Stress axis : x y z
#
# Youngs Moduli (GPa) = 158.71391 113.98459 104.80565
#
# Poissons Ratio (x) = 0.15989 0.14023
# Poissons Ratio (y) = 0.22263 0.07664
# Poissons Ratio (z) = 0.21236 0.08335
#
# Static dielectric constant tensor:
#      x y z
#    x 2.252230 0.019160 -0.054300 
#    y 0.019160 2.254060 -0.098030 
#    z -0.054300 -0.098030 2.227990 
# 
# From -- ./inp_files/347344.got.cif
#   From: 2010.05.17/outbox.cif.g08.bks.cpg/sg2_174_cif.got.tgz:347344.got - 2010.06.03 11:33:40.
