data_PCOD9030983
_publ_section_title
;
Structure prediction by ZEFSAII (Michael W. Deem and Ramdas Pophale) SiO2 
 PCOD9030983
Probable space group: P -1
;
_chemical_formula_sum "Si O2"
_cell_formula_units_Z 16
_cell_length_a 15.017853
_cell_length_b 9.158401
_cell_length_c 8.358341
_cell_angle_alpha 128.322470
_cell_angle_beta 61.160025
_cell_angle_gamma 113.327047
_cell_volume 782.150485
_symmetry_space_group_name_H-M "P -1"
_symmetry_group_IT_number 2
_symmetry_cell_setting 'triclinic'
loop_
_space_group_symop_operation_xyz
x,y,z
-x,-y,-z
loop_
_atom_site_type_symbol
_atom_site_label
_atom_site_fract_x
_atom_site_fract_y
_atom_site_fract_z
Si Si1 0.246593 0.051144 0.506068
Si Si2 0.907564 0.176531 0.755685
Si Si3 0.530728 0.678559 0.209776
Si Si4 0.612556 0.582296 0.397645
Si Si5 0.781078 0.356991 0.238901
Si Si6 0.353762 0.913272 0.618411
Si Si7 0.959104 0.870516 0.099786
Si Si8 0.026340 0.490141 0.655666
O O1 0.333949 0.207703 0.464468
O O2 0.158751 0.124974 0.744087
O O3 0.181622 0.948588 0.348827
O O4 0.305406 0.930391 0.495812
O O5 0.972976 0.079148 0.764104
O O6 0.979451 0.298185 0.649221
O O7 0.853833 0.320951 0.006399
O O8 0.600651 0.599111 0.229260
O O9 0.433224 0.760456 0.430860
O O10 0.592502 0.879035 0.233312
O O11 0.500000 0.500000 0.000000
O O12 0.500000 0.500000 0.500000
O O13 0.690413 0.453077 0.310427
O O14 0.733944 0.164945 0.234889
O O15 0.852451 0.475354 0.388357
O O16 0.977670 0.661546 0.894654
O O17 0.000000 0.000000 0.000000
O O18 0.000000 0.500000 0.500000
#
# Coordination Sequence:
#
# PCOD9030983 Si02
#       8
#     2   2   2   2   2   2   2   2
#     4  11  23  40  64  93 128 170 214 271 332 395
#     4  11  23  40  64  94 128 169 216 267 335 398
#     4  10  23  43  67  89 127 174 223 276 329 383
#     4  11  23  42  62  92 127 169 218 272 323 386
#     4  11  22  41  64  93 132 169 217 270 328 393
#     4  10  22  43  63  93 132 167 219 279 327 389
#     4  11  22  40  64  95 132 166 214 271 328 397
#     4  11  23  42  66  96 130 174 212 268 332 400
#
# _framework density 20.456422
#
# number of rings (size 3 to 8) (size 9 to 14) (size 15 to 20)
#    0.000    1.250    1.250    6.375    1.750    2.000 
#    4.500    1.250    0.000    0.000    0.000    0.000 
#    0.000    0.000    0.000    0.000    0.000    0.000 
#
# Total GULP energy -89290.213484 kJ/mol
# GULP energy per Si atom -5580.638343 kJ/mol
# Density = 2.040986 g / cm^3
# Si number density = 20.456422 Si / 1000 Ang^3
#
#
#
# Elastic Constant Matrix: (Units=GPa)
#
#
# Indices 1 2 3 4 5 6 
#
# 1 150.1230 55.6638 41.8733 5.2390 12.4679 -3.0959
# 2 55.6638 143.7890 36.1968 -2.8923 17.6987 2.9340
# 3 41.8733 36.1968 71.8860 10.0566 24.3850 -3.7030
# 4 5.2390 -2.8923 10.0566 24.7913 6.9098 0.4024
# 5 12.4679 17.6987 24.3850 6.9098 41.5756 5.8846
# 6 -3.0959 2.9340 -3.7030 0.4024 5.8846 36.5974
#
#
#
# Elastic Compliance Matrix: (Units=1/GPa)
#
#
# Indices 1 2 3 4 5 6 
#
# 1 0.008647 -0.002481 -0.003948 -0.000758 0.000848 0.000403
# 2 -0.002481 0.008968 -0.002997 0.003282 -0.001721 -0.000991
# 3 -0.003948 -0.002997 0.022155 -0.005743 -0.010124 0.003839
# 4 -0.000758 0.003282 -0.005743 0.044652 -0.005141 -0.000573
# 5 0.000848 -0.001721 -0.010124 -0.005141 0.032162 -0.005930
# 6 0.000403 -0.000991 0.003839 -0.000573 -0.005930 0.028786
#
#
# Mechanical properties :
#
#
# Convention : Reuss Voigt Hill
#
# Bulk Modulus (GPa) = 47.80732 70.36287 59.08509
# Shear Modulus (GPa) = 29.20668 36.06380 32.63524
#
# Velocity S-wave (km/s) = 3.78266 4.20331 3.99852
# Velocity P-wave (km/s) = 6.51913 7.61763 7.08969
#
# Compressibility (1/GPa) = 0.02091730
#
# Stress axis : x y z
#
# Youngs Moduli (GPa) = 115.64933 111.51244 45.13706
#
# Poissons Ratio (x) = 0.27670 0.17821
# Poissons Ratio (y) = 0.28696 0.13525
# Poissons Ratio (z) = 0.45660 0.33415
#
# Static dielectric constant tensor:
#      x y z
#    x 1.768180 0.020520 0.002260 
#    y 0.020520 1.773660 0.015940 
#    z 0.002260 0.015940 1.744010 
# 
# From -- ./inp_files/299643.got.cif
#   From: 2010.05.17/outbox.cif.g08.bks.cpg/sg2_150_cif.got.tgz:299643.got - 2010.06.03 11:33:40.
