data_PCOD9030934
_publ_section_title
;
Structure prediction by ZEFSAII (Michael W. Deem and Ramdas Pophale) SiO2 
 PCOD9030934
Probable space group: P -1
;
_chemical_formula_sum "Si O2"
_cell_formula_units_Z 16
_cell_length_a 15.786325
_cell_length_b 29.203018
_cell_length_c 23.360101
_cell_angle_alpha 16.306232
_cell_angle_beta 152.695951
_cell_angle_gamma 162.063037
_cell_volume 892.913165
_symmetry_space_group_name_H-M "P -1"
_symmetry_group_IT_number 2
_symmetry_cell_setting 'triclinic'
loop_
_space_group_symop_operation_xyz
x,y,z
-x,-y,-z
loop_
_atom_site_type_symbol
_atom_site_label
_atom_site_fract_x
_atom_site_fract_y
_atom_site_fract_z
Si Si1 0.697146 0.984848 0.565042
Si Si2 0.856248 0.200008 0.226379
Si Si3 0.634164 0.899015 0.761713
Si Si4 0.505041 0.291136 0.337166
Si Si5 0.870269 0.585374 0.302362
Si Si6 0.715573 0.664300 0.755027
Si Si7 0.110187 0.075020 0.910926
Si Si8 0.771971 0.509998 0.786652
O O1 0.516411 0.030494 0.402931
O O2 0.009858 0.242992 0.418573
O O3 0.707812 0.929886 0.701983
O O4 0.540235 0.759438 0.696215
O O5 0.984359 0.157166 0.310200
O O6 0.104684 0.389403 0.195715
O O7 0.588677 0.945013 0.406590
O O8 0.788847 0.326972 0.005163
O O9 0.418927 0.608193 0.997817
O O10 0.914097 0.065860 0.768192
O O11 0.804519 0.541720 0.246503
O O12 0.280569 0.265896 0.261506
O O13 0.543998 0.403030 0.347552
O O14 0.000000 0.500000 0.500000
O O15 0.056123 0.860710 0.106832
O O16 0.444634 0.341879 0.789006
O O17 0.000000 0.000000 0.000000
#
# Coordination Sequence:
#
# PCOD9030934 Si02
#       8
#     2   2   2   2   2   2   2   2
#     4  10  21  38  58  80 106 149 191 223 266 323
#     4  10  17  32  52  82 112 135 181 224 276 326
#     4  10  21  38  57  80 109 145 191 227 263 322
#     4   9  20  31  54  80 106 141 176 225 275 322
#     4   9  19  32  47  78 111 142 170 212 280 325
#     4   9  18  32  50  80 106 138 178 224 267 320
#     4  11  23  35  56  84 111 143 176 230 278 327
#     4  10  20  31  57  80 108 147 178 228 269 323
#
# _framework density 17.918875
#
# number of rings (size 3 to 8) (size 9 to 14) (size 15 to 20)
#    0.750    1.500    1.250    2.625    5.250    1.000 
#    0.000    0.000    0.000    0.000    0.000    2.625 
#    0.000    0.000    0.000    0.000    0.000    0.000 
#
# Total GULP energy -89096.523824 kJ/mol
# GULP energy per Si atom -5568.532739 kJ/mol
# Density = 1.787809 g / cm^3
# Si number density = 17.918875 Si / 1000 Ang^3
#
#
#
# Elastic Constant Matrix: (Units=GPa)
#
#
# Indices 1 2 3 4 5 6 
#
# 1 97.8108 36.5579 5.7345 5.6095 -5.8076 -13.8784
# 2 36.5579 98.0421 18.7947 0.9417 -14.0868 -7.4864
# 3 5.7345 18.7947 24.0402 4.5460 0.3229 1.2044
# 4 5.6095 0.9417 4.5460 26.0057 -2.3473 2.6984
# 5 -5.8076 -14.0868 0.3229 -2.3473 27.6133 -4.1969
# 6 -13.8784 -7.4864 1.2044 2.6984 -4.1969 25.7926
#
#
#
# Elastic Compliance Matrix: (Units=1/GPa)
#
#
# Indices 1 2 3 4 5 6 
#
# 1 0.012921 -0.004233 0.000515 -0.003261 0.001223 0.006240
# 2 -0.004233 0.015461 -0.011895 0.002758 0.007944 0.003769
# 3 0.000515 -0.011895 0.052898 -0.009046 -0.008266 -0.006044
# 4 -0.003261 0.002758 -0.009046 0.041414 0.003700 -0.004262
# 5 0.001223 0.007944 -0.008266 0.003700 0.042435 0.009868
# 6 0.006240 0.003769 -0.006044 -0.004262 0.009868 0.045556
#
#
# Mechanical properties :
#
#
# Convention : Reuss Voigt Hill
#
# Bulk Modulus (GPa) = 19.97850 38.00748 28.99299
# Shear Modulus (GPa) = 19.33519 26.46940 22.90229
#
# Velocity S-wave (km/s) = 3.28844 3.84758 3.57894
# Velocity P-wave (km/s) = 5.05886 6.40276 5.77007
#
# Compressibility (1/GPa) = 0.05005382
#
# Stress axis : x y z
#
# Youngs Moduli (GPa) = 77.39461 64.67875 18.90428
#
# Poissons Ratio (x) = 0.27379 -0.00973
# Poissons Ratio (y) = 0.32762 0.22486
# Poissons Ratio (z) = -0.03985 0.76935
#
# Static dielectric constant tensor:
#      x y z
#    x 1.644160 -0.014220 0.025690 
#    y -0.014220 1.617900 -0.025540 
#    z 0.025690 -0.025540 1.652140 
# 
# From -- ./inp_files/598612.got.cif
#   From: 2010.05.17/outbox.cif.g08.bks.cpg/sg2_300_cif.got.tgz:598612.got - 2010.06.03 11:33:40.
