data_PCOD9030302
_publ_section_title
;
Structure prediction by ZEFSAII (Michael W. Deem and Ramdas Pophale) SiO2 
 PCOD9030302
Probable space group: P -1
;
_chemical_formula_sum "Si O2"
_cell_formula_units_Z 16
_cell_length_a 11.245351
_cell_length_b 19.493883
_cell_length_c 9.529775
_cell_angle_alpha 152.397769
_cell_angle_beta 60.606866
_cell_angle_gamma 131.316210
_cell_volume 699.807645
_symmetry_space_group_name_H-M "P -1"
_symmetry_group_IT_number 2
_symmetry_cell_setting 'triclinic'
loop_
_space_group_symop_operation_xyz
x,y,z
-x,-y,-z
loop_
_atom_site_type_symbol
_atom_site_label
_atom_site_fract_x
_atom_site_fract_y
_atom_site_fract_z
Si Si1 0.671475 0.179011 0.774137
Si Si2 0.746114 0.377455 0.821731
Si Si3 0.152826 0.649982 0.587318
Si Si4 0.640621 0.886873 0.423771
Si Si5 0.283428 0.307552 0.478124
Si Si6 0.358804 0.596899 0.573619
Si Si7 0.809583 0.785227 0.951624
Si Si8 0.837852 0.988192 0.760946
O O1 0.779481 0.289976 0.778086
O O2 0.500000 0.000000 0.500000
O O3 0.727640 0.092778 0.699601
O O4 0.638522 0.305987 0.111024
O O5 0.850253 0.407918 0.677266
O O6 0.551858 0.222994 0.625243
O O7 0.756149 0.555690 0.185227
O O8 0.316334 0.677983 0.615794
O O9 0.000000 0.500000 0.500000
O O10 0.168375 0.837204 0.911762
O O11 0.740063 0.881396 0.486133
O O12 0.662942 0.798638 0.114928
O O13 0.478364 0.402883 0.523089
O O14 0.194078 0.232374 0.244778
O O15 0.240203 0.142081 0.299348
O O16 0.213147 0.391476 0.295293
O O17 0.973902 0.947167 0.218534
#
# Coordination Sequence:
#
# PCOD9030302 Si02
#       8
#     2   2   2   2   2   2   2   2
#     4  10  22  42  70 110 140 177 235 295 352 415
#     4  11  25  45  73 107 141 186 240 298 355 420
#     4  12  28  48  69 101 145 191 234 293 360 424
#     4  11  24  44  74 108 142 187 240 294 353 422
#     4  12  26  45  73 110 139 186 244 296 351 426
#     4  12  23  46  77  99 148 188 238 294 354 421
#     4  12  25  47  72 104 151 187 233 292 365 422
#     4  12  28  45  69 102 148 194 236 289 358 427
#
# _framework density 22.863423999999998
#
# number of rings (size 3 to 8) (size 9 to 14) (size 15 to 20)
#    0.000    0.500    5.000    3.375    7.000    3.000 
#    0.000    1.250    0.000    0.000    0.000    0.000 
#    0.000    0.000    0.000    0.000    0.000    0.000 
#
# Total GULP energy -89417.810503 kJ/mol
# GULP energy per Si atom -5588.613156 kJ/mol
# Density = 2.281139 g / cm^3
# Si number density = 22.863424 Si / 1000 Ang^3
#
#
#
# Elastic Constant Matrix: (Units=GPa)
#
#
# Indices 1 2 3 4 5 6 
#
# 1 81.7578 20.2590 -2.5836 -9.7928 22.1088 -30.2788
# 2 20.2590 128.2114 45.9213 -12.4188 -1.1273 -28.9280
# 3 -2.5836 45.9213 91.6065 -17.0034 0.8212 -10.1013
# 4 -9.7928 -12.4188 -17.0034 51.3028 -20.1250 10.9940
# 5 22.1088 -1.1273 0.8212 -20.1250 56.8431 -11.0289
# 6 -30.2788 -28.9280 -10.1013 10.9940 -11.0289 42.5176
#
#
#
# Elastic Compliance Matrix: (Units=1/GPa)
#
#
# Indices 1 2 3 4 5 6 
#
# 1 0.018171 -0.001210 0.002338 -0.000501 -0.005074 0.011486
# 2 -0.001210 0.011160 -0.004918 0.000360 0.002055 0.006002
# 3 0.002338 -0.004918 0.014263 0.003949 0.000335 0.000773
# 4 -0.000501 0.000360 0.003949 0.024764 0.008245 -0.003438
# 5 -0.005074 0.002055 0.000335 0.008245 0.022843 0.001658
# 6 0.011486 0.006002 0.000773 -0.003438 0.001658 0.037286
#
#
# Mechanical properties :
#
#
# Convention : Reuss Voigt Hill
#
# Bulk Modulus (GPa) = 27.76790 47.64100 37.70445
# Shear Modulus (GPa) = 33.76781 45.99797 39.88289
#
# Velocity S-wave (km/s) = 3.84726 4.49024 4.18113
# Velocity P-wave (km/s) = 5.64860 6.91126 6.31158
#
# Compressibility (1/GPa) = 0.03601280
#
# Stress axis : x y z
#
# Youngs Moduli (GPa) = 55.03313 89.60885 70.11277
#
# Poissons Ratio (x) = 0.10846 -0.16393
# Poissons Ratio (y) = 0.06661 0.34481
# Poissons Ratio (z) = -0.12868 0.44070
#
# Static dielectric constant tensor:
#      x y z
#    x 1.945850 0.136880 0.076550 
#    y 0.136880 2.280780 0.265490 
#    z 0.076550 0.265490 2.026470 
# 
# From -- ./inp_files/209491.got.cif
#   From: 2010.05.17/outbox.cif.g08.bks.cpg/sg2_105_cif.got.tgz:209491.got - 2010.06.03 11:33:40.
