data_PCOD9030694
_publ_section_title
;
Structure prediction by ZEFSAII (Michael W. Deem and Ramdas Pophale) SiO2 
 PCOD9030694
Probable space group: P -1
;
_chemical_formula_sum "Si O2"
_cell_formula_units_Z 13
_cell_length_a 5.592929
_cell_length_b 24.329964
_cell_length_c 14.411358
_cell_angle_alpha 18.105915
_cell_angle_beta 112.718207
_cell_angle_gamma 108.974355
_cell_volume 556.110666
_symmetry_space_group_name_H-M "P -1"
_symmetry_group_IT_number 2
_symmetry_cell_setting 'triclinic'
loop_
_space_group_symop_operation_xyz
x,y,z
-x,-y,-z
loop_
_atom_site_type_symbol
_atom_site_label
_atom_site_fract_x
_atom_site_fract_y
_atom_site_fract_z
Si Si1 0.583299 0.207212 0.745857
Si Si2 0.731473 0.564344 0.803014
Si Si3 0.457106 0.872547 0.383480
Si Si4 0.531345 0.202334 0.291824
Si Si5 0.742350 0.404702 0.627084
Si Si6 0.000000 0.000000 0.000000
Si Si7 0.096608 0.099355 0.268328
O O1 0.306877 0.290737 0.521033
O O2 0.651729 0.351529 0.597445
O O3 0.547162 0.031132 0.080862
O O4 0.796463 0.147950 0.793636
O O5 0.554837 0.677176 0.672290
O O6 0.624822 0.390825 0.025170
O O7 0.000000 0.500000 0.000000
O O8 0.558970 0.868615 0.509600
O O9 0.146510 0.922315 0.244230
O O10 0.315522 0.210570 0.165376
O O11 0.764571 0.050833 0.538409
O O12 0.500000 0.500000 0.500000
O O13 0.000000 0.500000 0.500000
O O14 0.859260 0.224710 0.986155
O O15 0.000000 0.000000 0.500000
#
# Coordination Sequence:
#
# PCOD9030694 Si02
#       7
#     2   2   2   2   2   1   2
#     4  11  26  48  75 107 149 200 254 313 384 461
#     4  11  26  44  72 107 151 189 242 305 382 457
#     4  11  25  45  72 105 143 196 246 305 381 456
#     4  11  26  46  74 109 150 193 255 312 389 457
#     4  12  30  50  80 116 155 204 265 327 389 460
#     4  10  22  42  72  98 140 188 246 298 372 446
#     4  11  27  49  79 105 149 203 256 321 391 458
#
# _framework density 23.376639999999998
#
# number of rings (size 3 to 8) (size 9 to 14) (size 15 to 20)
#    0.000    0.923    0.000    5.077   19.385    0.000 
#    0.000    0.000    0.000    0.000    0.000    0.000 
#    0.000    0.000    0.000    0.000    0.000    0.000 
#
# Total GULP energy -72457.667774 kJ/mol
# GULP energy per Si atom -5573.666752 kJ/mol
# Density = 2.332343 g / cm^3
# Si number density = 23.376640 Si / 1000 Ang^3
#
#
#
# Elastic Constant Matrix: (Units=GPa)
#
#
# Indices 1 2 3 4 5 6 
#
# 1 84.3798 50.1801 46.0930 -19.7290 14.5207 -0.4880
# 2 50.1801 140.2482 54.3174 -23.3407 17.7498 -13.4815
# 3 46.0930 54.3174 142.4841 4.9896 29.0940 0.1234
# 4 -19.7290 -23.3407 4.9896 53.8348 5.3539 -2.8404
# 5 14.5207 17.7498 29.0940 5.3539 53.2940 4.2013
# 6 -0.4880 -13.4815 0.1234 -2.8404 4.2013 37.5057
#
#
#
# Elastic Compliance Matrix: (Units=1/GPa)
#
#
# Indices 1 2 3 4 5 6 
#
# 1 0.017958 -0.003672 -0.004217 0.005544 -0.001890 -0.000441
# 2 -0.003672 0.010811 -0.002695 0.004008 -0.001876 0.004361
# 3 -0.004217 -0.002695 0.010159 -0.003400 -0.003081 -0.000969
# 4 0.005544 0.004008 -0.003400 0.023214 -0.003612 0.003687
# 5 -0.001890 -0.001876 -0.003081 -0.003612 0.022221 -0.003451
# 6 -0.000441 0.004361 -0.000969 0.003687 -0.003451 0.028893
#
#
# Mechanical properties :
#
#
# Convention : Reuss Voigt Hill
#
# Bulk Modulus (GPa) = 56.30749 74.25477 65.28113
# Shear Modulus (GPa) = 35.62673 43.36168 39.49420
#
# Velocity S-wave (km/s) = 3.90812 4.31154 4.11478
# Velocity P-wave (km/s) = 6.67112 7.52458 7.11067
#
# Compressibility (1/GPa) = 0.01775963
#
# Stress axis : x y z
#
# Youngs Moduli (GPa) = 55.68618 92.49504 98.43572
#
# Poissons Ratio (x) = 0.33968 0.41512
# Poissons Ratio (y) = 0.20450 0.26525
# Poissons Ratio (z) = 0.23484 0.24924
#
# Static dielectric constant tensor:
#      x y z
#    x 2.083680 0.135580 -0.183740 
#    y 0.135580 1.992490 -0.044120 
#    z -0.183740 -0.044120 1.892210 
# 
# From -- ./inp_files/100980.got.cif
#   From: 2010.05.17/outbox.cif.g08.bks.cpg/sg2_51_cif.got.tgz:100980.got - 2010.06.03 11:33:40.
