data_PCOD9030967
_publ_section_title
;
Structure prediction by ZEFSAII (Michael W. Deem and Ramdas Pophale) SiO2 
 PCOD9030967
Probable space group: P -1
;
_chemical_formula_sum "Si O2"
_cell_formula_units_Z 16
_cell_length_a 8.832909
_cell_length_b 19.657048
_cell_length_c 5.638486
_cell_angle_alpha 125.264257
_cell_angle_beta 126.333408
_cell_angle_gamma 70.999533
_cell_volume 643.744209
_symmetry_space_group_name_H-M "P -1"
_symmetry_group_IT_number 2
_symmetry_cell_setting 'triclinic'
loop_
_space_group_symop_operation_xyz
x,y,z
-x,-y,-z
loop_
_atom_site_type_symbol
_atom_site_label
_atom_site_fract_x
_atom_site_fract_y
_atom_site_fract_z
Si Si1 0.191367 0.841714 0.030025
Si Si2 0.811693 0.846777 0.835553
Si Si3 0.800271 0.687651 0.198603
Si Si4 0.167165 0.698099 0.329568
Si Si5 0.323345 0.978569 0.125378
Si Si6 0.557145 0.174296 0.388369
Si Si7 0.410296 0.589468 0.611842
Si Si8 0.969160 0.449787 0.616959
O O1 0.398304 0.843479 0.332868
O O2 0.170005 0.925307 0.027058
O O3 0.178767 0.759717 0.694291
O O4 0.032030 0.844546 0.089980
O O5 0.796426 0.782832 0.472743
O O6 0.755615 0.940105 0.907561
O O7 0.662523 0.811695 0.817044
O O8 0.897597 0.629119 0.372512
O O9 0.942516 0.679831 0.088095
O O10 0.587042 0.653573 0.912311
O O11 0.300209 0.749870 0.380554
O O12 0.282526 0.616212 0.326155
O O13 0.500000 0.000000 0.500000
O O14 0.391954 0.909181 0.866738
O O15 0.500000 0.500000 0.500000
O O16 0.248604 0.583393 0.650465
O O17 0.000000 0.500000 0.500000
O O18 0.000000 0.500000 0.000000
#
# Coordination Sequence:
#
# PCOD9030967 Si02
#       8
#     2   2   2   2   2   2   2   2
#     4  10  22  43  63  91 128 172 224 276 339 398
#     4  11  23  42  65  98 129 175 229 276 340 413
#     4  10  23  46  67 101 137 179 227 282 351 412
#     4   9  23  42  63  95 136 173 218 285 338 405
#     4  11  23  42  65  89 135 174 217 282 338 405
#     4  11  23  42  65  95 128 173 223 280 338 401
#     4  11  22  43  71 101 135 182 233 280 355 424
#     4  11  25  50  75 107 146 184 235 298 351 424
#
# _framework density 24.854589000000001
#
# number of rings (size 3 to 8) (size 9 to 14) (size 15 to 20)
#    0.000    1.500    2.500    1.500    1.750    3.000 
#   22.500    0.000    0.000    0.000    0.000    0.000 
#    0.000    0.000    0.000    0.000    0.000    0.000 
#
# Total GULP energy -89307.682388 kJ/mol
# GULP energy per Si atom -5581.730149 kJ/mol
# Density = 2.479802 g / cm^3
# Si number density = 24.854589 Si / 1000 Ang^3
#
#
#
# Elastic Constant Matrix: (Units=GPa)
#
#
# Indices 1 2 3 4 5 6 
#
# 1 156.0876 42.5004 12.1080 -8.7834 32.3092 -4.0923
# 2 42.5004 115.0417 6.8194 7.8131 5.2668 1.7845
# 3 12.1080 6.8194 77.8544 9.6152 6.9496 0.7728
# 4 -8.7834 7.8131 9.6152 26.8793 0.3718 4.1590
# 5 32.3092 5.2668 6.9496 0.3718 31.1575 -2.5311
# 6 -4.0923 1.7845 0.7728 4.1590 -2.5311 42.8690
#
#
#
# Elastic Compliance Matrix: (Units=1/GPa)
#
#
# Indices 1 2 3 4 5 6 
#
# 1 0.009552 -0.003364 -0.000934 0.004547 -0.009176 0.000086
# 2 -0.003364 0.010131 -0.000027 -0.004021 0.001810 -0.000245
# 3 -0.000934 -0.000027 0.013819 -0.005220 -0.002043 0.000049
# 4 0.004547 -0.004021 -0.005220 0.042338 -0.003671 -0.003629
# 5 -0.009176 0.001810 -0.002043 -0.003671 0.041960 0.001919
# 6 0.000086 -0.000245 0.000049 -0.003629 0.001919 0.023810
#
#
# Mechanical properties :
#
#
# Convention : Reuss Voigt Hill
#
# Bulk Modulus (GPa) = 40.23732 52.42660 46.33196
# Shear Modulus (GPa) = 31.53727 39.35155 35.44441
#
# Velocity S-wave (km/s) = 3.56599 3.98335 3.78043
# Velocity P-wave (km/s) = 5.76014 6.50348 6.14306
#
# Compressibility (1/GPa) = 0.02485255
#
# Stress axis : x y z
#
# Youngs Moduli (GPa) = 104.68464 98.70868 72.36593
#
# Poissons Ratio (x) = 0.33203 0.06761
# Poissons Ratio (y) = 0.35213 0.00193
# Poissons Ratio (z) = 0.09781 0.00263
#
# Static dielectric constant tensor:
#      x y z
#    x 2.075120 0.092760 0.011070 
#    y 0.092760 1.968540 0.010980 
#    z 0.011070 0.010980 1.976020 
# 
# From -- ./inp_files/54013.got.cif
#   From: 2010.05.17/outbox.cif.g08.bks.cpg/sg2_28_cif.got.tgz:54013.got - 2010.06.03 11:33:40.
