data_PCOD9030965
_publ_section_title
;
Structure prediction by ZEFSAII (Michael W. Deem and Ramdas Pophale) SiO2 
 PCOD9030965
Probable space group: P -1
;
_chemical_formula_sum "Si O2"
_cell_formula_units_Z 16
_cell_length_a 13.717586
_cell_length_b 9.320366
_cell_length_c 11.060537
_cell_angle_alpha 132.091695
_cell_angle_beta 79.717197
_cell_angle_gamma 128.170838
_cell_volume 754.631009
_symmetry_space_group_name_H-M "P -1"
_symmetry_group_IT_number 2
_symmetry_cell_setting 'triclinic'
loop_
_space_group_symop_operation_xyz
x,y,z
-x,-y,-z
loop_
_atom_site_type_symbol
_atom_site_label
_atom_site_fract_x
_atom_site_fract_y
_atom_site_fract_z
Si Si1 0.144836 0.254570 0.058248
Si Si2 0.871448 0.121984 0.291545
Si Si3 0.191511 0.728262 0.240703
Si Si4 0.095119 0.612821 0.798284
Si Si5 0.634280 0.023344 0.413523
Si Si6 0.075358 0.193027 0.476334
Si Si7 0.394319 0.588847 0.357158
Si Si8 0.757948 0.916963 0.771875
O O1 0.149220 0.447970 0.082180
O O2 0.243587 0.412029 0.237236
O O3 0.199754 0.152908 0.911113
O O4 0.000000 0.000000 0.000000
O O5 0.948155 0.336274 0.287785
O O6 0.752103 0.099943 0.348263
O O7 0.968231 0.155699 0.388997
O O8 0.289700 0.867453 0.412031
O O9 0.044434 0.626518 0.238789
O O10 0.260925 0.934231 0.233984
O O11 0.160156 0.492624 0.678634
O O12 0.174620 0.876798 0.012032
O O13 0.581986 0.162566 0.457873
O O14 0.503926 0.718162 0.299032
O O15 0.153051 0.131423 0.345636
O O16 0.000000 0.000000 0.500000
O O17 0.376686 0.378418 0.324825
#
# Coordination Sequence:
#
# PCOD9030965 Si02
#       8
#     2   2   2   2   2   2   2   2
#     4  11  21  37  63  93 123 159 206 254 321 375
#     4  12  22  38  63  91 126 166 203 272 309 372
#     4  11  22  39  59  90 129 165 208 254 321 378
#     4  12  23  38  61  97 126 167 205 258 326 369
#     4  10  23  41  65  89 122 165 217 263 307 383
#     4  12  25  37  60  97 131 162 204 256 324 382
#     4  10  22  43  63  91 119 167 217 253 319 380
#     4  12  24  41  63  93 131 169 204 271 319 378
#
# _framework density 21.202414999999998
#
# number of rings (size 3 to 8) (size 9 to 14) (size 15 to 20)
#    0.000    0.750    5.000    3.000    3.500    1.000 
#    0.000    0.000    0.000    0.750    0.000    0.000 
#    0.000    0.000    0.000    0.000    0.000    0.000 
#
# Total GULP energy -89172.410756 kJ/mol
# GULP energy per Si atom -5573.275672 kJ/mol
# Density = 2.115416 g / cm^3
# Si number density = 21.202415 Si / 1000 Ang^3
#
#
#
# Elastic Constant Matrix: (Units=GPa)
#
#
# Indices 1 2 3 4 5 6 
#
# 1 26.0411 1.4234 21.5549 6.0539 -20.6648 -4.5643
# 2 1.4234 126.0641 42.0066 24.7045 -6.0634 -25.6952
# 3 21.5549 42.0066 81.5441 5.2638 -23.8285 -5.9926
# 4 6.0539 24.7045 5.2638 35.3688 -0.6858 -0.9999
# 5 -20.6648 -6.0634 -23.8285 -0.6858 27.0613 9.3309
# 6 -4.5643 -25.6952 -5.9926 -0.9999 9.3309 42.3643
#
#
#
# Elastic Compliance Matrix: (Units=1/GPa)
#
#
# Indices 1 2 3 4 5 6 
#
# 1 0.118146 0.011053 -0.011312 -0.024687 0.082422 -0.000903
# 2 0.011053 0.014584 -0.008943 -0.010498 0.000680 0.008374
# 3 -0.011312 -0.008943 0.022391 0.004903 0.011208 -0.005828
# 4 -0.024687 -0.010498 0.004903 0.038702 -0.014444 -0.004239
# 5 0.082422 0.000680 0.011208 -0.014444 0.114620 -0.014708
# 6 -0.000903 0.008374 -0.005828 -0.004239 -0.014708 0.030902
#
#
# Mechanical properties :
#
#
# Convention : Reuss Voigt Hill
#
# Bulk Modulus (GPa) = 7.31433 40.40212 23.85822
# Shear Modulus (GPa) = 12.39710 32.20318 22.30014
#
# Velocity S-wave (km/s) = 2.42069 3.90146 3.24662
# Velocity P-wave (km/s) = 3.35711 6.27631 5.03300
#
# Compressibility (1/GPa) = 0.13671797
#
# Stress axis : x y z
#
# Youngs Moduli (GPa) = 8.46411 68.56615 44.66174
#
# Poissons Ratio (x) = -0.75788 0.50521
# Poissons Ratio (y) = -0.09356 0.39941
# Poissons Ratio (z) = 0.09574 0.61318
#
# Static dielectric constant tensor:
#      x y z
#    x 1.807900 -0.026620 -0.039920 
#    y -0.026620 1.802270 0.008550 
#    z -0.039920 0.008550 1.863510 
# 
# From -- ./inp_files/223433.got.cif
#   From: 2010.05.17/outbox.cif.g08.bks.cpg/sg2_112_cif.got.tgz:223433.got - 2010.06.03 11:33:40.
