data_PCOD9030588
_publ_section_title
;
Structure prediction by ZEFSAII (Michael W. Deem and Ramdas Pophale) SiO2 
 PCOD9030588
Probable space group: P -1
;
_chemical_formula_sum "Si O2"
_cell_formula_units_Z 14
_cell_length_a 13.644992
_cell_length_b 14.047235
_cell_length_c 13.667952
_cell_angle_alpha 38.684540
_cell_angle_beta 39.724112
_cell_angle_gamma 21.397742
_cell_volume 587.022961
_symmetry_space_group_name_H-M "P -1"
_symmetry_group_IT_number 2
_symmetry_cell_setting 'triclinic'
loop_
_space_group_symop_operation_xyz
x,y,z
-x,-y,-z
loop_
_atom_site_type_symbol
_atom_site_label
_atom_site_fract_x
_atom_site_fract_y
_atom_site_fract_z
Si Si1 0.797747 0.897672 0.586288
Si Si2 0.489883 0.726718 0.641985
Si Si3 0.055046 0.433609 0.625956
Si Si4 0.996750 0.165422 0.817355
Si Si5 0.384385 0.171396 0.069056
Si Si6 0.931951 0.731264 0.938640
Si Si7 0.805258 0.303820 0.408039
O O1 0.601354 0.992669 0.746014
O O2 0.871757 0.701204 0.611952
O O3 0.082504 0.691258 0.591163
O O4 0.709572 0.128402 0.415292
O O5 0.640017 0.750795 0.459978
O O6 0.729492 0.420718 0.747279
O O7 0.277741 0.938648 0.721023
O O8 0.000000 0.500000 0.500000
O O9 0.009237 0.291942 0.785741
O O10 0.000000 0.000000 0.000000
O O11 0.246028 0.238124 0.017906
O O12 0.142241 0.475081 0.053872
O O13 0.674035 0.016738 0.962482
O O14 0.121364 0.668814 0.769894
O O15 0.500000 0.500000 0.500000
O O16 0.000000 0.000000 0.500000
#
# Coordination Sequence:
#
# PCOD9030588 Si02
#       7
#     2   2   2   2   2   2   2
#     4  11  24  40  73 102 132 184 250 289 344 423
#     4  11  22  42  69 101 137 184 238 283 340 430
#     4  10  22  42  72 101 137 182 233 286 345 426
#     4  11  24  42  69 103 145 185 221 287 365 418
#     4   9  19  33  61  91 123 158 221 281 339 390
#     4   9  18  37  58  88 123 167 211 282 341 400
#     4  11  25  42  67  96 137 188 237 286 353 419
#
# _framework density 23.849152
#
# number of rings (size 3 to 8) (size 9 to 14) (size 15 to 20)
#    0.000    1.714    2.857    1.714    6.000    2.286 
#    0.000    1.429    6.286    0.000    0.000    0.000 
#    0.000    0.000    0.000    0.000    0.000    0.000 
#
# Total GULP energy -77986.741570 kJ/mol
# GULP energy per Si atom -5570.481541 kJ/mol
# Density = 2.379487 g / cm^3
# Si number density = 23.849152 Si / 1000 Ang^3
#
#
#
# Elastic Constant Matrix: (Units=GPa)
#
#
# Indices 1 2 3 4 5 6 
#
# 1 41.4515 14.1774 27.8175 -11.3459 6.5210 2.0308
# 2 14.1774 187.1461 60.9812 -1.6960 0.9905 -25.3871
# 3 27.8175 60.9812 125.2210 -21.8670 -5.4737 -18.5495
# 4 -11.3459 -1.6960 -21.8670 41.1567 -5.9660 -7.5527
# 5 6.5210 0.9905 -5.4737 -5.9660 30.1813 -5.1621
# 6 2.0308 -25.3871 -18.5495 -7.5527 -5.1621 27.4285
#
#
#
# Elastic Compliance Matrix: (Units=1/GPa)
#
#
# Indices 1 2 3 4 5 6 
#
# 1 0.032707 -0.001082 -0.008669 0.000854 -0.010315 -0.010992
# 2 -0.001082 0.006861 -0.002466 -0.000423 0.000281 0.004699
# 3 -0.008669 -0.002466 0.014910 0.008972 0.008574 0.012527
# 4 0.000854 -0.000423 0.008972 0.034024 0.011102 0.017071
# 5 -0.010315 0.000281 0.008574 0.011102 0.042149 0.017812
# 6 -0.010992 0.004699 0.012527 0.017071 0.017812 0.058146
#
#
# Mechanical properties :
#
#
# Convention : Reuss Voigt Hill
#
# Bulk Modulus (GPa) = 33.28476 62.19675 47.74076
# Shear Modulus (GPa) = 22.39678 36.47614 29.43646
#
# Velocity S-wave (km/s) = 3.06780 3.91506 3.51704
# Velocity P-wave (km/s) = 5.15123 6.82443 6.04599
#
# Compressibility (1/GPa) = 0.03004378
#
# Stress axis : x y z
#
# Youngs Moduli (GPa) = 30.57446 145.74740 67.06916
#
# Poissons Ratio (x) = 0.15765 0.58143
# Poissons Ratio (y) = 0.03307 0.16542
# Poissons Ratio (z) = 0.26505 0.35948
#
# Static dielectric constant tensor:
#      x y z
#    x 2.114790 -0.100500 0.163720 
#    y -0.100500 2.127430 -0.134060 
#    z 0.163720 -0.134060 2.037800 
# 
# From -- ./inp_files/533678.got.cif
#   From: 2010.05.17/outbox.cif.g08.bks.cpg/sg2_267_cif.got.tgz:533678.got - 2010.06.03 11:33:40.
