data_PCOD9030986
_publ_section_title
;
Structure prediction by ZEFSAII (Michael W. Deem and Ramdas Pophale) SiO2 
 PCOD9030986
Probable space group: P -1
;
_chemical_formula_sum "Si O2"
_cell_formula_units_Z 14
_cell_length_a 7.050511
_cell_length_b 21.136146
_cell_length_c 9.852163
_cell_angle_alpha 148.808710
_cell_angle_beta 134.552521
_cell_angle_gamma 53.186196
_cell_volume 541.839243
_symmetry_space_group_name_H-M "P -1"
_symmetry_group_IT_number 2
_symmetry_cell_setting 'triclinic'
loop_
_space_group_symop_operation_xyz
x,y,z
-x,-y,-z
loop_
_atom_site_type_symbol
_atom_site_label
_atom_site_fract_x
_atom_site_fract_y
_atom_site_fract_z
Si Si1 0.876532 0.720430 0.628960
Si Si2 0.564585 0.002256 0.377966
Si Si3 0.582891 0.407074 0.253490
Si Si4 0.060776 0.297248 0.855139
Si Si5 0.995048 0.171027 0.840323
Si Si6 0.413253 0.594599 0.300200
Si Si7 0.181575 0.820395 0.717129
O O1 0.123221 0.638643 0.654998
O O2 0.955595 0.776077 0.626905
O O3 0.606355 0.645152 0.372790
O O4 0.882640 0.823845 0.938840
O O5 0.816835 0.916028 0.313593
O O6 0.500000 0.000000 0.500000
O O7 0.689236 0.129410 0.622968
O O8 0.321478 0.942103 0.063173
O O9 0.500000 0.500000 0.500000
O O10 0.528007 0.477303 0.215307
O O11 0.363839 0.302015 0.971686
O O12 0.014430 0.292679 0.983236
O O13 0.889889 0.410401 0.915493
O O14 0.926376 0.183743 0.497937
O O15 0.389592 0.706288 0.603578
#
# Coordination Sequence:
#
# PCOD9030986 Si02
#       7
#     2   2   2   2   2   2   2
#     4  12  22  41  71  95 133 179 225 269 317 392
#     4  11  22  42  71  97 127 176 220 271 327 400
#     4  12  22  41  69  98 131 182 226 265 319 394
#     4  10  24  44  65  95 146 169 207 285 335 382
#     4  11  23  40  68 101 127 170 229 265 325 401
#     4  10  23  42  64  95 138 170 220 267 329 381
#     4  10  22  43  63  93 141 167 210 276 337 375
#
# _framework density 25.837921999999999
#
# number of rings (size 3 to 8) (size 9 to 14) (size 15 to 20)
#    0.857    0.286    4.286    2.571    0.000    1.714 
#    0.000    2.857    0.000    0.000    0.000    0.000 
#    0.000    0.000    0.000    0.000    0.000    0.000 
#
# Total GULP energy -78323.020508 kJ/mol
# GULP energy per Si atom -5594.501465 kJ/mol
# Density = 2.577911 g / cm^3
# Si number density = 25.837922 Si / 1000 Ang^3
#
#
#
# Elastic Constant Matrix: (Units=GPa)
#
#
# Indices 1 2 3 4 5 6 
#
# 1 154.9611 16.9145 22.7408 -0.2971 -1.3418 5.0355
# 2 16.9145 51.1292 -13.7496 -7.6577 -0.1682 -1.7234
# 3 22.7408 -13.7496 85.1349 -14.0054 2.4112 1.8635
# 4 -0.2971 -7.6577 -14.0054 25.9922 3.1145 0.1525
# 5 -1.3418 -0.1682 2.4112 3.1145 43.9590 7.1377
# 6 5.0355 -1.7234 1.8635 0.1525 7.1377 39.4696
#
#
#
# Elastic Compliance Matrix: (Units=1/GPa)
#
#
# Indices 1 2 3 4 5 6 
#
# 1 0.007328 -0.003665 -0.002989 -0.002689 0.000739 -0.001077
# 2 -0.003665 0.024239 0.006689 0.010861 -0.001386 0.001419
# 3 -0.002989 0.006689 0.015383 0.010425 -0.001682 0.000211
# 4 -0.002689 0.010861 0.010425 0.047750 -0.004140 0.000889
# 5 0.000739 -0.001386 -0.001682 -0.004140 0.023862 -0.004375
# 6 -0.001077 0.001419 0.000211 0.000889 -0.004375 0.026313
#
#
# Mechanical properties :
#
#
# Convention : Reuss Voigt Hill
#
# Bulk Modulus (GPa) = 21.26753 38.11520 29.69136
# Shear Modulus (GPa) = 31.15678 39.57213 35.36446
#
# Velocity S-wave (km/s) = 3.47631 3.91775 3.70361
# Velocity P-wave (km/s) = 4.93578 5.93706 5.45943
#
# Compressibility (1/GPa) = 0.04702003
#
# Stress axis : x y z
#
# Youngs Moduli (GPa) = 136.46066 41.25542 65.00777
#
# Poissons Ratio (x) = 0.15119 0.19431
# Poissons Ratio (y) = 0.50008 -0.43481
# Poissons Ratio (z) = 0.40788 -0.27594
#
# Static dielectric constant tensor:
#      x y z
#    x 2.011880 -0.014880 0.012770 
#    y -0.014880 2.080070 0.111240 
#    z 0.012770 0.111240 2.135830 
# 
# From -- ./inp_files/142454.got.cif
#   From: 2010.05.17/outbox.cif.g08.bks.cpg/sg2_72_cif.got.tgz:142454.got - 2010.06.03 11:33:40.
