data_PCOD9030713
_publ_section_title
;
Structure prediction by ZEFSAII (Michael W. Deem and Ramdas Pophale) SiO2 
 PCOD9030713
Probable space group: P -1
;
_chemical_formula_sum "Si O2"
_cell_formula_units_Z 16
_cell_length_a 18.617475
_cell_length_b 11.089860
_cell_length_c 8.611583
_cell_angle_alpha 127.939650
_cell_angle_beta 83.596929
_cell_angle_gamma 137.146274
_cell_volume 738.783746
_symmetry_space_group_name_H-M "P -1"
_symmetry_group_IT_number 2
_symmetry_cell_setting 'triclinic'
loop_
_space_group_symop_operation_xyz
x,y,z
-x,-y,-z
loop_
_atom_site_type_symbol
_atom_site_label
_atom_site_fract_x
_atom_site_fract_y
_atom_site_fract_z
Si Si1 0.521433 0.369645 0.812548
Si Si2 0.806115 0.765204 0.180624
Si Si3 0.244527 0.800606 0.547525
Si Si4 0.960062 0.330761 0.529332
Si Si5 0.770071 0.661372 0.466335
Si Si6 0.238799 0.726139 0.848547
Si Si7 0.496298 0.668545 0.580822
Si Si8 0.032703 0.174685 0.993257
O O1 0.532008 0.392119 0.643075
O O2 0.388767 0.032675 0.619274
O O3 0.500000 0.500000 0.000000
O O4 0.655744 0.530058 0.971443
O O5 0.801652 0.770584 0.370582
O O6 0.869794 0.719034 0.079461
O O7 0.907602 0.065719 0.309171
O O8 0.178997 0.836219 0.518185
O O9 0.271232 0.846711 0.762242
O O10 0.124277 0.468081 0.279220
O O11 0.000000 0.500000 0.500000
O O12 0.093309 0.547975 0.775459
O O13 0.776294 0.485726 0.326632
O O14 0.624018 0.455972 0.400502
O O15 0.887054 0.945547 0.770361
O O16 0.360135 0.993060 0.143744
O O17 0.500000 0.500000 0.500000
O O18 0.000000 0.000000 0.000000
#
# Coordination Sequence:
#
# PCOD9030713 Si02
#       8
#     2   2   2   2   2   2   2   2
#     4  12  26  48  72 102 143 183 239 294 356 424
#     4  12  25  45  74  99 145 189 236 296 355 419
#     4  11  24  43  74 105 142 187 241 289 349 426
#     4  10  22  42  73 102 135 190 232 294 349 415
#     4  12  26  47  71 105 149 186 236 295 354 430
#     4  11  24  47  70 103 149 186 235 289 359 418
#     4  12  29  45  73 105 140 190 239 297 359 423
#     4  12  24  45  71 109 142 188 237 287 357 417
#
# _framework density 21.657215999999998
#
# number of rings (size 3 to 8) (size 9 to 14) (size 15 to 20)
#    0.000    0.500    3.750    4.500    5.250    0.500 
#    0.000    1.250    0.000    0.000    0.000    0.000 
#    0.000    0.000    0.000    0.000    0.000    0.000 
#
# Total GULP energy -89381.624589 kJ/mol
# GULP energy per Si atom -5586.351537 kJ/mol
# Density = 2.160792 g / cm^3
# Si number density = 21.657216 Si / 1000 Ang^3
#
#
#
# Elastic Constant Matrix: (Units=GPa)
#
#
# Indices 1 2 3 4 5 6 
#
# 1 67.2269 16.1133 27.4012 10.5943 19.1816 2.7588
# 2 16.1133 81.8839 24.8895 -4.4900 13.8105 3.1536
# 3 27.4012 24.8895 111.8831 9.2660 23.0136 6.3879
# 4 10.5943 -4.4900 9.2660 41.6324 3.6538 7.9103
# 5 19.1816 13.8105 23.0136 3.6538 44.3249 6.9638
# 6 2.7588 3.1536 6.3879 7.9103 6.9638 30.2333
#
#
#
# Elastic Compliance Matrix: (Units=1/GPa)
#
#
# Indices 1 2 3 4 5 6 
#
# 1 0.018770 -0.002177 -0.002623 -0.004196 -0.005979 0.001544
# 2 -0.002177 0.013922 -0.002278 0.002957 -0.002297 -0.001017
# 3 -0.002623 -0.002278 0.011002 -0.001595 -0.003643 -0.000591
# 4 -0.004196 0.002957 -0.001595 0.027001 0.000562 -0.006783
# 5 -0.005979 -0.002297 -0.003643 0.000562 0.028520 -0.005161
# 6 0.001544 -0.001017 -0.000591 -0.006783 -0.005161 0.036130
#
#
# Mechanical properties :
#
#
# Convention : Reuss Voigt Hill
#
# Bulk Modulus (GPa) = 33.85653 44.20021 39.02837
# Shear Modulus (GPa) = 31.37786 36.07745 33.72766
#
# Velocity S-wave (km/s) = 3.81049 4.08590 3.95060
# Velocity P-wave (km/s) = 5.91833 6.53550 6.23456
#
# Compressibility (1/GPa) = 0.02953640
#
# Stress axis : x y z
#
# Youngs Moduli (GPa) = 53.27662 71.82841 90.88915
#
# Poissons Ratio (x) = 0.15639 0.23844
# Poissons Ratio (y) = 0.11600 0.20707
# Poissons Ratio (z) = 0.13977 0.16365
#
# Static dielectric constant tensor:
#      x y z
#    x 1.763910 -0.000270 0.021910 
#    y -0.000270 1.817610 -0.014830 
#    z 0.021910 -0.014830 1.740010 
# 
# From -- ./inp_files/333769.got.cif
#   From: 2010.05.17/outbox.cif.g08.bks.cpg/sg2_167_cif.got.tgz:333769.got - 2010.06.03 11:33:40.
