data_PCOD9030657
_publ_section_title
;
Structure prediction by ZEFSAII (Michael W. Deem and Ramdas Pophale) SiO2 
 PCOD9030657
Probable space group: P -1
;
_chemical_formula_sum "Si O2"
_cell_formula_units_Z 12
_cell_length_a 12.911536
_cell_length_b 8.355033
_cell_length_c 7.930684
_cell_angle_alpha 123.749844
_cell_angle_beta 41.751121
_cell_angle_gamma 97.386620
_cell_volume 405.641131
_symmetry_space_group_name_H-M "P -1"
_symmetry_group_IT_number 2
_symmetry_cell_setting 'triclinic'
loop_
_space_group_symop_operation_xyz
x,y,z
-x,-y,-z
loop_
_atom_site_type_symbol
_atom_site_label
_atom_site_fract_x
_atom_site_fract_y
_atom_site_fract_z
Si Si1 0.432124 0.243134 0.151276
Si Si2 0.683328 0.116249 0.239413
Si Si3 0.000000 0.000000 0.500000
Si Si4 0.776440 0.187400 0.530860
Si Si5 0.025708 0.430055 0.735962
Si Si6 0.500000 0.500000 0.500000
Si Si7 0.704912 0.658608 0.025441
O O1 0.228463 0.357368 0.407768
O O2 0.425414 0.402180 0.399488
O O3 0.576349 0.223405 0.829064
O O4 0.500000 0.000000 0.000000
O O5 0.791594 0.123355 0.275568
O O6 0.716246 0.215480 0.085930
O O7 0.464482 0.315967 0.635701
O O8 0.662687 0.898367 0.139619
O O9 0.907750 0.025221 0.421142
O O10 0.013751 0.217561 0.577575
O O11 0.758012 0.426352 0.732199
O O12 0.000000 0.500000 0.000000
O O13 0.868018 0.619806 0.926173
#
# Coordination Sequence:
#
# PCOD9030657 Si02
#       7
#     2   2   1   2   2   1   2
#     4  12  27  43  74 115 150 195 259 307 375 450
#     4  11  24  45  75 103 145 200 252 306 380 444
#     4  10  22  42  72 114 148 202 248 302 380 444
#     4  11  23  44  75 106 150 199 248 309 374 450
#     4  11  23  42  70 108 153 200 248 307 373 448
#     4  12  28  46  74 110 144 196 258 310 368 458
#     4  10  23  42  73 103 145 195 249 303 376 444
#
# _framework density 29.582801
#
# number of rings (size 3 to 8) (size 9 to 14) (size 15 to 20)
#    0.000    1.000    3.333    2.500    7.000    0.000 
#    0.000    1.667    0.000    0.000    0.000    0.000 
#    0.000    0.000    0.000    0.000    0.000    0.000 
#
# Total GULP energy -66953.504363 kJ/mol
# GULP energy per Si atom -5579.458697 kJ/mol
# Density = 2.951547 g / cm^3
# Si number density = 29.582801 Si / 1000 Ang^3
#
#
#
# Elastic Constant Matrix: (Units=GPa)
#
#
# Indices 1 2 3 4 5 6 
#
# 1 195.6207 58.7166 45.6505 -2.6394 -20.6716 26.1325
# 2 58.7166 141.8045 31.9808 14.5781 -12.4666 6.1748
# 3 45.6505 31.9808 74.6697 5.3004 1.3717 1.5322
# 4 -2.6394 14.5781 5.3004 58.5315 2.7386 2.1517
# 5 -20.6716 -12.4666 1.3717 2.7386 77.4486 14.5921
# 6 26.1325 6.1748 1.5322 2.1517 14.5921 56.8935
#
#
#
# Elastic Compliance Matrix: (Units=1/GPa)
#
#
# Indices 1 2 3 4 5 6 
#
# 1 0.007318 -0.001950 -0.003689 0.001175 0.002360 -0.003700
# 2 -0.001950 0.008715 -0.002408 -0.002082 0.001031 -0.000171
# 3 -0.003689 -0.002408 0.016750 -0.001065 -0.002020 0.002063
# 4 0.001175 -0.002082 -0.001065 0.017806 -0.000475 -0.000837
# 5 0.002360 0.001031 -0.002020 -0.000475 0.014681 -0.004889
# 6 -0.003700 -0.000171 0.002063 -0.000837 -0.004889 0.020525
#
#
# Mechanical properties :
#
#
# Convention : Reuss Voigt Hill
#
# Bulk Modulus (GPa) = 59.92664 76.08786 68.00725
# Shear Modulus (GPa) = 46.53276 56.95786 51.74531
#
# Velocity S-wave (km/s) = 3.97037 4.39267 4.18684
# Velocity P-wave (km/s) = 6.42804 7.17659 6.81260
#
# Compressibility (1/GPa) = 0.01668707
#
# Stress axis : x y z
#
# Youngs Moduli (GPa) = 136.65263 114.74957 59.70320
#
# Poissons Ratio (x) = 0.22379 0.22027
# Poissons Ratio (y) = 0.26650 0.14375
# Poissons Ratio (z) = 0.50418 0.27629
#
# Static dielectric constant tensor:
#      x y z
#    x 2.371190 -0.023550 -0.337470 
#    y -0.023550 1.614470 0.352600 
#    z -0.337470 0.352600 2.047490 
# 
# From -- ./inp_files/245735.got.cif
#   From: 2010.05.17/outbox.cif.g08.bks.cpg/sg2_123_cif.got.tgz:245735.got - 2010.06.03 11:33:40.
