data_PCOD9030578
_publ_section_title
;
Structure prediction by ZEFSAII (Michael W. Deem and Ramdas Pophale) SiO2 
 PCOD9030578
Probable space group: P -1
;
_chemical_formula_sum "Si O2"
_cell_formula_units_Z 15
_cell_length_a 15.630111
_cell_length_b 7.083040
_cell_length_c 8.664466
_cell_angle_alpha 72.235177
_cell_angle_beta 69.813703
_cell_angle_gamma 46.777422
_cell_volume 652.728893
_symmetry_space_group_name_H-M "P -1"
_symmetry_group_IT_number 2
_symmetry_cell_setting 'triclinic'
loop_
_space_group_symop_operation_xyz
x,y,z
-x,-y,-z
loop_
_atom_site_type_symbol
_atom_site_label
_atom_site_fract_x
_atom_site_fract_y
_atom_site_fract_z
Si Si1 0.897948 0.464488 0.448217
Si Si2 0.140002 0.317029 0.258494
Si Si3 0.184338 0.033266 0.827061
Si Si4 0.541143 0.306767 0.161847
Si Si5 0.360245 0.796566 0.344751
Si Si6 0.218276 0.689735 0.653538
Si Si7 0.464130 0.116428 0.666115
Si Si8 0.000000 0.500000 0.000000
O O1 0.854530 0.541490 0.632547
O O2 0.844339 0.726815 0.317392
O O3 0.861149 0.320381 0.415065
O O4 0.039966 0.300039 0.386590
O O5 0.081958 0.478558 0.098112
O O6 0.268168 0.034149 0.227778
O O7 0.324333 0.839138 0.830807
O O8 0.154956 0.872214 0.795938
O O9 0.102321 0.186292 0.987875
O O10 0.446796 0.504573 0.301331
O O11 0.527716 0.094808 0.187464
O O12 0.500000 0.500000 0.000000
O O13 0.276205 0.804746 0.515951
O O14 0.443646 0.846985 0.350004
O O15 0.330194 0.389200 0.694727
O O16 0.500000 0.000000 0.500000
#
# Coordination Sequence:
#
# PCOD9030578 Si02
#       8
#     2   2   2   2   2   2   2   1
#     4  10  22  42  72 100 138 184 240 306 351 413
#     4  10  22  44  65 101 138 186 236 300 356 422
#     4  11  22  46  68 101 140 188 243 294 362 420
#     4  12  26  43  69 103 151 191 230 293 368 436
#     4  12  24  40  68 109 139 180 242 289 353 428
#     4  12  22  40  75 109 139 182 244 306 350 421
#     4  12  23  41  70 106 144 185 232 293 355 424
#     4  10  24  46  72  86 142 196 230 296 360 434
#
# _framework density 22.980446000000001
#
# number of rings (size 3 to 8) (size 9 to 14) (size 15 to 20)
#    0.000    0.800    5.333    2.800    0.000    1.067 
#    0.000    2.667    0.000    0.000    0.000    0.000 
#    0.000    0.000    0.000    0.000    0.000    0.000 
#
# Total GULP energy -83620.769164 kJ/mol
# GULP energy per Si atom -5574.717944 kJ/mol
# Density = 2.292814 g / cm^3
# Si number density = 22.980446 Si / 1000 Ang^3
#
#
#
# Elastic Constant Matrix: (Units=GPa)
#
#
# Indices 1 2 3 4 5 6 
#
# 1 95.3299 38.2976 18.1125 20.8270 24.6350 13.2992
# 2 38.2976 94.7721 18.5562 24.3541 8.4012 -1.6952
# 3 18.1125 18.5562 17.6326 -16.2334 22.3197 11.5716
# 4 20.8270 24.3541 -16.2334 33.8397 5.1386 4.9506
# 5 24.6350 8.4012 22.3197 5.1386 28.2763 -0.6366
# 6 13.2992 -1.6952 11.5716 4.9506 -0.6366 56.1703
#
#
#
# Elastic Compliance Matrix: (Units=1/GPa)
#
#
# Indices 1 2 3 4 5 6 
#
# 1 0.017263 -0.004271 -0.001177 -0.005786 -0.011872 -0.003598
# 2 -0.004271 0.009324 0.013872 0.004528 -0.010869 -0.002087
# 3 -0.001177 0.013872 -0.037611 -0.034049 0.033046 0.011821
# 4 -0.005786 0.004528 -0.034049 0.007873 0.029325 0.008160
# 5 -0.011872 -0.010869 0.033046 0.029325 0.017373 -0.006713
# 6 -0.003598 -0.002087 0.011821 0.008160 -0.006713 0.015362
#
#
# Mechanical properties :
#
#
# Convention : Reuss Voigt Hill
#
# Bulk Modulus (GPa) = 171.69333 39.74083 105.71708
# Shear Modulus (GPa) = 340.69560 32.50849 186.60204
#
# Velocity S-wave (km/s) = 12.18919 3.76522 9.02090
# Velocity P-wave (km/s) = 16.52201 6.01941 12.43403
#
# Compressibility (1/GPa) = 0.00582434
#
# Stress axis : x y z
#
# Youngs Moduli (GPa) = 57.92645 107.25137 -26.58775
#
# Poissons Ratio (x) = 0.45805 -0.03128
# Poissons Ratio (y) = 0.24739 0.36881
# Poissons Ratio (z) = 0.06815 -1.48774
#
# Static dielectric constant tensor:
#      x y z
#    x 1.840660 -0.028220 -0.045910 
#    y -0.028220 1.810180 0.093350 
#    z -0.045910 0.093350 2.083320 
# 
# From -- ./inp_files/288842.got.cif
#   From: 2010.05.17/outbox.cif.g08.bks.cpg/sg2_145_cif.got.tgz:288842.got - 2010.06.03 11:33:40.
