data_PCOD9030591
_publ_section_title
;
Structure prediction by ZEFSAII (Michael W. Deem and Ramdas Pophale) SiO2 
 PCOD9030591
Probable space group: P -1
;
_chemical_formula_sum "Si O2"
_cell_formula_units_Z 14
_cell_length_a 13.807556
_cell_length_b 6.653363
_cell_length_c 20.040212
_cell_angle_alpha 135.540720
_cell_angle_beta 26.730993
_cell_angle_gamma 124.659879
_cell_volume 566.016763
_symmetry_space_group_name_H-M "P -1"
_symmetry_group_IT_number 2
_symmetry_cell_setting 'triclinic'
loop_
_space_group_symop_operation_xyz
x,y,z
-x,-y,-z
loop_
_atom_site_type_symbol
_atom_site_label
_atom_site_fract_x
_atom_site_fract_y
_atom_site_fract_z
Si Si1 0.110070 0.742285 0.921152
Si Si2 0.529306 0.836019 0.763774
Si Si3 0.428972 0.228934 0.536877
Si Si4 0.198194 0.805555 0.526289
Si Si5 0.096459 0.841245 0.748186
Si Si6 0.828164 0.211407 0.609394
Si Si7 0.693296 0.672846 0.905094
O O1 0.335914 0.758491 0.821898
O O2 0.207013 0.461360 0.748707
O O3 0.000000 0.000000 0.000000
O O4 0.949254 0.848461 0.109499
O O5 0.696410 0.535787 0.606299
O O6 0.618031 0.070897 0.719793
O O7 0.432185 0.990700 0.929044
O O8 0.662528 0.335103 0.415342
O O9 0.500000 0.000000 0.500000
O O10 0.377225 0.012881 0.460369
O O11 0.085900 0.902345 0.689471
O O12 0.091596 0.820513 0.523066
O O13 0.898806 0.658799 0.828166
O O14 0.783412 0.534138 0.746167
O O15 0.000000 0.000000 0.500000
O O16 0.500000 0.500000 0.000000
#
# Coordination Sequence:
#
# PCOD9030591 Si02
#       7
#     2   2   2   2   2   2   2
#     4  11  24  41  69 110 147 195 242 303 363 437
#     4  10  22  45  66 100 147 183 246 302 363 438
#     4  10  22  43  67 104 148 194 245 290 371 451
#     4  11  24  44  71 104 145 198 240 300 373 438
#     4  10  22  42  72 101 146 194 244 295 373 442
#     4  11  25  42  72 101 140 188 250 304 366 437
#     4   9  21  43  67 102 143 183 239 312 362 428
#
# _framework density 24.734248999999998
#
# number of rings (size 3 to 8) (size 9 to 14) (size 15 to 20)
#    0.000    1.714    2.857    0.857    2.000    9.143 
#    0.000    7.143    0.000    0.000    0.000    0.000 
#    0.000    0.000    0.000    0.000    0.000    0.000 
#
# Total GULP energy -77951.342108 kJ/mol
# GULP energy per Si atom -5567.953008 kJ/mol
# Density = 2.467795 g / cm^3
# Si number density = 24.734249 Si / 1000 Ang^3
#
#
#
# Elastic Constant Matrix: (Units=GPa)
#
#
# Indices 1 2 3 4 5 6 
#
# 1 147.2478 17.8477 45.0463 12.2236 33.8099 -1.6938
# 2 17.8477 78.8517 27.3127 7.9177 8.7970 18.5553
# 3 45.0463 27.3127 133.9442 23.0934 27.7486 -2.3429
# 4 12.2236 7.9177 23.0934 47.6019 12.5803 2.2125
# 5 33.8099 8.7970 27.7486 12.5803 45.2102 0.0209
# 6 -1.6938 18.5553 -2.3429 2.2125 0.0209 33.6738
#
#
#
# Elastic Compliance Matrix: (Units=1/GPa)
#
#
# Indices 1 2 3 4 5 6 
#
# 1 0.008622 -0.001026 -0.001593 0.000088 -0.005295 0.000886
# 2 -0.001026 0.016181 -0.002944 -0.000458 -0.000443 -0.009142
# 3 -0.001593 -0.002944 0.009893 -0.003104 -0.003446 0.002436
# 4 0.000088 -0.000458 -0.003104 0.023884 -0.004717 -0.001526
# 5 -0.005295 -0.000443 -0.003446 -0.004717 0.029592 0.000029
# 6 0.000886 -0.009142 0.002436 -0.001526 0.000029 0.035049
#
#
# Mechanical properties :
#
#
# Convention : Reuss Voigt Hill
#
# Bulk Modulus (GPa) = 42.42667 60.05080 51.23874
# Shear Modulus (GPa) = 35.16103 43.28630 39.22366
#
# Velocity S-wave (km/s) = 3.77444 4.18790 3.98654
# Velocity P-wave (km/s) = 6.01543 6.90766 6.47693
#
# Compressibility (1/GPa) = 0.02357008
#
# Stress axis : x y z
#
# Youngs Moduli (GPa) = 115.98634 61.80257 101.07900
#
# Poissons Ratio (x) = 0.06342 0.16101
# Poissons Ratio (y) = 0.11903 0.29753
# Poissons Ratio (z) = 0.18476 0.18192
#
# Static dielectric constant tensor:
#      x y z
#    x 1.956140 0.023120 0.088340 
#    y 0.023120 2.089910 -0.158360 
#    z 0.088340 -0.158360 2.112160 
# 
# From -- ./inp_files/623837.got.cif
#   From: 2010.05.17/outbox.cif.g08.bks.cpg/sg2_312_cif.got.tgz:623837.got - 2010.06.03 11:33:40.
