data_PCOD9030225
_publ_section_title
;
Structure prediction by ZEFSAII (Michael W. Deem and Ramdas Pophale) SiO2 
 PCOD9030225
Probable space group: P -1
;
_chemical_formula_sum "Si O2"
_cell_formula_units_Z 14
_cell_length_a 15.988574
_cell_length_b 7.823319
_cell_length_c 4.873434
_cell_angle_alpha 65.375026
_cell_angle_beta 89.688117
_cell_angle_gamma 109.490626
_cell_volume 514.916488
_symmetry_space_group_name_H-M "P -1"
_symmetry_group_IT_number 2
_symmetry_cell_setting 'triclinic'
loop_
_space_group_symop_operation_xyz
x,y,z
-x,-y,-z
loop_
_atom_site_type_symbol
_atom_site_label
_atom_site_fract_x
_atom_site_fract_y
_atom_site_fract_z
Si Si1 0.545192 0.190186 0.567041
Si Si2 0.046628 0.733142 0.390137
Si Si3 0.802219 0.723296 0.192033
Si Si4 0.840295 0.099887 0.224438
Si Si5 0.639624 0.556239 0.948275
Si Si6 0.000000 0.000000 0.000000
Si Si7 0.725339 0.308476 0.764786
Si Si8 0.500000 0.500000 0.500000
O O1 0.638338 0.180509 0.676012
O O2 0.489354 0.251881 0.760877
O O3 0.500000 0.000000 0.500000
O O4 0.571453 0.426881 0.280751
O O5 0.128086 0.799938 0.552933
O O6 0.000000 0.500000 0.500000
O O7 0.068656 0.839530 0.011615
O O8 0.980354 0.845235 0.380065
O O9 0.783559 0.498872 0.450274
O O10 0.796323 0.862597 0.354535
O O11 0.720493 0.720434 0.998257
O O12 0.898591 0.833013 0.981718
O O13 0.783074 0.199795 0.985473
O O14 0.683136 0.400122 0.943438
O O15 0.587227 0.596314 0.667075
#
# Coordination Sequence:
#
# PCOD9030225 Si02
#       8
#     2   2   2   2   2   1   2   1
#     4  10  23  44  67 102 136 183 231 296 371 437
#     4  11  25  43  67 102 133 184 236 303 359 420
#     4  10  24  44  67 100 138 189 235 299 360 425
#     4  11  26  42  69 103 135 185 243 285 369 432
#     4  10  23  45  67  99 138 183 231 293 367 419
#     4  10  24  44  70  96 140 182 240 288 352 424
#     4  10  24  43  68  99 141 186 231 303 354 435
#     4  10  22  42  70 102 136 180 236 292 362 442
#
# _framework density 27.188873000000001
#
# number of rings (size 3 to 8) (size 9 to 14) (size 15 to 20)
#    0.000    1.714    0.000    1.714   12.000    4.571 
#    7.714    0.000    0.000    0.000    0.000    0.000 
#    0.000    0.000    0.000    0.000    0.000    0.000 
#
# Total GULP energy -77947.808723 kJ/mol
# GULP energy per Si atom -5567.700623 kJ/mol
# Density = 2.712699 g / cm^3
# Si number density = 27.188873 Si / 1000 Ang^3
#
#
#
# Elastic Constant Matrix: (Units=GPa)
#
#
# Indices 1 2 3 4 5 6 
#
# 1 166.9945 74.1261 55.3876 6.3595 42.4750 21.2131
# 2 74.1261 240.0466 69.2918 19.9765 39.4137 30.4133
# 3 55.3876 69.2918 127.5937 11.4569 29.7335 14.8291
# 4 6.3595 19.9765 11.4569 43.9209 1.2961 8.2704
# 5 42.4750 39.4137 29.7335 1.2961 69.3648 8.2504
# 6 21.2131 30.4133 14.8291 8.2704 8.2504 44.8348
#
#
#
# Elastic Compliance Matrix: (Units=1/GPa)
#
#
# Indices 1 2 3 4 5 6 
#
# 1 0.008247 -0.001231 -0.001955 0.000326 -0.003296 -0.001874
# 2 -0.001231 0.005708 -0.001854 -0.001489 -0.001413 -0.002142
# 3 -0.001955 -0.001854 0.010379 -0.001405 -0.002100 -0.000605
# 4 0.000326 -0.001489 -0.001405 0.024369 0.001198 -0.003395
# 5 -0.003296 -0.001413 -0.002100 0.001198 0.018157 -0.000350
# 6 -0.001874 -0.002142 -0.000605 -0.003395 -0.000350 0.025534
#
#
# Mechanical properties :
#
#
# Convention : Reuss Voigt Hill
#
# Bulk Modulus (GPa) = 70.15284 103.58289 86.86787
# Shear Modulus (GPa) = 46.63107 54.01272 50.32190
#
# Velocity S-wave (km/s) = 4.14584 4.46194 4.30679
# Velocity P-wave (km/s) = 6.98394 8.04521 7.53329
#
# Compressibility (1/GPa) = 0.01425459
#
# Stress axis : x y z
#
# Youngs Moduli (GPa) = 121.25781 175.18210 96.35200
#
# Poissons Ratio (x) = 0.21563 0.18836
# Poissons Ratio (y) = 0.14925 0.17862
# Poissons Ratio (z) = 0.23705 0.32476
#
# Static dielectric constant tensor:
#      x y z
#    x 2.512170 -0.059660 -0.126160 
#    y -0.059660 2.200830 0.001660 
#    z -0.126160 0.001660 2.270880 
# 
# From -- ./inp_files/54655.got.cif
#   From: 2010.05.17/outbox.cif.g08.bks.cpg/sg2_28_cif.got.tgz:54655.got - 2010.06.03 11:33:40.
