data_PCOD9030932
_publ_section_title
;
Structure prediction by ZEFSAII (Michael W. Deem and Ramdas Pophale) SiO2 
 PCOD9030932
Probable space group: P -1
;
_chemical_formula_sum "Si O2"
_cell_formula_units_Z 15
_cell_length_a 8.644712
_cell_length_b 13.019849
_cell_length_c 7.742445
_cell_angle_alpha 89.692849
_cell_angle_beta 51.794069
_cell_angle_gamma 108.433891
_cell_volume 625.587768
_symmetry_space_group_name_H-M "P -1"
_symmetry_group_IT_number 2
_symmetry_cell_setting 'triclinic'
loop_
_space_group_symop_operation_xyz
x,y,z
-x,-y,-z
loop_
_atom_site_type_symbol
_atom_site_label
_atom_site_fract_x
_atom_site_fract_y
_atom_site_fract_z
Si Si1 0.122413 0.228171 0.066545
Si Si2 0.407431 0.595682 0.262397
Si Si3 0.179083 0.159416 0.417212
Si Si4 0.806909 0.345958 0.283821
Si Si5 0.504400 0.108094 0.593897
Si Si6 0.000000 0.000000 0.000000
Si Si7 0.561400 0.395726 0.164214
Si Si8 0.284094 0.952667 0.259204
O O1 0.125605 0.177000 0.255536
O O2 0.017715 0.319638 0.138885
O O3 0.371607 0.297566 0.845970
O O4 0.978572 0.119753 0.057437
O O5 0.225215 0.597988 0.516776
O O6 0.465854 0.489138 0.250440
O O7 0.370062 0.603823 0.083583
O O8 0.358903 0.277826 0.343090
O O9 0.947056 0.111505 0.673424
O O10 0.257983 0.058517 0.366980
O O11 0.612697 0.221218 0.411672
O O12 0.755528 0.408982 0.157906
O O13 0.667772 0.127620 0.640734
O O14 0.500000 0.000000 0.500000
O O15 0.261341 0.071675 0.822666
O O16 0.500000 0.000000 0.000000
#
# Coordination Sequence:
#
# PCOD9030932 Si02
#       8
#     2   2   2   2   2   1   2   2
#     4  11  23  41  67  98 139 182 225 283 343 408
#     4  10  24  49  68  98 138 177 228 294 341 397
#     4  10  22  43  62  94 140 175 220 280 331 406
#     4  12  23  43  71  98 135 179 227 286 344 404
#     4  12  23  39  61  97 133 175 224 275 337 412
#     4  12  22  38  64  96 138 180 218 276 344 402
#     4  10  24  45  74  98 133 182 232 282 347 408
#     4  11  23  38  64  93 132 178 220 267 338 401
#
# _framework density 23.977450999999999
#
# number of rings (size 3 to 8) (size 9 to 14) (size 15 to 20)
#    0.000    1.067    4.000    2.000    1.867    3.733 
#    0.000   10.000    0.000    0.000    0.000    0.000 
#    0.000    0.000    0.000    0.000    0.000    0.000 
#
# Total GULP energy -83688.509422 kJ/mol
# GULP energy per Si atom -5579.233961 kJ/mol
# Density = 2.392288 g / cm^3
# Si number density = 23.977451 Si / 1000 Ang^3
#
#
#
# Elastic Constant Matrix: (Units=GPa)
#
#
# Indices 1 2 3 4 5 6 
#
# 1 72.5757 19.3435 42.8680 4.5409 -10.5610 -22.4343
# 2 19.3435 95.1118 12.9598 3.8893 8.2377 -3.8092
# 3 42.8680 12.9598 69.2710 13.5497 -21.2261 -11.0054
# 4 4.5409 3.8893 13.5497 37.1225 0.1963 -6.0999
# 5 -10.5610 8.2377 -21.2261 0.1963 39.6395 -0.8531
# 6 -22.4343 -3.8092 -11.0054 -6.0999 -0.8531 37.5803
#
#
#
# Elastic Compliance Matrix: (Units=1/GPa)
#
#
# Indices 1 2 3 4 5 6 
#
# 1 0.026972 -0.003134 -0.015062 0.004516 0.000010 0.012106
# 2 -0.003134 0.011704 -0.001659 -0.000435 -0.004182 -0.001336
# 3 -0.015062 -0.001659 0.029215 -0.009005 0.011982 -0.001794
# 4 0.004516 -0.000435 -0.009005 0.030541 -0.003575 0.004891
# 5 0.000010 -0.004182 0.011982 -0.003575 0.032603 0.003251
# 6 0.012106 -0.001336 -0.001794 0.004891 0.003251 0.034044
#
#
# Mechanical properties :
#
#
# Convention : Reuss Voigt Hill
#
# Bulk Modulus (GPa) = 35.48403 43.03344 39.25874
# Shear Modulus (GPa) = 23.34476 33.65427 28.49951
#
# Velocity S-wave (km/s) = 3.12366 3.75050 3.45134
# Velocity P-wave (km/s) = 5.27643 6.06147 5.68253
#
# Compressibility (1/GPa) = 0.02818169
#
# Stress axis : x y z
#
# Youngs Moduli (GPa) = 37.07614 85.44222 34.22845
#
# Poissons Ratio (x) = 0.26776 0.51554
# Poissons Ratio (y) = 0.11619 0.05678
# Poissons Ratio (z) = 0.55843 0.14175
#
# Static dielectric constant tensor:
#      x y z
#    x 1.967820 -0.059360 0.131760 
#    y -0.059360 2.014480 -0.140770 
#    z 0.131760 -0.140770 2.165490 
# 
# From -- ./inp_files/178619.got.cif
#   From: 2010.05.17/outbox.cif.g08.bks.cpg/sg2_90_cif.got.tgz:178619.got - 2010.06.03 11:33:40.
