data_PCOD9030869
_publ_section_title
;
Structure prediction by ZEFSAII (Michael W. Deem and Ramdas Pophale) SiO2 
 PCOD9030869
Probable space group: P -1
;
_chemical_formula_sum "Si O2"
_cell_formula_units_Z 12
_cell_length_a 11.859347
_cell_length_b 5.320542
_cell_length_c 11.877239
_cell_angle_alpha 119.207593
_cell_angle_beta 50.686956
_cell_angle_gamma 109.866597
_cell_volume 505.588789
_symmetry_space_group_name_H-M "P -1"
_symmetry_group_IT_number 2
_symmetry_cell_setting 'triclinic'
loop_
_space_group_symop_operation_xyz
x,y,z
-x,-y,-z
loop_
_atom_site_type_symbol
_atom_site_label
_atom_site_fract_x
_atom_site_fract_y
_atom_site_fract_z
Si Si1 0.085438 0.719159 0.410091
Si Si2 0.599739 0.308534 0.738022
Si Si3 0.542849 0.664735 0.394509
Si Si4 0.606741 0.879777 0.997777
Si Si5 0.901960 0.813394 0.866012
Si Si6 0.126986 0.269747 0.872518
O O1 0.241395 0.816490 0.387494
O O2 0.095333 0.513513 0.249785
O O3 0.000000 0.500000 0.500000
O O4 0.000000 0.000000 0.500000
O O5 0.547880 0.436237 0.681327
O O6 0.470575 0.107691 0.829485
O O7 0.620263 0.556751 0.872841
O O8 0.500000 0.500000 0.500000
O O9 0.715478 0.640630 0.257155
O O10 0.500000 0.000000 0.500000
O O11 0.774989 0.984128 0.920505
O O12 0.500000 0.000000 0.000000
O O13 0.856542 0.807831 0.023774
O O14 0.055792 0.985671 0.795004
O O15 0.000000 0.500000 0.000000
#
# Coordination Sequence:
#
# PCOD9030869 Si02
#       6
#     2   2   2   2   2   2
#     4  11  28  47  75 109 155 198 250 321 391 469
#     4  10  25  45  69 110 138 201 248 314 385 458
#     4  12  31  51  76 112 162 210 258 323 397 471
#     4  10  22  42  78 103 144 182 255 327 373 451
#     4  10  25  47  74 115 145 200 267 318 393 463
#     4  11  27  46  81 109 156 210 265 325 382 481
#
# _framework density 23.734704000000001
#
# number of rings (size 3 to 8) (size 9 to 14) (size 15 to 20)
#    0.000    1.333    1.667    0.000   18.667    0.000 
#    0.000    0.000    0.000    0.000    0.000    0.000 
#    0.000    0.000    0.000    0.000    0.000    0.000 
#
# Total GULP energy -67085.437066 kJ/mol
# GULP energy per Si atom -5590.453089 kJ/mol
# Density = 2.368068 g / cm^3
# Si number density = 23.734704 Si / 1000 Ang^3
#
#
#
# Elastic Constant Matrix: (Units=GPa)
#
#
# Indices 1 2 3 4 5 6 
#
# 1 187.3835 60.3399 78.0168 -15.2084 -28.7135 -4.4707
# 2 60.3399 96.2479 54.2837 -6.2886 -13.8639 -14.2804
# 3 78.0168 54.2837 109.4495 -16.2056 -17.3252 0.4242
# 4 -15.2084 -6.2886 -16.2056 42.9464 -4.8397 -0.4481
# 5 -28.7135 -13.8639 -17.3252 -4.8397 48.5956 2.5000
# 6 -4.4707 -14.2804 0.4242 -0.4481 2.5000 42.6539
#
#
#
# Elastic Compliance Matrix: (Units=1/GPa)
#
#
# Indices 1 2 3 4 5 6 
#
# 1 0.008393 -0.002444 -0.004097 0.001399 0.002943 -0.000056
# 2 -0.002444 0.016347 -0.006406 -0.000768 0.000590 0.005238
# 3 -0.004097 -0.006406 0.016147 0.003905 0.002042 -0.002813
# 4 0.001399 -0.000768 0.003905 0.025654 0.004562 -0.000147
# 5 0.002943 0.000590 0.002042 0.004562 0.023712 -0.000856
# 6 -0.000056 0.005238 -0.002813 -0.000147 -0.000856 0.025269
#
#
# Mechanical properties :
#
#
# Convention : Reuss Voigt Hill
#
# Bulk Modulus (GPa) = 66.70197 86.48462 76.59329
# Shear Modulus (GPa) = 34.15017 40.20187 37.17602
#
# Velocity S-wave (km/s) = 3.79730 4.12005 3.96196
# Velocity P-wave (km/s) = 6.88405 7.69092 7.29864
#
# Compressibility (1/GPa) = 0.01499206
#
# Stress axis : x y z
#
# Youngs Moduli (GPa) = 119.15283 61.17364 61.93223
#
# Poissons Ratio (x) = 0.14948 0.25374
# Poissons Ratio (y) = 0.29116 0.39676
# Poissons Ratio (z) = 0.48818 0.39190
#
# Static dielectric constant tensor:
#      x y z
#    x 1.943660 0.062360 -0.033800 
#    y 0.062360 1.906860 -0.038790 
#    z -0.033800 -0.038790 1.936970 
# 
# From -- ./inp_files/409630.got.cif
#   From: 2010.05.17/outbox.cif.g08.bks.cpg/sg2_205_cif.got.tgz:409630.got - 2010.06.03 11:33:40.
