data_PCOD9030226
_publ_section_title
;
Structure prediction by ZEFSAII (Michael W. Deem and Ramdas Pophale) SiO2 
 PCOD9030226
Probable space group: P -1
;
_chemical_formula_sum "Si O2"
_cell_formula_units_Z 16
_cell_length_a 8.594098
_cell_length_b 19.223019
_cell_length_c 25.523366
_cell_angle_alpha 15.215845
_cell_angle_beta 58.982514
_cell_angle_gamma 51.885247
_cell_volume 802.165040
_symmetry_space_group_name_H-M "P -1"
_symmetry_group_IT_number 2
_symmetry_cell_setting 'triclinic'
loop_
_space_group_symop_operation_xyz
x,y,z
-x,-y,-z
loop_
_atom_site_type_symbol
_atom_site_label
_atom_site_fract_x
_atom_site_fract_y
_atom_site_fract_z
Si Si1 0.274998 0.165642 0.485337
Si Si2 0.268141 0.548682 0.934774
Si Si3 0.260191 0.839457 0.872797
Si Si4 0.759921 0.773252 0.676078
Si Si5 0.390685 0.741899 0.390981
Si Si6 0.784420 0.769590 0.314420
Si Si7 0.911588 0.533376 0.077104
Si Si8 0.931895 0.435600 0.427712
O O1 0.213411 0.222798 0.393497
O O2 0.097318 0.431552 0.360751
O O3 0.267690 0.857918 0.723481
O O4 0.522660 0.065345 0.519732
O O5 0.217551 0.547811 0.882485
O O6 0.505067 0.255291 0.118418
O O7 0.091765 0.533698 0.009531
O O8 0.253918 0.919385 0.877452
O O9 0.244386 0.540226 0.085599
O O10 0.074130 0.136462 0.658635
O O11 0.958792 0.712270 0.720931
O O12 0.500000 0.500000 0.500000
O O13 0.591057 0.722760 0.398970
O O14 0.237091 0.634238 0.519927
O O15 0.243171 0.110482 0.134499
O O16 0.814478 0.723649 0.279907
O O17 0.000000 0.500000 0.500000
#
# Coordination Sequence:
#
# PCOD9030226 Si02
#       8
#     2   2   2   2   2   2   2   2
#     4  10  20  36  49  75 102 144 169 202 250 298
#     4  10  20  30  53  76 105 125 168 212 253 299
#     4  10  17  32  51  79 100 132 166 209 251 300
#     4  10  21  33  53  71 107 138 172 203 248 301
#     4  10  18  31  52  79 101 128 163 212 256 297
#     4   9  19  31  51  80 102 129 162 211 260 299
#     4  11  19  33  51  82  98 132 165 216 252 295
#     4  10  18  32  55  75 103 131 169 210 250 298
#
# _framework density 19.946020000000001
#
# number of rings (size 3 to 8) (size 9 to 14) (size 15 to 20)
#    0.000    2.000    3.750    0.750    0.000    2.500 
#    0.000    0.625    0.000    3.000    0.000    0.000 
#    0.000    0.000    0.000    0.000    0.000    0.000 
#
# Total GULP energy -89150.379531 kJ/mol
# GULP energy per Si atom -5571.898721 kJ/mol
# Density = 1.990062 g / cm^3
# Si number density = 19.946020 Si / 1000 Ang^3
#
#
#
# Elastic Constant Matrix: (Units=GPa)
#
#
# Indices 1 2 3 4 5 6 
#
# 1 97.9667 18.5053 13.1051 -10.0145 14.3639 4.8457
# 2 18.5053 95.1103 11.9613 -14.4241 5.0582 3.3376
# 3 13.1051 11.9613 19.9175 -8.5778 10.7391 1.8068
# 4 -10.0145 -14.4241 -8.5778 24.3752 4.0603 1.5970
# 5 14.3639 5.0582 10.7391 4.0603 24.7792 -7.6254
# 6 4.8457 3.3376 1.8068 1.5970 -7.6254 32.0147
#
#
#
# Elastic Compliance Matrix: (Units=1/GPa)
#
#
# Indices 1 2 3 4 5 6 
#
# 1 0.012685 -0.000816 0.001282 0.007221 -0.010385 -0.004741
# 2 -0.000816 0.012184 -0.002232 0.006681 -0.002761 -0.002012
# 3 0.001282 -0.002232 0.107119 0.048717 -0.061823 -0.023162
# 4 0.007221 0.006681 0.048717 0.073742 -0.044540 -0.018826
# 5 -0.010385 -0.002761 -0.061823 -0.044540 0.089954 0.028996
# 6 -0.004741 -0.002012 -0.023162 -0.018826 0.028996 0.041316
#
#
# Mechanical properties :
#
#
# Convention : Reuss Voigt Hill
#
# Bulk Modulus (GPa) = 7.78466 33.34866 20.56666
# Shear Modulus (GPa) = 13.04289 27.52868 20.28579
#
# Velocity S-wave (km/s) = 2.55994 3.71908 3.19256
# Velocity P-wave (km/s) = 3.55655 5.93278 4.89116
#
# Compressibility (1/GPa) = 0.12845772
#
# Stress axis : x y z
#
# Youngs Moduli (GPa) = 78.83116 82.07366 9.33541
#
# Poissons Ratio (x) = 0.06694 -0.01197
# Poissons Ratio (y) = 0.06430 0.02084
# Poissons Ratio (z) = -0.10109 0.18319
#
# Static dielectric constant tensor:
#      x y z
#    x 1.772510 0.002880 0.003070 
#    y 0.002880 1.762340 -0.024980 
#    z 0.003070 -0.024980 1.699680 
# 
# From -- ./inp_files/170476.got.cif
#   From: 2010.05.17/outbox.cif.g08.bks.cpg/sg2_86_cif.got.tgz:170476.got - 2010.06.03 11:33:40.
