data_PCOD9030675
_publ_section_title
;
Structure prediction by ZEFSAII (Michael W. Deem and Ramdas Pophale) SiO2 
 PCOD9030675
Probable space group: P -1
;
_chemical_formula_sum "Si O2"
_cell_formula_units_Z 9
_cell_length_a 11.449069
_cell_length_b 11.384328
_cell_length_c 5.748378
_cell_angle_alpha 94.702047
_cell_angle_beta 84.594618
_cell_angle_gamma 155.406170
_cell_volume 310.423356
_symmetry_space_group_name_H-M "P -1"
_symmetry_group_IT_number 2
_symmetry_cell_setting 'triclinic'
loop_
_space_group_symop_operation_xyz
x,y,z
-x,-y,-z
loop_
_atom_site_type_symbol
_atom_site_label
_atom_site_fract_x
_atom_site_fract_y
_atom_site_fract_z
Si Si1 0.652173 0.873180 0.201156
Si Si2 0.419657 0.510449 0.797609
Si Si3 0.208997 0.788876 0.096376
Si Si4 0.888608 0.609750 0.500090
Si Si5 0.000000 0.000000 0.500000
O O1 0.358348 0.656954 0.325039
O O2 0.793709 0.091049 0.027431
O O3 0.523360 0.643537 0.054127
O O4 0.908867 0.098622 0.384748
O O5 0.307704 0.530240 0.699647
O O6 0.141404 0.184073 0.745598
O O7 0.688303 0.715834 0.636696
O O8 0.000000 0.500000 0.000000
O O9 0.121591 0.736117 0.370469
O O10 0.500000 0.000000 0.000000
#
# Coordination Sequence:
#
# PCOD9030675 Si02
#       5
#     2   2   2   2   1
#     4  12  25  44  71  98 135 185 226 273 341 403
#     4  11  23  46  67  99 138 173 223 278 335 401
#     4  12  26  44  67 101 138 175 229 284 328 394
#     4  12  25  44  71  98 135 185 226 273 341 403
#     4  10  22  42  72  96 136 176 212 286 338 386
#
# _framework density 28.992664000000001
#
# number of rings (size 3 to 8) (size 9 to 14) (size 15 to 20)
#    0.000    0.444    0.000   10.667    0.000    5.333 
#    0.000   22.222    0.000    0.000    0.000    0.000 
#    0.000    0.000    0.000    0.000    0.000    0.000 
#
# Total GULP energy -50232.348228 kJ/mol
# GULP energy per Si atom -5581.372025 kJ/mol
# Density = 2.892668 g / cm^3
# Si number density = 28.992664 Si / 1000 Ang^3
#
#
#
# Elastic Constant Matrix: (Units=GPa)
#
#
# Indices 1 2 3 4 5 6 
#
# 1 53.7307 53.6715 46.2873 9.7092 -15.7404 31.0115
# 2 53.6715 333.9023 105.7103 11.1795 -20.3486 22.3501
# 3 46.2873 105.7103 127.6365 1.6581 -22.1982 14.9433
# 4 9.7092 11.1795 1.6581 91.0770 14.5446 -6.8882
# 5 -15.7404 -20.3486 -22.1982 14.5446 70.9754 -4.5814
# 6 31.0115 22.3501 14.9433 -6.8882 -4.5814 67.1703
#
#
#
# Elastic Compliance Matrix: (Units=1/GPa)
#
#
# Indices 1 2 3 4 5 6 
#
# 1 0.042036 -0.001647 -0.010860 -0.006247 0.005656 -0.016698
# 2 -0.001647 0.004174 -0.002854 -0.000286 -0.000004 -0.000023
# 3 -0.010860 -0.002854 0.013946 0.001317 0.001063 0.003069
# 4 -0.006247 -0.000286 0.001317 0.012478 -0.003372 0.003736
# 5 0.005656 -0.000004 0.001063 -0.003372 0.016231 -0.002085
# 6 -0.016698 -0.000023 0.003069 0.003736 -0.002085 0.022163
#
#
# Mechanical properties :
#
#
# Convention : Reuss Voigt Hill
#
# Bulk Modulus (GPa) = 33.97604 102.95641 68.46622
# Shear Modulus (GPa) = 32.99005 66.48457 49.73731
#
# Velocity S-wave (km/s) = 3.37690 4.79388 4.14637
# Velocity P-wave (km/s) = 5.19123 8.13818 6.82565
#
# Compressibility (1/GPa) = 0.02943250
#
# Stress axis : x y z
#
# Youngs Moduli (GPa) = 23.78927 239.57535 71.70767
#
# Poissons Ratio (x) = 0.39458 0.77877
# Poissons Ratio (y) = 0.03918 0.20465
# Poissons Ratio (z) = 0.25836 0.68375
#
# Static dielectric constant tensor:
#      x y z
#    x 2.159700 -0.007150 -0.016730 
#    y -0.007150 1.981440 0.018940 
#    z -0.016730 0.018940 2.262160 
# 
# From -- ./inp_files/96085.got.cif
#   From: 2010.05.17/outbox.cif.g08.bks.cpg/sg2_49_cif.got.tgz:96085.got - 2010.06.03 11:33:40.
