data_PCOD9030791
_publ_section_title
;
Structure prediction by ZEFSAII (Michael W. Deem and Ramdas Pophale) SiO2 
 PCOD9030791
Probable space group: P -1
;
_chemical_formula_sum "Si O2"
_cell_formula_units_Z 13
_cell_length_a 12.547764
_cell_length_b 9.607142
_cell_length_c 8.935357
_cell_angle_alpha 108.298028
_cell_angle_beta 78.632591
_cell_angle_gamma 41.846765
_cell_volume 499.986972
_symmetry_space_group_name_H-M "P -1"
_symmetry_group_IT_number 2
_symmetry_cell_setting 'triclinic'
loop_
_space_group_symop_operation_xyz
x,y,z
-x,-y,-z
loop_
_atom_site_type_symbol
_atom_site_label
_atom_site_fract_x
_atom_site_fract_y
_atom_site_fract_z
Si Si1 0.500000 0.500000 0.500000
Si Si2 0.233763 0.212872 0.916687
Si Si3 0.707696 0.183296 0.643977
Si Si4 0.962567 0.828174 0.967704
Si Si5 0.336248 0.359932 0.500450
Si Si6 0.224658 0.713952 0.058069
Si Si7 0.915216 0.476876 0.634423
O O1 0.648533 0.318987 0.547762
O O2 0.384581 0.471458 0.568359
O O3 0.217755 0.305506 0.114055
O O4 0.245307 0.023339 0.879168
O O5 0.000000 0.500000 0.000000
O O6 0.445298 0.993084 0.685422
O O7 0.800355 0.195179 0.738771
O O8 0.481180 0.391613 0.851834
O O9 0.875804 0.854378 0.476349
O O10 0.147448 0.528908 0.722567
O O11 0.081237 0.745040 0.055845
O O12 0.864387 0.060855 0.959140
O O13 0.235208 0.456842 0.396847
O O14 0.000000 0.500000 0.500000
#
# Coordination Sequence:
#
# PCOD9030791 Si02
#       7
#     1   2   2   2   2   2   2
#     4  12  26  44  72 112 152 178 252 312 386 422
#     4  12  28  45  73 110 146 199 255 298 370 451
#     4  11  23  42  73 110 147 195 244 316 367 449
#     4  11  23  48  75 106 151 194 241 317 378 446
#     4  12  26  48  75 106 151 197 243 322 364 447
#     4  10  22  42  74 107 139 194 248 298 392 435
#     4  12  26  50  76 105 150 205 254 297 374 451
#
# _framework density 26.000679999999999
#
# number of rings (size 3 to 8) (size 9 to 14) (size 15 to 20)
#    0.000    0.615    4.615    2.308    2.154    4.923 
#    0.000    0.000    0.000    0.000    0.000    0.000 
#    0.000    0.000    0.000    0.000    0.000    0.000 
#
# Total GULP energy -72636.720112 kJ/mol
# GULP energy per Si atom -5587.440009 kJ/mol
# Density = 2.594150 g / cm^3
# Si number density = 26.000680 Si / 1000 Ang^3
#
#
#
# Elastic Constant Matrix: (Units=GPa)
#
#
# Indices 1 2 3 4 5 6 
#
# 1 74.5014 23.5442 15.4711 -20.1472 19.3830 -35.4353
# 2 23.5442 144.5234 33.4138 -5.9703 13.3357 -18.4871
# 3 15.4711 33.4138 148.7065 9.6034 -14.8207 -15.1155
# 4 -20.1472 -5.9703 9.6034 48.6633 -20.6406 6.9079
# 5 19.3830 13.3357 -14.8207 -20.6406 21.7135 -14.9866
# 6 -35.4353 -18.4871 -15.1155 6.9079 -14.9866 46.6722
#
#
#
# Elastic Compliance Matrix: (Units=1/GPa)
#
#
# Indices 1 2 3 4 5 6 
#
# 1 0.024236 -0.000702 -0.002075 0.004832 -0.008320 0.014064
# 2 -0.000702 0.008284 -0.002592 -0.002513 -0.009050 -0.000625
# 3 -0.002075 -0.002592 0.009535 0.003312 0.016827 0.005399
# 4 0.004832 -0.002513 0.003312 0.038962 0.045136 0.012473
# 5 -0.008320 -0.009050 0.016827 0.045136 0.135856 0.032491
# 6 0.014064 -0.000625 0.005399 0.012473 0.032491 0.042192
#
#
# Mechanical properties :
#
#
# Convention : Reuss Voigt Hill
#
# Bulk Modulus (GPa) = 31.93180 56.95438 44.44309
# Shear Modulus (GPa) = 17.84176 43.09661 30.46918
#
# Velocity S-wave (km/s) = 2.62239 4.07568 3.42696
# Velocity P-wave (km/s) = 4.63433 6.64084 5.72616
#
# Compressibility (1/GPa) = 0.03131675
#
# Stress axis : x y z
#
# Youngs Moduli (GPa) = 41.26099 120.71204 104.87880
#
# Poissons Ratio (x) = 0.08475 0.21767
# Poissons Ratio (y) = 0.02897 0.27181
# Poissons Ratio (z) = 0.08563 0.31284
#
# Static dielectric constant tensor:
#      x y z
#    x 2.161630 0.066580 0.085350 
#    y 0.066580 1.979860 0.096700 
#    z 0.085350 0.096700 2.312600 
# 
# From -- ./inp_files/305564.got.cif
#   From: 2010.05.17/outbox.cif.g08.bks.cpg/sg2_153_cif.got.tgz:305564.got - 2010.06.03 11:33:40.
