data_PCOD9030276
_publ_section_title
;
Structure prediction by ZEFSAII (Michael W. Deem and Ramdas Pophale) SiO2 
 PCOD9030276
Probable space group: P -1
;
_chemical_formula_sum "Si O2"
_cell_formula_units_Z 16
_cell_length_a 28.941883
_cell_length_b 5.142176
_cell_length_c 26.793870
_cell_angle_alpha 56.651977
_cell_angle_beta 10.491025
_cell_angle_gamma 57.620638
_cell_volume 606.186192
_symmetry_space_group_name_H-M "P -1"
_symmetry_group_IT_number 2
_symmetry_cell_setting 'triclinic'
loop_
_space_group_symop_operation_xyz
x,y,z
-x,-y,-z
loop_
_atom_site_type_symbol
_atom_site_label
_atom_site_fract_x
_atom_site_fract_y
_atom_site_fract_z
Si Si1 0.739540 0.332586 0.238853
Si Si2 0.413120 0.724402 0.158862
Si Si3 0.504367 0.802396 0.594728
Si Si4 0.398168 0.390654 0.389102
Si Si5 0.033757 0.137799 0.102278
Si Si6 0.120042 0.922646 0.135392
Si Si7 0.036219 0.374689 0.419318
Si Si8 0.850953 0.265863 0.463445
O O1 0.500000 0.500000 0.500000
O O2 0.645280 0.275757 0.288465
O O3 0.745761 0.014644 0.297212
O O4 0.981379 0.565833 0.949476
O O5 0.293720 0.861581 0.321171
O O6 0.188187 0.534497 0.389197
O O7 0.672956 0.552068 0.913471
O O8 0.500000 0.000000 0.000000
O O9 0.545540 0.535498 0.620061
O O10 0.310775 0.011413 0.808914
O O11 0.333562 0.680508 0.392889
O O12 0.610651 0.211351 0.151274
O O13 0.168163 0.136130 0.665285
O O14 0.044272 0.174383 0.146929
O O15 0.942701 0.613077 0.346617
O O16 0.075832 0.074178 0.220219
O O17 0.000000 0.500000 0.500000
O O18 0.000000 0.000000 0.500000
#
# Coordination Sequence:
#
# PCOD9030276 Si02
#       8
#     2   2   2   2   2   2   2   2
#     4   9  18  36  61  91 134 169 222 294 357 422
#     4  10  24  47  75 114 150 197 244 309 375 447
#     4   9  19  39  61  92 133 173 225 295 353 427
#     4  10  23  44  68  99 130 191 238 289 363 430
#     4   9  20  38  60  93 127 175 229 288 348 424
#     4  10  25  45  68 100 143 188 234 301 355 430
#     4  10  22  42  70 105 146 190 237 289 360 435
#     4  11  26  47  70 105 147 183 244 297 362 442
#
# _framework density 26.394534
#
# number of rings (size 3 to 8) (size 9 to 14) (size 15 to 20)
#    0.000    2.250    0.000    0.375    7.000    6.500 
#    9.000    5.625    0.000    0.000    0.000    0.000 
#    0.000    0.000    0.000    0.000    0.000    0.000 
#
# Total GULP energy -89477.138660 kJ/mol
# GULP energy per Si atom -5592.321166 kJ/mol
# Density = 2.633446 g / cm^3
# Si number density = 26.394534 Si / 1000 Ang^3
#
#
#
# Elastic Constant Matrix: (Units=GPa)
#
#
# Indices 1 2 3 4 5 6 
#
# 1 158.0597 28.6907 63.4778 -7.8418 35.6775 11.9816
# 2 28.6907 74.7091 16.4546 6.2769 16.2080 0.0097
# 3 63.4778 16.4546 122.8252 7.4006 16.7615 -3.7141
# 4 -7.8418 6.2769 7.4006 27.9632 1.9420 10.8705
# 5 35.6775 16.2080 16.7615 1.9420 64.2212 1.6324
# 6 11.9816 0.0097 -3.7141 10.8705 1.6324 40.1809
#
#
#
# Elastic Compliance Matrix: (Units=1/GPa)
#
#
# Indices 1 2 3 4 5 6 
#
# 1 0.010545 -0.002676 -0.005161 0.007311 -0.003918 -0.005439
# 2 -0.002676 0.015319 0.000005 -0.004891 -0.002289 0.002211
# 3 -0.005161 0.000005 0.011304 -0.006084 -0.000008 0.004230
# 4 0.007311 -0.004891 -0.006084 0.046608 -0.002261 -0.015259
# 5 -0.003918 -0.002289 -0.000008 -0.002261 0.018370 0.001034
# 6 -0.005439 0.002211 0.004230 -0.015259 0.001034 0.030986
#
#
# Mechanical properties :
#
#
# Convention : Reuss Voigt Hill
#
# Bulk Modulus (GPa) = 46.50655 63.64891 55.07773
# Shear Modulus (GPa) = 32.05846 42.93781 37.49814
#
# Velocity S-wave (km/s) = 3.48887 4.03770 3.77328
# Velocity P-wave (km/s) = 5.82131 6.77526 6.31632
#
# Compressibility (1/GPa) = 0.02150235
#
# Stress axis : x y z
#
# Youngs Moduli (GPa) = 94.83306 65.27762 88.46376
#
# Poissons Ratio (x) = 0.17470 0.45660
# Poissons Ratio (y) = 0.25379 -0.00042
# Poissons Ratio (z) = 0.48947 -0.00031
#
# Static dielectric constant tensor:
#      x y z
#    x 2.095760 -0.040400 -0.068990 
#    y -0.040400 2.158630 -0.007820 
#    z -0.068990 -0.007820 2.090600 
# 
# From -- ./inp_files/621436.got.cif
#   From: 2010.05.17/outbox.cif.g08.bks.cpg/sg2_311_cif.got.tgz:621436.got - 2010.06.03 11:33:40.
