data_PCOD9030083
_publ_section_title
;
Structure prediction by ZEFSAII (Michael W. Deem and Ramdas Pophale) SiO2 
 PCOD9030083
Probable space group: P -1
;
_chemical_formula_sum "Si O2"
_cell_formula_units_Z 14
_cell_length_a 8.922763
_cell_length_b 14.287957
_cell_length_c 13.729825
_cell_angle_alpha 39.699214
_cell_angle_beta 126.542081
_cell_angle_gamma 96.507624
_cell_volume 665.356641
_symmetry_space_group_name_H-M "P -1"
_symmetry_group_IT_number 2
_symmetry_cell_setting 'triclinic'
loop_
_space_group_symop_operation_xyz
x,y,z
-x,-y,-z
loop_
_atom_site_type_symbol
_atom_site_label
_atom_site_fract_x
_atom_site_fract_y
_atom_site_fract_z
Si Si1 0.344803 0.654974 0.730678
Si Si2 0.605696 0.798906 0.070834
Si Si3 0.165684 0.087820 0.325529
Si Si4 0.551127 0.982697 0.699873
Si Si5 0.211414 0.842874 0.283321
Si Si6 0.893147 0.817996 0.324270
Si Si7 0.573073 0.434437 0.801257
O O1 0.517394 0.554453 0.781966
O O2 0.104381 0.676608 0.599541
O O3 0.258803 0.868547 0.543918
O O4 0.500000 0.500000 0.000000
O O5 0.823763 0.739349 0.276110
O O6 0.561813 0.650232 0.176397
O O7 0.623357 0.841180 0.931801
O O8 0.356126 0.003874 0.857864
O O9 0.287289 0.110308 0.262924
O O10 0.269325 0.104025 0.453141
O O11 0.869095 0.252037 0.058902
O O12 0.619669 0.107161 0.665211
O O13 0.413393 0.610965 0.518950
O O14 0.034376 0.875331 0.275939
O O15 0.000000 0.000000 0.000000
#
# Coordination Sequence:
#
# PCOD9030083 Si02
#       7
#     2   2   2   2   2   2   2
#     4  11  23  41  68 100 135 179 219 279 333 395
#     4  11  22  41  72 101 125 185 220 281 332 396
#     4  11  24  46  66 101 138 177 231 276 328 417
#     4  11  23  42  71  96 142 174 221 287 333 389
#     4  11  22  46  69  95 136 178 214 283 338 395
#     4  10  22  42  69  95 142 165 232 272 331 402
#     4  11  24  44  74  93 135 181 222 278 339 396
#
# _framework density 21.041347999999999
#
# number of rings (size 3 to 8) (size 9 to 14) (size 15 to 20)
#    0.000    1.143    5.714    0.857    2.000    4.000 
#    2.571    5.714    0.000    0.000    0.000    0.000 
#    0.000    0.000    0.000    0.000    0.000    0.000 
#
# Total GULP energy -78047.688487 kJ/mol
# GULP energy per Si atom -5574.834892 kJ/mol
# Density = 2.099346 g / cm^3
# Si number density = 21.041348 Si / 1000 Ang^3
#
#
#
# Elastic Constant Matrix: (Units=GPa)
#
#
# Indices 1 2 3 4 5 6 
#
# 1 52.6552 35.8267 47.3505 7.1375 5.4675 15.0256
# 2 35.8267 123.7929 79.8504 22.5261 -8.2078 26.2979
# 3 47.3505 79.8504 168.2718 29.3999 5.3621 10.6652
# 4 7.1375 22.5261 29.3999 36.3074 -2.8749 5.5274
# 5 5.4675 -8.2078 5.3621 -2.8749 31.0092 0.1436
# 6 15.0256 26.2979 10.6652 5.5274 0.1436 33.4688
#
#
#
# Elastic Compliance Matrix: (Units=1/GPa)
#
#
# Indices 1 2 3 4 5 6 
#
# 1 0.029866 -0.003212 -0.006581 0.002475 -0.004706 -0.009176
# 2 -0.003212 0.015117 -0.005450 -0.002653 0.005302 -0.008284
# 3 -0.006581 -0.005450 0.011088 -0.005214 -0.002704 0.004576
# 4 0.002475 -0.002653 -0.005214 0.033599 0.002892 -0.002926
# 5 -0.004706 0.005302 -0.002704 0.002892 0.035226 -0.001821
# 6 -0.009176 -0.008284 0.004576 -0.002926 -0.001821 0.039540
#
#
# Mechanical properties :
#
#
# Convention : Reuss Voigt Hill
#
# Bulk Modulus (GPa) = 39.08373 74.53057 56.80715
# Shear Modulus (GPa) = 24.57593 32.26989 28.42291
#
# Velocity S-wave (km/s) = 3.42128 3.92042 3.67933
# Velocity P-wave (km/s) = 5.84995 7.48270 6.71613
#
# Compressibility (1/GPa) = 0.02558609
#
# Stress axis : x y z
#
# Youngs Moduli (GPa) = 33.48251 66.14923 90.18738
#
# Poissons Ratio (x) = 0.21245 0.59352
# Poissons Ratio (y) = 0.10753 0.49154
# Poissons Ratio (z) = 0.22035 0.36053
#
# Static dielectric constant tensor:
#      x y z
#    x 1.765590 -0.019090 -0.012040 
#    y -0.019090 1.828640 0.050790 
#    z -0.012040 0.050790 1.877880 
# 
# From -- ./inp_files/505146.got.cif
#   From: 2010.05.17/outbox.cif.g08.bks.cpg/sg2_253_cif.got.tgz:505146.got - 2010.06.03 11:33:40.
