data_PCOD9030778
_publ_section_title
;
Structure prediction by ZEFSAII (Michael W. Deem and Ramdas Pophale) SiO2 
 PCOD9030778
Probable space group: P -1
;
_chemical_formula_sum "Si O2"
_cell_formula_units_Z 14
_cell_length_a 8.831242
_cell_length_b 23.355690
_cell_length_c 8.649407
_cell_angle_alpha 32.032113
_cell_angle_beta 50.021040
_cell_angle_gamma 37.092465
_cell_volume 567.499997
_symmetry_space_group_name_H-M "P -1"
_symmetry_group_IT_number 2
_symmetry_cell_setting 'triclinic'
loop_
_space_group_symop_operation_xyz
x,y,z
-x,-y,-z
loop_
_atom_site_type_symbol
_atom_site_label
_atom_site_fract_x
_atom_site_fract_y
_atom_site_fract_z
Si Si1 0.872952 0.046319 0.146273
Si Si2 0.759325 0.360539 0.814421
Si Si3 0.665664 0.659717 0.737819
Si Si4 0.953313 0.657120 0.843183
Si Si5 0.760696 0.851902 0.807636
Si Si6 0.597180 0.064149 0.892702
Si Si7 0.647305 0.341586 0.587425
O O1 0.798497 0.959340 0.470571
O O2 0.663493 0.209633 0.902354
O O3 0.110079 0.017254 0.149513
O O4 0.000000 0.000000 0.000000
O O5 0.753512 0.358548 0.637499
O O6 0.630324 0.518182 0.582999
O O7 0.553446 0.342879 0.046446
O O8 0.023872 0.245449 0.982512
O O9 0.774378 0.694174 0.728877
O O10 0.544800 0.777978 0.420291
O O11 0.884343 0.508463 0.872413
O O12 0.811220 0.749688 0.872860
O O13 0.158498 0.681073 0.615642
O O14 0.490184 0.934029 0.880306
O O15 0.500000 0.000000 0.000000
#
# Coordination Sequence:
#
# PCOD9030778 Si02
#       7
#     2   2   2   2   2   2   2
#     4  12  26  46  70 106 144 183 227 294 355 409
#     4  10  22  42  74 103 131 189 237 284 349 409
#     4  10  22  43  68 100 139 185 231 288 348 413
#     4  10  22  43  68 100 141 180 234 292 347 411
#     4  12  26  45  75 105 139 185 237 290 349 416
#     4  12  28  46  70 102 145 187 234 286 348 425
#     4  10  22  43  69  99 142 181 230 289 346 417
#
# _framework density 24.669602999999999
#
# number of rings (size 3 to 8) (size 9 to 14) (size 15 to 20)
#    0.000    1.143    2.857    2.571    2.000    8.000 
#    0.000    0.000    0.000    0.000    0.000    0.000 
#    0.000    0.000    0.000    0.000    0.000    0.000 
#
# Total GULP energy -78500.983637 kJ/mol
# GULP energy per Si atom -5607.213117 kJ/mol
# Density = 2.461345 g / cm^3
# Si number density = 24.669603 Si / 1000 Ang^3
#
#
#
# Elastic Constant Matrix: (Units=GPa)
#
#
# Indices 1 2 3 4 5 6 
#
# 1 46.2045 11.5426 13.8229 -0.1059 -9.7331 -9.0228
# 2 11.5426 96.4440 36.2771 15.6788 -16.5378 3.4863
# 3 13.8229 36.2771 130.4985 -10.0636 3.2095 -15.8170
# 4 -0.1059 15.6788 -10.0636 38.6693 -2.5239 -0.9766
# 5 -9.7331 -16.5378 3.2095 -2.5239 28.3909 -3.7553
# 6 -9.0228 3.4863 -15.8170 -0.9766 -3.7553 43.4402
#
#
#
# Elastic Compliance Matrix: (Units=1/GPa)
#
#
# Indices 1 2 3 4 5 6 
#
# 1 0.025475 -0.001097 -0.001893 0.000755 0.009102 0.005494
# 2 -0.001097 0.015034 -0.005134 -0.006984 0.007974 -0.002771
# 3 -0.001893 -0.005134 0.010160 0.004552 -0.003923 0.003481
# 4 0.000755 -0.006984 0.004552 0.029870 -0.001281 0.002936
# 5 0.009102 0.007974 -0.003923 -0.001281 0.043791 0.003579
# 6 0.005494 -0.002771 0.003481 0.002936 0.003579 0.026027
#
#
# Mechanical properties :
#
#
# Convention : Reuss Voigt Hill
#
# Bulk Modulus (GPa) = 29.05190 44.04802 36.54996
# Shear Modulus (GPa) = 28.07745 36.20036 32.13890
#
# Velocity S-wave (km/s) = 3.37729 3.83483 3.61331
# Velocity P-wave (km/s) = 5.19712 6.12388 5.67943
#
# Compressibility (1/GPa) = 0.03442115
#
# Stress axis : x y z
#
# Youngs Moduli (GPa) = 39.25349 66.51577 98.42468
#
# Poissons Ratio (x) = 0.07299 0.18633
# Poissons Ratio (y) = 0.04307 0.50528
# Poissons Ratio (z) = 0.07431 0.34147
#
# Static dielectric constant tensor:
#      x y z
#    x 1.995140 -0.011010 0.021710 
#    y -0.011010 1.958790 -0.002540 
#    z 0.021710 -0.002540 1.923070 
# 
# From -- ./inp_files/225786.got.cif
#   From: 2010.05.17/outbox.cif.g08.bks.cpg/sg2_113_cif.got.tgz:225786.got - 2010.06.03 11:33:40.
