data_PCOD9030375
_publ_section_title
;
Structure prediction by ZEFSAII (Michael W. Deem and Ramdas Pophale) SiO2 
 PCOD9030375
Probable space group: P -1
;
_chemical_formula_sum "Si O2"
_cell_formula_units_Z 14
_cell_length_a 13.809363
_cell_length_b 5.546806
_cell_length_c 8.997594
_cell_angle_alpha 55.953578
_cell_angle_beta 89.169340
_cell_angle_gamma 76.899315
_cell_volume 550.773159
_symmetry_space_group_name_H-M "P -1"
_symmetry_group_IT_number 2
_symmetry_cell_setting 'triclinic'
loop_
_space_group_symop_operation_xyz
x,y,z
-x,-y,-z
loop_
_atom_site_type_symbol
_atom_site_label
_atom_site_fract_x
_atom_site_fract_y
_atom_site_fract_z
Si Si1 0.937419 0.835429 0.448673
Si Si2 0.228535 0.850221 0.268779
Si Si3 0.279789 0.192165 0.557002
Si Si4 0.004179 0.152782 0.104402
Si Si5 0.536184 0.662368 0.220535
Si Si6 0.406996 0.956987 0.385414
Si Si7 0.655124 0.097510 0.035174
O O1 0.825639 0.835279 0.502787
O O2 0.000000 0.500000 0.500000
O O3 0.000000 0.000000 0.500000
O O4 0.919704 0.060511 0.232324
O O5 0.250013 0.546056 0.470707
O O6 0.302500 0.026517 0.275326
O O7 0.112021 0.992385 0.224793
O O8 0.262839 0.827115 0.102093
O O9 0.374626 0.176347 0.450326
O O10 0.311458 0.961393 0.773480
O O11 0.000000 0.500000 0.000000
O O12 0.000000 0.000000 0.000000
O O13 0.486568 0.903790 0.269109
O O14 0.570016 0.354373 0.414547
O O15 0.626795 0.779433 0.112518
O O16 0.449877 0.671049 0.097120
#
# Coordination Sequence:
#
# PCOD9030375 Si02
#       7
#     2   2   2   2   2   2   2
#     4  12  26  48  77 108 148 195 246 308 375 449
#     4  11  24  46  68  99 144 181 243 296 366 436
#     4  12  25  43  72 103 138 187 248 297 368 433
#     4  12  27  47  73 107 147 191 242 309 374 442
#     4   9  20  44  66  98 144 183 237 292 370 434
#     4  10  22  42  70  96 138 192 228 302 362 430
#     4  10  22  43  67 101 139 184 232 300 356 437
#
# _framework density 25.418814000000001
#
# number of rings (size 3 to 8) (size 9 to 14) (size 15 to 20)
#    0.000    1.143    2.857    2.571    2.000    2.286 
#    7.714    0.000    0.000    0.000    0.000    0.000 
#    0.000    0.000    0.000    0.000    0.000    0.000 
#
# Total GULP energy -78071.092481 kJ/mol
# GULP energy per Si atom -5576.506606 kJ/mol
# Density = 2.536096 g / cm^3
# Si number density = 25.418814 Si / 1000 Ang^3
#
#
#
# Elastic Constant Matrix: (Units=GPa)
#
#
# Indices 1 2 3 4 5 6 
#
# 1 112.5540 27.5466 19.4314 5.8680 4.0868 5.9771
# 2 27.5466 98.6406 33.3328 1.9128 10.4115 2.6780
# 3 19.4314 33.3328 141.1829 5.8485 1.7438 -1.3360
# 4 5.8680 1.9128 5.8485 40.7367 4.4521 4.8893
# 5 4.0868 10.4115 1.7438 4.4521 58.6265 6.9711
# 6 5.9771 2.6780 -1.3360 4.8893 6.9711 29.7842
#
#
#
# Elastic Compliance Matrix: (Units=1/GPa)
#
#
# Indices 1 2 3 4 5 6 
#
# 1 0.009739 -0.002408 -0.000746 -0.000993 0.000039 -0.001617
# 2 -0.002408 0.011838 -0.002460 0.000385 -0.001852 -0.000321
# 3 -0.000746 -0.002460 0.007814 -0.001025 0.000235 0.000835
# 4 -0.000993 0.000385 -0.001025 0.025425 -0.001458 -0.003714
# 5 0.000039 -0.001852 0.000235 -0.001458 0.017938 -0.003790
# 6 -0.001617 -0.000321 0.000835 -0.003714 -0.003790 0.035462
#
#
# Mechanical properties :
#
#
# Convention : Reuss Voigt Hill
#
# Bulk Modulus (GPa) = 55.05901 56.99989 56.02945
# Shear Modulus (GPa) = 39.84068 43.96725 41.90397
#
# Velocity S-wave (km/s) = 3.96330 4.16349 4.06463
# Velocity P-wave (km/s) = 6.53080 6.75173 6.64219
#
# Compressibility (1/GPa) = 0.01816233
#
# Stress axis : x y z
#
# Youngs Moduli (GPa) = 102.67792 84.47133 127.97712
#
# Poissons Ratio (x) = 0.20345 0.09553
# Poissons Ratio (y) = 0.24730 0.31478
# Poissons Ratio (z) = 0.07665 0.20777
#
# Static dielectric constant tensor:
#      x y z
#    x 2.003520 0.059360 0.064320 
#    y 0.059360 2.146070 0.098610 
#    z 0.064320 0.098610 2.071640 
# 
# From -- ./inp_files/288364.got.cif
#   From: 2010.05.17/outbox.cif.g08.bks.cpg/sg2_145_cif.got.tgz:288364.got - 2010.06.03 11:33:40.
