data_PCOD9030036
_publ_section_title
;
Structure prediction by ZEFSAII (Michael W. Deem and Ramdas Pophale) SiO2 
 PCOD9030036
Probable space group: P -1
;
_chemical_formula_sum "Si O2"
_cell_formula_units_Z 16
_cell_length_a 11.849720
_cell_length_b 12.836257
_cell_length_c 13.445797
_cell_angle_alpha 128.062101
_cell_angle_beta 31.721628
_cell_angle_gamma 108.058688
_cell_volume 724.241409
_symmetry_space_group_name_H-M "P -1"
_symmetry_group_IT_number 2
_symmetry_cell_setting 'triclinic'
loop_
_space_group_symop_operation_xyz
x,y,z
-x,-y,-z
loop_
_atom_site_type_symbol
_atom_site_label
_atom_site_fract_x
_atom_site_fract_y
_atom_site_fract_z
Si Si1 0.952727 0.364030 0.847286
Si Si2 0.732732 0.055955 0.182616
Si Si3 0.987476 0.601324 0.835634
Si Si4 0.491573 0.350668 0.885802
Si Si5 0.769677 0.868483 0.319428
Si Si6 0.466683 0.585895 0.470124
Si Si7 0.968625 0.105469 0.311563
Si Si8 0.113620 0.842796 0.382383
O O1 0.067296 0.454061 0.759906
O O2 0.882274 0.283551 0.766673
O O3 0.128654 0.234013 0.716932
O O4 0.711378 0.491219 0.163938
O O5 0.530911 0.044034 0.394078
O O6 0.611245 0.236752 0.354207
O O7 0.000000 0.000000 0.000000
O O8 0.812125 0.947661 0.962641
O O9 0.231047 0.587505 0.596474
O O10 0.774807 0.614683 0.929967
O O11 0.869360 0.749604 0.083700
O O12 0.701121 0.264040 0.590710
O O13 0.611476 0.228783 0.815616
O O14 0.500000 0.500000 0.000000
O O15 0.888910 0.976028 0.292308
O O16 0.500000 0.500000 0.500000
O O17 0.044542 0.122763 0.376572
O O18 0.000000 0.000000 0.500000
#
# Coordination Sequence:
#
# PCOD9030036 Si02
#       8
#     2   2   2   2   2   2   2   2
#     4  12  22  44  68  97 136 175 232 277 330 408
#     4  12  26  40  63 104 141 169 217 280 343 406
#     4  12  22  39  68 100 132 175 219 279 346 389
#     4  10  22  42  69  92 131 182 224 270 332 393
#     4  12  23  40  70 100 135 178 223 274 352 402
#     4  12  25  41  65 102 138 172 221 281 336 401
#     4  10  23  43  65  94 138 171 222 270 334 397
#     4  10  22  43  69  89 130 188 218 273 329 395
#
# _framework density 22.092082000000001
#
# number of rings (size 3 to 8) (size 9 to 14) (size 15 to 20)
#    0.750    0.000    6.250    1.875    1.750    1.000 
#    0.000    3.750    0.000    0.000    0.000    0.000 
#    0.000    0.000    0.000    0.000    0.000    0.000 
#
# Total GULP energy -89467.347743 kJ/mol
# GULP energy per Si atom -5591.709234 kJ/mol
# Density = 2.204180 g / cm^3
# Si number density = 22.092082 Si / 1000 Ang^3
#
#
#
# Elastic Constant Matrix: (Units=GPa)
#
#
# Indices 1 2 3 4 5 6 
#
# 1 99.2122 3.6261 10.6962 8.1768 -10.2457 5.4196
# 2 3.6261 63.8112 15.3173 10.0814 -10.4562 -0.4194
# 3 10.6962 15.3173 66.8695 -1.1834 -1.2087 3.5393
# 4 8.1768 10.0814 -1.1834 39.1961 4.3432 -1.0577
# 5 -10.2457 -10.4562 -1.2087 4.3432 31.2979 4.7546
# 6 5.4196 -0.4194 3.5393 -1.0577 4.7546 34.0942
#
#
#
# Elastic Compliance Matrix: (Units=1/GPa)
#
#
# Indices 1 2 3 4 5 6 
#
# 1 0.011126 0.001093 -0.001879 -0.003246 0.004738 -0.002321
# 2 0.001093 0.018840 -0.004426 -0.006049 0.007428 -0.000706
# 3 -0.001879 -0.004426 0.016340 0.002168 -0.001587 -0.001164
# 4 -0.003246 -0.006049 0.002168 0.028678 -0.007302 0.002125
# 5 0.004738 0.007428 -0.001587 -0.007302 0.037847 -0.006001
# 6 -0.002321 -0.000706 -0.001164 0.002125 -0.006001 0.030714
#
#
# Mechanical properties :
#
#
# Convention : Reuss Voigt Hill
#
# Bulk Modulus (GPa) = 27.86927 32.13022 29.99975
# Shear Modulus (GPa) = 30.13336 34.26785 32.20061
#
# Velocity S-wave (km/s) = 3.69723 3.94272 3.82195
# Velocity P-wave (km/s) = 5.55594 5.94156 5.75198
#
# Compressibility (1/GPa) = 0.03588181
#
# Stress axis : x y z
#
# Youngs Moduli (GPa) = 89.88221 53.07952 61.19924
#
# Poissons Ratio (x) = -0.05800 0.11499
# Poissons Ratio (y) = -0.09822 0.27085
# Poissons Ratio (z) = 0.16888 0.23491
#
# Static dielectric constant tensor:
#      x y z
#    x 1.856940 -0.032830 -0.019660 
#    y -0.032830 1.813960 0.006190 
#    z -0.019660 0.006190 1.832990 
# 
# From -- ./inp_files/522403.got.cif
#   From: 2010.05.17/outbox.cif.g08.bks.cpg/sg2_262_cif.got.tgz:522403.got - 2010.06.03 11:33:40.
