data_PCOD9030982
_publ_section_title
;
Structure prediction by ZEFSAII (Michael W. Deem and Ramdas Pophale) SiO2 
 PCOD9030982
Probable space group: P -1
;
_chemical_formula_sum "Si O2"
_cell_formula_units_Z 16
_cell_length_a 7.393394
_cell_length_b 9.101074
_cell_length_c 16.709097
_cell_angle_alpha 58.501285
_cell_angle_beta 94.868677
_cell_angle_gamma 130.939022
_cell_volume 663.791505
_symmetry_space_group_name_H-M "P -1"
_symmetry_group_IT_number 2
_symmetry_cell_setting 'triclinic'
loop_
_space_group_symop_operation_xyz
x,y,z
-x,-y,-z
loop_
_atom_site_type_symbol
_atom_site_label
_atom_site_fract_x
_atom_site_fract_y
_atom_site_fract_z
Si Si1 0.929242 0.251534 0.078093
Si Si2 0.676657 0.169162 0.783095
Si Si3 0.565253 0.532116 0.899530
Si Si4 0.686896 0.948577 0.695292
Si Si5 0.414979 0.194676 0.439898
Si Si6 0.277877 0.990937 0.016003
Si Si7 0.094190 0.325813 0.382479
Si Si8 0.231113 0.408084 0.541215
O O1 0.129159 0.309474 0.131729
O O2 0.632274 0.021233 0.158774
O O3 0.000000 0.500000 0.000000
O O4 0.945598 0.183436 0.008598
O O5 0.824595 0.449032 0.725784
O O6 0.689184 0.108663 0.710610
O O7 0.785577 0.099500 0.868940
O O8 0.541848 0.693672 0.806300
O O9 0.500000 0.500000 0.000000
O O10 0.403739 0.263412 0.935278
O O11 0.562374 0.885412 0.621044
O O12 0.996858 0.126602 0.642153
O O13 0.293543 0.301643 0.383775
O O14 0.678705 0.401474 0.440117
O O15 0.193676 0.951194 0.554501
O O16 0.500000 0.000000 0.000000
O O17 0.125319 0.403773 0.454412
O O18 0.500000 0.500000 0.500000
#
# Coordination Sequence:
#
# PCOD9030982 Si02
#       8
#     2   2   2   2   2   2   2   2
#     4  11  23  43  67  90 131 174 214 261 321 384
#     4  11  23  44  61  97 131 167 212 263 323 377
#     4  12  24  44  65  97 134 166 213 269 315 379
#     4  11  24  40  64  94 133 164 207 272 312 372
#     4   9  20  40  63  92 121 164 213 260 318 375
#     4  10  22  43  63  93 131 166 217 260 315 381
#     4   9  20  39  64  87 125 164 208 269 310 374
#     4   9  20  41  61  93 125 160 217 257 314 383
#
# _framework density 24.103953000000001
#
# number of rings (size 3 to 8) (size 9 to 14) (size 15 to 20)
#    0.000    1.750    3.750    0.750    7.000    2.500 
#    6.750    1.250    0.000    0.000    0.000    0.000 
#    0.000    0.000    0.000    0.000    0.000    0.000 
#
# Total GULP energy -89485.729584 kJ/mol
# GULP energy per Si atom -5592.858099 kJ/mol
# Density = 2.404909 g / cm^3
# Si number density = 24.103953 Si / 1000 Ang^3
#
#
#
# Elastic Constant Matrix: (Units=GPa)
#
#
# Indices 1 2 3 4 5 6 
#
# 1 52.3941 7.3967 9.1943 -8.4518 -0.7938 -7.8417
# 2 7.3967 149.1167 13.4148 -9.3381 -4.8121 -2.7619
# 3 9.1943 13.4148 76.4654 -32.6594 -11.9964 -11.9887
# 4 -8.4518 -9.3381 -32.6594 50.2157 -14.6188 1.0099
# 5 -0.7938 -4.8121 -11.9964 -14.6188 22.5397 -3.1441
# 6 -7.8417 -2.7619 -11.9887 1.0099 -3.1441 32.3880
#
#
#
# Elastic Compliance Matrix: (Units=1/GPa)
#
#
# Indices 1 2 3 4 5 6 
#
# 1 0.021017 -0.000437 0.003468 0.008111 0.008719 0.006928
# 2 -0.000437 0.006983 0.000903 0.002964 0.004035 0.001123
# 3 0.003468 0.000903 0.043852 0.045109 0.055863 0.021165
# 4 0.008111 0.002964 0.045109 0.072630 0.075377 0.023967
# 5 0.008719 0.004035 0.055863 0.075377 0.128798 0.033286
# 6 0.006928 0.001123 0.021165 0.023967 0.033286 0.042967
#
#
# Mechanical properties :
#
#
# Convention : Reuss Voigt Hill
#
# Bulk Modulus (GPa) = 12.54402 37.55420 25.04911
# Shear Modulus (GPa) = 14.92749 37.56006 26.24377
#
# Velocity S-wave (km/s) = 2.49127 3.95175 3.30324
# Velocity P-wave (km/s) = 3.67296 6.03620 4.99632
#
# Compressibility (1/GPa) = 0.07971926
#
# Stress axis : x y z
#
# Youngs Moduli (GPa) = 47.58144 143.19928 22.80406
#
# Poissons Ratio (x) = 0.06256 -0.07908
# Poissons Ratio (y) = 0.02079 -0.02058
# Poissons Ratio (z) = -0.16501 -0.12926
#
# Static dielectric constant tensor:
#      x y z
#    x 1.972680 -0.029190 -0.025350 
#    y -0.029190 1.931160 0.035060 
#    z -0.025350 0.035060 1.975700 
# 
# From -- ./inp_files/215634.got.cif
#   From: 2010.05.17/outbox.cif.g08.bks.cpg/sg2_108_cif.got.tgz:215634.got - 2010.06.03 11:33:40.
