data_PCOD9030054
_publ_section_title
;
Structure prediction by ZEFSAII (Michael W. Deem and Ramdas Pophale) SiO2 
 PCOD9030054
Probable space group: P -1
;
_chemical_formula_sum "Si O2"
_cell_formula_units_Z 13
_cell_length_a 7.884232
_cell_length_b 16.618033
_cell_length_c 6.517347
_cell_angle_alpha 90.179617
_cell_angle_beta 65.996714
_cell_angle_gamma 138.250951
_cell_volume 451.681023
_symmetry_space_group_name_H-M "P -1"
_symmetry_group_IT_number 2
_symmetry_cell_setting 'triclinic'
loop_
_space_group_symop_operation_xyz
x,y,z
-x,-y,-z
loop_
_atom_site_type_symbol
_atom_site_label
_atom_site_fract_x
_atom_site_fract_y
_atom_site_fract_z
Si Si1 0.192387 0.951701 0.970678
Si Si2 0.199637 0.107413 0.212683
Si Si3 0.500000 0.500000 0.000000
Si Si4 0.845809 0.339501 0.494477
Si Si5 0.163090 0.790224 0.776984
Si Si6 0.611367 0.705616 0.539566
Si Si7 0.975102 0.575052 0.132671
O O1 0.945490 0.821147 0.256522
O O2 0.995442 0.921012 0.877554
O O3 0.349440 0.929123 0.787363
O O4 0.334417 0.075088 0.033528
O O5 0.366666 0.237829 0.258604
O O6 0.000000 0.000000 0.500000
O O7 0.215576 0.332296 0.079937
O O8 0.581668 0.446264 0.324167
O O9 0.617218 0.323957 0.501473
O O10 0.206669 0.455181 0.231049
O O11 0.699406 0.200682 0.498648
O O12 0.890101 0.377254 0.706661
O O13 0.145811 0.708227 0.937360
O O14 0.000000 0.500000 0.000000
#
# Coordination Sequence:
#
# PCOD9030054 Si02
#       7
#     2   2   1   2   2   2   2
#     4  10  22  42  69  94 133 164 223 280 324 387
#     4   9  22  43  68  97 120 170 224 276 332 387
#     4   8  20  40  56  88 140 162 212 252 324 378
#     4  10  23  40  58  92 135 177 215 266 316 386
#     4  10  23  39  61  96 132 177 210 266 324 390
#     4  11  23  37  67  96 132 176 222 264 323 388
#     4  12  24  38  65  98 138 177 218 260 328 397
#
# _framework density 28.781374
#
# number of rings (size 3 to 8) (size 9 to 14) (size 15 to 20)
#    0.923    0.923    1.538    1.385    4.308    4.923 
#    0.000    0.769    0.000    9.231    0.000    0.000 
#    0.000    0.000    0.000    0.000    0.000    0.000 
#
# Total GULP energy -72487.005958 kJ/mol
# GULP energy per Si atom -5575.923535 kJ/mol
# Density = 2.871587 g / cm^3
# Si number density = 28.781374 Si / 1000 Ang^3
#
#
#
# Elastic Constant Matrix: (Units=GPa)
#
#
# Indices 1 2 3 4 5 6 
#
# 1 68.7417 24.0848 34.5007 18.5932 13.1667 -3.4001
# 2 24.0848 206.3486 60.1494 45.1420 19.5740 -3.7725
# 3 34.5007 60.1494 188.0845 51.5326 9.8484 -0.9470
# 4 18.5932 45.1420 51.5326 62.2484 10.2992 -1.0998
# 5 13.1667 19.5740 9.8484 10.2992 42.1642 7.7549
# 6 -3.4001 -3.7725 -0.9470 -1.0998 7.7549 50.0937
#
#
#
# Elastic Compliance Matrix: (Units=1/GPa)
#
#
# Indices 1 2 3 4 5 6 
#
# 1 0.017354 -0.000433 -0.002171 -0.002301 -0.004470 0.001746
# 2 -0.000433 0.006036 -0.000872 -0.003219 -0.001790 0.000615
# 3 -0.002171 -0.000872 0.007293 -0.004864 0.000619 -0.000278
# 4 -0.002301 -0.003219 -0.004864 0.023529 -0.002474 0.000409
# 5 -0.004470 -0.001790 0.000619 -0.002474 0.027268 -0.004702
# 6 0.001746 0.000615 -0.000278 0.000409 -0.004702 0.020859
#
#
# Mechanical properties :
#
#
# Convention : Reuss Voigt Hill
#
# Bulk Modulus (GPa) = 42.14199 77.84939 59.99569
# Shear Modulus (GPa) = 42.66138 53.86392 48.26265
#
# Velocity S-wave (km/s) = 3.85419 4.33076 4.09940
# Velocity P-wave (km/s) = 5.87199 7.21904 6.58008
#
# Compressibility (1/GPa) = 0.02372930
#
# Stress axis : x y z
#
# Youngs Moduli (GPa) = 57.62468 165.66698 137.12326
#
# Poissons Ratio (x) = 0.07177 0.29774
# Poissons Ratio (y) = 0.02496 0.11959
# Poissons Ratio (z) = 0.12512 0.14448
#
# Static dielectric constant tensor:
#      x y z
#    x 2.469560 0.038970 -0.016550 
#    y 0.038970 2.327920 -0.151120 
#    z -0.016550 -0.151120 2.329220 
# 
# From -- ./inp_files/32406.got.cif
#   From: 2010.05.17/outbox.cif.g08.bks.cpg/sg2_17_cif.got.tgz:32406.got - 2010.06.03 11:33:40.
