data_PCOD9030269
_publ_section_title
;
Structure prediction by ZEFSAII (Michael W. Deem and Ramdas Pophale) SiO2 
 PCOD9030269
Probable space group: P -1
;
_chemical_formula_sum "Si O2"
_cell_formula_units_Z 13
_cell_length_a 9.512556
_cell_length_b 22.594317
_cell_length_c 5.140717
_cell_angle_alpha 50.808468
_cell_angle_beta 57.836772
_cell_angle_gamma 32.952683
_cell_volume 465.793869
_symmetry_space_group_name_H-M "P -1"
_symmetry_group_IT_number 2
_symmetry_cell_setting 'triclinic'
loop_
_space_group_symop_operation_xyz
x,y,z
-x,-y,-z
loop_
_atom_site_type_symbol
_atom_site_label
_atom_site_fract_x
_atom_site_fract_y
_atom_site_fract_z
Si Si1 0.000000 0.500000 0.000000
Si Si2 0.081070 0.919718 0.394319
Si Si3 0.150821 0.257316 0.185087
Si Si4 0.673801 0.927907 0.782410
Si Si5 0.499753 0.257256 0.913083
Si Si6 0.237102 0.555915 0.326487
Si Si7 0.746832 0.309066 0.711859
O O1 0.773277 0.605080 0.141900
O O2 0.940583 0.430704 0.336569
O O3 0.911080 0.902904 0.618794
O O4 0.371731 0.791920 0.363919
O O5 0.000000 0.000000 0.500000
O O6 0.000000 0.000000 0.000000
O O7 0.235910 0.190776 0.011343
O O8 0.021671 0.234851 0.534475
O O9 0.405128 0.204705 0.203958
O O10 0.911623 0.393178 0.940427
O O11 0.500000 0.000000 0.500000
O O12 0.500000 0.000000 0.000000
O O13 0.693747 0.237472 0.958442
O O14 0.521452 0.418853 0.435548
O O15 0.283959 0.625983 0.189397
#
# Coordination Sequence:
#
# PCOD9030269 Si02
#       7
#     1   2   2   2   2   2   2
#     4  10  22  42  70 104 152 190 248 304 390 458
#     4  12  27  51  77 115 155 202 265 330 396 469
#     4  12  24  44  71 101 143 192 252 306 389 450
#     4  12  28  50  79 113 153 203 265 333 397 469
#     4  11  24  45  71 108 145 196 247 316 383 464
#     4  10  23  42  69 101 146 195 241 313 369 467
#     4  10  22  45  64 102 143 184 248 300 376 450
#
# _framework density 27.909343
#
# number of rings (size 3 to 8) (size 9 to 14) (size 15 to 20)
#    0.000    0.923    3.077    3.231    2.154    6.154 
#    8.308    0.000    0.000    0.000    0.000    0.000 
#    0.000    0.000    0.000    0.000    0.000    0.000 
#
# Total GULP energy -72453.551204 kJ/mol
# GULP energy per Si atom -5573.350093 kJ/mol
# Density = 2.784582 g / cm^3
# Si number density = 27.909343 Si / 1000 Ang^3
#
#
#
# Elastic Constant Matrix: (Units=GPa)
#
#
# Indices 1 2 3 4 5 6 
#
# 1 206.5485 38.2277 75.5568 15.8593 -50.0188 4.3317
# 2 38.2277 166.1958 44.5007 40.1304 -0.7015 1.9678
# 3 75.5568 44.5007 118.5989 40.6052 -21.7586 -1.0806
# 4 15.8593 40.1304 40.6052 65.2291 -8.7358 -0.1915
# 5 -50.0188 -0.7015 -21.7586 -8.7358 73.4971 2.7005
# 6 4.3317 1.9678 -1.0806 -0.1915 2.7005 48.7812
#
#
#
# Elastic Compliance Matrix: (Units=1/GPa)
#
#
# Indices 1 2 3 4 5 6 
#
# 1 0.007464 -0.001024 -0.004338 0.002057 0.004064 -0.000934
# 2 -0.001024 0.007472 -0.001089 -0.003858 -0.001400 -0.000172
# 3 -0.004338 -0.001089 0.014064 -0.006982 0.000346 0.000694
# 4 0.002057 -0.003858 -0.006982 0.021803 0.001895 -0.000201
# 5 0.004064 -0.001400 0.000346 0.001895 0.016731 -0.001216
# 6 -0.000934 -0.000172 0.000694 -0.000201 -0.001216 0.020672
#
#
# Mechanical properties :
#
#
# Convention : Reuss Voigt Hill
#
# Bulk Modulus (GPa) = 62.11790 89.76818 75.94304
# Shear Modulus (GPa) = 46.96035 59.70535 53.33285
#
# Velocity S-wave (km/s) = 4.10640 4.63023 4.37616
# Velocity P-wave (km/s) = 6.69244 7.79868 7.26664
#
# Compressibility (1/GPa) = 0.01609842
#
# Stress axis : x y z
#
# Youngs Moduli (GPa) = 133.98204 133.83758 71.10249
#
# Poissons Ratio (x) = 0.13701 0.30844
# Poissons Ratio (y) = 0.13716 0.07742
# Poissons Ratio (z) = 0.58122 0.14573
#
# Static dielectric constant tensor:
#      x y z
#    x 2.307550 0.054540 -0.024990 
#    y 0.054540 2.316060 -0.136060 
#    z -0.024990 -0.136060 2.231530 
# 
# From -- ./inp_files/52325.got.cif
#   From: 2010.05.17/outbox.cif.g08.bks.cpg/sg2_27_cif.got.tgz:52325.got - 2010.06.03 11:33:40.
