data_PCOD9030131
_publ_section_title
;
Structure prediction by ZEFSAII (Michael W. Deem and Ramdas Pophale) SiO2 
 PCOD9030131
Probable space group: P -1
;
_chemical_formula_sum "Si O2"
_cell_formula_units_Z 10
_cell_length_a 5.081349
_cell_length_b 9.037150
_cell_length_c 8.146916
_cell_angle_alpha 91.602211
_cell_angle_beta 97.587111
_cell_angle_gamma 86.567750
_cell_volume 370.097330
_symmetry_space_group_name_H-M "P -1"
_symmetry_group_IT_number 2
_symmetry_cell_setting 'triclinic'
loop_
_space_group_symop_operation_xyz
x,y,z
-x,-y,-z
loop_
_atom_site_type_symbol
_atom_site_label
_atom_site_fract_x
_atom_site_fract_y
_atom_site_fract_z
Si Si1 0.912830 0.976123 0.724064
Si Si2 0.223654 0.773377 0.500325
Si Si3 0.077672 0.553314 0.214788
Si Si4 0.748882 0.830153 0.045747
Si Si5 0.583783 0.354359 0.175058
O O1 0.818245 0.906441 0.882262
O O2 0.988116 0.854482 0.589778
O O3 0.721754 0.105232 0.630787
O O4 0.184204 0.055660 0.802438
O O5 0.144345 0.627110 0.395616
O O6 0.438612 0.728710 0.654231
O O7 0.348933 0.481963 0.159989
O O8 0.862752 0.429459 0.205107
O O9 0.940879 0.688042 0.103928
O O10 0.468417 0.760958 0.979030
#
# Coordination Sequence:
#
# PCOD9030131 Si02
#       5
#     2   2   2   2   2
#     4   9  21  44  68  98 133 179 224 274 330 391
#     4  10  22  42  69  98 135 175 224 275 330 395
#     4  11  25  44  70 100 135 175 220 274 334 395
#     4  10  22  42  69  98 135 175 224 275 330 395
#     4  12  24  42  70 102 134 174 220 276 332 394
#
# _framework density 27.019915000000001
#
# number of rings (size 3 to 8) (size 9 to 14) (size 15 to 20)
#    0.000    1.600    0.000    3.600    0.000    4.800 
#    0.000   14.000    0.000    0.000    0.000    0.000 
#    0.000    0.000    0.000    0.000    0.000    0.000 
#
# Total GULP energy -56051.824571 kJ/mol
# GULP energy per Si atom -5605.182457 kJ/mol
# Density = 2.695842 g / cm^3
# Si number density = 27.019915 Si / 1000 Ang^3
#
#
#
# Elastic Constant Matrix: (Units=GPa)
#
#
# Indices 1 2 3 4 5 6 
#
# 1 89.3270 27.7130 4.8772 14.3575 6.7334 22.6731
# 2 27.7130 84.6612 14.5208 -7.0931 7.6850 3.7419
# 3 4.8772 14.5208 130.2096 7.8847 13.9968 13.2514
# 4 14.3575 -7.0931 7.8847 93.2989 1.6035 8.0347
# 5 6.7334 7.6850 13.9968 1.6035 37.0338 -1.1440
# 6 22.6731 3.7419 13.2514 8.0347 -1.1440 35.7682
#
#
#
# Elastic Compliance Matrix: (Units=1/GPa)
#
#
# Indices 1 2 3 4 5 6 
#
# 1 0.015536 -0.004832 0.001313 -0.002011 -0.002523 -0.009458
# 2 -0.004832 0.013857 -0.001491 0.001800 -0.001458 0.001715
# 3 0.001313 -0.001491 0.008575 -0.000656 -0.003259 -0.003810
# 4 -0.002011 0.001800 -0.000656 0.011331 -0.000288 -0.001225
# 5 -0.002523 -0.001458 -0.003259 -0.000288 0.029130 0.003956
# 6 -0.009458 0.001715 -0.003810 -0.001225 0.003956 0.035587
#
#
# Mechanical properties :
#
#
# Convention : Reuss Voigt Hill
#
# Bulk Modulus (GPa) = 35.78280 44.26889 40.02584
# Shear Modulus (GPa) = 37.49451 50.35928 43.92690
#
# Velocity S-wave (km/s) = 3.72917 4.32184 4.03640
# Velocity P-wave (km/s) = 5.64041 6.42836 6.04723
#
# Compressibility (1/GPa) = 0.02794639
#
# Stress axis : x y z
#
# Youngs Moduli (GPa) = 64.36468 72.16691 116.62027
#
# Poissons Ratio (x) = 0.34873 -0.15307
# Poissons Ratio (y) = 0.31103 0.17389
# Poissons Ratio (z) = -0.08448 0.10761
#
# Static dielectric constant tensor:
#      x y z
#    x 2.065470 0.020770 0.000570 
#    y 0.020770 2.144030 -0.037110 
#    z 0.000570 -0.037110 2.093680 
# 
# From -- ./inp_files/15999.got.cif
#   From: 2010.05.17/outbox.cif.g08.bks.cpg/sg2_8_cif.got.tgz:15999.got - 2010.06.03 11:33:40.
