data_PCOD9030551
_publ_section_title
;
Structure prediction by ZEFSAII (Michael W. Deem and Ramdas Pophale) SiO2 
 PCOD9030551
Probable space group: P -1
;
_chemical_formula_sum "Si O2"
_cell_formula_units_Z 16
_cell_length_a 23.407041
_cell_length_b 5.651339
_cell_length_c 5.099097
_cell_angle_alpha 84.391423
_cell_angle_beta 96.820716
_cell_angle_gamma 104.720381
_cell_volume 646.153241
_symmetry_space_group_name_H-M "P -1"
_symmetry_group_IT_number 2
_symmetry_cell_setting 'triclinic'
loop_
_space_group_symop_operation_xyz
x,y,z
-x,-y,-z
loop_
_atom_site_type_symbol
_atom_site_label
_atom_site_fract_x
_atom_site_fract_y
_atom_site_fract_z
Si Si1 0.433238 0.345253 0.004358
Si Si2 0.173092 0.454269 0.293619
Si Si3 0.338044 0.616905 0.859776
Si Si4 0.379703 0.064618 0.481715
Si Si5 0.784246 0.761473 0.188143
Si Si6 0.068496 0.566281 0.940682
Si Si7 0.267673 0.888293 0.179795
Si Si8 0.042727 0.054842 0.764192
O O1 0.390606 0.522374 0.029103
O O2 0.408262 0.225216 0.727414
O O3 0.500000 0.500000 0.000000
O O4 0.422902 0.142510 0.249930
O O5 0.176805 0.253588 0.534290
O O6 0.225230 0.692868 0.363709
O O7 0.191711 0.362657 0.033822
O O8 0.112295 0.531564 0.201231
O O9 0.283324 0.392215 0.780466
O O10 0.364888 0.786633 0.610129
O O11 0.309833 0.773692 0.031303
O O12 0.314306 0.089646 0.350284
O O13 0.775953 0.016238 0.047202
O O14 0.071997 0.346045 0.766857
O O15 0.080647 0.848243 0.820116
O O16 0.000000 0.500000 0.000000
O O17 0.000000 0.000000 0.500000
O O18 0.000000 0.000000 0.000000
#
# Coordination Sequence:
#
# PCOD9030551 Si02
#       8
#     2   2   2   2   2   2   2   2
#     4  12  29  46  68 105 144 185 235 291 354 433
#     4  11  27  43  70 109 142 184 239 303 361 439
#     4  11  24  44  73  97 137 185 233 285 366 416
#     4  12  24  45  72  97 136 185 233 289 354 423
#     4  11  25  43  70 101 144 178 240 299 365 423
#     4  10  24  48  72 108 150 199 242 304 377 454
#     4  11  25  45  73 104 135 187 240 299 362 428
#     4  10  22  42  71  98 135 190 243 288 349 438
#
# _framework density 24.761924
#
# number of rings (size 3 to 8) (size 9 to 14) (size 15 to 20)
#    0.000    1.000    3.750    0.750    7.000    5.000 
#    0.000    0.000    0.000    0.000    0.000    0.000 
#    0.000    0.000    0.000    0.000    0.000    0.000 
#
# Total GULP energy -89562.024570 kJ/mol
# GULP energy per Si atom -5597.626536 kJ/mol
# Density = 2.470556 g / cm^3
# Si number density = 24.761924 Si / 1000 Ang^3
#
#
#
# Elastic Constant Matrix: (Units=GPa)
#
#
# Indices 1 2 3 4 5 6 
#
# 1 99.3660 15.9409 16.6918 -0.7415 6.6216 -0.2636
# 2 15.9409 94.4514 27.5394 -9.6738 -1.3080 -17.5271
# 3 16.6918 27.5394 135.4999 -0.2111 5.5432 4.5339
# 4 -0.7415 -9.6738 -0.2111 48.6284 1.9388 5.2811
# 5 6.6216 -1.3080 5.5432 1.9388 33.8664 -12.1852
# 6 -0.2636 -17.5271 4.5339 5.2811 -12.1852 29.0166
#
#
#
# Elastic Compliance Matrix: (Units=1/GPa)
#
#
# Indices 1 2 3 4 5 6 
#
# 1 0.010697 -0.002045 -0.000709 0.000112 -0.002872 -0.002254
# 2 -0.002045 0.014124 -0.003204 0.001355 0.005356 0.011016
# 3 -0.000709 -0.003204 0.008391 -0.000004 -0.002979 -0.004503
# 4 0.000112 0.001355 -0.000004 0.021401 -0.002710 -0.004213
# 5 -0.002872 0.005356 -0.002979 -0.002710 0.038212 0.020215
# 6 -0.002254 0.011016 -0.004503 -0.004213 0.020215 0.051056
#
#
# Mechanical properties :
#
#
# Convention : Reuss Voigt Hill
#
# Bulk Modulus (GPa) = 46.95816 49.96238 48.46027
# Shear Modulus (GPa) = 30.69425 40.24532 35.46978
#
# Velocity S-wave (km/s) = 3.52458 4.03586 3.78885
# Velocity P-wave (km/s) = 5.96394 6.47599 6.22523
#
# Compressibility (1/GPa) = 0.02129555
#
# Stress axis : x y z
#
# Youngs Moduli (GPa) = 93.48204 70.80107 119.17245
#
# Poissons Ratio (x) = 0.14480 0.08449
# Poissons Ratio (y) = 0.19119 0.38186
# Poissons Ratio (z) = 0.06628 0.22687
#
# Static dielectric constant tensor:
#      x y z
#    x 1.942860 -0.008780 0.002970 
#    y -0.008780 2.013230 -0.005640 
#    z 0.002970 -0.005640 1.949240 
# 
# From -- ./inp_files/121169.got.cif
#   From: 2010.05.17/outbox.cif.g08.bks.cpg/sg2_61_cif.got.tgz:121169.got - 2010.06.03 11:33:40.
