data_PCOD9030124
_publ_section_title
;
Structure prediction by ZEFSAII (Michael W. Deem and Ramdas Pophale) SiO2 
 PCOD9030124
Probable space group: P -1
;
_chemical_formula_sum "Si O2"
_cell_formula_units_Z 16
_cell_length_a 11.614275
_cell_length_b 9.158794
_cell_length_c 9.005417
_cell_angle_alpha 124.056660
_cell_angle_beta 107.277999
_cell_angle_gamma 63.496519
_cell_volume 708.791181
_symmetry_space_group_name_H-M "P -1"
_symmetry_group_IT_number 2
_symmetry_cell_setting 'triclinic'
loop_
_space_group_symop_operation_xyz
x,y,z
-x,-y,-z
loop_
_atom_site_type_symbol
_atom_site_label
_atom_site_fract_x
_atom_site_fract_y
_atom_site_fract_z
Si Si1 0.898447 0.415261 0.480514
Si Si2 0.485166 0.672077 0.982407
Si Si3 0.976404 0.974262 0.195615
Si Si4 0.469639 0.851640 0.789341
Si Si5 0.307070 0.170180 0.728255
Si Si6 0.987572 0.646039 0.210560
Si Si7 0.793360 0.016984 0.894235
Si Si8 0.678043 0.753455 0.551039
O O1 0.940137 0.194081 0.339986
O O2 0.757154 0.532847 0.432094
O O3 0.000000 0.500000 0.500000
O O4 0.905897 0.441257 0.674241
O O5 0.610916 0.722870 0.096740
O O6 0.349765 0.832763 0.066167
O O7 0.500000 0.500000 0.000000
O O8 0.474734 0.679983 0.802297
O O9 0.000487 0.836859 0.264072
O O10 0.859757 0.955219 0.043088
O O11 0.106919 0.909304 0.111333
O O12 0.572043 0.789885 0.659288
O O13 0.340181 0.974833 0.721176
O O14 0.500000 0.000000 0.000000
O O15 0.155928 0.289147 0.738439
O O16 0.359506 0.149301 0.567900
O O17 0.000000 0.500000 0.000000
O O18 0.779824 0.841254 0.704210
#
# Coordination Sequence:
#
# PCOD9030124 Si02
#       8
#     2   2   2   2   2   2   2   2
#     4  12  25  44  68 101 145 182 231 294 351 417
#     4  11  26  42  70 101 143 177 233 297 357 418
#     4  11  26  43  71 104 144 185 234 292 347 422
#     4  10  22  42  69  98 131 181 233 282 343 426
#     4  11  24  44  71 102 141 184 238 286 357 421
#     4  12  27  43  74 106 140 188 240 287 356 419
#     4  11  23  43  72 101 140 181 236 285 356 409
#     4  12  23  44  73 103 137 188 238 287 357 422
#
# _framework density 22.573644000000002
#
# number of rings (size 3 to 8) (size 9 to 14) (size 15 to 20)
#    0.000    0.750    5.000    2.250   10.500    0.000 
#    0.000    0.625    0.000    0.000    0.000    0.000 
#    0.000    0.000    0.000    0.000    0.000    0.000 
#
# Total GULP energy -89400.909992 kJ/mol
# GULP energy per Si atom -5587.556875 kJ/mol
# Density = 2.252227 g / cm^3
# Si number density = 22.573644 Si / 1000 Ang^3
#
#
#
# Elastic Constant Matrix: (Units=GPa)
#
#
# Indices 1 2 3 4 5 6 
#
# 1 72.2935 24.9600 -9.2426 -4.0811 -27.4287 -0.7636
# 2 24.9600 125.1782 19.9654 -29.0934 -15.2917 23.5891
# 3 -9.2426 19.9654 58.8201 -20.5099 -19.5237 14.7764
# 4 -4.0811 -29.0934 -20.5099 35.3037 2.6261 -8.9496
# 5 -27.4287 -15.2917 -19.5237 2.6261 41.4937 -1.8857
# 6 -0.7636 23.5891 14.7764 -8.9496 -1.8857 38.8716
#
#
#
# Elastic Compliance Matrix: (Units=1/GPa)
#
#
# Indices 1 2 3 4 5 6 
#
# 1 0.025918 -0.002921 0.015520 0.007721 0.022837 -0.000733
# 2 -0.002921 0.011564 0.000256 0.007876 0.001713 -0.005276
# 3 0.015520 0.000256 0.036808 0.019393 0.026077 -0.008113
# 4 0.007721 0.007876 0.019393 0.045720 0.014202 -0.000785
# 5 0.022837 0.001713 0.026077 0.014202 0.050982 -0.004761
# 6 -0.000733 -0.005276 -0.008113 -0.000785 -0.004761 0.031585
#
#
# Mechanical properties :
#
#
# Convention : Reuss Voigt Hill
#
# Bulk Modulus (GPa) = 9.99990 36.40640 23.20315
# Shear Modulus (GPa) = 23.78679 37.84106 30.81393
#
# Velocity S-wave (km/s) = 3.24966 4.09875 3.69865
# Velocity P-wave (km/s) = 4.30348 6.20987 5.34240
#
# Compressibility (1/GPa) = 0.10000103
#
# Stress axis : x y z
#
# Youngs Moduli (GPa) = 38.58354 86.47323 27.16767
#
# Poissons Ratio (x) = 0.25260 -0.42165
# Poissons Ratio (y) = 0.11271 -0.00696
# Poissons Ratio (z) = -0.59883 -0.02214
#
# Static dielectric constant tensor:
#      x y z
#    x 1.830580 0.023730 -0.016070 
#    y 0.023730 1.909130 -0.001460 
#    z -0.016070 -0.001460 1.849850 
# 
# From -- ./inp_files/217526.got.cif
#   From: 2010.05.17/outbox.cif.g08.bks.cpg/sg2_109_cif.got.tgz:217526.got - 2010.06.03 11:33:40.
