data_PCOD9030876
_publ_section_title
;
Structure prediction by ZEFSAII (Michael W. Deem and Ramdas Pophale) SiO2 
 PCOD9030876
Probable space group: P -1
;
_chemical_formula_sum "Si O2"
_cell_formula_units_Z 12
_cell_length_a 10.731408
_cell_length_b 16.497694
_cell_length_c 10.101310
_cell_angle_alpha 131.640448
_cell_angle_beta 62.068550
_cell_angle_gamma 154.967721
_cell_volume 512.538532
_symmetry_space_group_name_H-M "P -1"
_symmetry_group_IT_number 2
_symmetry_cell_setting 'triclinic'
loop_
_space_group_symop_operation_xyz
x,y,z
-x,-y,-z
loop_
_atom_site_type_symbol
_atom_site_label
_atom_site_fract_x
_atom_site_fract_y
_atom_site_fract_z
Si Si1 0.736002 0.997633 0.247369
Si Si2 0.888062 0.347195 0.270891
Si Si3 0.698552 0.545900 0.724780
Si Si4 0.340839 0.509314 0.595870
Si Si5 0.738110 0.215903 0.927780
Si Si6 0.408166 0.569289 0.921963
O O1 0.402153 0.817959 0.165440
O O2 0.658033 0.823303 0.146006
O O3 0.985703 0.173608 0.189757
O O4 0.949255 0.218706 0.480270
O O5 0.830024 0.353206 0.159651
O O6 0.000000 0.500000 0.500000
O O7 0.161690 0.442213 0.228287
O O8 0.558515 0.063523 0.177563
O O9 0.579477 0.396105 0.490337
O O10 0.468983 0.483734 0.817887
O O11 0.500000 0.500000 0.500000
O O12 0.464528 0.637955 0.812470
O O13 0.043308 0.352454 0.894966
#
# Coordination Sequence:
#
# PCOD9030876 Si02
#       6
#     2   2   2   2   2   2
#     4   9  19  34  54  86 116 147 173 216 291 330
#     4  10  22  43  57  70 113 155 190 230 268 323
#     4   8  19  37  54  83 107 149 184 212 275 331
#     4   8  18  32  51  83 115 139 179 210 274 334
#     4  10  23  36  56  89 104 147 194 222 275 331
#     4  11  19  34  59  85 120 134 178 239 273 329
#
# _framework density 23.412875
#
# number of rings (size 3 to 8) (size 9 to 14) (size 15 to 20)
#    1.000    1.667    0.000    1.000    2.333    2.667 
#    0.000    0.833    0.000    0.000    0.000    0.000 
#    0.000    0.000    0.000    0.000    0.000    0.000 
#
# Total GULP energy -66836.807888 kJ/mol
# GULP energy per Si atom -5569.733991 kJ/mol
# Density = 2.335959 g / cm^3
# Si number density = 23.412875 Si / 1000 Ang^3
#
#
#
# Elastic Constant Matrix: (Units=GPa)
#
#
# Indices 1 2 3 4 5 6 
#
# 1 60.7188 14.6963 -1.8063 1.7512 5.4491 15.3024
# 2 14.6963 59.9101 14.2172 -10.0470 -5.7980 24.8763
# 3 -1.8063 14.2172 83.2065 9.9896 -3.1898 -4.3546
# 4 1.7512 -10.0470 9.9896 17.7016 6.8312 1.0539
# 5 5.4491 -5.7980 -3.1898 6.8312 23.5086 -5.8151
# 6 15.3024 24.8763 -4.3546 1.0539 -5.8151 34.8046
#
#
#
# Elastic Compliance Matrix: (Units=1/GPa)
#
#
# Indices 1 2 3 4 5 6 
#
# 1 0.019725 -0.002011 0.000034 0.000169 -0.007200 -0.008439
# 2 -0.002011 0.037273 -0.012368 0.033656 -0.009184 -0.029857
# 3 0.000034 -0.012368 0.017696 -0.021166 0.008744 0.013141
# 4 0.000169 0.033656 -0.021166 0.102417 -0.033131 -0.035414
# 5 -0.007200 -0.009184 0.008744 -0.033131 0.058081 0.021532
# 6 -0.008439 -0.029857 0.013141 -0.035414 0.021532 0.060096
#
#
# Mechanical properties :
#
#
# Convention : Reuss Voigt Hill
#
# Bulk Modulus (GPa) = 21.73697 28.67219 25.20458
# Shear Modulus (GPa) = 14.73564 26.98483 20.86023
#
# Velocity S-wave (km/s) = 2.51147 3.39863 2.98815
# Velocity P-wave (km/s) = 4.20884 5.26059 4.76383
#
# Compressibility (1/GPa) = 0.04600458
#
# Stress axis : x y z
#
# Youngs Moduli (GPa) = 50.69651 26.82923 56.50866
#
# Poissons Ratio (x) = 0.05396 -0.00191
# Poissons Ratio (y) = 0.10196 0.69888
# Poissons Ratio (z) = -0.00172 0.33181
#
# Static dielectric constant tensor:
#      x y z
#    x 1.934390 0.029980 0.043440 
#    y 0.029980 1.869130 -0.028160 
#    z 0.043440 -0.028160 1.977690 
# 
# From -- ./inp_files/372741.got.cif
#   From: 2010.05.17/outbox.cif.g08.bks.cpg/sg2_187_cif.got.tgz:372741.got - 2010.06.03 11:33:40.
