data_PCOD9030770
_publ_section_title
;
Structure prediction by ZEFSAII (Michael W. Deem and Ramdas Pophale) SiO2 
 PCOD9030770
Probable space group: P -1
;
_chemical_formula_sum "Si O2"
_cell_formula_units_Z 13
_cell_length_a 11.106191
_cell_length_b 23.364763
_cell_length_c 11.312389
_cell_angle_alpha 23.527377
_cell_angle_beta 45.838751
_cell_angle_gamma 33.492001
_cell_volume 615.090720
_symmetry_space_group_name_H-M "P -1"
_symmetry_group_IT_number 2
_symmetry_cell_setting 'triclinic'
loop_
_space_group_symop_operation_xyz
x,y,z
-x,-y,-z
loop_
_atom_site_type_symbol
_atom_site_label
_atom_site_fract_x
_atom_site_fract_y
_atom_site_fract_z
Si Si1 0.202032 0.171704 0.146540
Si Si2 0.000000 0.000000 0.000000
Si Si3 0.530156 0.743320 0.058384
Si Si4 0.126981 0.708204 0.252361
Si Si5 0.732172 0.774166 0.260693
Si Si6 0.567668 0.248862 0.160214
Si Si7 0.308500 0.509775 0.057047
O O1 0.342294 0.943596 0.469995
O O2 0.329023 0.203193 0.090756
O O3 0.187873 0.261373 0.862065
O O4 0.947965 0.280625 0.158156
O O5 0.273366 0.890615 0.006541
O O6 0.048106 0.846852 0.155915
O O7 0.667758 0.520073 0.423864
O O8 0.517313 0.749748 0.913044
O O9 0.921030 0.736573 0.286125
O O10 0.226342 0.760460 0.988130
O O11 0.692033 0.636738 0.591178
O O12 0.500000 0.000000 0.000000
O O13 0.376610 0.435730 0.016133
O O14 0.500000 0.500000 0.000000
#
# Coordination Sequence:
#
# PCOD9030770 Si02
#       7
#     2   1   2   2   2   2   2
#     4  12  26  46  73 102 144 187 232 292 350 418
#     4  10  22  42  74 102 134 184 232 284 346 412
#     4  11  25  47  72 104 141 187 239 284 355 415
#     4  11  25  47  72 104 144 186 237 287 348 423
#     4  12  25  48  74 101 142 190 235 289 352 420
#     4  11  26  45  67 107 141 180 236 294 344 416
#     4  12  28  46  71 106 141 186 235 294 349 414
#
# _framework density 21.135095
#
# number of rings (size 3 to 8) (size 9 to 14) (size 15 to 20)
#    0.000    0.615    3.077    4.615    4.308    6.769 
#    0.000    0.000    0.000    0.000    0.000    0.000 
#    0.000    0.000    0.000    0.000    0.000    0.000 
#
# Total GULP energy -72527.833155 kJ/mol
# GULP energy per Si atom -5579.064089 kJ/mol
# Density = 2.108699 g / cm^3
# Si number density = 21.135095 Si / 1000 Ang^3
#
#
#
# Elastic Constant Matrix: (Units=GPa)
#
#
# Indices 1 2 3 4 5 6 
#
# 1 89.4973 42.1488 10.2608 8.2370 -22.1870 -38.6548
# 2 42.1488 139.5622 -0.8106 -14.6322 -2.6215 0.7378
# 3 10.2608 -0.8106 53.3608 20.2291 -5.9249 -1.6333
# 4 8.2370 -14.6322 20.2291 30.0574 -8.6195 -3.3221
# 5 -22.1870 -2.6215 -5.9249 -8.6195 29.7422 1.6681
# 6 -38.6548 0.7378 -1.6333 -3.3221 1.6681 32.2970
#
#
#
# Elastic Compliance Matrix: (Units=1/GPa)
#
#
# Indices 1 2 3 4 5 6 
#
# 1 0.059656 -0.018163 -0.003885 -0.004311 0.036993 0.069264
# 2 -0.018163 0.013301 -0.000581 0.006859 -0.009333 -0.020884
# 3 -0.003885 -0.000581 0.025821 -0.017933 -0.002720 -0.005035
# 4 -0.004311 0.006859 -0.017933 0.052309 0.009049 -0.001310
# 5 0.036993 -0.009333 -0.002720 0.009049 0.060111 0.042177
# 6 0.069264 -0.020884 -0.005035 -0.001310 0.042177 0.111771
#
#
# Mechanical properties :
#
#
# Convention : Reuss Voigt Hill
#
# Bulk Modulus (GPa) = 18.68454 42.84647 30.76550
# Shear Modulus (GPa) = 12.95108 33.80740 23.37924
#
# Velocity S-wave (km/s) = 2.47812 4.00382 3.32954
# Velocity P-wave (km/s) = 4.12890 6.45684 5.41934
#
# Compressibility (1/GPa) = 0.05352019
#
# Stress axis : x y z
#
# Youngs Moduli (GPa) = 16.76269 75.18048 38.72854
#
# Poissons Ratio (x) = 1.36547 0.15047
# Poissons Ratio (y) = 0.30445 0.02251
# Poissons Ratio (z) = 0.06513 0.04370
#
# Static dielectric constant tensor:
#      x y z
#    x 1.730730 0.012230 0.003070 
#    y 0.012230 1.740550 0.020000 
#    z 0.003070 0.020000 1.743120 
# 
# From -- ./inp_files/294359.got.cif
#   From: 2010.05.17/outbox.cif.g08.bks.cpg/sg2_148_cif.got.tgz:294359.got - 2010.06.03 11:33:40.
