data_PCOD9030772
_publ_section_title
;
Structure prediction by ZEFSAII (Michael W. Deem and Ramdas Pophale) SiO2 
 PCOD9030772
Probable space group: P -1
;
_chemical_formula_sum "Si O2"
_cell_formula_units_Z 16
_cell_length_a 9.100776
_cell_length_b 12.716499
_cell_length_c 12.748873
_cell_angle_alpha 143.370463
_cell_angle_beta 50.432059
_cell_angle_gamma 121.584065
_cell_volume 678.341367
_symmetry_space_group_name_H-M "P -1"
_symmetry_group_IT_number 2
_symmetry_cell_setting 'triclinic'
loop_
_space_group_symop_operation_xyz
x,y,z
-x,-y,-z
loop_
_atom_site_type_symbol
_atom_site_label
_atom_site_fract_x
_atom_site_fract_y
_atom_site_fract_z
Si Si1 0.300047 0.506966 0.538583
Si Si2 0.177917 0.614457 0.472823
Si Si3 0.738287 0.121142 0.072680
Si Si4 0.726600 0.706470 0.125610
Si Si5 0.726934 0.876269 0.697053
Si Si6 0.699243 0.959056 0.538645
Si Si7 0.282647 0.654637 0.224773
Si Si8 0.241770 0.002654 0.811913
O O1 0.500000 0.500000 0.500000
O O2 0.334355 0.554062 0.438375
O O3 0.199892 0.676832 0.768865
O O4 0.206754 0.314114 0.445138
O O5 0.221238 0.583267 0.308818
O O6 0.153227 0.821203 0.663409
O O7 0.000000 0.500000 0.500000
O O8 0.505156 0.124973 0.185456
O O9 0.789977 0.998737 0.050240
O O10 0.796676 0.034364 0.867672
O O11 0.731463 0.817115 0.319193
O O12 0.509892 0.683580 0.161856
O O13 0.821314 0.830364 0.091711
O O14 0.781015 0.503103 0.950042
O O15 0.768575 0.905899 0.579743
O O16 0.469250 0.978444 0.669713
O O17 0.782498 0.151212 0.620619
#
# Coordination Sequence:
#
# PCOD9030772 Si02
#       8
#     2   2   2   2   2   2   2   2
#     4   9  19  33  53  77 107 145 184 231 270 328
#     4  11  21  36  57  82 121 153 180 230 287 341
#     4   8  16  28  44  75 108 137 172 225 277 326
#     4  10  18  30  54  80 109 140 187 241 276 324
#     4   9  17  28  48  76 103 140 175 223 280 325
#     4  10  17  32  52  79 115 138 180 243 284 319
#     4  10  20  32  51  83 107 145 187 231 286 323
#     4   9  16  32  51  73 114 144 177 232 287 323
#
# _framework density 23.586943999999999
#
# number of rings (size 3 to 8) (size 9 to 14) (size 15 to 20)
#    0.000    2.500    2.500    1.500    1.750    1.000 
#    4.500    0.625    0.000    0.750    0.000    4.375 
#    0.000    0.000    0.000    0.000    0.000    0.000 
#
# Total GULP energy -89412.814135 kJ/mol
# GULP energy per Si atom -5588.300883 kJ/mol
# Density = 2.353326 g / cm^3
# Si number density = 23.586944 Si / 1000 Ang^3
#
#
#
# Elastic Constant Matrix: (Units=GPa)
#
#
# Indices 1 2 3 4 5 6 
#
# 1 62.4514 20.9466 30.6149 -3.3011 -5.0656 -8.0932
# 2 20.9466 155.4320 90.6482 23.4561 13.4246 -20.2533
# 3 30.6149 90.6482 177.1174 18.2048 34.1696 -34.4626
# 4 -3.3011 23.4561 18.2048 26.2196 2.8270 3.6330
# 5 -5.0656 13.4246 34.1696 2.8270 25.8022 -6.6085
# 6 -8.0932 -20.2533 -34.4626 3.6330 -6.6085 30.8743
#
#
#
# Elastic Compliance Matrix: (Units=1/GPa)
#
#
# Indices 1 2 3 4 5 6 
#
# 1 0.020623 -0.001443 -0.005846 0.006732 0.011714 -0.000351
# 2 -0.001443 0.010298 -0.003874 -0.007256 0.001089 0.003139
# 3 -0.005846 -0.003874 0.013878 -0.006608 -0.014456 0.009100
# 4 0.006732 -0.007256 -0.006608 0.051772 0.004189 -0.015567
# 5 0.011714 0.001089 -0.014456 0.004189 0.059126 -0.000188
# 6 -0.000351 0.003139 0.009100 -0.015567 -0.000188 0.046306
#
#
# Mechanical properties :
#
#
# Convention : Reuss Voigt Hill
#
# Bulk Modulus (GPa) = 44.50116 75.49115 59.99615
# Shear Modulus (GPa) = 21.56829 33.43197 27.50013
#
# Velocity S-wave (km/s) = 3.02721 3.76891 3.41824
# Velocity P-wave (km/s) = 5.57911 7.14245 6.40863
#
# Compressibility (1/GPa) = 0.02247132
#
# Stress axis : x y z
#
# Youngs Moduli (GPa) = 48.48958 97.10872 72.05574
#
# Poissons Ratio (x) = 0.14014 0.42127
# Poissons Ratio (y) = 0.06998 0.27916
# Poissons Ratio (z) = 0.28349 0.37622
#
# Static dielectric constant tensor:
#      x y z
#    x 1.983410 0.042090 -0.033310 
#    y 0.042090 1.888060 0.006060 
#    z -0.033310 0.006060 1.926360 
# 
# From -- ./inp_files/345157.got.cif
#   From: 2010.05.17/outbox.cif.g08.bks.cpg/sg2_173_cif.got.tgz:345157.got - 2010.06.03 11:33:40.
