data_PCOD9030755
_publ_section_title
;
Structure prediction by ZEFSAII (Michael W. Deem and Ramdas Pophale) SiO2 
 PCOD9030755
Probable space group: P -1
;
_chemical_formula_sum "Si O2"
_cell_formula_units_Z 16
_cell_length_a 16.406777
_cell_length_b 8.857461
_cell_length_c 8.145996
_cell_angle_alpha 143.510535
_cell_angle_beta 103.095124
_cell_angle_gamma 89.198215
_cell_volume 656.133720
_symmetry_space_group_name_H-M "P -1"
_symmetry_group_IT_number 2
_symmetry_cell_setting 'triclinic'
loop_
_space_group_symop_operation_xyz
x,y,z
-x,-y,-z
loop_
_atom_site_type_symbol
_atom_site_label
_atom_site_fract_x
_atom_site_fract_y
_atom_site_fract_z
Si Si1 0.688135 0.927347 0.041842
Si Si2 0.126558 0.537922 0.013801
Si Si3 0.009968 0.863562 0.215236
Si Si4 0.940018 0.675326 0.563871
Si Si5 0.749140 0.534904 0.486807
Si Si6 0.443340 0.513705 0.241062
Si Si7 0.690131 0.187668 0.590960
Si Si8 0.374051 0.296077 0.658184
O O1 0.707799 0.218287 0.223115
O O2 0.722331 0.013707 0.317497
O O3 0.730288 0.732270 0.790095
O O4 0.590109 0.737402 0.873047
O O5 0.226469 0.569237 0.120557
O O6 0.104337 0.814416 0.219844
O O7 0.067635 0.407752 0.030276
O O8 0.095588 0.406868 0.709984
O O9 0.000000 0.000000 0.500000
O O10 0.003719 0.024179 0.191044
O O11 0.852540 0.611788 0.574365
O O12 0.000000 0.500000 0.500000
O O13 0.702332 0.604792 0.365259
O O14 0.390618 0.724103 0.441360
O O15 0.546360 0.634640 0.374135
O O16 0.409875 0.424785 0.962150
O O17 0.659116 0.014336 0.586756
#
# Coordination Sequence:
#
# PCOD9030755 Si02
#       8
#     2   2   2   2   2   2   2   2
#     4  11  27  48  70 104 151 191 241 290 360 430
#     4  10  22  42  73  99 131 185 237 290 356 418
#     4   9  21  43  64  99 130 174 237 287 350 420
#     4  11  26  45  69 103 142 183 235 301 359 424
#     4  12  27  49  71 109 143 196 233 297 368 423
#     4  10  22  47  69 113 138 196 241 296 349 422
#     4  11  22  45  73 105 143 192 242 296 353 430
#     4  10  24  41  78 104 148 186 244 300 350 426
#
# _framework density 24.385273999999999
#
# number of rings (size 3 to 8) (size 9 to 14) (size 15 to 20)
#    0.000    1.500    1.250    1.875    5.250    8.500 
#    2.250    0.000    0.000    0.000    0.000    0.000 
#    0.000    0.000    0.000    0.000    0.000    0.000 
#
# Total GULP energy -89399.423893 kJ/mol
# GULP energy per Si atom -5587.463993 kJ/mol
# Density = 2.432977 g / cm^3
# Si number density = 24.385274 Si / 1000 Ang^3
#
#
#
# Elastic Constant Matrix: (Units=GPa)
#
#
# Indices 1 2 3 4 5 6 
#
# 1 73.2476 14.6772 4.8219 13.4261 -8.9309 -7.6987
# 2 14.6772 129.4008 31.4670 34.3969 2.7404 3.3853
# 3 4.8219 31.4670 48.5988 5.7777 -22.1471 1.3321
# 4 13.4261 34.3969 5.7777 54.2288 4.5638 -3.0845
# 5 -8.9309 2.7404 -22.1471 4.5638 35.3956 -5.0366
# 6 -7.6987 3.3853 1.3321 -3.0845 -5.0366 29.2691
#
#
#
# Elastic Compliance Matrix: (Units=1/GPa)
#
#
# Indices 1 2 3 4 5 6 
#
# 1 0.015906 -0.002036 0.003398 -0.003341 0.007468 0.005198
# 2 -0.002036 0.012297 -0.010551 -0.005709 -0.007819 -0.003425
# 3 0.003398 -0.010551 0.039275 -0.000324 0.026993 0.004937
# 4 -0.003341 -0.005709 -0.000324 0.023302 -0.003371 0.001672
# 5 0.007468 -0.007819 0.026993 -0.003371 0.049460 0.009796
# 6 0.005198 -0.003425 0.004937 0.001672 0.009796 0.037566
#
#
# Mechanical properties :
#
#
# Convention : Reuss Voigt Hill
#
# Bulk Modulus (GPa) = 20.36636 39.24214 29.80425
# Shear Modulus (GPa) = 23.52373 37.13076 30.32725
#
# Velocity S-wave (km/s) = 3.10928 3.90638 3.53040
# Velocity P-wave (km/s) = 4.61088 6.03936 5.37281
#
# Compressibility (1/GPa) = 0.04910059
#
# Stress axis : x y z
#
# Youngs Moduli (GPa) = 62.86966 81.31928 25.46120
#
# Poissons Ratio (x) = 0.16560 -0.08652
# Poissons Ratio (y) = 0.12803 0.26864
# Poissons Ratio (z) = -0.21365 0.85799
#
# Static dielectric constant tensor:
#      x y z
#    x 1.924420 0.020150 -0.009890 
#    y 0.020150 1.961920 0.066390 
#    z -0.009890 0.066390 2.163850 
# 
# From -- ./inp_files/299885.got.cif
#   From: 2010.05.17/outbox.cif.g08.bks.cpg/sg2_150_cif.got.tgz:299885.got - 2010.06.03 11:33:40.
