data_PCOD9030610
_publ_section_title
;
Structure prediction by ZEFSAII (Michael W. Deem and Ramdas Pophale) SiO2 
 PCOD9030610
Probable space group: P -1
;
_chemical_formula_sum "Si O2"
_cell_formula_units_Z 12
_cell_length_a 11.465406
_cell_length_b 9.875939
_cell_length_c 10.784997
_cell_angle_alpha 103.334110
_cell_angle_beta 101.990087
_cell_angle_gamma 25.092685
_cell_volume 503.929084
_symmetry_space_group_name_H-M "P -1"
_symmetry_group_IT_number 2
_symmetry_cell_setting 'triclinic'
loop_
_space_group_symop_operation_xyz
x,y,z
-x,-y,-z
loop_
_atom_site_type_symbol
_atom_site_label
_atom_site_fract_x
_atom_site_fract_y
_atom_site_fract_z
Si Si1 0.732241 0.867522 0.049005
Si Si2 0.702450 0.442427 0.283078
Si Si3 0.115481 0.522102 0.477341
Si Si4 0.597900 0.553887 0.012783
Si Si5 0.418107 0.871808 0.658301
Si Si6 0.769894 0.275207 0.734438
O O1 0.237458 0.627298 0.118555
O O2 0.658251 0.075914 0.990022
O O3 0.000000 0.500000 0.000000
O O4 0.500000 0.000000 0.000000
O O5 0.752874 0.520376 0.396786
O O6 0.750725 0.431048 0.147249
O O7 0.405216 0.682501 0.278140
O O8 0.919770 0.095349 0.297810
O O9 0.364777 0.245906 0.375522
O O10 0.000000 0.500000 0.500000
O O11 0.844609 0.877709 0.433075
O O12 0.500000 0.500000 0.000000
O O13 0.611245 0.534891 0.654084
O O14 0.292031 0.055101 0.799082
#
# Coordination Sequence:
#
# PCOD9030610 Si02
#       6
#     2   2   2   2   2   2
#     4  11  25  45  73 105 136 186 233 290 358 417
#     4  11  23  41  70 102 135 186 229 282 351 423
#     4  12  27  45  67  95 146 193 236 280 341 420
#     4   9  22  44  71 102 143 176 231 296 353 415
#     4  11  25  47  68 100 142 180 234 299 342 418
#     4  10  22  42  72 103 133 172 234 298 357 400
#
# _framework density 23.812874999999998
#
# number of rings (size 3 to 8) (size 9 to 14) (size 15 to 20)
#    0.000    1.333    0.000    4.000    2.333   13.333 
#    6.000    0.000    0.000    0.000    0.000    0.000 
#    0.000    0.000    0.000    0.000    0.000    0.000 
#
# Total GULP energy -67203.358975 kJ/mol
# GULP energy per Si atom -5600.279915 kJ/mol
# Density = 2.375868 g / cm^3
# Si number density = 23.812875 Si / 1000 Ang^3
#
#
#
# Elastic Constant Matrix: (Units=GPa)
#
#
# Indices 1 2 3 4 5 6 
#
# 1 95.6112 36.9053 41.2360 -5.9174 -9.8037 7.1551
# 2 36.9053 135.9445 27.0959 -8.0770 -6.9343 6.8376
# 3 41.2360 27.0959 125.7550 -18.9213 6.3292 10.8200
# 4 -5.9174 -8.0770 -18.9213 28.0493 -2.1176 5.1836
# 5 -9.8037 -6.9343 6.3292 -2.1176 23.0868 -3.4806
# 6 7.1551 6.8376 10.8200 5.1836 -3.4806 46.3001
#
#
#
# Elastic Compliance Matrix: (Units=1/GPa)
#
#
# Indices 1 2 3 4 5 6 
#
# 1 0.013996 -0.002610 -0.004353 -0.000212 0.006293 -0.000263
# 2 -0.002610 0.008430 -0.000735 0.001642 0.001666 -0.000728
# 3 -0.004353 -0.000735 0.011005 0.006455 -0.004929 -0.002884
# 4 -0.000212 0.001642 0.006455 0.041707 0.001513 -0.006274
# 5 0.006293 0.001666 -0.004929 0.001513 0.048492 0.003409
# 6 -0.000263 -0.000728 -0.002884 -0.006274 0.003409 0.023379
#
#
# Mechanical properties :
#
#
# Convention : Reuss Voigt Hill
#
# Bulk Modulus (GPa) = 55.44620 63.08723 59.26671
# Shear Modulus (GPa) = 29.68838 36.29216 32.99027
#
# Velocity S-wave (km/s) = 3.53475 3.90815 3.72613
# Velocity P-wave (km/s) = 6.32407 6.84947 6.59201
#
# Compressibility (1/GPa) = 0.01803550
#
# Stress axis : x y z
#
# Youngs Moduli (GPa) = 71.45003 118.62235 90.86829
#
# Poissons Ratio (x) = 0.30963 0.39553
# Poissons Ratio (y) = 0.18650 0.06676
# Poissons Ratio (z) = 0.31101 0.08715
#
# Static dielectric constant tensor:
#      x y z
#    x 1.907210 -0.006810 -0.062440 
#    y -0.006810 1.867370 0.021650 
#    z -0.062440 0.021650 1.933020 
# 
# From -- ./inp_files/822.got.cif
#   From: 2010.05.17/outbox.cif.g08.bks.cpg/sg2_1_cif.got.tgz:822.got - 2010.06.03 11:33:40.
