data_PCOD9030030
_publ_section_title
;
Structure prediction by ZEFSAII (Michael W. Deem and Ramdas Pophale) SiO2 
 PCOD9030030
Probable space group: P -1
;
_chemical_formula_sum "Si O2"
_cell_formula_units_Z 16
_cell_length_a 9.323572
_cell_length_b 9.071889
_cell_length_c 15.040309
_cell_angle_alpha 104.664188
_cell_angle_beta 61.641337
_cell_angle_gamma 62.213541
_cell_volume 785.095976
_symmetry_space_group_name_H-M "P -1"
_symmetry_group_IT_number 2
_symmetry_cell_setting 'triclinic'
loop_
_space_group_symop_operation_xyz
x,y,z
-x,-y,-z
loop_
_atom_site_type_symbol
_atom_site_label
_atom_site_fract_x
_atom_site_fract_y
_atom_site_fract_z
Si Si1 0.573469 0.119229 0.743234
Si Si2 0.442865 0.086434 0.128329
Si Si3 0.097029 0.333122 0.866896
Si Si4 0.806997 0.044962 0.125277
Si Si5 0.776770 0.243985 0.618054
Si Si6 0.046692 0.503938 0.721417
Si Si7 0.930820 0.671911 0.476136
Si Si8 0.399209 0.546514 0.636180
O O1 0.354141 0.222792 0.767228
O O2 0.644344 0.248474 0.737284
O O3 0.536600 0.079245 0.845020
O O4 0.766122 0.890558 0.609515
O O5 0.615724 0.093363 0.124701
O O6 0.186075 0.306351 0.230714
O O7 0.500000 0.000000 0.000000
O O8 0.998658 0.441186 0.816189
O O9 0.095680 0.159471 0.875665
O O10 0.000000 0.500000 0.000000
O O11 0.689525 0.242585 0.256452
O O12 0.000000 0.000000 0.000000
O O13 0.606949 0.347981 0.601789
O O14 0.858276 0.362572 0.622239
O O15 0.000000 0.000000 0.500000
O O16 0.179161 0.323253 0.579779
O O17 0.191016 0.562939 0.704075
O O18 0.000000 0.500000 0.500000
O O19 0.500000 0.500000 0.500000
#
# Coordination Sequence:
#
# PCOD9030030 Si02
#       8
#     2   2   2   2   2   2   2   2
#     4  10  22  42  69  90 139 181 216 283 351 402
#     4  11  23  43  71  97 131 183 233 276 351 419
#     4  11  24  45  69  98 136 178 230 288 345 409
#     4  11  26  49  72 101 142 188 231 287 353 420
#     4  10  23  43  63  98 137 181 225 280 346 410
#     4  12  24  42  69 101 137 178 230 283 351 411
#     4  11  22  41  67  98 136 177 224 281 347 415
#     4  12  26  42  71 104 143 183 236 286 344 417
#
# _framework density 20.379676
#
# number of rings (size 3 to 8) (size 9 to 14) (size 15 to 20)
#    0.000    1.000    2.500    4.500    7.000    2.500 
#    2.250    0.625    0.000    0.000    0.000    0.000 
#    0.000    0.000    0.000    0.000    0.000    0.000 
#
# Total GULP energy -89294.155760 kJ/mol
# GULP energy per Si atom -5580.884735 kJ/mol
# Density = 2.033329 g / cm^3
# Si number density = 20.379676 Si / 1000 Ang^3
#
#
#
# Elastic Constant Matrix: (Units=GPa)
#
#
# Indices 1 2 3 4 5 6 
#
# 1 123.2441 65.1570 38.8240 -14.3318 -0.7724 13.1899
# 2 65.1570 127.8476 45.9719 -18.3742 -4.0773 6.6445
# 3 38.8240 45.9719 93.7838 -15.7424 17.4885 12.2880
# 4 -14.3318 -18.3742 -15.7424 32.3912 -7.5470 -5.7194
# 5 -0.7724 -4.0773 17.4885 -7.5470 43.3068 -4.0475
# 6 13.1899 6.6445 12.2880 -5.7194 -4.0475 39.4760
#
#
#
# Elastic Compliance Matrix: (Units=1/GPa)
#
#
# Indices 1 2 3 4 5 6 
#
# 1 0.011756 -0.004954 -0.002062 0.001127 0.000564 -0.002231
# 2 -0.004954 0.012503 -0.004346 0.003982 0.003712 0.001861
# 3 -0.002062 -0.004346 0.015767 0.002007 -0.006828 -0.003897
# 4 0.001127 0.003982 0.002007 0.036863 0.006413 0.004327
# 5 0.000564 0.003712 -0.006828 0.006413 0.027801 0.005092
# 6 -0.002231 0.001861 -0.003897 0.004327 0.005092 0.028126
#
#
# Mechanical properties :
#
#
# Convention : Reuss Voigt Hill
#
# Bulk Modulus (GPa) = 57.79286 71.64237 64.71762
# Shear Modulus (GPa) = 30.99655 36.02962 33.51308
#
# Velocity S-wave (km/s) = 3.90417 4.20922 4.05956
# Velocity P-wave (km/s) = 6.98162 7.67161 7.33473
#
# Compressibility (1/GPa) = 0.01730317
#
# Stress axis : x y z
#
# Youngs Moduli (GPa) = 85.06288 79.97944 63.42283
#
# Poissons Ratio (x) = 0.39623 0.13077
# Poissons Ratio (y) = 0.42141 0.27561
# Poissons Ratio (z) = 0.17539 0.34756
#
# Static dielectric constant tensor:
#      x y z
#    x 1.735570 0.027130 -0.004460 
#    y 0.027130 1.753930 0.022140 
#    z -0.004460 0.022140 1.813660 
# 
# From -- ./inp_files/206791.got.cif
#   From: 2010.05.17/outbox.cif.g08.bks.cpg/sg2_104_cif.got.tgz:206791.got - 2010.06.03 11:33:40.
