data_PCOD9030270
_publ_section_title
;
Structure prediction by ZEFSAII (Michael W. Deem and Ramdas Pophale) SiO2 
 PCOD9030270
Probable space group: P -1
;
_chemical_formula_sum "Si O2"
_cell_formula_units_Z 15
_cell_length_a 14.739536
_cell_length_b 20.353377
_cell_length_c 10.184116
_cell_angle_alpha 31.826520
_cell_angle_beta 138.408838
_cell_angle_gamma 155.336746
_cell_volume 668.225397
_symmetry_space_group_name_H-M "P -1"
_symmetry_group_IT_number 2
_symmetry_cell_setting 'triclinic'
loop_
_space_group_symop_operation_xyz
x,y,z
-x,-y,-z
loop_
_atom_site_type_symbol
_atom_site_label
_atom_site_fract_x
_atom_site_fract_y
_atom_site_fract_z
Si Si1 0.080329 0.697888 0.551159
Si Si2 0.146827 0.817609 0.717106
Si Si3 0.441639 0.327484 0.664832
Si Si4 0.588884 0.346254 0.522756
Si Si5 0.027525 0.935573 0.008636
Si Si6 0.614270 0.750862 0.803715
Si Si7 0.296765 0.595413 0.959067
Si Si8 0.500000 0.000000 0.000000
O O1 0.085540 0.710963 0.692464
O O2 0.125396 0.870024 0.258582
O O3 0.237953 0.696040 0.688236
O O4 0.843609 0.502333 0.563866
O O5 0.227749 0.014884 0.437474
O O6 0.345520 0.894666 0.877430
O O7 0.929023 0.643213 0.865990
O O8 0.500000 0.500000 0.500000
O O9 0.500694 0.366340 0.511627
O O10 0.585397 0.331379 0.896897
O O11 0.191691 0.118358 0.776975
O O12 0.534863 0.359280 0.298827
O O13 0.467622 0.127008 0.767467
O O14 0.783536 0.758180 0.989279
O O15 0.000000 0.000000 0.000000
O O16 0.462257 0.659839 0.920767
#
# Coordination Sequence:
#
# PCOD9030270 Si02
#       8
#     2   2   2   2   2   2   2   1
#     4  12  24  44  75 107 146 189 256 301 364 444
#     4  11  21  44  71 102 148 188 246 302 361 440
#     4  12  25  46  80 106 143 199 255 295 372 445
#     4  11  25  46  71 110 147 191 243 309 371 434
#     4  12  24  47  69 106 147 193 244 313 360 441
#     4  11  27  47  71 105 153 188 243 310 369 435
#     4  12  24  43  76 109 138 200 244 298 371 438
#     4  10  22  42  70 104 156 180 232 312 368 426
#
# _framework density 22.447516
#
# number of rings (size 3 to 8) (size 9 to 14) (size 15 to 20)
#    0.000    0.533    5.333    2.800    0.000    5.867 
#    4.800    0.000    0.000    0.000    0.000    0.000 
#    0.000    0.000    0.000    0.000    0.000    0.000 
#
# Total GULP energy -83655.483819 kJ/mol
# GULP energy per Si atom -5577.032255 kJ/mol
# Density = 2.239642 g / cm^3
# Si number density = 22.447516 Si / 1000 Ang^3
#
#
#
# Elastic Constant Matrix: (Units=GPa)
#
#
# Indices 1 2 3 4 5 6 
#
# 1 60.3175 36.5158 24.4579 -6.5290 0.9690 -0.8621
# 2 36.5158 100.1873 36.2758 31.4419 -7.4152 -5.9018
# 3 24.4579 36.2758 91.0849 0.4728 3.1720 7.7307
# 4 -6.5290 31.4419 0.4728 49.4907 -8.2284 -1.4157
# 5 0.9690 -7.4152 3.1720 -8.2284 36.4116 0.7606
# 6 -0.8621 -5.9018 7.7307 -1.4157 0.7606 39.9158
#
#
#
# Elastic Compliance Matrix: (Units=1/GPa)
#
#
# Indices 1 2 3 4 5 6 
#
# 1 0.026115 -0.012337 -0.002103 0.011210 -0.000482 -0.000446
# 2 -0.012337 0.021451 -0.005504 -0.014813 0.001757 0.003412
# 3 -0.002103 -0.005504 0.014071 0.002719 -0.001604 -0.003457
# 4 0.011210 -0.014813 0.002719 0.031632 0.003626 -0.001422
# 5 -0.000482 0.001757 -0.001604 0.003626 0.028791 0.000140
# 6 -0.000446 0.003412 -0.003457 -0.001422 0.000140 0.026164
#
#
# Mechanical properties :
#
#
# Convention : Reuss Voigt Hill
#
# Bulk Modulus (GPa) = 45.97963 49.56542 47.77253
# Shear Modulus (GPa) = 25.59372 35.45295 30.52333
#
# Velocity S-wave (km/s) = 3.38029 3.97844 3.69150
# Velocity P-wave (km/s) = 5.98020 6.57514 6.28471
#
# Compressibility (1/GPa) = 0.02174876
#
# Stress axis : x y z
#
# Youngs Moduli (GPa) = 38.29197 46.61850 71.06995
#
# Poissons Ratio (x) = 0.57514 0.14943
# Poissons Ratio (y) = 0.47241 0.39118
# Poissons Ratio (z) = 0.08051 0.25660
#
# Static dielectric constant tensor:
#      x y z
#    x 1.782790 0.003830 0.039960 
#    y 0.003830 1.851230 -0.013010 
#    z 0.039960 -0.013010 1.873090 
# 
# From -- ./inp_files/278849.got.cif
#   From: 2010.05.17/outbox.cif.g08.bks.cpg/sg2_140_cif.got.tgz:278849.got - 2010.06.03 11:33:40.
