data_PCOD9030194
_publ_section_title
;
Structure prediction by ZEFSAII (Michael W. Deem and Ramdas Pophale) SiO2 
 PCOD9030194
Probable space group: P -1
;
_chemical_formula_sum "Si O2"
_cell_formula_units_Z 16
_cell_length_a 17.229251
_cell_length_b 11.403759
_cell_length_c 9.667858
_cell_angle_alpha 60.256095
_cell_angle_beta 52.384839
_cell_angle_gamma 25.648691
_cell_volume 643.142599
_symmetry_space_group_name_H-M "P -1"
_symmetry_group_IT_number 2
_symmetry_cell_setting 'triclinic'
loop_
_space_group_symop_operation_xyz
x,y,z
-x,-y,-z
loop_
_atom_site_type_symbol
_atom_site_label
_atom_site_fract_x
_atom_site_fract_y
_atom_site_fract_z
Si Si1 0.670954 0.654440 0.154322
Si Si2 0.917948 0.831883 0.279752
Si Si3 0.073119 0.024230 0.063960
Si Si4 0.697156 0.677205 0.434122
Si Si5 0.385314 0.757526 0.389768
Si Si6 0.973618 0.512684 0.855676
Si Si7 0.377019 0.752037 0.086108
Si Si8 0.271475 0.509411 0.221170
O O1 0.660348 0.682084 0.314311
O O2 0.485041 0.785479 0.240008
O O3 0.756581 0.695736 0.980391
O O4 0.847156 0.336455 0.118346
O O5 0.899638 0.739090 0.236945
O O6 0.146126 0.550092 0.250109
O O7 0.793325 0.988627 0.462248
O O8 0.852108 0.039543 0.135513
O O9 0.171080 0.006288 0.080666
O O10 0.131600 0.807296 0.176939
O O11 0.702215 0.551273 0.612123
O O12 0.917960 0.480124 0.318318
O O13 0.500000 0.000000 0.500000
O O14 0.500000 0.500000 0.500000
O O15 0.347710 0.749840 0.278735
O O16 0.000000 0.500000 0.000000
O O17 0.500000 0.500000 0.000000
O O18 0.513649 0.719619 0.942313
#
# Coordination Sequence:
#
# PCOD9030194 Si02
#       8
#     2   2   2   2   2   2   2   2
#     4  10  23  41  72  96 141 186 226 284 360 408
#     4  11  23  42  72 100 142 178 231 290 348 411
#     4  10  22  42  70 100 145 182 219 281 361 431
#     4  11  25  42  70  99 138 183 240 293 337 403
#     4  12  24  39  66 106 147 180 224 280 346 423
#     4   9  21  45  69  93 130 185 234 277 345 400
#     4  10  23  40  62  99 144 183 223 270 346 428
#     4  11  24  41  69 102 139 182 229 283 357 419
#
# _framework density 24.877839999999999
#
# number of rings (size 3 to 8) (size 9 to 14) (size 15 to 20)
#    0.000    1.500    0.000    4.875   10.500    1.000 
#    0.000    0.000    0.000    6.000    0.000    0.000 
#    0.000    0.000    0.000    0.000    0.000    0.000 
#
# Total GULP energy -89172.689484 kJ/mol
# GULP energy per Si atom -5573.293093 kJ/mol
# Density = 2.482122 g / cm^3
# Si number density = 24.877840 Si / 1000 Ang^3
#
#
#
# Elastic Constant Matrix: (Units=GPa)
#
#
# Indices 1 2 3 4 5 6 
#
# 1 110.8472 16.3346 55.5290 12.4630 22.0836 4.1820
# 2 16.3346 33.0916 29.2842 -0.7909 13.6954 10.9407
# 3 55.5290 29.2842 178.9576 12.0021 32.6729 -6.2599
# 4 12.4630 -0.7909 12.0021 24.7977 5.1257 8.0979
# 5 22.0836 13.6954 32.6729 5.1257 51.7368 7.5592
# 6 4.1820 10.9407 -6.2599 8.0979 7.5592 29.1647
#
#
#
# Elastic Compliance Matrix: (Units=1/GPa)
#
#
# Indices 1 2 3 4 5 6 
#
# 1 0.011592 -0.003105 -0.002323 -0.004609 -0.002332 0.000888
# 2 -0.003105 0.048512 -0.007917 0.015255 -0.004747 -0.022458
# 3 -0.002323 -0.007917 0.008756 -0.005111 -0.003014 0.007383
# 4 -0.004609 0.015255 -0.005111 0.052503 -0.001055 -0.020463
# 5 -0.002332 -0.004747 -0.003014 -0.001055 0.024250 -0.004524
# 6 0.000888 -0.022458 0.007383 -0.020463 -0.004524 0.051025
#
#
# Mechanical properties :
#
#
# Convention : Reuss Voigt Hill
#
# Bulk Modulus (GPa) = 23.71356 58.35465 41.03411
# Shear Modulus (GPa) = 21.06292 35.92308 28.49300
#
# Velocity S-wave (km/s) = 2.91289 3.80409 3.38792
# Velocity P-wave (km/s) = 4.56792 6.54234 5.64217
#
# Compressibility (1/GPa) = 0.04216996
#
# Stress axis : x y z
#
# Youngs Moduli (GPa) = 86.26708 20.61340 114.21327
#
# Poissons Ratio (x) = 0.06400 0.26529
# Poissons Ratio (y) = 0.26786 0.90423
# Poissons Ratio (z) = 0.20038 0.16320
#
# Static dielectric constant tensor:
#      x y z
#    x 2.124850 0.011410 -0.103980 
#    y 0.011410 2.017310 0.039040 
#    z -0.103980 0.039040 2.054010 
# 
# From -- ./inp_files/333014.got.cif
#   From: 2010.05.17/outbox.cif.g08.bks.cpg/sg2_167_cif.got.tgz:333014.got - 2010.06.03 11:33:40.
