data_PCOD9030435
_publ_section_title
;
Structure prediction by ZEFSAII (Michael W. Deem and Ramdas Pophale) SiO2 
 PCOD9030435
Probable space group: P -1
;
_chemical_formula_sum "Si O2"
_cell_formula_units_Z 16
_cell_length_a 10.982282
_cell_length_b 5.459910
_cell_length_c 17.153297
_cell_angle_alpha 129.739584
_cell_angle_beta 123.244839
_cell_angle_gamma 54.184800
_cell_volume 615.846470
_symmetry_space_group_name_H-M "P -1"
_symmetry_group_IT_number 2
_symmetry_cell_setting 'triclinic'
loop_
_space_group_symop_operation_xyz
x,y,z
-x,-y,-z
loop_
_atom_site_type_symbol
_atom_site_label
_atom_site_fract_x
_atom_site_fract_y
_atom_site_fract_z
Si Si1 0.729631 0.844062 0.764071
Si Si2 0.178658 0.814794 0.999833
Si Si3 0.304697 0.549524 0.716768
Si Si4 0.063492 0.301042 0.775967
Si Si5 0.942850 0.687010 0.408122
Si Si6 0.516370 0.486935 0.386278
Si Si7 0.741689 0.811723 0.583889
Si Si8 0.410263 0.762551 0.953064
O O1 0.566437 0.786354 0.691895
O O2 0.760877 0.908752 0.699267
O O3 0.879795 0.503284 0.773636
O O4 0.729157 0.142097 0.882825
O O5 0.173158 0.460002 0.893880
O O6 0.246187 0.966644 0.982009
O O7 0.000000 0.000000 0.000000
O O8 0.418896 0.544920 0.685736
O O9 0.378629 0.557493 0.827660
O O10 0.230091 0.265250 0.616204
O O11 0.150569 0.898121 0.733407
O O12 0.068318 0.371172 0.700237
O O13 0.087437 0.368561 0.427985
O O14 0.000000 0.000000 0.500000
O O15 0.655757 0.534971 0.494787
O O16 0.374132 0.845139 0.424567
O O17 0.500000 0.500000 0.000000
O O18 0.500000 0.000000 0.000000
#
# Coordination Sequence:
#
# PCOD9030435 Si02
#       8
#     2   2   2   2   2   2   2   2
#     4  10  22  42  70  99 137 189 242 305 368 440
#     4  10  22  46  74 107 144 198 256 314 375 456
#     4  12  26  44  72 103 144 188 242 302 377 455
#     4  10  22  45  69 100 139 185 246 304 362 440
#     4  11  24  44  71  99 134 184 242 301 364 436
#     4  11  24  42  66 104 140 187 237 299 379 448
#     4  10  24  43  67  96 141 182 240 300 366 435
#     4  12  27  48  75 111 160 202 248 316 391 464
#
# _framework density 25.980499999999999
#
# number of rings (size 3 to 8) (size 9 to 14) (size 15 to 20)
#    0.000    1.250    1.250    3.375    1.750    8.000 
#    2.250    3.125    0.000    0.000    0.000    0.000 
#    0.000    0.000    0.000    0.000    0.000    0.000 
#
# Total GULP energy -89536.824496 kJ/mol
# GULP energy per Si atom -5596.051531 kJ/mol
# Density = 2.592137 g / cm^3
# Si number density = 25.980500 Si / 1000 Ang^3
#
#
#
# Elastic Constant Matrix: (Units=GPa)
#
#
# Indices 1 2 3 4 5 6 
#
# 1 163.0091 24.3181 49.5113 0.5628 10.6572 -1.2816
# 2 24.3181 77.6555 17.0722 -6.3660 9.3176 -18.6293
# 3 49.5113 17.0722 179.6412 -4.9118 -4.5671 3.7769
# 4 0.5628 -6.3660 -4.9118 40.1626 6.3912 2.8076
# 5 10.6572 9.3176 -4.5671 6.3912 56.5632 -4.0099
# 6 -1.2816 -18.6293 3.7769 2.8076 -4.0099 39.0471
#
#
#
# Elastic Compliance Matrix: (Units=1/GPa)
#
#
# Indices 1 2 3 4 5 6 
#
# 1 0.007025 -0.001833 -0.001790 -0.000384 -0.001163 -0.000563
# 2 -0.001833 0.015878 -0.001149 0.002229 -0.002101 0.007250
# 3 -0.001790 -0.001149 0.006231 0.000545 0.000886 -0.001158
# 4 -0.000384 0.002229 0.000545 0.025928 -0.003266 -0.001201
# 5 -0.001163 -0.002101 0.000886 -0.003266 0.018758 0.001035
# 6 -0.000563 0.007250 -0.001158 -0.001201 0.001035 0.029355
#
#
# Mechanical properties :
#
#
# Convention : Reuss Voigt Hill
#
# Bulk Modulus (GPa) = 51.04651 66.90101 58.97376
# Shear Modulus (GPa) = 41.92894 49.11486 45.52190
#
# Velocity S-wave (km/s) = 4.02165 4.35265 4.19042
# Velocity P-wave (km/s) = 6.42305 7.14613 6.79421
#
# Compressibility (1/GPa) = 0.01958998
#
# Stress axis : x y z
#
# Youngs Moduli (GPa) = 142.35410 62.97963 160.48924
#
# Poissons Ratio (x) = 0.11546 0.28729
# Poissons Ratio (y) = 0.26097 0.18434
# Poissons Ratio (z) = 0.25483 0.07234
#
# Static dielectric constant tensor:
#      x y z
#    x 2.100810 -0.087810 0.035360 
#    y -0.087810 2.182610 0.016660 
#    z 0.035360 0.016660 2.001720 
# 
# From -- ./inp_files/484446.got.cif
#   From: 2010.05.17/outbox.cif.g08.bks.cpg/sg2_243_cif.got.tgz:484446.got - 2010.06.03 11:33:40.
