data_PCOD9030998
_publ_section_title
;
Structure prediction by ZEFSAII (Michael W. Deem and Ramdas Pophale) SiO2 
 PCOD9030998
Probable space group: P -1
;
_chemical_formula_sum "Si O2"
_cell_formula_units_Z 16
_cell_length_a 19.066187
_cell_length_b 9.169916
_cell_length_c 5.626110
_cell_angle_alpha 112.684853
_cell_angle_beta 73.987633
_cell_angle_gamma 64.384976
_cell_volume 692.954169
_symmetry_space_group_name_H-M "P -1"
_symmetry_group_IT_number 2
_symmetry_cell_setting 'triclinic'
loop_
_space_group_symop_operation_xyz
x,y,z
-x,-y,-z
loop_
_atom_site_type_symbol
_atom_site_label
_atom_site_fract_x
_atom_site_fract_y
_atom_site_fract_z
Si Si1 0.843851 0.538664 0.231025
Si Si2 0.736244 0.960897 0.426699
Si Si3 0.781101 0.202327 0.298627
Si Si4 0.230683 0.501863 0.227666
Si Si5 0.393742 0.154504 0.642561
Si Si6 0.409709 0.402846 0.443086
Si Si7 0.431946 0.650740 0.956338
Si Si8 0.044849 0.888345 0.139681
O O1 0.801693 0.543270 0.529562
O O2 0.814523 0.759133 0.362499
O O3 0.806108 0.517256 0.999888
O O4 0.941831 0.320282 0.009985
O O5 0.780248 0.018318 0.227593
O O6 0.662028 0.935305 0.371473
O O7 0.670062 0.159423 0.768841
O O8 0.802427 0.275702 0.562822
O O9 0.678773 0.400120 0.468482
O O10 0.853632 0.166278 0.015163
O O11 0.339895 0.333501 0.994988
O O12 0.385796 0.262211 0.473085
O O13 0.500000 0.000000 0.500000
O O14 0.425665 0.507679 0.705150
O O15 0.509191 0.277991 0.149704
O O16 0.500000 0.500000 0.000000
O O17 0.000000 0.000000 0.500000
O O18 0.000000 0.000000 0.000000
#
# Coordination Sequence:
#
# PCOD9030998 Si02
#       8
#     2   2   2   2   2   2   2   2
#     4  10  23  45  71 101 140 176 226 285 357 418
#     4  11  24  40  64 102 141 182 228 290 340 396
#     4  11  23  44  73 100 135 182 235 282 358 417
#     4  10  22  43  63  95 134 187 230 278 334 417
#     4  11  24  37  59  93 136 187 241 287 338 386
#     4  11  25  41  66  90 139 192 240 286 336 407
#     4  11  23  42  64  98 136 186 251 288 320 396
#     4  11  24  47  78 106 131 175 230 288 357 446
#
# _framework density 23.089552999999999
#
# number of rings (size 3 to 8) (size 9 to 14) (size 15 to 20)
#    0.000    1.250    1.250    6.000    5.250    2.500 
#    0.000    1.250    0.000    0.000    0.000    0.000 
#    0.000    0.000    0.000    0.000    0.000    0.000 
#
# Total GULP energy -89245.529112 kJ/mol
# GULP energy per Si atom -5577.845569 kJ/mol
# Density = 2.303700 g / cm^3
# Si number density = 23.089553 Si / 1000 Ang^3
#
#
#
# Elastic Constant Matrix: (Units=GPa)
#
#
# Indices 1 2 3 4 5 6 
#
# 1 25.4825 12.7051 5.6401 -12.4644 7.4396 5.1283
# 2 12.7051 149.6101 27.5173 2.1558 0.0928 -2.1594
# 3 5.6401 27.5173 115.8424 -6.6250 -15.5501 -7.4801
# 4 -12.4644 2.1558 -6.6250 35.8772 -9.0142 -6.7391
# 5 7.4396 0.0928 -15.5501 -9.0142 24.6348 -7.2740
# 6 5.1283 -2.1594 -7.4801 -6.7391 -7.2740 49.0148
#
#
#
# Elastic Compliance Matrix: (Units=1/GPa)
#
#
# Indices 1 2 3 4 5 6 
#
# 1 0.054701 -0.004291 -0.003461 0.013329 -0.015867 -0.006963
# 2 -0.004291 0.007414 -0.001787 -0.002440 -0.000735 0.000058
# 3 -0.003461 -0.001787 0.011251 0.004572 0.011089 0.004275
# 4 0.013329 -0.002440 0.004572 0.038508 0.014941 0.006707
# 5 -0.015867 -0.000735 0.011089 0.014941 0.062165 0.014600
# 6 -0.006963 0.000058 0.004275 0.006707 0.014600 0.024874
#
#
# Mechanical properties :
#
#
# Convention : Reuss Voigt Hill
#
# Bulk Modulus (GPa) = 18.42027 42.51776 30.46901
# Shear Modulus (GPa) = 21.17851 38.24350 29.71100
#
# Velocity S-wave (km/s) = 3.03187 4.07420 3.59105
# Velocity P-wave (km/s) = 4.50016 6.37074 5.51533
#
# Compressibility (1/GPa) = 0.05428803
#
# Stress axis : x y z
#
# Youngs Moduli (GPa) = 18.28107 134.88846 88.87827
#
# Poissons Ratio (x) = 0.57887 0.30762
# Poissons Ratio (y) = 0.07845 0.15879
# Poissons Ratio (z) = 0.06327 0.24099
#
# Static dielectric constant tensor:
#      x y z
#    x 2.101990 -0.077900 -0.074720 
#    y -0.077900 1.972350 0.037380 
#    z -0.074720 0.037380 1.967290 
# 
# From -- ./inp_files/117236.got.cif
#   From: 2010.05.17/outbox.cif.g08.bks.cpg/sg2_59_cif.got.tgz:117236.got - 2010.06.03 11:33:40.
