data_PCOD9030775
_publ_section_title
;
Structure prediction by ZEFSAII (Michael W. Deem and Ramdas Pophale) SiO2 
 PCOD9030775
Probable space group: P -1
;
_chemical_formula_sum "Si O2"
_cell_formula_units_Z 15
_cell_length_a 11.454205
_cell_length_b 9.235481
_cell_length_c 9.403867
_cell_angle_alpha 120.629828
_cell_angle_beta 48.513073
_cell_angle_gamma 115.142161
_cell_volume 635.314575
_symmetry_space_group_name_H-M "P -1"
_symmetry_group_IT_number 2
_symmetry_cell_setting 'triclinic'
loop_
_space_group_symop_operation_xyz
x,y,z
-x,-y,-z
loop_
_atom_site_type_symbol
_atom_site_label
_atom_site_fract_x
_atom_site_fract_y
_atom_site_fract_z
Si Si1 0.131760 0.399462 0.912378
Si Si2 0.283856 0.892450 0.239788
Si Si3 0.500000 0.500000 0.000000
Si Si4 0.995171 0.668449 0.498444
Si Si5 0.525735 0.880685 0.282122
Si Si6 0.887510 0.849630 0.943104
Si Si7 0.770799 0.753584 0.501573
Si Si8 0.560484 0.339348 0.169540
O O1 0.109891 0.320419 0.047036
O O2 0.154555 0.244976 0.712550
O O3 0.296132 0.521560 0.835121
O O4 0.000000 0.500000 0.000000
O O5 0.412373 0.939107 0.282088
O O6 0.156989 0.740106 0.325356
O O7 0.204251 0.058465 0.361484
O O8 0.363387 0.831720 0.004701
O O9 0.516104 0.327319 0.794176
O O10 0.497978 0.617532 0.919768
O O11 0.862351 0.638139 0.470575
O O12 0.000000 0.500000 0.500000
O O13 0.947752 0.804267 0.717706
O O14 0.711683 0.898025 0.107692
O O15 0.500000 0.000000 0.500000
O O16 0.000000 0.000000 0.000000
O O17 0.587045 0.685515 0.621457
#
# Coordination Sequence:
#
# PCOD9030775 Si02
#       8
#     2   2   1   2   2   2   2   2
#     4  12  26  47  67 102 146 189 235 301 362 437
#     4  11  25  44  70 106 141 184 236 306 371 434
#     4  10  22  42  74 102 144 182 246 310 360 432
#     4  12  26  44  73 105 140 192 246 296 363 450
#     4  11  23  43  71 104 143 191 244 304 372 439
#     4  12  26  47  70 104 145 190 244 303 366 438
#     4  12  26  45  71 103 142 188 236 301 377 435
#     4  11  24  44  73 102 139 182 245 296 370 436
#
# _framework density 23.610351999999999
#
# number of rings (size 3 to 8) (size 9 to 14) (size 15 to 20)
#    0.000    0.533    1.333    7.600    5.600    2.133 
#    2.400    0.000    0.000    0.000    0.000    0.000 
#    0.000    0.000    0.000    0.000    0.000    0.000 
#
# Total GULP energy -83673.455034 kJ/mol
# GULP energy per Si atom -5578.230336 kJ/mol
# Density = 2.355661 g / cm^3
# Si number density = 23.610352 Si / 1000 Ang^3
#
#
#
# Elastic Constant Matrix: (Units=GPa)
#
#
# Indices 1 2 3 4 5 6 
#
# 1 85.8107 23.7144 22.7290 -13.2661 -21.2980 9.7715
# 2 23.7144 95.7786 9.4807 4.0238 -12.2468 4.0282
# 3 22.7290 9.4807 132.6840 10.8029 2.8765 6.1145
# 4 -13.2661 4.0238 10.8029 41.8220 12.4380 -0.2395
# 5 -21.2980 -12.2468 2.8765 12.4380 35.0169 -2.2147
# 6 9.7715 4.0282 6.1145 -0.2395 -2.2147 36.0836
#
#
#
# Elastic Compliance Matrix: (Units=1/GPa)
#
#
# Indices 1 2 3 4 5 6 
#
# 1 0.015957 -0.002751 -0.002870 0.003843 0.007421 -0.003047
# 2 -0.002751 0.011725 -0.000183 -0.002992 0.003484 -0.000339
# 3 -0.002870 -0.000183 0.008319 -0.002561 -0.001629 -0.000729
# 4 0.003843 -0.002992 -0.002561 0.028669 -0.008721 -0.000618
# 5 0.007421 0.003484 -0.001629 -0.008721 0.037529 0.000123
# 6 -0.003047 -0.000339 -0.000729 -0.000618 0.000123 0.028703
#
#
# Mechanical properties :
#
#
# Convention : Reuss Voigt Hill
#
# Bulk Modulus (GPa) = 40.99580 47.34682 44.17131
# Shear Modulus (GPa) = 33.19109 39.80778 36.49943
#
# Velocity S-wave (km/s) = 3.75345 4.11059 3.93607
# Velocity P-wave (km/s) = 6.01545 6.52887 6.27741
#
# Compressibility (1/GPa) = 0.02439274
#
# Stress axis : x y z
#
# Youngs Moduli (GPa) = 62.66778 85.28478 120.20805
#
# Poissons Ratio (x) = 0.23464 0.34503
# Poissons Ratio (y) = 0.17241 0.02198
# Poissons Ratio (z) = 0.17988 0.01560
#
# Static dielectric constant tensor:
#      x y z
#    x 1.900350 0.010260 -0.037700 
#    y 0.010260 1.898980 0.061360 
#    z -0.037700 0.061360 1.935320 
# 
# From -- ./inp_files/184970.got.cif
#   From: 2010.05.17/outbox.cif.g08.bks.cpg/sg2_93_cif.got.tgz:184970.got - 2010.06.03 11:33:40.
