data_PCOD9030299
_publ_section_title
;
Structure prediction by ZEFSAII (Michael W. Deem and Ramdas Pophale) SiO2 
 PCOD9030299
Probable space group: P -1
;
_chemical_formula_sum "Si O2"
_cell_formula_units_Z 14
_cell_length_a 21.255659
_cell_length_b 11.080356
_cell_length_c 8.841225
_cell_angle_alpha 125.690824
_cell_angle_beta 143.476194
_cell_angle_gamma 28.173001
_cell_volume 524.037942
_symmetry_space_group_name_H-M "P -1"
_symmetry_group_IT_number 2
_symmetry_cell_setting 'triclinic'
loop_
_space_group_symop_operation_xyz
x,y,z
-x,-y,-z
loop_
_atom_site_type_symbol
_atom_site_label
_atom_site_fract_x
_atom_site_fract_y
_atom_site_fract_z
Si Si1 0.314278 0.098033 0.604558
Si Si2 0.692069 0.331557 0.151303
Si Si3 0.372673 0.250895 0.308450
Si Si4 0.280853 0.806347 0.227533
Si Si5 0.665200 0.083323 0.186329
Si Si6 0.860895 0.164627 0.658836
Si Si7 0.067186 0.379047 0.870211
O O1 0.310085 0.073377 0.755785
O O2 0.138639 0.422899 0.462653
O O3 0.506421 0.898145 0.723939
O O4 0.249217 0.015009 0.354955
O O5 0.866311 0.151924 0.476385
O O6 0.500000 0.500000 0.000000
O O7 0.718968 0.204261 0.961274
O O8 0.578051 0.614483 0.076505
O O9 0.302047 0.506497 0.386724
O O10 0.500000 0.000000 0.500000
O O11 0.163264 0.414719 0.018407
O O12 0.500000 0.500000 0.500000
O O13 0.087030 0.934202 0.985750
O O14 0.766011 0.932888 0.107039
O O15 0.769036 0.110316 0.474455
O O16 0.000000 0.500000 0.000000
#
# Coordination Sequence:
#
# PCOD9030299 Si02
#       7
#     2   2   2   2   2   2   2
#     4  12  26  48  77 110 166 206 262 337 396 475
#     4  10  22  42  70 109 155 199 256 323 390 471
#     4  12  26  48  80 118 153 214 270 318 407 485
#     4  12  25  46  75 117 158 207 261 337 399 466
#     4  11  26  50  76 119 162 204 268 335 405 471
#     4  11  26  46  83 116 158 211 271 325 399 480
#     4  12  27  49  79 111 161 211 269 325 401 485
#
# _framework density 26.715623000000001
#
# number of rings (size 3 to 8) (size 9 to 14) (size 15 to 20)
#    0.000    0.571    4.286    3.429    4.000    3.429 
#    2.571    0.000    0.000    0.000    0.000    0.000 
#    0.000    0.000    0.000    0.000    0.000    0.000 
#
# Total GULP energy -78149.791223 kJ/mol
# GULP energy per Si atom -5582.127944 kJ/mol
# Density = 2.665482 g / cm^3
# Si number density = 26.715623 Si / 1000 Ang^3
#
#
#
# Elastic Constant Matrix: (Units=GPa)
#
#
# Indices 1 2 3 4 5 6 
#
# 1 171.3135 46.7211 55.8464 -0.0068 15.8269 -33.6196
# 2 46.7211 105.8037 35.9529 21.3076 2.6542 -9.5817
# 3 55.8464 35.9529 159.1895 1.4325 11.8198 5.5437
# 4 -0.0068 21.3076 1.4325 41.3314 4.0523 -2.7239
# 5 15.8269 2.6542 11.8198 4.0523 44.4072 -1.1098
# 6 -33.6196 -9.5817 5.5437 -2.7239 -1.1098 42.3434
#
#
#
# Elastic Compliance Matrix: (Units=1/GPa)
#
#
# Indices 1 2 3 4 5 6 
#
# 1 0.009065 -0.002880 -0.002615 0.002271 -0.002396 0.006971
# 2 -0.002880 0.012709 -0.001920 -0.006593 0.001391 0.000453
# 3 -0.002615 -0.001920 0.007838 0.000601 -0.001183 -0.003529
# 4 0.002271 -0.006593 0.000601 0.028004 -0.003082 0.001954
# 5 -0.002396 0.001391 -0.001183 -0.003082 0.023860 -0.001005
# 6 0.006971 0.000453 -0.003529 0.001954 -0.001005 0.029815
#
#
# Mechanical properties :
#
#
# Convention : Reuss Voigt Hill
#
# Bulk Modulus (GPa) = 67.64760 79.26084 73.45422
# Shear Modulus (GPa) = 38.15387 45.46882 41.81135
#
# Velocity S-wave (km/s) = 3.78318 4.12995 3.96037
# Velocity P-wave (km/s) = 6.66781 7.24395 6.96184
#
# Compressibility (1/GPa) = 0.01478249
#
# Stress axis : x y z
#
# Youngs Moduli (GPa) = 110.31931 78.68167 127.58333
#
# Poissons Ratio (x) = 0.22662 0.33361
# Poissons Ratio (y) = 0.31775 0.24492
# Poissons Ratio (z) = 0.28847 0.15105
#
# Static dielectric constant tensor:
#      x y z
#    x 2.230110 0.109550 -0.122060 
#    y 0.109550 2.351590 -0.098110 
#    z -0.122060 -0.098110 2.216040 
# 
# From -- ./inp_files/346297.got.cif
#   From: 2010.05.17/outbox.cif.g08.bks.cpg/sg2_174_cif.got.tgz:346297.got - 2010.06.03 11:33:40.
