data_PCOD9030854
_publ_section_title
;
Structure prediction by ZEFSAII (Michael W. Deem and Ramdas Pophale) SiO2 
 PCOD9030854
Probable space group: P -1
;
_chemical_formula_sum "Si O2"
_cell_formula_units_Z 14
_cell_length_a 9.306047
_cell_length_b 14.377754
_cell_length_c 9.034355
_cell_angle_alpha 69.342638
_cell_angle_beta 73.203565
_cell_angle_gamma 134.233876
_cell_volume 488.304963
_symmetry_space_group_name_H-M "P -1"
_symmetry_group_IT_number 2
_symmetry_cell_setting 'triclinic'
loop_
_space_group_symop_operation_xyz
x,y,z
-x,-y,-z
loop_
_atom_site_type_symbol
_atom_site_label
_atom_site_fract_x
_atom_site_fract_y
_atom_site_fract_z
Si Si1 0.824448 0.982863 0.467363
Si Si2 0.763053 0.810620 0.301323
Si Si3 0.500000 0.500000 0.000000
Si Si4 0.651622 0.485140 0.675701
Si Si5 0.732903 0.244805 0.525546
Si Si6 0.000000 0.500000 0.000000
Si Si7 0.423522 0.135249 0.968771
Si Si8 0.702615 0.190098 0.120567
O O1 0.097751 0.230577 0.256883
O O2 0.000000 0.000000 0.500000
O O3 0.733192 0.876077 0.400334
O O4 0.472674 0.818281 0.731833
O O5 0.463629 0.587700 0.419581
O O6 0.000000 0.000000 0.000000
O O7 0.028144 0.883805 0.237264
O O8 0.462787 0.495434 0.193907
O O9 0.483521 0.284999 0.913601
O O10 0.029312 0.684637 0.487927
O O11 0.573946 0.219901 0.712061
O O12 0.446482 0.002800 0.687431
O O13 0.934064 0.412624 0.239838
O O14 0.943186 0.581222 0.043908
O O15 0.621209 0.173528 0.988530
#
# Coordination Sequence:
#
# PCOD9030854 Si02
#       8
#     2   2   1   2   2   1   2   2
#     4  12  24  45  77 110 153 199 248 316 380 456
#     4  10  22  42  76 108 146 203 244 307 387 455
#     4  12  22  44  74 106 146 192 254 310 366 460
#     4  11  23  45  77 107 147 205 252 310 389 451
#     4  12  27  49  78 106 154 202 262 323 378 472
#     4  12  30  48  70 112 148 204 258 318 396 442
#     4  11  23  48  74 108 156 200 249 319 391 452
#     4  12  26  47  76 113 150 205 260 310 389 461
#
# _framework density 28.670607
#
# number of rings (size 3 to 8) (size 9 to 14) (size 15 to 20)
#    0.000    0.571    7.143    1.286    4.000    0.000 
#    2.571    2.857    0.000    0.000    0.000    0.000 
#    0.000    0.000    0.000    0.000    0.000    0.000 
#
# Total GULP energy -77959.533544 kJ/mol
# GULP energy per Si atom -5568.538110 kJ/mol
# Density = 2.860535 g / cm^3
# Si number density = 28.670607 Si / 1000 Ang^3
#
#
#
# Elastic Constant Matrix: (Units=GPa)
#
#
# Indices 1 2 3 4 5 6 
#
# 1 87.9511 20.7866 28.5018 12.3640 5.4143 -0.3870
# 2 20.7866 216.4303 79.7128 17.5268 4.2064 10.6651
# 3 28.5018 79.7128 137.2760 20.3968 16.1139 -0.6214
# 4 12.3640 17.5268 20.3968 77.6735 -2.6580 1.9926
# 5 5.4143 4.2064 16.1139 -2.6580 34.7535 -3.5210
# 6 -0.3870 10.6651 -0.6214 1.9926 -3.5210 30.7358
#
#
#
# Elastic Compliance Matrix: (Units=1/GPa)
#
#
# Indices 1 2 3 4 5 6 
#
# 1 0.012371 -0.000305 -0.002063 -0.001399 -0.001021 0.000193
# 2 -0.000305 0.006051 -0.003494 -0.000322 0.000701 -0.002073
# 3 -0.002063 -0.003494 0.010504 -0.001810 -0.004159 0.001040
# 4 -0.001399 -0.000322 -0.001810 0.013732 0.002086 -0.000594
# 5 -0.001021 0.000701 -0.004159 0.002086 0.031251 0.003105
# 6 0.000193 -0.002073 0.001040 -0.000594 0.003105 0.033672
#
#
# Mechanical properties :
#
#
# Convention : Reuss Voigt Hill
#
# Bulk Modulus (GPa) = 58.13288 77.73997 67.93643
# Shear Modulus (GPa) = 39.98752 49.47633 44.73193
#
# Velocity S-wave (km/s) = 3.73865 4.15864 3.95422
# Velocity P-wave (km/s) = 6.24154 7.08751 6.67793
#
# Compressibility (1/GPa) = 0.01720197
#
# Stress axis : x y z
#
# Youngs Moduli (GPa) = 80.83526 165.25357 95.20285
#
# Poissons Ratio (x) = 0.05036 0.19640
# Poissons Ratio (y) = 0.02463 0.33267
# Poissons Ratio (z) = 0.16676 0.57745
#
# Static dielectric constant tensor:
#      x y z
#    x 2.778660 0.888250 -0.633090 
#    y 0.888250 4.220370 -1.482170 
#    z -0.633090 -1.482170 3.215130 
# 
# From -- ./inp_files/267594.got.cif
#   From: 2010.05.17/outbox.cif.g08.bks.cpg/sg2_134_cif.got.tgz:267594.got - 2010.06.03 11:33:40.
