data_PCOD9030127
_publ_section_title
;
Structure prediction by ZEFSAII (Michael W. Deem and Ramdas Pophale) SiO2 
 PCOD9030127
Probable space group: P -1
;
_chemical_formula_sum "Si O2"
_cell_formula_units_Z 14
_cell_length_a 8.374025
_cell_length_b 13.178564
_cell_length_c 14.195680
_cell_angle_alpha 105.479685
_cell_angle_beta 79.611488
_cell_angle_gamma 148.409856
_cell_volume 787.440086
_symmetry_space_group_name_H-M "P -1"
_symmetry_group_IT_number 2
_symmetry_cell_setting 'triclinic'
loop_
_space_group_symop_operation_xyz
x,y,z
-x,-y,-z
loop_
_atom_site_type_symbol
_atom_site_label
_atom_site_fract_x
_atom_site_fract_y
_atom_site_fract_z
Si Si1 0.777218 0.916356 0.714219
Si Si2 0.590206 0.496766 0.391909
Si Si3 0.980666 0.943668 0.884594
Si Si4 0.727710 0.240991 0.369854
Si Si5 0.171598 0.690935 0.409959
Si Si6 0.213199 0.385324 0.241991
Si Si7 0.440299 0.225366 0.749136
O O1 0.608197 0.718700 0.647999
O O2 0.586390 0.905600 0.686910
O O3 0.781181 0.908150 0.825957
O O4 0.134505 0.100317 0.698045
O O5 0.500000 0.500000 0.500000
O O6 0.476855 0.503789 0.318950
O O7 0.943776 0.657801 0.393964
O O8 0.847027 0.752331 0.845782
O O9 0.306651 0.120219 0.838825
O O10 0.000000 0.000000 0.000000
O O11 0.689487 0.206050 0.477088
O O12 0.953239 0.467207 0.391191
O O13 0.915022 0.251119 0.302195
O O14 0.414198 0.788372 0.330327
O O15 0.320844 0.547299 0.214303
#
# Coordination Sequence:
#
# PCOD9030127 Si02
#       7
#     2   2   2   2   2   2   2
#     4   8  19  34  50  77 110 137 178 220 263 315
#     4  10  17  32  51  77 112 152 177 204 261 312
#     4   9  20  40  58  75 105 138 178 236 276 303
#     4   9  16  31  52  77 111 148 169 209 267 313
#     4   9  17  29  52  76 116 146 172 211 256 316
#     4  10  19  35  57  78 109 142 180 216 260 325
#     4   9  20  36  52  84 104 141 182 219 263 321
#
# _framework density 17.779129999999999
#
# number of rings (size 3 to 8) (size 9 to 14) (size 15 to 20)
#    0.857    2.000    1.429    0.000    2.000    1.143 
#    2.571    2.143    0.000   13.714    0.000    0.000 
#    0.000    0.000    0.000    0.000    0.000    0.000 
#
# Total GULP energy -77936.287639 kJ/mol
# GULP energy per Si atom -5566.877688 kJ/mol
# Density = 1.773866 g / cm^3
# Si number density = 17.779130 Si / 1000 Ang^3
#
#
#
# Elastic Constant Matrix: (Units=GPa)
#
#
# Indices 1 2 3 4 5 6 
#
# 1 90.1449 23.2339 51.5288 -2.3033 -5.8129 30.8422
# 2 23.2339 62.1035 43.3829 -10.9237 1.5563 7.4345
# 3 51.5288 43.3829 148.6910 1.3602 3.8597 21.1968
# 4 -2.3033 -10.9237 1.3602 21.9368 5.1224 -4.1222
# 5 -5.8129 1.5563 3.8597 5.1224 7.1334 -7.2327
# 6 30.8422 7.4345 21.1968 -4.1222 -7.2327 28.2829
#
#
#
# Elastic Compliance Matrix: (Units=1/GPa)
#
#
# Indices 1 2 3 4 5 6 
#
# 1 0.020449 -0.003823 -0.003394 -0.003797 0.003358 -0.018446
# 2 -0.003823 0.024749 -0.005552 0.016300 -0.017493 -0.000273
# 3 -0.003394 -0.005552 0.010769 -0.002108 -0.012326 -0.006369
# 4 -0.003797 0.016300 -0.002108 0.065941 -0.056244 -0.003337
# 5 0.003358 -0.017493 -0.012326 -0.056244 0.264338 0.069574
# 6 -0.018446 -0.000273 -0.006369 -0.003337 0.069574 0.077623
#
#
# Mechanical properties :
#
#
# Convention : Reuss Voigt Hill
#
# Bulk Modulus (GPa) = 32.86428 59.69228 46.27828
# Shear Modulus (GPa) = 10.00901 23.65686 16.83293
#
# Velocity S-wave (km/s) = 2.37526 3.65169 3.08032
# Velocity P-wave (km/s) = 5.10366 7.17127 6.22392
#
# Compressibility (1/GPa) = 0.03042817
#
# Stress axis : x y z
#
# Youngs Moduli (GPa) = 48.90125 40.40541 92.86164
#
# Poissons Ratio (x) = 0.15448 0.31519
# Poissons Ratio (y) = 0.18696 0.51558
# Poissons Ratio (z) = 0.16598 0.22434
#
# Static dielectric constant tensor:
#      x y z
#    x 1.657510 -0.023110 0.016190 
#    y -0.023110 1.654420 -0.005720 
#    z 0.016190 -0.005720 1.568710 
# 
# From -- ./inp_files/178738.got.cif
#   From: 2010.05.17/outbox.cif.g08.bks.cpg/sg2_90_cif.got.tgz:178738.got - 2010.06.03 11:33:40.
