data_PCOD9030730
_publ_section_title
;
Structure prediction by ZEFSAII (Michael W. Deem and Ramdas Pophale) SiO2 
 PCOD9030730
Probable space group: P -1
;
_chemical_formula_sum "Si O2"
_cell_formula_units_Z 14
_cell_length_a 7.056054
_cell_length_b 20.923007
_cell_length_c 11.785496
_cell_angle_alpha 149.532678
_cell_angle_beta 132.342525
_cell_angle_gamma 46.689917
_cell_volume 625.769423
_symmetry_space_group_name_H-M "P -1"
_symmetry_group_IT_number 2
_symmetry_cell_setting 'triclinic'
loop_
_space_group_symop_operation_xyz
x,y,z
-x,-y,-z
loop_
_atom_site_type_symbol
_atom_site_label
_atom_site_fract_x
_atom_site_fract_y
_atom_site_fract_z
Si Si1 0.418484 0.356675 0.405864
Si Si2 0.813675 0.446767 0.071907
Si Si3 0.270139 0.063856 0.416118
Si Si4 0.153711 0.644865 0.795500
Si Si5 0.226978 0.759969 0.423694
Si Si6 0.219930 0.262515 0.513365
Si Si7 0.737565 0.187825 0.083651
O O1 0.503913 0.279480 0.206066
O O2 0.315105 0.513203 0.593400
O O3 0.829909 0.391240 0.120713
O O4 0.916052 0.328822 0.844442
O O5 0.341353 0.686265 0.473810
O O6 0.905487 0.578487 0.297118
O O7 0.500000 0.500000 0.000000
O O8 0.276757 0.198602 0.563178
O O9 0.983467 0.102950 0.422468
O O10 0.280483 0.958354 0.159808
O O11 0.500000 0.000000 0.500000
O O12 0.261907 0.758183 0.961546
O O13 0.837885 0.676990 0.694246
O O14 0.490247 0.770611 0.480245
O O15 0.008303 0.201231 0.271756
#
# Coordination Sequence:
#
# PCOD9030730 Si02
#       7
#     2   2   2   2   2   2   2
#     4  11  22  42  71 107 136 178 228 286 346 405
#     4  10  22  42  73 105 137 176 224 287 350 410
#     4  12  31  47  65 103 141 189 238 275 341 420
#     4  11  22  43  69 108 138 173 233 279 350 407
#     4  11  24  47  73 100 139 185 229 284 352 400
#     4  11  23  48  72 100 137 181 233 284 349 401
#     4  12  26  45  70 103 143 183 231 285 332 419
#
# _framework density 22.372458000000002
#
# number of rings (size 3 to 8) (size 9 to 14) (size 15 to 20)
#    0.000    0.857    5.714    1.714    6.000    2.857 
#    0.000    0.000    0.000    0.000    0.000    0.000 
#    0.000    0.000    0.000    0.000    0.000    0.000 
#
# Total GULP energy -78248.589976 kJ/mol
# GULP energy per Si atom -5589.184998 kJ/mol
# Density = 2.232154 g / cm^3
# Si number density = 22.372458 Si / 1000 Ang^3
#
#
#
# Elastic Constant Matrix: (Units=GPa)
#
#
# Indices 1 2 3 4 5 6 
#
# 1 69.5255 45.6416 14.3583 2.5990 -12.5108 -6.5804
# 2 45.6416 101.8199 41.0257 -12.7219 -14.5651 -3.1477
# 3 14.3583 41.0257 106.3831 -2.6873 -16.2376 -3.1679
# 4 2.5990 -12.7219 -2.6873 34.0812 -3.1999 -4.9197
# 5 -12.5108 -14.5651 -16.2376 -3.1999 27.0456 -3.1031
# 6 -6.5804 -3.1477 -3.1679 -4.9197 -3.1031 40.3377
#
#
#
# Elastic Compliance Matrix: (Units=1/GPa)
#
#
# Indices 1 2 3 4 5 6 
#
# 1 0.022274 -0.010394 0.001828 -0.004498 0.005598 0.002848
# 2 -0.010394 0.017753 -0.004821 0.007361 0.002778 0.000423
# 3 0.001828 -0.004821 0.011879 -0.000308 0.005487 0.001239
# 4 -0.004498 0.007361 -0.000308 0.033623 0.006181 0.004393
# 5 0.005598 0.002778 0.005487 0.006181 0.045755 0.005835
# 6 0.002848 0.000423 0.001239 0.004393 0.005835 0.026370
#
#
# Mechanical properties :
#
#
# Convention : Reuss Voigt Hill
#
# Bulk Modulus (GPa) = 39.79043 53.30885 46.54964
# Shear Modulus (GPa) = 25.93273 32.07308 29.00290
#
# Velocity S-wave (km/s) = 3.40830 3.79039 3.60441
# Velocity P-wave (km/s) = 5.77172 6.56016 6.17853
#
# Compressibility (1/GPa) = 0.02513167
#
# Stress axis : x y z
#
# Youngs Moduli (GPa) = 44.89475 56.32787 84.18167
#
# Poissons Ratio (x) = 0.58549 -0.15386
# Poissons Ratio (y) = 0.46665 0.40584
# Poissons Ratio (z) = -0.08206 0.27156
#
# Static dielectric constant tensor:
#      x y z
#    x 1.834170 0.019530 0.000570 
#    y 0.019530 1.820800 -0.020930 
#    z 0.000570 -0.020930 1.881480 
# 
# From -- ./inp_files/141670.got.cif
#   From: 2010.05.17/outbox.cif.g08.bks.cpg/sg2_71_cif.got.tgz:141670.got - 2010.06.03 11:33:40.
