data_PCOD9030617
_publ_section_title
;
Structure prediction by ZEFSAII (Michael W. Deem and Ramdas Pophale) SiO2 
 PCOD9030617
Probable space group: P -1
;
_chemical_formula_sum "Si O2"
_cell_formula_units_Z 13
_cell_length_a 8.956186
_cell_length_b 8.688465
_cell_length_c 13.781173
_cell_angle_alpha 121.831314
_cell_angle_beta 143.716141
_cell_angle_gamma 63.983871
_cell_volume 538.986595
_symmetry_space_group_name_H-M "P -1"
_symmetry_group_IT_number 2
_symmetry_cell_setting 'triclinic'
loop_
_space_group_symop_operation_xyz
x,y,z
-x,-y,-z
loop_
_atom_site_type_symbol
_atom_site_label
_atom_site_fract_x
_atom_site_fract_y
_atom_site_fract_z
Si Si1 0.845475 0.388824 0.463378
Si Si2 0.986751 0.411809 0.856103
Si Si3 0.569854 0.735044 0.490645
Si Si4 0.721259 0.346990 0.041955
Si Si5 0.500658 0.066154 0.681813
Si Si6 0.481173 0.788573 0.922793
Si Si7 0.000000 0.000000 0.500000
O O1 0.718825 0.545933 0.513971
O O2 0.618274 0.296394 0.255717
O O3 0.997040 0.225087 0.540650
O O4 0.000000 0.500000 0.500000
O O5 0.728136 0.308799 0.672248
O O6 0.044197 0.561313 0.855114
O O7 0.234491 0.281661 0.931475
O O8 0.000000 0.500000 0.000000
O O9 0.594794 0.818834 0.423321
O O10 0.651849 0.893608 0.658478
O O11 0.635246 0.200530 0.869670
O O12 0.500000 0.500000 0.000000
O O13 0.726886 0.255181 0.119108
O O14 0.276514 0.977938 0.593598
O O15 0.500000 0.000000 0.000000
#
# Coordination Sequence:
#
# PCOD9030617 Si02
#       7
#     2   2   2   2   2   2   1
#     4  12  26  49  76 108 147 199 254 315 383 451
#     4  11  21  43  74 103 149 192 241 308 378 442
#     4  11  24  45  73 108 156 194 244 324 382 438
#     4  10  22  42  72 104 143 196 249 298 370 452
#     4  11  24  42  71 112 147 193 253 304 376 454
#     4  11  25  44  71 107 145 192 253 304 373 454
#     4  12  28  44  78 106 146 198 256 308 374 460
#
# _framework density 24.119337999999999
#
# number of rings (size 3 to 8) (size 9 to 14) (size 15 to 20)
#    0.000    0.923    4.615    1.846    6.462    0.615 
#    0.000    2.308    0.000    0.000    0.000    0.000 
#    0.000    0.000    0.000    0.000    0.000    0.000 
#
# Total GULP energy -72494.517840 kJ/mol
# GULP energy per Si atom -5576.501372 kJ/mol
# Density = 2.406444 g / cm^3
# Si number density = 24.119338 Si / 1000 Ang^3
#
#
#
# Elastic Constant Matrix: (Units=GPa)
#
#
# Indices 1 2 3 4 5 6 
#
# 1 95.5214 42.3068 51.5123 8.7551 15.9625 17.8250
# 2 42.3068 160.2262 41.9326 28.4283 -21.6431 -7.8306
# 3 51.5123 41.9326 115.6078 28.7838 -22.8250 -11.5539
# 4 8.7551 28.4283 28.7838 34.6203 -4.3633 1.1437
# 5 15.9625 -21.6431 -22.8250 -4.3633 45.8978 16.0201
# 6 17.8250 -7.8306 -11.5539 1.1437 16.0201 41.8750
#
#
#
# Elastic Compliance Matrix: (Units=1/GPa)
#
#
# Indices 1 2 3 4 5 6 
#
# 1 0.025761 -0.007236 -0.015696 0.010921 -0.015261 -0.011109
# 2 -0.007236 0.009829 0.003439 -0.008351 0.006856 0.003472
# 3 -0.015696 0.003439 0.021782 -0.015558 0.013424 0.008624
# 4 0.010921 -0.008351 -0.015558 0.045170 -0.008174 -0.008610
# 5 -0.015261 0.006856 0.013424 -0.008174 0.037094 -0.002486
# 6 -0.011109 0.003472 0.008624 -0.008610 -0.002486 0.032824
#
#
# Mechanical properties :
#
#
# Convention : Reuss Voigt Hill
#
# Bulk Modulus (GPa) = 54.39135 71.42875 62.91005
# Shear Modulus (GPa) = 22.98040 40.18555 31.58298
#
# Velocity S-wave (km/s) = 3.09006 4.08623 3.62255
# Velocity P-wave (km/s) = 5.94400 7.20709 6.60580
#
# Compressibility (1/GPa) = 0.01838528
#
# Stress axis : x y z
#
# Youngs Moduli (GPa) = 38.81849 101.73576 45.90895
#
# Poissons Ratio (x) = 0.73619 0.72060
# Poissons Ratio (y) = 0.28090 -0.15788
# Poissons Ratio (z) = 0.60931 -0.34987
#
# Static dielectric constant tensor:
#      x y z
#    x 1.923620 0.025540 -0.030310 
#    y 0.025540 1.938870 -0.040420 
#    z -0.030310 -0.040420 1.981240 
# 
# From -- ./inp_files/154408.got.cif
#   From: 2010.05.17/outbox.cif.g08.bks.cpg/sg2_78_cif.got.tgz:154408.got - 2010.06.03 11:33:40.
