data_PCOD9030881
_publ_section_title
;
Structure prediction by ZEFSAII (Michael W. Deem and Ramdas Pophale) SiO2 
 PCOD9030881
Probable space group: P -1
;
_chemical_formula_sum "Si O2"
_cell_formula_units_Z 16
_cell_length_a 12.769351
_cell_length_b 11.450776
_cell_length_c 13.524290
_cell_angle_alpha 149.018378
_cell_angle_beta 55.266924
_cell_angle_gamma 107.895059
_cell_volume 755.945415
_symmetry_space_group_name_H-M "P -1"
_symmetry_group_IT_number 2
_symmetry_cell_setting 'triclinic'
loop_
_space_group_symop_operation_xyz
x,y,z
-x,-y,-z
loop_
_atom_site_type_symbol
_atom_site_label
_atom_site_fract_x
_atom_site_fract_y
_atom_site_fract_z
Si Si1 0.620980 0.719412 0.939467
Si Si2 0.625303 0.219758 0.235549
Si Si3 0.679104 0.081705 0.699920
Si Si4 0.689874 0.251270 0.438853
Si Si5 0.228438 0.271938 0.932711
Si Si6 0.369818 0.318210 0.696211
Si Si7 0.206668 0.885435 0.134241
Si Si8 0.071147 0.817892 0.421547
O O1 0.696026 0.493554 0.659209
O O2 0.714978 0.705622 0.973168
O O3 0.578237 0.994960 0.115943
O O4 0.478316 0.708196 0.045369
O O5 0.500000 0.500000 0.500000
O O6 0.712271 0.227473 0.291841
O O7 0.713268 0.145089 0.033326
O O8 0.663998 0.863201 0.489391
O O9 0.742001 0.999601 0.717013
O O10 0.776145 0.179758 0.656361
O O11 0.527750 0.285139 0.565986
O O12 0.785980 0.987635 0.247611
O O13 0.341864 0.256156 0.777317
O O14 0.094037 0.535713 0.182185
O O15 0.257008 0.600990 0.939248
O O16 0.039301 0.050160 0.336452
O O17 0.000000 0.000000 0.500000
#
# Coordination Sequence:
#
# PCOD9030881 Si02
#       8
#     2   2   2   2   2   2   2   2
#     4  11  23  39  64  97 124 162 205 256 325 355
#     4  11  21  41  65  92 126 162 208 261 300 367
#     4  11  21  37  61  94 124 159 202 253 316 367
#     4  11  23  38  59  96 127 159 203 256 317 367
#     4  11  23  39  62  91 130 161 200 263 309 376
#     4  12  21  37  60  96 126 157 199 259 314 369
#     4  11  23  42  61  89 130 164 206 253 309 368
#     4  10  22  43  60  87 127 169 205 250 310 372
#
# _framework density 21.16555
#
# number of rings (size 3 to 8) (size 9 to 14) (size 15 to 20)
#    0.000    1.000    7.500    0.375    1.750    4.500 
#    0.000    2.500    0.000    1.500    0.000    0.000 
#    0.000    0.000    0.000    0.000    0.000    0.000 
#
# Total GULP energy -89340.682264 kJ/mol
# GULP energy per Si atom -5583.792641 kJ/mol
# Density = 2.111738 g / cm^3
# Si number density = 21.165550 Si / 1000 Ang^3
#
#
#
# Elastic Constant Matrix: (Units=GPa)
#
#
# Indices 1 2 3 4 5 6 
#
# 1 41.7445 14.0315 32.2813 -1.4990 31.1589 -3.8189
# 2 14.0315 90.5506 53.3122 -2.4474 14.2678 -15.4778
# 3 32.2813 53.3122 147.6852 8.3518 14.6604 -0.3440
# 4 -1.4990 -2.4474 8.3518 49.4460 -3.8450 2.7097
# 5 31.1589 14.2678 14.6604 -3.8450 40.2402 -1.0719
# 6 -3.8189 -15.4778 -0.3440 2.7097 -1.0719 18.9655
#
#
#
# Elastic Compliance Matrix: (Units=1/GPa)
#
#
# Indices 1 2 3 4 5 6 
#
# 1 0.075015 0.008493 -0.013886 -0.000305 -0.055570 0.018687
# 2 0.008493 0.018488 -0.007558 0.000805 -0.009875 0.015988
# 3 -0.013886 -0.007558 0.011738 -0.001655 0.008784 -0.008019
# 4 -0.000305 0.000805 -0.001655 0.020852 0.002486 -0.002273
# 5 -0.055570 -0.009875 0.008784 0.002486 0.068003 -0.015601
# 6 0.018687 0.015988 -0.008019 -0.002273 -0.015601 0.068836
#
#
# Mechanical properties :
#
#
# Convention : Reuss Voigt Hill
#
# Bulk Modulus (GPa) = 12.60414 53.24781 32.92597
# Shear Modulus (GPa) = 15.85890 33.75403 24.80646
#
# Velocity S-wave (km/s) = 2.74027 3.99778 3.42719
# Velocity P-wave (km/s) = 3.99750 6.82071 5.59026
#
# Compressibility (1/GPa) = 0.07933903
#
# Stress axis : x y z
#
# Youngs Moduli (GPa) = 13.33061 54.08884 85.19518
#
# Poissons Ratio (x) = -0.45938 1.18300
# Poissons Ratio (y) = -0.11322 0.64394
# Poissons Ratio (z) = 0.18511 0.40882
#
# Static dielectric constant tensor:
#      x y z
#    x 1.805200 -0.007400 -0.013850 
#    y -0.007400 1.797730 0.002500 
#    z -0.013850 0.002500 1.812650 
# 
# From -- ./inp_files/532785.got.cif
#   From: 2010.05.17/outbox.cif.g08.bks.cpg/sg2_267_cif.got.tgz:532785.got - 2010.06.03 11:33:40.
