data_PCOD9030985
_publ_section_title
;
Structure prediction by ZEFSAII (Michael W. Deem and Ramdas Pophale) SiO2 
 PCOD9030985
Probable space group: P -1
;
_chemical_formula_sum "Si O2"
_cell_formula_units_Z 14
_cell_length_a 13.202443
_cell_length_b 7.396038
_cell_length_c 10.368378
_cell_angle_alpha 71.892442
_cell_angle_beta 110.236056
_cell_angle_gamma 60.888985
_cell_volume 673.456385
_symmetry_space_group_name_H-M "P -1"
_symmetry_group_IT_number 2
_symmetry_cell_setting 'triclinic'
loop_
_space_group_symop_operation_xyz
x,y,z
-x,-y,-z
loop_
_atom_site_type_symbol
_atom_site_label
_atom_site_fract_x
_atom_site_fract_y
_atom_site_fract_z
Si Si1 0.880885 0.648115 0.803571
Si Si2 0.303728 0.710878 0.744395
Si Si3 0.617548 0.530911 0.892991
Si Si4 0.839420 0.251475 0.835727
Si Si5 0.120458 0.297836 0.496310
Si Si6 0.571579 0.999631 0.663054
Si Si7 0.289604 0.493836 0.532311
O O1 0.840814 0.476654 0.800410
O O2 0.931221 0.665779 0.683154
O O3 0.726346 0.913774 0.720393
O O4 0.000000 0.500000 0.000000
O O5 0.461338 0.615394 0.804452
O O6 0.267900 0.608934 0.636568
O O7 0.194592 0.015344 0.632710
O O8 0.311138 0.598792 0.909709
O O9 0.718802 0.330170 0.867910
O O10 0.597124 0.781562 0.809449
O O11 0.793983 0.281272 0.660852
O O12 0.000000 0.000000 0.000000
O O13 0.232148 0.343900 0.535906
O O14 0.000000 0.500000 0.500000
O O15 0.500000 0.000000 0.500000
O O16 0.457156 0.277402 0.613287
#
# Coordination Sequence:
#
# PCOD9030985 Si02
#       7
#     2   2   2   2   2   2   2
#     4  10  23  40  66  97 125 173 217 272 329 383
#     4  11  25  42  66  98 129 169 222 265 329 398
#     4  10  22  43  63  93 134 167 214 278 320 390
#     4  10  23  40  64  92 134 167 218 275 322 380
#     4  11  25  45  64  91 139 170 214 271 331 390
#     4  11  18  45  71  90 133 171 221 275 322 387
#     4  11  24  43  71  96 121 183 220 268 328 389
#
# _framework density 20.788278999999999
#
# number of rings (size 3 to 8) (size 9 to 14) (size 15 to 20)
#    0.000    1.429    5.714    0.000    6.000    5.143 
#    2.571    0.000    0.000    0.000    0.000    0.000 
#    0.000    0.000    0.000    0.000    0.000    0.000 
#
# Total GULP energy -78218.625138 kJ/mol
# GULP energy per Si atom -5587.044653 kJ/mol
# Density = 2.074096 g / cm^3
# Si number density = 20.788279 Si / 1000 Ang^3
#
#
#
# Elastic Constant Matrix: (Units=GPa)
#
#
# Indices 1 2 3 4 5 6 
#
# 1 31.3724 10.6567 32.2300 -0.1975 -8.7169 -7.2121
# 2 10.6567 89.4055 56.4114 -13.0193 -4.1014 -7.3859
# 3 32.2300 56.4114 179.8242 1.8700 -14.4731 -6.4017
# 4 -0.1975 -13.0193 1.8700 38.0081 -1.1152 7.1460
# 5 -8.7169 -4.1014 -14.4731 -1.1152 31.7966 -1.4765
# 6 -7.2121 -7.3859 -6.4017 7.1460 -1.4765 39.4303
#
#
#
# Elastic Compliance Matrix: (Units=1/GPa)
#
#
# Indices 1 2 3 4 5 6 
#
# 1 0.042924 0.000060 -0.006724 -0.000515 0.009031 0.007202
# 2 0.000060 0.015008 -0.004730 0.005165 0.000032 0.001120
# 3 -0.006724 -0.004730 0.008360 -0.001963 0.001266 -0.000356
# 4 -0.000515 0.005165 -0.001963 0.029069 0.000433 -0.004697
# 5 0.009031 0.000032 0.001266 0.000433 0.034665 0.003083
# 6 0.007202 0.001120 -0.000356 -0.004697 0.003083 0.027797
#
#
# Mechanical properties :
#
#
# Convention : Reuss Voigt Hill
#
# Bulk Modulus (GPa) = 22.98589 55.46647 39.22618
# Shear Modulus (GPa) = 25.62637 35.26728 30.44683
#
# Velocity S-wave (km/s) = 3.51484 4.12333 3.83118
# Velocity P-wave (km/s) = 5.24912 7.02913 6.20330
#
# Compressibility (1/GPa) = 0.04350494
#
# Stress axis : x y z
#
# Youngs Moduli (GPa) = 23.29707 66.62916 119.62265
#
# Poissons Ratio (x) = -0.00402 0.80429
# Poissons Ratio (y) = -0.00141 0.56584
# Poissons Ratio (z) = 0.15664 0.31517
#
# Static dielectric constant tensor:
#      x y z
#    x 1.794830 -0.057060 0.062410 
#    y -0.057060 1.797600 -0.081680 
#    z 0.062410 -0.081680 1.895510 
# 
# From -- ./inp_files/294888.got.cif
#   From: 2010.05.17/outbox.cif.g08.bks.cpg/sg2_148_cif.got.tgz:294888.got - 2010.06.03 11:33:40.
