data_PCOD9030679
_publ_section_title
;
Structure prediction by ZEFSAII (Michael W. Deem and Ramdas Pophale) SiO2 
 PCOD9030679
Probable space group: P -1
;
_chemical_formula_sum "Si O2"
_cell_formula_units_Z 16
_cell_length_a 8.818593
_cell_length_b 9.558773
_cell_length_c 8.823586
_cell_angle_alpha 86.451827
_cell_angle_beta 117.797888
_cell_angle_gamma 96.604078
_cell_volume 653.554967
_symmetry_space_group_name_H-M "P -1"
_symmetry_group_IT_number 2
_symmetry_cell_setting 'triclinic'
loop_
_space_group_symop_operation_xyz
x,y,z
-x,-y,-z
loop_
_atom_site_type_symbol
_atom_site_label
_atom_site_fract_x
_atom_site_fract_y
_atom_site_fract_z
Si Si1 0.431620 0.565520 0.619489
Si Si2 0.843295 0.988089 0.617819
Si Si3 0.349808 0.006079 0.776887
Si Si4 0.137535 0.794133 0.864044
Si Si5 0.752678 0.690594 0.259947
Si Si6 0.093190 0.654547 0.551566
Si Si7 0.971841 0.779116 0.095134
Si Si8 0.357741 0.151873 0.226176
O O1 0.500000 0.500000 0.500000
O O2 0.366738 0.437417 0.712078
O O3 0.260814 0.652052 0.522477
O O4 0.573809 0.683234 0.743468
O O5 0.796703 0.023245 0.422278
O O6 0.671765 0.906833 0.614435
O O7 0.982641 0.880969 0.728999
O O8 0.909022 0.123152 0.741594
O O9 0.348267 0.170288 0.803262
O O10 0.297614 0.909626 0.904632
O O11 0.509451 0.940430 0.783213
O O12 0.157192 0.680196 0.750662
O O13 0.088496 0.737350 0.011880
O O14 0.851036 0.667766 0.148006
O O15 0.923575 0.734473 0.437560
O O16 0.000000 0.500000 0.500000
O O17 0.825284 0.864624 0.944031
#
# Coordination Sequence:
#
# PCOD9030679 Si02
#       8
#     2   2   2   2   2   2   2   2
#     4  11  25  45  71 101 138 180 229 291 349 403
#     4  11  22  42  67 103 136 183 232 281 339 409
#     4  12  22  40  74 104 136 174 240 294 332 400
#     4  11  20  39  66  97 135 179 221 285 336 401
#     4  11  24  46  69 104 138 186 232 282 335 423
#     4  10  22  42  72  97 129 184 239 273 334 413
#     4  11  26  43  67 101 147 183 226 279 352 415
#     4  11  25  42  68 102 143 179 223 288 356 401
#
# _framework density 24.481491999999999
#
# number of rings (size 3 to 8) (size 9 to 14) (size 15 to 20)
#    0.000    1.000    3.750    3.750    5.250    1.000 
#    0.000    2.500    0.000    0.000    0.000    0.000 
#    0.000    0.000    0.000    0.000    0.000    0.000 
#
# Total GULP energy -89300.586104 kJ/mol
# GULP energy per Si atom -5581.286632 kJ/mol
# Density = 2.442577 g / cm^3
# Si number density = 24.481492 Si / 1000 Ang^3
#
#
#
# Elastic Constant Matrix: (Units=GPa)
#
#
# Indices 1 2 3 4 5 6 
#
# 1 116.0747 53.5141 9.6037 -5.1007 -39.1569 14.4412
# 2 53.5141 123.7497 40.8010 4.4348 -21.6739 20.4192
# 3 9.6037 40.8010 89.8043 3.8240 -16.8114 13.0323
# 4 -5.1007 4.4348 3.8240 31.3277 4.5075 -8.3952
# 5 -39.1569 -21.6739 -16.8114 4.5075 54.3263 -13.7558
# 6 14.4412 20.4192 13.0323 -8.3952 -13.7558 50.6619
#
#
#
# Elastic Compliance Matrix: (Units=1/GPa)
#
#
# Indices 1 2 3 4 5 6 
#
# 1 0.013796 -0.005375 0.002466 0.001528 0.008475 0.000154
# 2 -0.005375 0.012370 -0.004672 -0.002716 -0.000905 -0.002948
# 3 0.002466 -0.004672 0.014047 -0.001661 0.003986 -0.001626
# 4 0.001528 -0.002716 -0.001661 0.034715 -0.001766 0.006359
# 5 0.008475 -0.000905 0.003986 -0.001766 0.026504 0.003827
# 6 0.000154 -0.002948 -0.001626 0.006359 0.003827 0.023394
#
#
# Mechanical properties :
#
#
# Convention : Reuss Voigt Hill
#
# Bulk Modulus (GPa) = 39.91661 59.71848 49.81755
# Shear Modulus (GPa) = 33.70670 42.31050 38.00860
#
# Velocity S-wave (km/s) = 3.71458 4.16175 3.94451
# Velocity P-wave (km/s) = 5.89387 6.89491 6.41395
#
# Compressibility (1/GPa) = 0.02505222
#
# Stress axis : x y z
#
# Youngs Moduli (GPa) = 72.48542 80.83768 71.18911
#
# Poissons Ratio (x) = 0.43447 -0.17553
# Poissons Ratio (y) = 0.38958 0.33256
# Poissons Ratio (z) = -0.17872 0.37764
#
# Static dielectric constant tensor:
#      x y z
#    x 2.058780 0.028180 0.015650 
#    y 0.028180 2.017150 -0.065600 
#    z 0.015650 -0.065600 2.047560 
# 
# From -- ./inp_files/188729.got.cif
#   From: 2010.05.17/outbox.cif.g08.bks.cpg/sg2_95_cif.got.tgz:188729.got - 2010.06.03 11:33:40.
