data_PCOD9030496
_publ_section_title
;
Structure prediction by ZEFSAII (Michael W. Deem and Ramdas Pophale) SiO2 
 PCOD9030496
Probable space group: P -1
;
_chemical_formula_sum "Si O2"
_cell_formula_units_Z 13
_cell_length_a 9.272066
_cell_length_b 4.732805
_cell_length_c 13.335896
_cell_angle_alpha 74.636666
_cell_angle_beta 113.092007
_cell_angle_gamma 68.131257
_cell_volume 437.868981
_symmetry_space_group_name_H-M "P -1"
_symmetry_group_IT_number 2
_symmetry_cell_setting 'triclinic'
loop_
_space_group_symop_operation_xyz
x,y,z
-x,-y,-z
loop_
_atom_site_type_symbol
_atom_site_label
_atom_site_fract_x
_atom_site_fract_y
_atom_site_fract_z
Si Si1 0.680696 0.491396 0.442277
Si Si2 0.593528 0.972058 0.923017
Si Si3 0.779229 0.850942 0.273509
Si Si4 0.198450 0.646859 0.080511
Si Si5 0.080191 0.784031 0.761592
Si Si6 0.711309 0.409204 0.680343
Si Si7 0.000000 0.000000 0.500000
O O1 0.825340 0.523581 0.405225
O O2 0.683239 0.591360 0.548048
O O3 0.474487 0.594378 0.355542
O O4 0.812480 0.071478 0.501681
O O5 0.778510 0.603760 0.979661
O O6 0.438074 0.032735 0.793412
O O7 0.652663 0.245264 0.902207
O O8 0.500000 0.000000 0.000000
O O9 0.888833 0.559599 0.242543
O O10 0.747390 0.195092 0.161689
O O11 0.247675 0.457639 0.220069
O O12 0.000000 0.000000 0.000000
O O13 0.088227 0.018792 0.640287
O O14 0.895810 0.031791 0.746958
#
# Coordination Sequence:
#
# PCOD9030496 Si02
#       7
#     2   2   2   2   2   2   1
#     4   9  19  42  69 105 144 190 231 292 354 432
#     4  12  28  49  76 106 137 196 246 301 356 431
#     4  11  23  44  71 100 144 185 247 288 348 425
#     4  12  28  50  76 108 149 185 243 303 367 426
#     4  10  23  39  68  99 142 188 231 289 349 425
#     4  10  22  42  71 106 147 187 233 293 369 424
#     4   8  18  36  64  94 136 180 234 268 338 412
#
# _framework density 29.689246000000001
#
# number of rings (size 3 to 8) (size 9 to 14) (size 15 to 20)
#    0.000    1.538    1.538    1.846    6.462    6.769 
#    0.000    3.846    0.000    0.000    0.000    0.000 
#    0.000    0.000    0.000    0.000    0.000    0.000 
#
# Total GULP energy -72473.385590 kJ/mol
# GULP energy per Si atom -5574.875815 kJ/mol
# Density = 2.962167 g / cm^3
# Si number density = 29.689246 Si / 1000 Ang^3
#
#
#
# Elastic Constant Matrix: (Units=GPa)
#
#
# Indices 1 2 3 4 5 6 
#
# 1 207.1758 77.4227 23.2488 0.4016 9.0686 -5.7555
# 2 77.4227 181.1174 24.9081 14.7741 -5.3115 -13.7319
# 3 23.2488 24.9081 94.0992 26.2540 6.6938 -2.3041
# 4 0.4016 14.7741 26.2540 49.0813 -18.4247 -4.1141
# 5 9.0686 -5.3115 6.6938 -18.4247 49.8362 -7.6438
# 6 -5.7555 -13.7319 -2.3041 -4.1141 -7.6438 70.6514
#
#
#
# Elastic Compliance Matrix: (Units=1/GPa)
#
#
# Indices 1 2 3 4 5 6 
#
# 1 0.005904 -0.002493 -0.000985 0.000887 -0.000892 -0.000081
# 2 -0.002493 0.006928 -0.000986 -0.001015 0.001129 0.001174
# 3 -0.000985 -0.000986 0.014104 -0.009354 -0.005423 -0.000943
# 4 0.000887 -0.001015 -0.009354 0.030694 0.012754 0.002737
# 5 -0.000892 0.001129 -0.005423 0.012754 0.026339 0.003562
# 6 -0.000081 0.001174 -0.000943 0.002737 0.003562 0.014890
#
#
# Mechanical properties :
#
#
# Convention : Reuss Voigt Hill
#
# Bulk Modulus (GPa) = 55.53222 81.50572 68.51897
# Shear Modulus (GPa) = 43.94124 57.70130 50.82127
#
# Velocity S-wave (km/s) = 3.85130 4.41331 4.14185
# Velocity P-wave (km/s) = 6.20659 7.31316 6.78248
#
# Compressibility (1/GPa) = 0.01800756
#
# Stress axis : x y z
#
# Youngs Moduli (GPa) = 169.37402 144.35106 70.90154
#
# Poissons Ratio (x) = 0.35987 0.06983
# Poissons Ratio (y) = 0.42226 0.06992
# Poissons Ratio (z) = 0.16681 0.14235
#
# Static dielectric constant tensor:
#      x y z
#    x 2.034360 -0.328530 0.096250 
#    y -0.328530 1.035100 0.905050 
#    z 0.096250 0.905050 2.167510 
# 
# From -- ./inp_files/487596.got.cif
#   From: 2010.05.17/outbox.cif.g08.bks.cpg/sg2_244_cif.got.tgz:487596.got - 2010.06.03 11:33:40.
