data_PCOD9030231
_publ_section_title
;
Structure prediction by ZEFSAII (Michael W. Deem and Ramdas Pophale) SiO2 
 PCOD9030231
Probable space group: P -1
;
_chemical_formula_sum "Si O2"
_cell_formula_units_Z 14
_cell_length_a 11.863433
_cell_length_b 7.147453
_cell_length_c 14.893456
_cell_angle_alpha 87.079485
_cell_angle_beta 138.674449
_cell_angle_gamma 61.425188
_cell_volume 517.728527
_symmetry_space_group_name_H-M "P -1"
_symmetry_group_IT_number 2
_symmetry_cell_setting 'triclinic'
loop_
_space_group_symop_operation_xyz
x,y,z
-x,-y,-z
loop_
_atom_site_type_symbol
_atom_site_label
_atom_site_fract_x
_atom_site_fract_y
_atom_site_fract_z
Si Si1 0.452490 0.505955 0.741475
Si Si2 0.879039 0.863859 0.455037
Si Si3 0.098336 0.699602 0.862315
Si Si4 0.843186 0.592151 0.812148
Si Si5 0.092907 0.770064 0.268530
Si Si6 0.588438 0.130919 0.075890
Si Si7 0.379371 0.239787 0.587862
O O1 0.546929 0.243112 0.748961
O O2 0.200250 0.635372 0.646138
O O3 0.279770 0.834398 0.592720
O O4 0.716375 0.377548 0.944431
O O5 0.813802 0.722319 0.465734
O O6 0.746758 0.989364 0.271306
O O7 0.848306 0.059989 0.696403
O O8 0.313497 0.488302 0.916037
O O9 0.001484 0.576193 0.831915
O O10 0.850057 0.373538 0.789167
O O11 0.554811 0.940588 0.645218
O O12 0.000000 0.500000 0.000000
O O13 0.234860 0.511062 0.430036
O O14 0.781266 0.034844 0.113493
O O15 0.500000 0.000000 0.000000
#
# Coordination Sequence:
#
# PCOD9030231 Si02
#       7
#     2   2   2   2   2   2   2
#     4  10  22  42  70 102 138 181 232 284 350 409
#     4  10  23  44  70 108 141 184 230 290 354 411
#     4  11  26  45  73 106 140 185 231 293 352 420
#     4  12  27  50  73 101 139 191 241 286 351 417
#     4  12  27  45  69 107 140 188 235 289 356 412
#     4  11  22  44  75 106 144 182 233 297 352 409
#     4  12  26  45  74 101 146 190 232 288 347 424
#
# _framework density 27.0412
#
# number of rings (size 3 to 8) (size 9 to 14) (size 15 to 20)
#    0.000    0.857    2.857    3.857    2.000    5.143 
#    0.000    0.000    0.000    0.000    0.000    0.000 
#    0.000    0.000    0.000    0.000    0.000    0.000 
#
# Total GULP energy -78426.718032 kJ/mol
# GULP energy per Si atom -5601.908431 kJ/mol
# Density = 2.697965 g / cm^3
# Si number density = 27.041200 Si / 1000 Ang^3
#
#
#
# Elastic Constant Matrix: (Units=GPa)
#
#
# Indices 1 2 3 4 5 6 
#
# 1 44.1108 7.9695 8.5416 -5.0156 2.9810 -1.8922
# 2 7.9695 192.3181 20.3913 -5.3757 -1.8759 -5.1384
# 3 8.5416 20.3913 73.8652 5.5666 -4.7705 2.1539
# 4 -5.0156 -5.3757 5.5666 47.6832 7.2397 1.6272
# 5 2.9810 -1.8759 -4.7705 7.2397 33.1799 3.3494
# 6 -1.8922 -5.1384 2.1539 1.6272 3.3494 45.7348
#
#
#
# Elastic Compliance Matrix: (Units=1/GPa)
#
#
# Indices 1 2 3 4 5 6 
#
# 1 0.024046 -0.000573 -0.003133 0.003319 -0.003490 0.001216
# 2 -0.000573 0.005420 -0.001508 0.000717 -0.000080 0.000637
# 3 -0.003133 -0.001508 0.014742 -0.002639 0.003005 -0.001119
# 4 0.003319 0.000717 -0.002639 0.022555 -0.005553 -0.000054
# 5 -0.003490 -0.000080 0.003005 -0.005553 0.032340 -0.002466
# 6 0.001216 0.000637 -0.001119 -0.000054 -0.002466 0.022222
#
#
# Mechanical properties :
#
#
# Convention : Reuss Voigt Hill
#
# Bulk Modulus (GPa) = 29.60362 42.67766 36.14064
# Shear Modulus (GPa) = 34.96192 43.54569 39.25381
#
# Velocity S-wave (km/s) = 3.59961 4.01727 3.81416
# Velocity P-wave (km/s) = 5.31485 6.11021 5.72635
#
# Compressibility (1/GPa) = 0.03377965
#
# Stress axis : x y z
#
# Youngs Moduli (GPa) = 41.58724 184.51582 67.83227
#
# Poissons Ratio (x) = 0.10573 0.21254
# Poissons Ratio (y) = 0.02383 0.10227
# Poissons Ratio (z) = 0.13031 0.27818
#
# Static dielectric constant tensor:
#      x y z
#    x 2.152790 -0.002170 -0.054970 
#    y -0.002170 2.162270 0.001530 
#    z -0.054970 0.001530 2.189100 
# 
# From -- ./inp_files/575103.got.cif
#   From: 2010.05.17/outbox.cif.g08.bks.cpg/sg2_288_cif.got.tgz:575103.got - 2010.06.03 11:33:40.
