data_PCOD9030531
_publ_section_title
;
Structure prediction by ZEFSAII (Michael W. Deem and Ramdas Pophale) SiO2 
 PCOD9030531
Probable space group: P -1
;
_chemical_formula_sum "Si O2"
_cell_formula_units_Z 16
_cell_length_a 16.021720
_cell_length_b 12.882103
_cell_length_c 8.987347
_cell_angle_alpha 46.232534
_cell_angle_beta 36.496332
_cell_angle_gamma 47.231295
_cell_volume 763.377103
_symmetry_space_group_name_H-M "P -1"
_symmetry_group_IT_number 2
_symmetry_cell_setting 'triclinic'
loop_
_space_group_symop_operation_xyz
x,y,z
-x,-y,-z
loop_
_atom_site_type_symbol
_atom_site_label
_atom_site_fract_x
_atom_site_fract_y
_atom_site_fract_z
Si Si1 0.661346 0.496763 0.722863
Si Si2 0.523757 0.813061 0.499679
Si Si3 0.906874 0.941422 0.319925
Si Si4 0.077650 0.627439 0.296082
Si Si5 0.404074 0.891310 0.298838
Si Si6 0.241601 0.753021 0.415743
Si Si7 0.984277 0.190165 0.093370
Si Si8 0.287812 0.983147 0.892021
O O1 0.640479 0.670448 0.543798
O O2 0.778391 0.435017 0.747892
O O3 0.695879 0.393571 0.629250
O O4 0.500000 0.500000 0.000000
O O5 0.492014 0.779573 0.409734
O O6 0.591211 0.952701 0.267690
O O7 0.374466 0.868378 0.755597
O O8 0.969608 0.764774 0.405701
O O9 0.732439 0.001162 0.517270
O O10 0.943198 0.033303 0.313397
O O11 0.000000 0.000000 0.000000
O O12 0.000000 0.500000 0.500000
O O13 0.092209 0.704960 0.039019
O O14 0.346168 0.796442 0.350191
O O15 0.500000 0.000000 0.000000
O O16 0.092811 0.735608 0.720507
O O17 0.222444 0.889726 0.193455
O O18 0.158089 0.128018 0.882083
#
# Coordination Sequence:
#
# PCOD9030531 Si02
#       8
#     2   2   2   2   2   2   2   2
#     4  12  27  44  66  97 140 181 221 274 345 414
#     4  11  24  41  67  96 138 176 224 268 341 408
#     4   9  20  38  69  93 124 170 226 276 316 396
#     4  11  24  45  67  98 133 185 228 269 335 419
#     4  11  23  43  69 104 133 174 228 288 345 394
#     4  11  24  43  66 101 133 174 219 283 343 400
#     4  10  22  42  71  97 129 167 231 281 332 387
#     4  11  21  42  70  99 128 176 225 282 328 399
#
# _framework density 20.959496999999999
#
# number of rings (size 3 to 8) (size 9 to 14) (size 15 to 20)
#    0.000    1.250    2.500    3.375    5.250    3.500 
#    2.250    1.250    0.000    0.000    0.000    0.000 
#    0.000    0.000    0.000    0.000    0.000    0.000 
#
# Total GULP energy -89133.488139 kJ/mol
# GULP energy per Si atom -5570.843009 kJ/mol
# Density = 2.091179 g / cm^3
# Si number density = 20.959497 Si / 1000 Ang^3
#
#
#
# Elastic Constant Matrix: (Units=GPa)
#
#
# Indices 1 2 3 4 5 6 
#
# 1 124.7251 55.3591 35.0860 4.2004 7.0494 -14.0400
# 2 55.3591 129.5655 54.2265 10.1328 6.4147 -1.1056
# 3 35.0860 54.2265 80.5030 7.6889 2.8044 -4.0622
# 4 4.2004 10.1328 7.6889 36.7674 2.6248 -0.7147
# 5 7.0494 6.4147 2.8044 2.6248 32.2936 -3.7185
# 6 -14.0400 -1.1056 -4.0622 -0.7147 -3.7185 35.6713
#
#
#
# Elastic Compliance Matrix: (Units=1/GPa)
#
#
# Indices 1 2 3 4 5 6 
#
# 1 0.010677 -0.003676 -0.001986 0.000355 -0.001024 0.003763
# 2 -0.003676 0.012173 -0.006511 -0.001529 -0.001152 -0.001962
# 3 -0.001986 -0.006511 0.017876 -0.001728 0.000437 0.001063
# 4 0.000355 -0.001529 -0.001728 0.028079 -0.001876 0.000263
# 5 -0.001024 -0.001152 0.000437 -0.001876 0.031866 0.002895
# 6 0.003763 -0.001962 0.001063 0.000263 0.002895 0.029882
#
#
# Mechanical properties :
#
#
# Convention : Reuss Voigt Hill
#
# Bulk Modulus (GPa) = 61.04138 69.34855 65.19496
# Shear Modulus (GPa) = 31.17981 33.62127 32.40054
#
# Velocity S-wave (km/s) = 3.86115 4.00948 3.93601
# Velocity P-wave (km/s) = 7.00462 7.38873 7.19924
#
# Compressibility (1/GPa) = 0.01638233
#
# Stress axis : x y z
#
# Youngs Moduli (GPa) = 93.65684 82.14574 55.93956
#
# Poissons Ratio (x) = 0.30196 0.11109
# Poissons Ratio (y) = 0.34427 0.36421
# Poissons Ratio (z) = 0.18599 0.53483
#
# Static dielectric constant tensor:
#      x y z
#    x 1.844840 -0.016620 -0.004700 
#    y -0.016620 1.783760 0.032030 
#    z -0.004700 0.032030 1.828500 
# 
# From -- ./inp_files/306421.got.cif
#   From: 2010.05.17/outbox.cif.g08.bks.cpg/sg2_154_cif.got.tgz:306421.got - 2010.06.03 11:33:40.
