data_PCOD9030190
_publ_section_title
;
Structure prediction by ZEFSAII (Michael W. Deem and Ramdas Pophale) SiO2 
 PCOD9030190
Probable space group: P -1
;
_chemical_formula_sum "Si O2"
_cell_formula_units_Z 13
_cell_length_a 9.829713
_cell_length_b 7.322350
_cell_length_c 22.718558
_cell_angle_alpha 42.994020
_cell_angle_beta 142.235681
_cell_angle_gamma 114.186735
_cell_volume 624.835230
_symmetry_space_group_name_H-M "P -1"
_symmetry_group_IT_number 2
_symmetry_cell_setting 'triclinic'
loop_
_space_group_symop_operation_xyz
x,y,z
-x,-y,-z
loop_
_atom_site_type_symbol
_atom_site_label
_atom_site_fract_x
_atom_site_fract_y
_atom_site_fract_z
Si Si1 0.396355 0.249833 0.021175
Si Si2 0.102289 0.645673 0.231647
Si Si3 0.473829 0.882928 0.254040
Si Si4 0.500000 0.000000 0.500000
Si Si5 0.808232 0.739441 0.221944
Si Si6 0.115579 0.744289 0.437758
Si Si7 0.812102 0.120771 0.354316
O O1 0.428943 0.075250 0.134720
O O2 0.563412 0.017388 0.085566
O O3 0.500000 0.500000 0.000000
O O4 0.116641 0.360927 0.881455
O O5 0.238373 0.833856 0.205400
O O6 0.303883 0.317999 0.384016
O O7 0.978123 0.774174 0.220909
O O8 0.688624 0.557799 0.396537
O O9 0.578940 0.043182 0.299735
O O10 0.724795 0.092622 0.571130
O O11 0.750368 0.462616 0.249639
O O12 0.962061 0.679276 0.349383
O O13 0.944945 0.951523 0.380844
O O14 0.000000 0.000000 0.500000
#
# Coordination Sequence:
#
# PCOD9030190 Si02
#       7
#     2   2   2   1   2   2   2
#     4  12  25  48  72 100 145 193 235 292 354 425
#     4  11  25  44  70 108 141 189 236 290 362 416
#     4  11  24  43  71 103 147 182 233 300 351 414
#     4  10  22  42  70 100 142 176 232 300 346 410
#     4  12  24  44  76 101 141 184 246 282 354 432
#     4  11  22  42  68 107 141 181 232 295 354 405
#     4  12  22  40  69 106 138 186 235 284 348 422
#
# _framework density 20.805485999999998
#
# number of rings (size 3 to 8) (size 9 to 14) (size 15 to 20)
#    0.000    0.615    4.615    4.154    0.000    3.692 
#    0.000    4.615    0.000    0.000    0.000    0.000 
#    0.000    0.000    0.000    0.000    0.000    0.000 
#
# Total GULP energy -72430.987769 kJ/mol
# GULP energy per Si atom -5571.614444 kJ/mol
# Density = 2.075813 g / cm^3
# Si number density = 20.805486 Si / 1000 Ang^3
#
#
#
# Elastic Constant Matrix: (Units=GPa)
#
#
# Indices 1 2 3 4 5 6 
#
# 1 109.1753 67.2467 44.8104 1.7173 16.7603 17.1727
# 2 67.2467 141.2894 32.1694 1.6717 15.2236 21.1926
# 3 44.8104 32.1694 81.1717 4.6632 20.7322 -2.2445
# 4 1.7173 1.6717 4.6632 45.1893 2.3623 3.4717
# 5 16.7603 15.2236 20.7322 2.3623 36.7540 10.5600
# 6 17.1727 21.1926 -2.2445 3.4717 10.5600 38.0976
#
#
#
# Elastic Compliance Matrix: (Units=1/GPa)
#
#
# Indices 1 2 3 4 5 6 
#
# 1 0.016016 -0.005357 -0.006924 0.000661 0.000143 -0.004747
# 2 -0.005357 0.010443 -0.001233 0.000219 -0.000216 -0.003427
# 3 -0.006924 -0.001233 0.019329 -0.001789 -0.009331 0.007695
# 4 0.000661 0.000219 -0.001789 0.022481 -0.000096 -0.002547
# 5 0.000143 -0.000216 -0.009331 -0.000096 0.035466 -0.010315
# 6 -0.004747 -0.003427 0.007695 -0.002547 -0.010315 0.033839
#
#
# Mechanical properties :
#
#
# Convention : Reuss Voigt Hill
#
# Bulk Modulus (GPa) = 53.30735 68.89881 61.10308
# Shear Modulus (GPa) = 29.26433 36.50218 32.88326
#
# Velocity S-wave (km/s) = 3.75449 4.19316 3.97987
# Velocity P-wave (km/s) = 6.66876 7.52536 7.10997
#
# Compressibility (1/GPa) = 0.01875914
#
# Stress axis : x y z
#
# Youngs Moduli (GPa) = 62.43888 95.75715 51.73459
#
# Poissons Ratio (x) = 0.51301 0.35820
# Poissons Ratio (y) = 0.33451 0.06380
# Poissons Ratio (z) = 0.43231 0.11810
#
# Static dielectric constant tensor:
#      x y z
#    x 1.772370 0.022780 -0.037100 
#    y 0.022780 1.735610 0.010520 
#    z -0.037100 0.010520 1.771630 
# 
# From -- ./inp_files/132748.got.cif
#   From: 2010.05.17/outbox.cif.g08.bks.cpg/sg2_67_cif.got.tgz:132748.got - 2010.06.03 11:33:40.
