data_PCOD9030959
_publ_section_title
;
Structure prediction by ZEFSAII (Michael W. Deem and Ramdas Pophale) SiO2 
 PCOD9030959
Probable space group: P -1
;
_chemical_formula_sum "Si O2"
_cell_formula_units_Z 16
_cell_length_a 12.332364
_cell_length_b 14.962734
_cell_length_c 12.043346
_cell_angle_alpha 151.007846
_cell_angle_beta 103.846481
_cell_angle_gamma 58.679400
_cell_volume 785.898719
_symmetry_space_group_name_H-M "P -1"
_symmetry_group_IT_number 2
_symmetry_cell_setting 'triclinic'
loop_
_space_group_symop_operation_xyz
x,y,z
-x,-y,-z
loop_
_atom_site_type_symbol
_atom_site_label
_atom_site_fract_x
_atom_site_fract_y
_atom_site_fract_z
Si Si1 0.383770 0.106694 0.367626
Si Si2 0.075711 0.029098 0.208318
Si Si3 0.224408 0.074714 0.900873
Si Si4 0.231873 0.767768 0.733670
Si Si5 0.670957 0.173009 0.795182
Si Si6 0.063746 0.458693 0.595012
Si Si7 0.413004 0.218361 0.127423
Si Si8 0.579090 0.257792 0.614235
O O1 0.234863 0.330096 0.508023
O O2 0.477380 0.184447 0.507272
O O3 0.343548 0.015609 0.360401
O O4 0.484225 0.878277 0.060042
O O5 0.059045 0.263968 0.436826
O O6 0.910542 0.131037 0.267272
O O7 0.177091 0.901919 0.203331
O O8 0.171253 0.848995 0.931633
O O9 0.277574 0.914205 0.852290
O O10 0.304322 0.885373 0.613342
O O11 0.276416 0.230467 0.078882
O O12 0.046568 0.282744 0.088721
O O13 0.353748 0.477068 0.436795
O O14 0.660735 0.178623 0.666414
O O15 0.532190 0.448015 0.101444
O O16 0.000000 0.500000 0.500000
O O17 0.500000 0.000000 0.000000
#
# Coordination Sequence:
#
# PCOD9030959 Si02
#       8
#     2   2   2   2   2   2   2   2
#     4  10  23  38  64  88 120 164 201 247 311 359
#     4  10  23  37  61  91 123 165 201 245 306 369
#     4  11  23  39  62  91 124 157 207 247 307 357
#     4  11  23  38  61  90 129 161 195 250 308 371
#     4  10  22  43  63  87 121 157 214 252 302 355
#     4  11  20  39  60  92 129 162 196 246 303 375
#     4  11  24  37  58  93 127 157 199 250 301 368
#     4  10  23  42  66  87 117 161 208 262 298 356
#
# _framework density 20.358858000000001
#
# number of rings (size 3 to 8) (size 9 to 14) (size 15 to 20)
#    0.000    1.500    2.500    1.875    7.000    0.500 
#    0.000    3.125    2.750    0.000    0.000    0.000 
#    0.000    0.000    0.000    0.000    0.000    0.000 
#
# Total GULP energy -89401.661780 kJ/mol
# GULP energy per Si atom -5587.603861 kJ/mol
# Density = 2.031252 g / cm^3
# Si number density = 20.358858 Si / 1000 Ang^3
#
#
#
# Elastic Constant Matrix: (Units=GPa)
#
#
# Indices 1 2 3 4 5 6 
#
# 1 50.1423 18.8011 8.5241 5.9317 -2.8072 -13.2559
# 2 18.8011 101.7775 18.1061 13.3813 -2.7452 -26.0074
# 3 8.5241 18.1061 110.9133 17.9570 -5.6660 -10.2845
# 4 5.9317 13.3813 17.9570 23.6051 -1.4598 3.4855
# 5 -2.8072 -2.7452 -5.6660 -1.4598 26.3775 4.9181
# 6 -13.2559 -26.0074 -10.2845 3.4855 4.9181 30.0339
#
#
#
# Elastic Compliance Matrix: (Units=1/GPa)
#
#
# Indices 1 2 3 4 5 6 
#
# 1 0.023936 -0.000693 0.000540 -0.007653 0.000113 0.011019
# 2 -0.000693 0.014914 0.000648 -0.011000 -0.001673 0.014381
# 3 0.000540 0.000648 0.010986 -0.009619 0.000922 0.005526
# 4 -0.007653 -0.011000 -0.009619 0.061619 0.003856 -0.023979
# 5 0.000113 -0.001673 0.000922 0.003856 0.039657 -0.008024
# 6 0.011019 0.014381 0.005526 -0.023979 -0.008024 0.056602
#
#
# Mechanical properties :
#
#
# Convention : Reuss Voigt Hill
#
# Bulk Modulus (GPa) = 19.67510 39.29953 29.48731
# Shear Modulus (GPa) = 22.35486 30.49675 26.42580
#
# Velocity S-wave (km/s) = 3.31727 3.87455 3.60669
# Velocity P-wave (km/s) = 4.93533 6.27387 5.64442
#
# Compressibility (1/GPa) = 0.05082567
#
# Stress axis : x y z
#
# Youngs Moduli (GPa) = 41.77818 67.05075 91.02774
#
# Poissons Ratio (x) = 0.04644 -0.04916
# Poissons Ratio (y) = 0.02894 -0.05894
# Poissons Ratio (z) = -0.02256 -0.04342
#
# Static dielectric constant tensor:
#      x y z
#    x 1.798200 -0.039050 -0.003250 
#    y -0.039050 1.717000 0.009180 
#    z -0.003250 0.009180 1.704080 
# 
# From -- ./inp_files/273697.got.cif
#   From: 2010.05.17/outbox.cif.g08.bks.cpg/sg2_137_cif.got.tgz:273697.got - 2010.06.03 11:33:40.
