data_PCOD9030245
_publ_section_title
;
Structure prediction by ZEFSAII (Michael W. Deem and Ramdas Pophale) SiO2 
 PCOD9030245
Probable space group: P -1
;
_chemical_formula_sum "Si O2"
_cell_formula_units_Z 11
_cell_length_a 9.203482
_cell_length_b 10.885541
_cell_length_c 5.285609
_cell_angle_alpha 86.868637
_cell_angle_beta 110.283070
_cell_angle_gamma 115.266919
_cell_volume 446.454510
_symmetry_space_group_name_H-M "P -1"
_symmetry_group_IT_number 2
_symmetry_cell_setting 'triclinic'
loop_
_space_group_symop_operation_xyz
x,y,z
-x,-y,-z
loop_
_atom_site_type_symbol
_atom_site_label
_atom_site_fract_x
_atom_site_fract_y
_atom_site_fract_z
Si Si1 0.197422 0.558155 0.546380
Si Si2 0.037035 0.158880 0.955636
Si Si3 0.892164 0.090269 0.376175
Si Si4 0.349752 0.364279 0.808454
Si Si5 0.500000 0.000000 0.000000
Si Si6 0.627573 0.283343 0.853622
O O1 0.246233 0.431452 0.589501
O O2 0.246308 0.629454 0.297301
O O3 0.000000 0.500000 0.500000
O O4 0.303935 0.662121 0.826762
O O5 0.226522 0.257771 0.955015
O O6 0.914055 0.160467 0.654106
O O7 0.987303 0.193420 0.194005
O O8 0.000000 0.000000 0.000000
O O9 0.694624 0.010841 0.190278
O O10 0.000000 0.000000 0.500000
O O11 0.449036 0.297200 0.713548
O O12 0.500000 0.500000 0.000000
O O13 0.588823 0.126984 0.844521
#
# Coordination Sequence:
#
# PCOD9030245 Si02
#       6
#     2   2   2   2   1   2
#     4  11  26  46  72 102 144 193 247 300 365 448
#     4  10  22  42  70 102 143 183 246 299 375 437
#     4  10  24  42  66 102 142 191 234 301 366 445
#     4  10  24  46  75 105 145 196 249 309 375 450
#     4  12  28  46  78 112 158 190 256 312 392 452
#     4  11  26  46  70 109 142 191 242 306 372 444
#
# _framework density 24.638569
#
# number of rings (size 3 to 8) (size 9 to 14) (size 15 to 20)
#    0.000    1.455    0.000    3.273    5.091   14.545 
#    0.000    0.000    0.000    0.000    0.000    0.000 
#    0.000    0.000    0.000    0.000    0.000    0.000 
#
# Total GULP energy -61239.088090 kJ/mol
# GULP energy per Si atom -5567.189826 kJ/mol
# Density = 2.458249 g / cm^3
# Si number density = 24.638569 Si / 1000 Ang^3
#
#
#
# Elastic Constant Matrix: (Units=GPa)
#
#
# Indices 1 2 3 4 5 6 
#
# 1 124.9871 39.7440 34.0417 -11.8386 26.8313 24.9430
# 2 39.7440 114.5772 28.6902 -37.2421 -4.0793 32.8827
# 3 34.0417 28.6902 108.5036 -18.6972 -13.6868 1.5092
# 4 -11.8386 -37.2421 -18.6972 42.1274 11.1576 -3.3179
# 5 26.8313 -4.0793 -13.6868 11.1576 55.7692 -6.5664
# 6 24.9430 32.8827 1.5092 -3.3179 -6.5664 40.3103
#
#
#
# Elastic Compliance Matrix: (Units=1/GPa)
#
#
# Indices 1 2 3 4 5 6 
#
# 1 0.013535 -0.000017 -0.004709 0.003464 -0.009474 -0.009443
# 2 -0.000017 0.018055 -0.002521 0.014764 -0.003897 -0.014043
# 3 -0.004709 -0.002521 0.012119 0.000791 0.005543 0.005484
# 4 0.003464 0.014764 0.000791 0.039726 -0.009818 -0.012546
# 5 -0.009474 -0.003897 0.005543 -0.009818 0.026991 0.012422
# 6 -0.009443 -0.014043 0.005484 -0.012546 0.012422 0.042891
#
#
# Mechanical properties :
#
#
# Convention : Reuss Voigt Hill
#
# Bulk Modulus (GPa) = 34.22767 61.44664 47.83716
# Shear Modulus (GPa) = 28.16102 44.01416 36.08759
#
# Velocity S-wave (km/s) = 3.38444 4.23116 3.83126
# Velocity P-wave (km/s) = 5.40321 6.99025 6.24733
#
# Compressibility (1/GPa) = 0.02921613
#
# Stress axis : x y z
#
# Youngs Moduli (GPa) = 73.88221 55.38543 82.51287
#
# Poissons Ratio (x) = 0.00096 0.38853
# Poissons Ratio (y) = 0.00128 0.20800
# Poissons Ratio (z) = 0.34789 0.13962
#
# Static dielectric constant tensor:
#      x y z
#    x 0.229500 1.574420 0.831720 
#    y 1.574420 0.467490 -0.688440 
#    z 0.831720 -0.688440 1.592790 
# 
# From -- ./inp_files/26573.got.cif
#   From: 2010.05.17/outbox.cif.g08.bks.cpg/sg2_14_cif.got.tgz:26573.got - 2010.06.03 11:33:40.
